#------------------------------------------------------------------------------
#$Date: 2019-11-02 08:10:00 +0200 (Sat, 02 Nov 2019) $
#$Revision: 221050 $
#$URL: file:///home/coder/svn-repositories/cod/cif/4/12/78/4127890.cif $
#------------------------------------------------------------------------------
#
# This file is available in the Crystallography Open Database (COD),
# http://www.crystallography.net/
#
# All data on this site have been placed in the public domain by the
# contributors.
#
data_4127890
loop_
_publ_author_name
'Lysova, Anna A.'
'Samsonenko, Denis G.'
'Dorovatovskii, Pavel V.'
'Lazarenko, Vladimir A.'
'Khrustalev, Victor N.'
'Kovalenko, Konstantin A.'
'Dybtsev, Danil N.'
'Fedin, Vladimir P.'
_publ_section_title
;
 Tuning the Molecular and Cationic Affinity in a Series of Multifunctional
 Metal-Organic Frameworks Based on Dodecanuclear Zn(II) Carboxylate
 Wheels.
;
_journal_issue                   43
_journal_name_full               'Journal of the American Chemical Society'
_journal_page_first              17260
_journal_page_last               17269
_journal_paper_doi               10.1021/jacs.9b08322
_journal_volume                  141
_journal_year                    2019
_chemical_formula_sum            'C29.5 H43.5 N4.5 O15.5 S2 Zn4'
_chemical_formula_weight         1034.79
_space_group_crystal_system      trigonal
_space_group_IT_number           166
_space_group_name_Hall           '-R 3 2"'
_space_group_name_H-M_alt        'R -3 m :H'
_symmetry_space_group_name_Hall  '-R 3 2"'
_symmetry_space_group_name_H-M   'R -3 m :H'
_atom_sites_solution_hydrogens   geom
_atom_sites_solution_primary     dual
_atom_sites_solution_secondary   difmap
_audit_creation_method           SHELXL-2018/3
_cell_angle_alpha                90
_cell_angle_beta                 90
_cell_angle_gamma                120
_cell_formula_units_Z            9
_cell_length_a                   31.7477(14)
_cell_length_b                   31.7477(14)
_cell_length_c                   11.6653(7)
_cell_measurement_reflns_used    2311
_cell_measurement_temperature    130(2)
_cell_measurement_theta_max      23.82
_cell_measurement_theta_min      3.84
_cell_volume                     10182.4(9)
_computing_cell_refinement       'CrysAlisPro 1.171.38.41 (Rigaku OD, 2015)'
_computing_data_collection       'CrysAlisPro 1.171.38.41 (Rigaku OD, 2015)'
_computing_data_reduction        'CrysAlisPro 1.171.38.41 (Rigaku OD, 2015)'
_computing_molecular_graphics    'ShelXle (H\"ubschle, 2011)'
_computing_publication_material  'CIFTAB (Sheldrick, 2015)'
_computing_structure_refinement  'SHELXL-2018 (Sheldrick, 2015)'
_computing_structure_solution    'SHELXT-2018 (Sheldrick, 2015)'
_diffrn_ambient_temperature      130(2)
_diffrn_detector                 'CCD plate'
_diffrn_detector_area_resol_mean 10.6168
_diffrn_detector_type            AtlasS2
_diffrn_measured_fraction_theta_full 0.993
_diffrn_measured_fraction_theta_max 0.993
_diffrn_measurement_device       'four-circle diffractometer'
_diffrn_measurement_device_type  'New Xcalibur, AtlasS2'
_diffrn_measurement_method       '\w scans'
_diffrn_radiation_monochromator  graphite
_diffrn_radiation_probe          x-ray
_diffrn_radiation_source         'fine-focus sealed tube'
_diffrn_radiation_type           MoK\a
_diffrn_radiation_wavelength     0.71073
_diffrn_reflns_av_R_equivalents  0.0289
_diffrn_reflns_av_unetI/netI     0.0275
_diffrn_reflns_Laue_measured_fraction_full 0.993
_diffrn_reflns_Laue_measured_fraction_max 0.993
_diffrn_reflns_limit_h_max       32
_diffrn_reflns_limit_h_min       -38
_diffrn_reflns_limit_k_max       35
_diffrn_reflns_limit_k_min       -35
_diffrn_reflns_limit_l_max       11
_diffrn_reflns_limit_l_min       -14
_diffrn_reflns_number            8254
_diffrn_reflns_point_group_measured_fraction_full 0.993
_diffrn_reflns_point_group_measured_fraction_max 0.993
_diffrn_reflns_theta_full        25.242
_diffrn_reflns_theta_max         25.349
_diffrn_reflns_theta_min         3.396
_diffrn_source                   'sealed X-ray tube'
_exptl_absorpt_coefficient_mu    2.251
_exptl_absorpt_correction_T_max  1.00000
_exptl_absorpt_correction_T_min  0.78683
_exptl_absorpt_correction_type   multi-scan
_exptl_absorpt_process_details
;
CrysAlisPro 1.171.38.41 (Rigaku Oxford Diffraction, 2015)
Empirical absorption correction using spherical harmonics,
implemented in SCALE3 ABSPACK scaling algorithm.
;
_exptl_crystal_colour            colorless
_exptl_crystal_density_diffrn    1.519
_exptl_crystal_description       plate
_exptl_crystal_F_000             4752
_exptl_crystal_size_max          0.45
_exptl_crystal_size_mid          0.14
_exptl_crystal_size_min          0.06
_refine_diff_density_max         0.891
_refine_diff_density_min         -0.345
_refine_diff_density_rms         0.069
_refine_ls_extinction_method     none
_refine_ls_goodness_of_fit_ref   1.079
_refine_ls_hydrogen_treatment    constr
_refine_ls_matrix_type           full
_refine_ls_number_parameters     145
_refine_ls_number_reflns         2182
_refine_ls_number_restraints     187
_refine_ls_restrained_S_all      1.138
_refine_ls_R_factor_all          0.0890
_refine_ls_R_factor_gt           0.0610
_refine_ls_shift/su_max          0.001
_refine_ls_shift/su_mean         0.000
_refine_ls_structure_factor_coef Fsqd
_refine_ls_weighting_details
'w=1/[\s^2^(Fo^2^)+(0.1033P)^2^+18.9100P] where P=(Fo^2^+2Fc^2^)/3'
_refine_ls_weighting_scheme      calc
_refine_ls_wR_factor_gt          0.1805
_refine_ls_wR_factor_ref         0.1955
_reflns_Friedel_coverage         0.000
_reflns_number_gt                1416
_reflns_number_total             2182
_reflns_threshold_expression     'I > 2\s(I)'
_cod_data_source_file            ja9b08322_si_002.cif
_cod_data_source_block           al55rrrr_sq
_cod_original_cell_volume        10182.4(11)
_cod_original_formula_sum        'C29.50 H43.50 N4.50 O15.50 S2 Zn4'
_cod_database_code               4127890
_shelx_shelxl_version_number     2018/3
_shelx_space_group_comment
;
The symmetry employed for this shelxl refinement is uniquely defined
by the following loop, which should always be used as a source of
symmetry information in preference to the above space-group names.
They are only intended as comments.
;
_shelx_estimated_absorpt_t_min   0.431
_shelx_estimated_absorpt_t_max   0.877
_shelx_res_file
;
 
TITL al55rrrr in R-3m; 130K; Xcalibur
    al55rrrr_sq.res
    created by SHELXL-2018/3 at 16:03:34 on 04-Jul-2018
CELL  0.71073  31.7477  31.7477  11.6653   90.000   90.000  120.000
ZERR    9.000   0.0014   0.0014   0.0007    0.000    0.000    0.000
LATT  3
SYMM -Y, X-Y, Z
SYMM -X+Y, -X, Z
SYMM Y, X, -Z
SYMM X-Y, -Y, -Z
SYMM -X, -X+Y, -Z
SFAC C     H     N    O     S  ZN
UNIT 265.5 391.5 40.5 139.5 18 36
 
LIST 4 ! automatically inserted. Change 6 to 4 for CHECKCIF!!
TEMP -143
 
L.S. 6 0 24
BOND $H
FMAP 2
PLAN 5
 
EQIV $1  1/3+y, 2/3-x+y, 2/3-z
EQIV $2  4/3-x, 2/3-x+y, 2/3-z
EQIV $3  1-x+y, +y, +z
EQIV $4  2/3+x-y, 4/3-y, 1/3-z
EQIV $5  1/3+x-y, -1/3+x, 2/3-z
 
SIMU 0.01 0.01 3.0 N1 C1 C2 C3
SIMU 0.01 0.01 3.0 O1M O2M C1M C2M ZN2 C11 O11 O12 O12' C12
 
SADI 0.01 ZN2 O12  ZN2 O12'_$2
SADI 0.01 ZN1 O1M  ZN1 O2M  ZN2 O1M  ZN2 O2M_$5
SADI 0.01 C11 O11  C11 O12  C11 O12'
 
FREE O12 O12'
FREE ZN2 O12'
BIND ZN2_$2 O12'
BIND ZN2 O12'_$2
BIND O2M ZN2_$1
BIND ZN2 O2M_$5
 
FREE C1 C1_$3
FREE C1 C2_$3
FREE C2 C1_$3
FREE C2 C3_$3
FREE C3 C3_$3
FREE C3 C2_$3
 
SADI 0.02 C1 C2  C2 C3  C3 C1
SADI 0.01 C1 C3_$4  C2 C2_$4  C3 C1_$4
SADI 0.01 N1 C1  N1 C2  N1 C3
 
OMIT 0
 
OMIT -18  22   2
OMIT  -5   6   1
OMIT  -5   5   2
OMIT   0   6   0
OMIT -18  35   4
OMIT   0  31   2
OMIT -13  31   7
OMIT -28  34   1
 
ABIN
ACTA
 
SIZE 0.45 0.14 0.06
 
WGHT    0.103300   18.910000
FVAR       0.42594   0.80000
ZN1   6    0.787004    0.574009    0.363962    10.50000    0.06044    0.07621 =
         0.09974   -0.00483   -0.00242    0.03811
PART -1
ZN2   6    0.666089    0.529464    0.349527    10.50000    0.05045    0.12234 =
         0.12188    0.01871   -0.00274    0.04041
PART 0
O11   4    0.757013    0.601292    0.474870    11.00000    0.07397    0.12965 =
         0.10801   -0.01237    0.01052    0.04708
O12   4    0.675776    0.575494    0.469996    10.50000    0.06389    0.13954 =
         0.09620    0.00574    0.01318    0.05559
O12'  4    0.682112    0.577559    0.439283    10.50000    0.06480    0.13698 =
         0.10056    0.00197    0.00897    0.04993
PART 0
C11   1    0.718991    0.601725    0.498916    11.00000    0.06504    0.12260 =
         0.09056    0.01717    0.00741    0.05405
C12   1    0.724205    0.637972    0.591481    11.00000    0.06447    0.13367 =
         0.08936    0.03112    0.01717    0.06349
C13   1    0.689928    0.648856    0.623316    11.00000    0.06770    0.15916 =
         0.08642    0.01417    0.00563    0.07000
AFIX  43
H13   2    0.658147    0.634475    0.591619    11.00000   -1.20000
AFIX   0
S1    5    0.776063    0.666667    0.666667    10.50000    0.06810    0.12599 =
         0.08676    0.00042    0.00021    0.06300
N1    3    0.816029    0.632057    0.243588    10.50000    0.04937    0.06528 =
         0.08215   -0.01429   -0.00714    0.03264
C1    1    0.788091    0.617021    0.136482    10.50000    0.08171    0.07990 =
         0.09538    0.00356   -0.01230    0.01029
AFIX  23
H1A   2    0.753257    0.604109    0.154125    10.50000   -1.20000
H1B   2    0.791395    0.590443    0.101281    10.50000   -1.20000
AFIX   0
C2    1    0.866960    0.649447    0.219505    10.50000    0.06000    0.08124 =
         0.10749    0.01448    0.00314    0.03571
AFIX  23
H2A   2    0.871701    0.621404    0.204450    10.50000   -1.20000
H2B   2    0.886800    0.667082    0.287143    10.50000   -1.20000
AFIX   0
C3    1    0.812261    0.673880    0.284658    10.50000    0.09094    0.07493 =
         0.09739   -0.00240    0.01406    0.03700
AFIX  23
H3A   2    0.828031    0.684401    0.360615    10.50000   -1.20000
H3B   2    0.777625    0.664546    0.292771    10.50000   -1.20000
AFIX   0
PART -1
O1M   4    0.721656    0.520252    0.328736    10.50000    0.06801    0.10565 =
         0.13242   -0.00203    0.01462    0.03760
O2M   4    0.804726    0.531482    0.274663    10.50000    0.08922    0.07913 =
         0.11815   -0.00246    0.00017    0.04743
C1M   1    0.724693    0.480094    0.275634    10.50000    0.08924    0.09768 =
         0.13934   -0.00122   -0.00372    0.03926
AFIX  23
H1M1  2    0.720656    0.456375    0.335835    10.50000   -1.20000
H1M2  2    0.697486    0.463327    0.220714    10.50000   -1.20000
AFIX   0
C2M   1    0.769837    0.495151    0.216197    10.50000    0.09437    0.09264 =
         0.13607   -0.00053    0.00199    0.05080
AFIX  23
H2M1  2    0.776309    0.467765    0.211262    10.50000   -1.20000
H2M2  2    0.768164    0.505833    0.137431    10.50000   -1.20000
PART 0
AFIX   0
HKLF 4
 
 
 
 
REM  al55rrrr in R-3m; 130K; Xcalibur
REM wR2 = 0.1955, GooF = S = 1.079, Restrained GooF = 1.138 for all data
REM R1 = 0.0610 for 1416 Fo > 4sig(Fo) and 0.0890 for all 2182 data
REM 145 parameters refined using 187 restraints
 
END
 
WGHT      0.1033     18.9100
 
REM Highest difference peak  0.891,  deepest hole -0.345,  1-sigma level  0.069
Q1    1   0.7370  0.6667  0.6667  10.50000  0.05    0.89
Q2    1   0.7854  0.5709  0.2874  10.50000  0.05    0.57
Q3    1   0.6736  0.5427  0.4270  11.00000  0.05    0.52
Q4    1   0.7713  0.5426  0.2354  10.50000  0.05    0.37
Q5    1   0.8423  0.6847  0.3013  10.50000  0.05    0.35
;
_shelx_res_checksum              12444
_shelx_hkl_file
;
   0   0  -3 66899.7 352.893   1
   0   0   3 66720.6 349.791   1
   0   0   6 20686.1 279.101   1
   0   0  -6 20821.6 279.423   1
   0   0  -9 228.432 45.3140   1
   0   0   9 185.480 38.7156   1
   0   0 -12 78.2210 43.3347   1
   1   0 -11 91.7858 39.0788   1
  -1   1 -11 4.31734 34.3114   1
   0  -1 -11 108.568 45.3046   1
   0  -1  -8 885.352 72.1303   1
  -1   1  -8 850.836 71.1364   1
   1  -1   8 823.796 74.3385   1
   1   0  -8 894.842 71.0977   1
  -1   0   8 896.341 71.5482   1
   0   1   8 927.953 73.9457   1
  -1   1  -5 3727.09 109.409   1
   0  -1  -5 3878.79 111.384   1
   1   0  -5 3954.88 110.320   1
   1  -1   5 3743.87 113.788   1
  -1   0   5 3784.97 108.307   1
   0   1   5 3875.97 111.641   1
  -1   0   2 56757.1 248.917   1
   1  -1   2 56334.3 278.603   1
   1   0  -2 57278.8 246.567   1
   0   1   2 57145.2 266.917   1
   0  -1  -2 57503.1 270.504   1
  -1   1  -2 56400.2 267.696   1
   0   1  -4 2905.88 86.3116   1
   1  -1  -4 3042.99 87.3766   1
   1   0   4 2829.14 86.2350   1
  -1   0  -4 3100.12 93.1504   1
   0  -1   4 2872.02 85.3297   1
  -1   1   4 3039.16 86.7209   1
   0   1  -7 1177.39 74.3308   1
  -1   0  -7 1184.71 75.1791   1
  -1   1   7 1330.42 79.0276   1
   1  -1  -7 1346.17 79.8083   1
   0  -1   7 1249.69 77.8166   1
   1   0   7 1161.87 75.1916   1
   1  -1 -10 69.0749 33.9676   1
  -1   0 -10 87.4121 37.9353   1
   0   1 -10 118.884 38.2033   1
  -1   0 -13 49.5014 49.3297   1
   1  -1 -13 164.243 62.3884   1
   1  -2  -3 45.6247 17.7757   1
   1   1   3 37.7605 15.4614   1
  -2   1   3 73.4703 19.3773   1
   1  -2   3 53.8033 20.1132   1
  -1  -1   3 53.0038 16.6614   1
  -2   1  -3 1.12248 19.2680   1
  -1   2   3 42.5084 14.2425   1
   2  -1  -3 43.2402 15.9026   1
  -1  -1  -3 47.0299 19.5437   1
  -1   2  -3 27.7074 18.3025   1
   1   1  -3 57.2104 17.2847   1
   2  -1   3-0.51238 17.6590   1
   1  -2   6 321.234 42.1809   1
  -2   1   6 295.824 36.7479   1
   1   1   6 211.807 29.0604   1
  -1  -1  -6 280.345 39.9578   1
  -1  -1   6 309.587 36.7541   1
  -1   2   6 311.878 39.7791   1
  -2   1  -6 296.927 38.6440   1
   2  -1   6 337.494 39.7412   1
  -1   2  -6 353.757 42.7220   1
   2  -1  -6 248.336 35.2517   1
   1   1  -6 255.769 33.7051   1
   1  -2  -6 268.584 36.6335   1
  -1   2  -9-1.35041 26.3274   1
   1  -2  -9 4.95977 28.0563   1
   1   1  -9-12.1200 27.5691   1
  -2   1  -9-31.6231 28.3169   1
  -1  -1  -9-8.05949 27.8237   1
  -2   1   9 13.6508 26.1151   1
  -1   2   9-3.82571 27.0922   1
  -1  -1   9 22.3579 26.7807   1
   2  -1  -9-24.9476 27.2977   1
   1  -2   9 50.1480 34.3376   1
   1  -2 -12 72.7980 46.3436   1
  -1  -1 -12-52.7234 45.3310   1
   2  -1 -12 100.586 43.9821   1
  -2   1 -12-33.5539 39.8392   1
   0  -2 -13 185.222 59.5967   1
   0  -2 -10 1422.08 102.407   1
  -2   2 -10 1360.13 100.920   1
   2   0 -10 1412.36 99.7141   1
   0  -2  -7 1974.70 98.7933   1
   2  -2   7 2006.63 101.015   1
  -2   0   7 1900.51 90.9393   1
   2   0  -7 1865.13 89.9512   1
   0   2   7 1944.61 95.9143   1
  -2   2  -7 1895.23 95.7712   1
   0   2   4 2761.81 82.3158   1
   2   0  -4 2891.82 82.9133   1
  -2   2  -4 2740.79 88.4500   1
   2  -2   4 2678.83 84.1916   1
   0  -2  -4 3010.64 90.9448   1
  -2   0   4 2824.76 79.8849   1
   2  -2  -2 114.231 17.7138   1
  -2   2   2 139.911 18.6226   1
   2   0   2 134.725 20.1730   1
   0  -2   2 154.829 20.0341   1
  -2   0  -2 120.119 21.1916   1
  -2   2   5 1047.33 56.5876   1
   0  -2   5 986.456 58.7877   1
  -2   0  -5 1029.30 61.6423   1
   2  -2  -5 1044.04 57.8244   1
   2   0   5 995.582 57.3515   1
   0   2  -5 1014.58 56.5022   1
   0   2  -8 2404.44 110.343   1
   2   0   8 2514.18 119.961   1
  -2   2   8 2628.14 117.228   1
   2  -2  -8 2524.19 116.141   1
  -2   0  -8 2577.27 120.297   1
   0  -2   8 2648.42 120.704   1
  -2   0 -11 70.6813 38.9919   1
   2  -2 -11 93.6368 37.9024   1
   2  -2 -14-59.5832 51.3904   1
   1  -3 -14 43.5059 45.7315   1
  -1  -2 -14 65.1358 48.4876   1
   1  -3 -11-54.1866 39.1397   1
  -3   2 -11 38.5284 37.4833   1
   2   1 -11-9.55562 35.8854   1
  -1  -2 -11 28.8746 34.7069   1
   3  -1 -11 37.0347 38.2555   1
  -1  -2  -8 235.806 43.3217   1
   3  -1  -8 219.548 39.4987   1
  -1   3   8 236.488 39.6272   1
   1  -3  -8 274.253 46.5995   1
   2   1  -8 226.975 39.3009   1
  -2   3  -8 189.228 41.1335   1
  -3   1   8 254.544 41.7165   1
  -3   2  -8 247.699 45.3792   1
   2  -3   8 240.284 45.3609   1
  -2  -1   8 146.682 34.4000   1
   1   2   8 175.683 35.4254   1
   3  -2   8 197.734 38.7850   1
   1  -3  -5 5065.20 130.324   1
  -2  -1   5 4788.01 119.219   1
   2   1  -5 4897.66 116.164   1
  -3   1   5 4833.74 116.013   1
  -1  -2  -5 4939.65 130.816   1
  -2   3  -5 4934.14 127.446   1
  -1   3   5 4874.75 125.715   1
   3  -2   5 5102.82 134.002   1
  -3   2  -5 4862.79 130.258   1
   2  -3   5 4965.97 133.822   1
   3  -1  -5 4970.23 118.833   1
   1   2   5 4886.66 130.844   1
   1   2   2 35991.6 235.043   1
  -1  -2  -2 35559.4 236.920   1
  -1   3   2 36257.2 227.648   1
  -3   1   2 36395.2 182.060   1
   3  -2   2 36078.8 238.853   1
   3  -1  -2 36746.6 181.724   1
   1  -3  -2 36156.5 228.851   1
  -2  -1   2 35226.7 184.769   1
  -3   2  -2 36017.0 240.775   1
   1   2  -4 6246.90 119.311   1
   3  -1   4 6376.16 136.697   1
  -1   3  -4 6527.02 130.805   1
   1  -3   4 6356.70 131.787   1
  -1  -2   4 6102.03 121.874   1
  -3   1  -4 6654.33 137.463   1
  -3   2   4 6658.32 121.172   1
   2  -3  -4 6577.04 128.634   1
  -2   3   4 6557.27 125.381   1
  -2  -1  -4 6412.13 135.740   1
   3  -2  -4 6813.18 123.419   1
   2   1   4 6683.35 135.680   1
   1  -3   7 7391.58 193.537   1
   2  -3  -7 7265.36 180.131   1
  -2   3   7 7676.30 186.485   1
   1   2  -7 7279.09 174.719   1
  -3   1  -7 7132.09 183.092   1
   3  -2  -7 7736.95 185.520   1
  -3   2   7 7373.95 177.036   1
  -1  -2   7 7533.31 186.288   1
   2   1   7 7450.36 190.980   1
  -1   3  -7 7289.12 180.077   1
   3  -1   7 7029.98 189.160   1
  -2  -1  -7 7472.77 190.961   1
  -2  -1 -10 298.651 58.0982   1
   1   2 -10 226.083 46.3240   1
   3  -2 -10 207.075 45.8610   1
  -3   1 -10 245.047 51.8391   1
   2  -3 -10 224.436 51.1288   1
   3  -2 -13-27.2117 36.6712   1
  -2  -1 -13-6.08146 40.2036   1
   2  -3 -13 23.3118 53.1698   1
   0  -3 -12 125.907 46.1844   1
   3   0 -12 73.2146 46.8626   1
  -3   0   9 1705.34 101.117   1
   0  -3  -9 1869.07 111.543   1
  -3   3  -9 1695.10 105.416   1
   3   0  -9 1719.59 100.859   1
   0  -3  -6-6.04456 24.6617   1
   0   3   6-25.9286 24.2943   1
  -3   0   6 30.4843 22.1808   1
   3  -3   6-26.0595 22.8052   1
  -3   3  -6-25.9358 23.1340   1
   3   0  -6-15.6227 21.5119   1
  -3   0   3 2866.72 64.6775   1
   0  -3  -3 2977.38 80.3326   1
   3  -3   3 2764.01 78.7364   1
   0   3   3 2875.94 78.0117   1
   3   0  -3 2935.19 66.9461   1
  -3   3   3 7483.16 115.093   1
   3  -3  -3 7425.19 116.215   1
   3   0   3 7163.62 128.014   1
   0  -3   3 6878.12 115.024   1
  -3   0  -3 7374.40 131.758   1
  -3   3   6 8017.28 169.585   1
  -3   0  -6 7960.86 182.108   1
   0  -3   6 7692.40 174.325   1
   3  -3  -6 7967.57 171.769   1
   0   3  -6 7787.55 167.664   1
   3   0   6 7638.63 183.246   1
  -3   0  -9 3041.64 143.092   1
   3  -3  -9 3266.28 141.611   1
  -3   3   9 3303.64 142.019   1
   0  -3   9 3145.39 144.290   1
   3  -3 -12 51.0159 42.9283   1
  -3   0 -12-0.41541 37.4408   1
  -2  -2  -3 1892.97 69.8643   1
  -2   4   3 1675.10 58.9907   1
  -2  -2   3 1823.11 56.3470   1
   4  -2  -3 1950.03 55.1911   1
   2  -4   3 1832.49 66.2276   1
  -4   2  -3 1937.45 69.1224   1
   2   2   3 1882.39 66.8647   1
   4  -2   3 1878.65 70.3139   1
  -4   2   3 1852.83 53.7976   1
   2  -4  -3 1933.82 66.4313   1
  -2   4   6 16.6917 19.8971   1
   2  -4   6 5.53556 23.6570   1
   4  -2  -6 161.427 36.1666   1
  -2  -2   6 16.3520 21.4416   1
  -2  -2  -6 44.1455 26.9872   1
  -4   2   6 29.4157 21.3107   1
   2  -4  -6 39.5709 24.9515   1
  -4   2  -6 8.89903 24.8275   1
   4  -2   6 53.1879 28.0946   1
   2   2  -6 31.6417 23.6902   1
   2   2   6 55.0148 25.2816   1
  -4   2  -9 34.2298 32.7511   1
   4  -2  -9 31.3385 31.2305   1
   2  -4  -9 48.9144 34.6734   1
  -2  -2   9 57.9095 32.7623   1
   2  -4   9-31.2379 32.5855   1
   2   2  -9 40.3538 33.4742   1
  -2   4   9 24.4099 28.7092   1
  -4   2   9 20.0456 27.5045   1
  -2  -2  -9 43.0328 37.7909   1
  -2  -2 -12 1.46216 36.5238   1
   4  -2 -12 9.08158 34.2965   1
   2  -4 -12-35.5194 38.1850   1
   1  -4 -13 18.9763 44.3897   1
  -1  -3 -13-64.0066 49.5050   1
   4  -1 -13 19.0295 44.5841   1
  -4   3 -10 56.3603 31.6433   1
   4  -1 -10 11.9477 32.2823   1
   1  -4 -10 5.54459 30.9790   1
   3   1 -10-27.3435 30.7720   1
  -1  -3 -10 62.6749 45.4588   1
   3  -4   7 726.778 65.2896   1
  -1  -3  -7 628.700 59.0932   1
  -3  -1   7 610.779 52.4138   1
  -4   3  -7 601.193 58.7054   1
   4  -1  -7 634.118 53.7284   1
  -4   1   7 633.246 52.1453   1
   3   1  -7 579.628 51.0444   1
   4  -3   7 653.492 61.6137   1
   1  -4  -7 660.253 60.1957   1
   1   3   7 624.599 59.4339   1
  -1   4   7 665.170 58.2705   1
  -4   1   4 1467.57 55.0420   1
   4  -1  -4 1513.45 57.3876   1
  -4   3  -4 1367.22 66.0068   1
   4  -3   4 1462.81 71.7034   1
   1  -4  -4 1504.91 67.6463   1
  -1  -3  -4 1510.25 68.8380   1
   3   1  -4 1487.88 55.7817   1
  -1   4   4 1521.71 64.2871   1
   1   3   4 1513.24 67.3938   1
  -3  -1   4 1449.49 56.7593   1
   3  -4   4 1339.31 61.0174   1
   4  -1   2 33673.7 240.584   1
   3   1   2 33139.1 233.510   1
   4  -1   2 33822.3 159.430   2
  -4   1  -2 34446.9 240.450   1
  -3  -1  -2 33671.3 238.273   1
   3  -4  -2 34198.9 224.944   1
   4  -3  -2 33822.2 200.681   1
   3   1   5 5998.18 148.686   1
  -4   3   5 6316.04 132.033   1
  -4   1  -5 5885.71 143.048   1
   1  -4   5 6034.81 146.254   1
   3  -4  -5 6287.02 141.213   1
  -3   4   5 6285.94 139.125   1
   4  -3  -5 6262.23 135.296   1
  -3  -1  -5 6010.14 149.305   1
  -1  -3   5 6025.45 135.055   1
   4  -1   5 6357.34 153.972   1
  -4   3   8 864.329 67.3826   1
  -3   4   8 822.513 66.1509   1
   4  -1   8 738.350 69.1039   1
   4  -3  -8 873.694 72.3738   1
  -4   1  -8 744.398 67.6262   1
   1  -4   8 826.333 70.4260   1
   3  -4  -8 820.960 69.2362   1
  -3  -1  -8 824.021 72.0182   1
  -1  -3   8 766.482 66.7617   1
   3   1   8 818.790 72.0207   1
   3  -4 -11 116.166 43.1787   1
   4  -3 -11 38.9983 35.7120   1
  -3  -1 -11 76.6114 41.6551   1
  -4   1 -11 78.2279 39.7158   1
   0  -4 -11 271.069 55.4481   1
   4   0 -11 340.804 57.8997   1
   0  -4  -8 1895.85 104.311   1
   4   0  -8 1930.30 96.3763   1
  -4   0   8 1890.52 96.1552   1
   4  -4   8 1839.32 108.910   1
   0   4   8 1914.22 103.349   1
   0  -4  -5 452.014 43.9064   1
  -4   0   5 474.069 37.9025   1
   4   0  -5 479.401 37.8617   1
   0   4   5 479.282 46.3691   1
   4  -4   5 487.061 43.2085   1
   0   4   2 4187.88 87.8435   1
  -4   0   2 4028.17 52.4879   1
   4   0  -2 4138.11 55.3088   1
   0  -4  -2 4063.85 85.5006   1
  -4   0  -1 206.198 20.1829   1
   4   0   1 222.699 18.8590   1
   4   0   4-7.00293 20.2373   1
  -4   4   4 14.5882 17.0805   1
   0  -4   4 21.7571 17.6918   1
   4  -4  -4 19.7397 18.5417   1
  -4   0  -4-21.8438 25.8807   1
  -4   4   7 3328.82 118.980   1
   4   0   7 3440.30 134.466   1
   4  -4  -7 3315.81 120.814   1
  -4   0  -7 3446.91 131.739   1
   0  -4   7 3548.95 130.101   1
  -4   0 -10 32.4476 34.7695   1
   4  -4 -10 94.1635 38.9356   1
  -4   0 -13 44.8134 43.6614   1
   4  -4 -13 46.5599 41.2261   1
   5  -2 -11-1.63160 30.6266   1
   2  -5 -11 38.5275 40.9933   1
  -2  -3 -11-20.2798 39.1421   1
   5  -3   8 303.105 52.6203   1
  -3  -2   8 287.752 41.4618   1
   2   3   8 308.456 48.8679   1
   5  -2  -8 254.622 39.6094   1
   2  -5  -8 287.104 44.9270   1
   3   2  -8 276.216 42.0486   1
  -2  -3  -8 275.553 46.9201   1
  -2   5   8 269.618 42.5243   1
  -5   3  -8 301.505 48.5013   1
   3  -5   8 295.837 47.1416   1
  -5   2   8 221.192 37.7687   1
   2  -5  -5 2676.89 98.3413   1
  -5   2   5 2741.30 83.6490   1
  -5   3  -5 2610.16 100.049   1
  -3  -2   5 2665.80 86.7714   1
   5  -2  -5 2731.34 85.4192   1
   5  -3   5 2567.70 100.173   1
   3  -5   5 2764.35 106.062   1
   3   2  -5 2545.02 80.8250   1
   2   3   5 2645.22 97.8203   1
  -2  -3  -5 2653.65 100.349   1
  -2   5   5 2599.20 93.0743   1
  -2  -3  -2 2918.33 73.2386   1
   5  -2  -2 2819.51 49.9448   1
   5  -3   2 2962.76 76.0136   1
   2   3   2 2864.48 71.4093   1
  -3  -2   2 2745.25 50.1509   1
   5  -3   2 3018.22 62.6281   2
   2  -5  -2 2753.49 72.3288   1
   3   2   1 68249.6 277.407   1
  -5   2  -1 70733.2 263.665   2
  -3   5   1 70142.3 292.897   2
   5  -2   1 70559.4 290.737   1
  -3  -2  -1 70556.7 282.387   1
  -3   5   4 1408.22 60.0620   1
   2  -5   4 1471.24 67.4187   1
  -5   2  -4 1362.18 68.3739   1
  -3  -2  -4 1472.44 69.8354   1
   3   2   4 1460.26 68.6620   1
   5  -3  -4 1497.09 57.9000   1
   5  -2   4 1363.25 67.6499   1
   3  -5  -4 1391.84 63.6316   1
  -5   3   4 1477.07 56.7806   1
  -2  -3   4 1386.13 58.3327   1
  -5   2  -7-1.00113 27.3751   1
   3  -5  -7 39.1714 24.8409   1
   5  -2   7 30.3470 23.9589   1
  -5   3   7 33.4228 19.7124   1
   2  -5   7 33.2941 24.6875   1
   5  -3  -7 13.5820 20.8321   1
  -3  -2  -7 23.3209 25.7340   1
  -2  -3   7 9.41959 23.7239   1
   3   2   7 55.1158 26.5508   1
   3  -5 -10 118.137 40.6258   1
  -5   2 -10 80.6646 37.6713   1
  -3  -2 -10 114.739 40.4450   1
   5  -3 -10 122.885 37.7399   1
   5  -3 -13 22.6753 36.5530   1
   3  -5 -13-48.4733 44.0446   1
  -3  -2 -13 2.69243 42.0863   1
   5  -1 -12 112.069 44.5918   1
   1  -5 -12 130.179 58.3648   1
  -1  -4 -12 79.2027 46.5732   1
   1  -5  -9 112.320 36.4737   1
  -1  -4  -9 127.571 44.1215   1
   4   1  -9 148.291 36.2828   1
   5  -1  -9 120.876 35.5753   1
  -4  -1   9 125.943 38.0209   1
  -5   1   9 113.510 33.7636   1
  -5   1   6 1030.15 58.2113   1
   4   1  -6 1442.40 75.5746   1
   1   4   6 1044.55 69.0214   1
   1  -5  -6 1072.26 70.7276   1
  -4  -1   6 1036.27 60.5930   1
  -5   4  -6 992.118 69.8555   1
   5  -1  -6 1295.05 77.1036   1
  -1  -4  -6 1006.98 69.4309   1
   5  -4   6 1069.45 72.3686   1
   4  -5   6 1029.48 69.6157   1
  -1   5   6 1064.28 66.9978   1
   5  -4   3 4959.53 113.577   1
   1   4   3 4836.87 107.983   1
  -5   1   3 4767.12 77.4661   1
   1  -5  -3 5008.68 111.255   1
  -1  -4  -3 5077.53 110.617   1
   4   1  -3 4672.67 77.4678   1
   4  -5   3 4597.66 111.631   1
  -1   5   3 5137.55 108.616   1
  -4  -1   3 4771.11 79.2048   1
   5  -1  -3 4988.46 80.6210   1
   5  -1   0 17713.7 104.438   1
  -4  -1   0 17392.5 99.0775   1
   4   1   0 17573.1 98.0994   1
   5  -1   3 2329.40 48.4346   2
   5  -4  -3 2283.46 64.5911   1
  -5   1  -3 2303.46 78.0797   1
   4   1   3 2471.20 77.6990   1
   5  -1   3 2515.50 79.1513   1
   4  -5  -3 2349.52 72.1342   1
  -4  -1  -3 2405.55 79.6464   1
  -1  -4   3 2438.11 69.5632   1
  -5   1  -6 1701.30 89.8978   1
  -4   5   6 1940.50 86.5591   1
  -5   4   6 1896.05 80.9215   1
   4  -5  -6 1891.78 86.7199   1
  -4  -1  -6 1835.86 92.0262   1
   5  -1   6 1868.54 94.3850   1
  -1  -4   6 1826.04 84.4460   1
   1  -5   6 1916.87 90.2471   1
   4   1   6 1976.41 95.3891   1
   5  -4  -6 2147.02 92.0058   1
   5  -4  -9 841.252 75.5698   1
  -5   1  -9 845.985 80.2282   1
  -4  -1  -9 853.440 79.3059   1
  -5   4   9 901.434 73.8675   1
   1  -5   9 865.735 77.0626   1
  -1  -4   9 850.647 75.6296   1
  -4   5   9 902.077 74.5711   1
   4  -5  -9 908.787 78.2007   1
   4  -5 -12-10.7238 39.2315   1
   5  -4 -12-45.4894 41.6221   1
  -4  -1 -12 52.6341 39.7471   1
  -5   1 -12 14.3308 38.1144   1
   0  -5 -13 96.8299 49.3835   1
   5   0 -10 65.2885 37.2749   1
  -5   0  10 62.4430 38.2457   1
   0  -5 -10 41.9434 32.3995   1
   0  -5  -7 90.6175 32.2755   1
   5   0  -7 48.3657 20.7094   1
  -5   0   7 30.1563 19.1005   1
   5  -5   7 8.01480 27.3120   1
   0   5   7 67.0574 24.8773   1
  -5   0   4 546.113 32.9029   1
   5  -5   4 605.593 50.0552   1
   5   0  -4 599.350 35.1041   1
   0  -5  -4 523.026 45.2212   1
   0   5   4 517.550 43.0459   1
   0  -5  -1 38949.9 190.111   2
  -5   5  -1 37427.1 243.306   2
   5  -5   1 37430.9 245.071   2
   5   0   2 122437. 476.015   1
  -5   0  -2 122560. 482.451   1
   5  -5  -5 14259.9 208.801   1
   0  -5   5 14205.9 218.068   1
  -5   5   5 14159.1 205.676   1
  -5   0  -5 13953.8 228.457   1
   5   0   5 13863.9 231.910   1
  -5   5   8 8194.91 206.129   1
   5  -5  -8 7885.42 200.608   1
   0  -5   8 8288.77 216.808   1
   5   0   8 7982.34 224.920   1
  -5   0  -8 7830.25 213.170   1
  -5   0 -11 697.026 85.1328   1
   5  -5 -11 767.093 84.7471   1
   3  -6   0 3845.95 77.8574   2
  -3   6   0 3856.36 79.0004   2
   6  -3   3 7890.92 111.732   2
   3   3   3 7925.28 141.090   1
  -6   3  -3 7764.25 145.098   1
  -3  -3  -3 7768.98 141.202   1
   6  -3  -3 7829.13 108.471   1
  -3  -3   3 7569.26 107.261   1
   3  -6  -3 7793.70 138.306   1
   6  -3   3 7549.25 142.688   1
  -6   3   6 249.564 31.7806   1
  -3  -3  -6 304.952 40.4474   1
   6  -3   6 338.814 45.7251   1
   3   3   6 330.299 42.0215   1
  -3  -3   6 335.070 38.3760   1
   6  -3  -6 315.500 36.7538   1
  -6   3  -6 305.775 43.1584   1
   3  -6   6 257.137 38.0610   1
   3  -6  -6 276.897 39.0472   1
  -3   6   6 272.981 34.1494   1
  -3  -3   9 998.268 80.4557   1
   3  -6  -9 965.823 80.6178   1
  -6   3  -9 941.126 84.0026   1
  -6   3   9 974.846 75.1180   1
  -3  -3  -9 958.856 86.5045   1
   6  -3  -9 975.025 76.5757   1
  -3  -3 -12 255.986 61.8353   1
   3  -6 -12 240.772 57.4568   1
   6  -3 -12 326.536 62.5976   1
  -2  -4 -13 10.4395 43.6831   1
   6  -2 -13 21.8844 39.0572   1
   2  -6 -13 13.0096 38.8641   1
   2  -6 -10 44.6873 33.6487   1
   6  -2 -10 42.1303 33.1233   1
  -6   2  10 81.3345 36.7289   1
  -4  -2  10 3.50892 34.6840   1
  -2  -4 -10 6.10954 36.4831   1
   4   2  -7 146.397 29.5955   1
   2   4   7 101.553 27.6901   1
   6  -2  -7 145.747 30.4560   1
  -6   4  -7 137.346 35.7770   1
  -6   2   7 137.118 29.2839   1
  -2  -4  -7 156.005 35.4795   1
   4  -6   7 214.082 42.7110   1
   6  -4   7 171.237 36.1497   1
  -4  -2   7 165.779 32.7132   1
   2  -6  -7 123.447 34.4871   1
  -2   6   7 179.991 41.1914   1
   2   4   4 2184.00 83.2954   1
  -2   6   4 2261.02 83.5808   1
  -6   2   4 2189.37 64.0191   1
   4  -6   4 1854.07 79.9124   1
   6  -2  -4 2175.55 65.3044   1
  -2  -4  -4 2128.06 84.7439   1
  -4  -2   4 2203.33 65.8478   1
   6  -4   4 2110.08 87.5213   1
   2  -6  -4 2296.39 84.7248   1
   2  -6  -1 10233.7 116.330   2
  -2  -4  -1 9746.16 122.799   1
  -2   6   1 10338.4 114.381   2
  -6   4  -1 9934.86 125.310   2
   4  -6   1 9774.43 133.536   2
   6  -4   1 10265.9 121.264   2
   4   2   2 44912.3 291.384   1
   6  -2   2 45011.5 218.593   2
  -6   2  -2 45125.2 295.183   1
  -4  -2  -2 44063.0 287.461   1
  -6   2  -2 44840.5 226.946   2
  -4  -2  -5 2897.91 105.847   1
   6  -4  -5 2982.89 91.0390   1
   4   2   5 3099.55 109.238   1
   2  -6   5 2994.82 104.625   1
   4  -6  -5 3020.47 102.143   1
  -4   6   5 3082.18 99.1038   1
   6  -2   5 3020.65 111.522   1
  -6   4   5 3160.75 93.2319   1
  -2  -4   5 3007.36 96.0069   1
  -6   2  -5 2809.39 105.907   1
   6  -2   8 34.2516 30.6396   1
   4   2   8 73.7694 30.5635   1
   6  -4  -8 21.3048 24.4618   1
   4  -6  -8 14.6162 27.8362   1
  -4   6   8-11.5792 27.0990   1
  -6   4   8-34.1044 28.3061   1
  -4  -2  -8 43.9211 31.1611   1
   2  -6   8-33.7377 31.6286   1
  -2  -4   8 2.30567 25.1733   1
  -6   2  -8 15.9587 30.5583   1
  -6   2 -11 72.4384 40.8035   1
   4  -6 -11 154.162 46.2809   1
  -4  -2 -11 43.3815 42.7292   1
   6  -4 -11 65.6195 32.2539   1
   1  -6 -11 125.062 47.2973   1
   6  -1 -11 20.1452 32.9752   1
  -1  -5 -11 96.4310 46.1387   1
  -6   1   8 462.335 47.1964   1
  -1  -5  -8 494.745 59.2051   1
   5   1  -8 424.831 45.6487   1
   1   5   8 407.983 53.6167   1
   5  -6   8 490.067 60.2977   1
   6  -5   8 414.827 56.8990   1
  -1   6   8 494.157 56.7552   1
   1  -6  -8 471.966 56.1251   1
  -5  -1   8 449.057 46.4893   1
   6  -1  -8 437.976 47.0166   1
   6  -5   5 198.853 36.9892   1
  -1  -5  -5 143.395 28.1867   1
   5   1  -5 149.580 23.3441   1
  -1   6   5 163.855 31.1350   1
  -5  -1   5 149.582 23.0131   1
   5  -6   5 134.743 26.9317   1
   1   5   5 150.860 29.2553   1
   1  -6  -5 162.264 31.2519   1
   6  -1  -5 195.826 27.0308   1
  -6   1   5 164.038 24.7842   1
  -1   6   2 247.996 20.8604   2
   1  -6  -2 260.293 29.7819   1
   6  -5   2 294.734 26.9402   2
  -1  -5  -2 242.570 29.0786   1
   1   5   2 227.780 25.7106   1
   6  -1  -2 219.151 14.1931   1
  -6   1  -1 674.377 33.0419   1
  -5  -1  -1 631.976 32.3870   1
   5   1   1 606.389 31.3629   1
   6  -1   1 661.119 32.6957   1
  -1  -5   4 8235.22 145.312   1
   1  -6   4 8215.55 157.506   1
   6  -1   4 8349.21 104.466   2
   5  -6  -4 8453.32 150.727   1
  -5  -1  -4 8219.00 160.879   1
   6  -5  -4 8290.74 141.005   1
  -6   1  -4 8149.95 158.091   1
   6  -1   4 8245.98 163.403   1
   5   1   4 8330.77 162.042   1
  -6   5   7 1059.32 67.7621   1
   6  -1   7 1012.62 77.4189   1
  -6   1  -7 957.504 73.5664   1
  -5  -1  -7 1163.06 80.2772   1
   5   1   7 1065.97 78.2582   1
   6  -5  -7 1029.69 69.3701   1
   1  -6   7 1181.77 78.3821   1
  -5   6   7 1114.31 70.9672   1
  -1  -5   7 1006.78 70.3558   1
   5  -6  -7 1081.40 72.6684   1
   6  -5 -10 409.026 59.7940   1
   5  -6 -10 336.826 56.4210   1
  -5  -1 -10 366.992 62.8911   1
  -6   1 -10 308.815 55.4565   1
   5  -6 -13-27.5085 38.9336   1
  -5  -1 -13-5.98000 39.0159   1
   6  -5 -13 20.4388 38.3864   1
   0  -6 -12 4.97743 37.4509   1
   0  -6  -9 17.2803 29.6176   1
  -6   0   9 15.4256 25.3603   1
   6   0  -9 21.4848 24.3317   1
   0  -6  -6 5037.02 152.584   1
   0   6   6 4959.25 149.211   1
   6   0  -6 4720.07 118.476   1
   6  -6   6 5064.27 158.386   1
  -6   0   6 4810.68 118.633   1
   6   0  -3 586.937 25.6679   1
   0   6   3 572.363 40.8645   1
   0   6   3 604.421 25.8420   2
   0  -6  -3 605.963 46.0070   1
  -6   0   3 591.206 25.7106   1
  -6   0   0 5577.99 64.5773   1
  -6   6   0 5153.98 101.734   2
   6   0   0 5456.40 63.6395   1
   6   0   3 46720.2 352.440   1
  -6   0  -3 46482.3 351.772   1
   6  -6  -3 46008.3 314.490   1
  -6   0  -6 7915.65 191.686   1
   0  -6   6 7845.08 180.441   1
   6  -6  -6 7957.74 172.522   1
   6   0   6 8113.07 195.153   1
  -6   6   6 8152.32 172.447   1
  -6   6   9 1589.90 98.4452   1
  -6   0  -9 1500.10 103.479   1
   0  -6   9 1499.15 104.268   1
   6  -6  -9 1512.94 96.0499   1
   6  -6 -12 116.677 46.7287   1
  -6   0 -12 59.5865 41.1588   1
   3  -7 -11 67.7232 44.3115   1
  -3  -4 -11 79.2547 43.8419   1
   7  -3 -11 48.4931 36.0987   1
  -7   4  -8 39.1351 29.1038   1
  -4  -3   8 39.5278 25.5382   1
   4  -7   8 13.4670 27.9944   1
   7  -3  -8 4.84496 24.3132   1
   7  -4   8 63.0701 34.9448   1
   3   4   8 52.1550 31.6505   1
   3  -7  -8 29.9391 26.5615   1
  -3  -4  -8 30.6272 32.0810   1
  -3   7   8 37.3601 22.6761   1
  -7   3   8 14.0589 21.8671   1
   4  -7   5 144.850 31.7747   1
   3  -7  -5 183.181 36.1761   1
  -3  -4  -5 98.1881 27.0245   1
   3   4   5 146.600 29.8405   1
  -4  -3   5 131.609 23.0919   1
  -7   4  -5 140.378 32.3580   1
   7  -4   5 127.617 32.3208   1
  -3   7   5 242.601 40.3530   1
  -7   3   5 146.846 25.1360   1
   7  -3  -5 128.140 23.2492   1
  -7   4  -2 9450.52 126.154   2
   7  -4   2 9458.81 123.754   2
  -3   7   2 9507.23 123.283   2
   3   4   2 9063.49 136.147   1
   7  -4   2 9480.00 145.108   1
  -3  -4  -2 9075.28 137.668   1
   4   3   1 1954.67 55.5361   1
  -4  -3  -1 1919.13 53.8000   1
  -4   7   1 1910.83 61.2933   2
   4   3   4 21.8826 19.4648   1
   7  -3   4 40.0288 16.5549   2
   7  -3   4 29.9477 22.2562   1
   7  -4  -4-5.89907 17.5440   1
   4  -7  -4 9.90796 21.1493   1
  -7   3  -4 4.99510 24.6877   1
  -3  -4   4 13.7935 15.6399   1
  -4  -3  -4-5.29509 25.2998   1
  -7   4   7 1081.66 66.6778   1
  -3  -4   7 1112.78 70.1975   1
   4   3   7 1007.53 75.8691   1
  -4   7   7 1052.25 72.1458   1
  -4  -3  -7 1015.64 78.2682   1
   3  -7   7 1166.31 82.5552   1
   7  -3   7 1206.85 84.5645   1
   7  -4  -7 1039.65 65.5393   1
   4  -7  -7 1047.83 75.3639   1
  -7   3  -7 1023.38 76.3748   1
  -4  -3 -10 71.1824 39.3349   1
   7  -4 -10 125.798 40.4746   1
   4  -7 -10 139.399 43.0654   1
  -3  -4  10 159.144 46.5152   1
  -7   3 -10 159.195 46.5700   1
   4  -7 -13-21.7890 38.9864   1
   7  -4 -13-76.2856 47.3524   1
  -4  -3 -13 117.835 54.6558   1
  -2  -5 -12 80.2944 43.4365   1
   7  -2 -12 63.7278 38.0276   1
   2  -7 -12-24.4422 45.5253   1
  -2  -5  -9 704.466 74.0267   1
  -5  -2   9 713.521 65.3491   1
  -7   2   9 649.095 59.8959   1
   2  -7  -9 661.132 72.7883   1
   7  -2  -9 694.061 63.9472   1
  -2   7   6 836.740 62.3737   1
   2  -7  -6 830.397 62.7023   1
  -2  -5  -6 806.184 62.4089   1
  -5  -2   6 819.327 52.4417   1
   2   5   6 808.593 61.6916   1
   5  -7   6 762.835 59.9193   1
   5   2  -6 763.331 49.3999   1
   7  -2  -6 768.608 51.0358   1
  -7   2   6 781.488 49.5206   1
   7  -5   6 836.104 67.2881   1
   7  -2  -3 4000.42 68.2872   1
   7  -5   3 3966.51 91.0187   2
   2   5   3 3863.26 103.521   1
  -5  -2   3 3874.93 65.7461   1
   7  -5   3 3666.70 103.719   1
  -2  -5  -3 4014.03 105.354   1
   2  -7  -3 4061.09 108.134   1
  -5   7   0 363.346 33.0245   2
   5   2   0 462.809 22.9590   1
   5  -7   0 407.863 33.6427   2
  -5  -2   0 368.193 20.3991   1
   7  -5  -3 123.842 23.0902   1
   5  -7  -3 74.9693 23.5974   1
  -7   2  -3 119.416 29.3034   1
   7  -2   3 93.4129 17.8277   2
   5   2   3 70.3578 23.1030   1
   7  -2   3 106.526 25.5274   1
  -5  -2  -3 70.6297 25.4729   1
   5  -7  -6 780.497 60.6204   1
  -7   2  -6 824.698 65.4508   1
  -5   7   6 756.063 55.8950   1
   7  -2   6 777.815 64.7394   1
   7  -5  -6 764.969 53.2310   1
  -2  -5   6 812.375 58.2082   1
   2  -7   6 855.446 64.3168   1
  -5  -2  -6 751.407 66.5913   1
  -7   5   6 787.399 53.1535   1
   5   2   6 730.605 62.7217   1
   2  -7   9 172.639 43.8759   1
   7  -5  -9 160.743 39.6677   1
  -7   2  -9 153.979 43.6493   1
  -2  -5   9 169.665 40.0147   1
  -5  -2  -9 140.925 42.9461   1
  -7   5   9 195.819 40.4792   1
   5  -7  -9 124.950 38.1869   1
   7  -5 -12 80.0414 41.7586   1
   5  -7 -12 95.1657 43.9870   1
  -5  -2 -12 68.7928 46.3647   1
   1  -7 -13 24.3629 43.7769   1
  -1  -6 -13-15.5901 45.7838   1
  -7   1  10-10.1732 27.9671   1
  -1  -6 -10 44.4856 37.1326   1
   1  -7 -10-55.5773 39.5716   1
   7  -1 -10 19.8932 30.2843   1
  -6  -1  10-31.2535 30.1962   1
  -1  -6  -7 352.046 49.1686   1
   7  -1  -7 359.341 39.0043   1
   7  -6   7 429.242 56.0197   1
  -6  -1   7 371.725 40.2541   1
   1   6   7 391.695 48.6769   1
  -7   1   7 387.230 39.3345   1
   6  -7   7 351.573 47.7868   1
   1  -7  -7 375.018 50.9321   1
   6   1  -7 313.049 35.3399   1
  -1   7   7 410.492 50.4312   1
   1  -7  -4 530.673 45.0008   1
   1   6   4 542.358 46.4471   1
   7  -6   4 540.948 48.0425   1
   7  -1  -4 559.168 32.0302   1
  -1  -6  -4 512.739 45.6406   1
   6  -7   4 561.847 51.1287   1
   6   1  -4 522.014 29.7924   1
  -7   1   4 560.711 30.8697   1
  -1   7   4 508.667 43.5584   1
  -6  -1   4 535.830 30.4434   1
   1  -7  -1 869.722 36.4150   2
  -7   6  -1 722.637 44.1229   2
  -6   7  -1 869.457 46.3492   2
   7  -6   1 890.269 44.9981   2
   6  -7   1 788.791 44.9802   2
   6   1   2 32913.4 258.006   1
  -6  -1  -2 32463.0 257.539   1
  -7   1  -2 33501.4 261.688   1
   7  -1   2 33603.6 260.978   1
   6  -7  -5 125.533 25.6217   1
   1  -7   5 111.021 30.8003   1
   6   1   5 177.492 17.0127   2
   7  -1   5 137.539 18.4338   2
  -7   1  -5 91.1427 27.8125   1
   7  -1   5 127.820 31.7258   1
   6   1   5 158.032 32.4862   1
  -1  -6   5 109.551 28.4229   1
   7  -6  -5 198.047 36.1006   1
  -6  -1  -5 169.007 35.4506   1
  -6  -1  -8 18.1710 29.6006   1
   6   1   8 12.0701 29.0863   1
  -1  -6   8 38.8762 26.5631   1
   7  -1   8 12.7369 32.6004   1
   7  -6  -8 7.85270 24.8454   1
  -7   1  -8 6.45688 27.4263   1
  -7   6   8-7.58483 23.7787   1
   6  -7  -8 19.8888 25.2953   1
  -6   7   8 20.4062 41.8118   1
   1  -7   8 33.1456 29.2063   1
   6  -7 -11 78.0843 41.8329   1
  -6  -1 -11 69.2909 38.9166   1
   7  -6 -11 87.9069 42.3048   1
  -7   1 -11 27.6513 37.5103   1
   0  -7 -11 61.5521 44.9649   1
   7  -7   8 87.8519 32.5235   1
   0  -7  -8 97.7111 34.3553   1
  -7   0   8 116.970 32.3682   1
   7   0  -8 72.1188 26.4817   1
   0   7   8 87.7858 31.6058   1
   7   0  -5 1816.89 62.6654   1
   0  -7  -5 1942.72 89.9830   1
   0   7   5 1914.48 87.7467   1
   7  -7   5 1865.05 91.8862   1
  -7   0   5 1872.20 62.8247   1
   0  -7  -2 14524.3 186.658   1
   7  -7   2 14299.7 181.178   2
  -7   0  -1 7404.02 104.736   1
   7   0   1 7103.22 102.805   1
   7   0   4 7859.40 89.4046   2
  -7   0  -4 8394.32 169.056   1
   7  -7  -4 7990.91 148.170   1
   7   0   4 8100.17 166.949   1
  -7   7   7 1345.67 75.2851   1
   0  -7   7 1461.22 88.2893   1
  -7   0  -7 1298.00 84.7707   1
   7   0   7 1370.19 90.2702   1
   7  -7  -7 1359.37 81.4983   1
  -7   0 -10 750.495 82.4137   1
   7  -7 -10 898.635 84.6628   1
   7  -7 -13-16.6775 39.3875   1
  -7   0 -13 3.08755 44.8741   1
  -4   8   0 616.702 37.9292   2
   4  -8   0 649.731 39.4047   2
  -4  -4   0 636.443 28.4262   1
   8  -4   3 8277.41 124.235   2
   8  -4  -3 8315.44 111.104   1
   8  -4   3 8043.00 153.180   1
  -4  -4  -3 8401.59 153.726   1
   4  -8  -3 8290.94 151.699   1
   4   4   3 8318.15 149.658   1
   8  -4   6 2365.85 109.857   1
   4  -8  -6 2309.35 103.642   1
  -8   4  -6 2301.87 105.592   1
  -4  -4  -6 2417.83 109.741   1
   4   4   6 2383.71 106.809   1
  -4   8   6 2394.03 100.977   1
   8  -4  -6 2332.14 87.6576   1
  -8   4   6 2377.22 86.6159   1
  -4  -4   6 2356.11 90.1924   1
   4  -8   6 2349.00 107.851   1
  -4  -4  -9 4.08145 31.8524   1
  -4  -4   9-7.94415 26.4506   1
  -8   4   9 13.5927 28.2179   1
   8  -4  -9 0.07966 25.4284   1
   4  -8  -9-16.4439 32.0722   1
   4  -8 -12-23.0563 36.9538   1
   8  -4 -12-31.1868 34.0397   1
  -4  -4 -12-8.44976 37.2005   1
   8  -3 -13-39.7327 44.1101   1
  -3  -5 -13-10.4556 40.1682   1
   3  -8 -13 35.1301 41.5274   1
  -3  -5 -10 112.168 43.3045   1
   3  -8 -10 149.777 46.9814   1
   8  -3 -10 145.441 39.0175   1
  -5  -3  10 147.879 39.9599   1
  -8   3  10 151.813 38.9082   1
  -8   3   7 576.480 47.9773   1
  -3   8   7 624.378 58.9316   1
   3  -8  -7 543.150 56.1446   1
  -5  -3   7 614.945 50.4061   1
   8  -3  -7 561.081 48.1422   1
   8  -5   7 547.391 61.0261   1
   3   5   7 605.660 60.2785   1
   5  -8   7 677.215 66.0541   1
  -3  -5  -7 525.943 59.5447   1
   8  -3  -4 373.282 27.1532   1
  -3  -5  -4 313.032 35.8432   1
   3  -8  -4 338.120 37.4211   1
   8  -5   4 406.571 34.2546   2
  -5  -3   4 359.871 28.1627   1
   3   5   4 381.813 41.2181   1
   8  -5   4 310.276 39.0726   1
   5  -8   1 99.2993 23.7705   2
  -8   5  -1 83.5725 21.4749   2
   3  -8  -1 88.4226 18.9851   2
  -3  -5  -1 52.3206 18.2267   1
  -3   8   1 75.9479 18.4091   2
  -5  -3  -2 23503.4 224.535   1
   5   3   2 23405.3 224.203   1
  -8   3  -2 23414.1 198.100   2
   8  -3   2 23953.1 227.335   1
   8  -3   5 31101.0 359.270   1
   8  -5  -5 30462.2 287.066   1
   5   3   5 30712.0 349.356   1
   3  -8   5 30907.4 352.116   1
   5  -8  -5 31022.2 337.711   1
   8  -3   5 30877.7 258.183   2
  -5  -3  -5 30664.9 350.152   1
  -3  -5   5 30441.0 296.902   1
  -8   3  -5 29580.3 345.570   1
   8  -5  -8 3942.38 138.293   1
  -8   3  -8 3761.08 152.413   1
   3  -8   8 4093.48 165.915   1
   5  -8  -8 4097.97 153.680   1
  -5  -3  -8 3858.86 158.896   1
  -8   5   8 3999.55 136.513   1
  -3  -5   8 3963.79 142.659   1
  -5   8   8 4040.24 147.227   1
   5  -8 -11 250.801 58.8960   1
   8  -5 -11 175.585 46.4221   1
  -5  -3 -11 252.549 59.9660   1
  -2  -6 -11 46.1486 34.9093   1
   2  -8 -11 102.028 46.3770   1
   8  -2 -11 37.1360 31.4577   1
  -2  -6  -8 489.776 61.4180   1
  -8   2   8 462.600 46.7096   1
   6  -8   8 513.950 61.7755   1
   8  -2  -8 454.322 47.0276   1
  -2   8   8 490.874 57.3985   1
  -6  -2   8 454.898 47.9540   1
   8  -6   8 501.766 66.0751   1
   2  -8  -8 552.571 63.2935   1
  -8   2   5 80.1802 18.9498   1
  -2  -6  -5 158.138 36.5459   1
   2  -8  -5 107.136 29.8063   1
   8  -2  -5 85.7001 19.2238   1
  -6  -2   5 102.167 20.2906   1
   6  -8   5 140.502 33.9891   1
   8  -6   5 144.115 33.6549   1
   2   6   5 121.627 27.9977   1
  -2   8   5 155.690 32.1537   1
  -8   6  -2 9907.57 151.232   2
  -2  -6  -2 10584.4 95.2448   2
   8  -6   2 10210.2 146.805   2
  -2   8   2 10513.6 127.899   2
   8  -2  -2 10258.4 80.4173   1
   6  -8   2 10243.2 161.751   2
  -2  -6  -2 10557.1 157.727   1
  -6   8   1 24787.0 237.645   2
   6   2   1 24735.9 192.940   1
   8  -2   1 25376.6 196.206   1
  -6  -2  -1 24547.1 193.927   1
   6  -8  -4 39054.0 346.494   1
   8  -2   4 39471.9 244.671   2
   8  -2   7 4706.34 163.931   1
  -6   8   7 4532.13 144.203   1
  -8   2  -7 4331.35 154.798   1
  -8   6   7 4639.61 137.408   1
   6  -8  -7 4372.49 146.577   1
  -2  -6   7 4292.59 138.992   1
  -6  -2  -7 4191.81 154.655   1
   2  -8   7 4727.26 161.941   1
   6   2   7 4367.84 158.062   1
   8  -6  -7 4434.76 138.292   1
   6  -8 -10 927.348 87.8388   1
  -8   2 -10 886.544 91.3233   1
  -6  -2 -10 899.770 92.0310   1
   8  -6 -10 958.159 85.8195   1
   6  -8 -13 20.5274 39.2216   1
  -6  -2 -13-1.44694 41.1902   1
   8  -6 -13 78.5087 46.8688   1
   1  -8 -12 8.26618 39.0811   1
  -1  -7 -12-10.9847 39.1628   1
  -7  -1   9 199.537 38.4400   1
   1  -8  -9 186.383 46.0470   1
  -1  -7  -9 144.564 42.9617   1
   8  -1  -9 243.916 41.1111   1
  -8   1   9 204.087 39.8572   1
   8  -7   6 81.0271 27.8296   1
  -7  -1   6 35.7188 18.5225   1
   7  -8   6 90.2426 31.7319   1
  -1   8   6 84.6211 29.3420   1
  -8   1   6 90.6756 21.1798   1
   1  -8  -6 20.6709 26.7473   1
   7   1  -6 63.4637 19.3268   1
   8  -1  -6 64.3406 20.7307   1
  -1  -7  -6 49.9799 29.5056   1
   1   7   6 79.1320 29.8079   1
  -1  -7  -3 1303.97 64.0941   1
   8  -7   3 1422.23 61.6576   2
  -1   8   3 1402.20 46.3794   2
   7  -8   3 1438.78 65.4048   2
   8  -1  -3 1328.55 34.9938   1
  -7  -1   3 1269.61 32.3298   1
   1   7   3 1321.20 62.8498   1
   1  -8  -3 1348.27 67.7489   1
   7  -8   0 3543.47 90.6725   2
  -7   8   0 3607.79 93.7288   2
  -8   7   0 3508.79 92.8326   2
  -7  -1   0 3729.58 59.8408   1
   7   1   0 3754.58 58.5187   1
   8  -1   0 3836.41 61.8105   1
  -8   1  -3 13489.2 129.879   2
   8  -1   3 14040.1 201.100   1
  -7  -1  -3 13257.3 194.769   1
  -8   1  -3 13595.1 195.901   1
   7   1   3 13305.6 193.402   1
  -1  -7   6 621.702 52.9318   1
   8  -1   6 758.191 38.2028   2
   7   1   6 549.546 28.7138   2
   8  -7  -6 640.207 51.2970   1
   7   1   6 718.906 61.3816   1
   8  -1   6 667.234 59.5716   1
   1  -8   6 626.086 54.2672   1
  -7  -1  -6 651.654 60.3906   1
   7  -8  -6 630.080 54.0048   1
  -8   1  -6 633.376 58.6378   1
  -7  -1  -9 189.470 45.6337   1
  -8   7   9 320.893 48.6363   1
   1  -8   9 275.270 49.8437   1
  -8   1  -9 174.744 44.1367   1
  -1  -7   9 254.889 47.5995   1
  -7   8   9 317.700 48.6768   1
   8  -7  -9 346.017 52.0688   1
   7  -8  -9 259.048 47.6026   1
   8  -7 -12 60.9365 39.6113   1
   7  -8 -12-11.6633 35.1653   1
  -7  -1 -12 22.0549 39.3260   1
  -8   1 -12 41.8138 48.3973   1
   0  -8 -13 149.619 62.3657   1
   8   0 -10 388.579 52.7740   1
   0  -8 -10 332.224 58.4694   1
  -8   0  10 289.850 48.0408   1
   0  -8  -7 437.173 55.0309   1
   8  -8   7 477.085 58.3477   1
   8   0  -7 454.200 42.2407   1
  -8   0   7 450.718 41.6154   1
   0   8   7 410.586 51.2693   1
  -8   0   4 466.932 26.2075   1
   8  -8   4 442.982 48.9047   1
   8   0  -4 451.731 26.3374   1
   0   8   4 466.828 45.3662   1
   0   8   4 494.763 27.3105   2
   0  -8  -4 460.094 46.3023   1
  -8   8  -1 8122.10 145.815   2
   8  -8   1 8418.38 143.242   2
   8   0   2 17215.7 197.120   1
   8   0   5 253.427 37.8185   1
   8  -8  -5 247.600 35.9595   1
  -8   0  -5 254.650 40.9808   1
   8   0   5 225.587 19.4853   2
   0  -8   5 252.734 38.6002   1
   0  -8   8 5.05658 25.6623   1
   8  -8  -8 44.6884 28.0457   1
  -8   0  -8 6.12563 27.8714   1
   8  -8 -11 653.332 79.5338   1
  -8   0 -11 655.569 84.5565   1
   9  -4 -11 121.876 40.2535   1
  -4  -5 -11 205.127 54.4426   1
   4  -9 -11 190.852 52.8558   1
  -5  -4   8 2311.38 105.314   1
   5  -9   8 2514.69 134.543   1
  -4  -5  -8 2178.15 120.107   1
  -4   9   8 2371.40 116.835   1
   4  -9  -8 2330.79 120.931   1
  -9   4   8 2344.15 100.123   1
   9  -4  -8 2246.79 102.012   1
   4  -9  -5 4287.35 131.884   1
  -4  -5  -5 4491.67 138.179   1
   9  -5   5 4487.68 110.132   2
   9  -4  -5 4398.88 102.942   1
   9  -5   5 4481.08 143.847   1
   4   5   5 4333.11 133.420   1
  -5  -4   5 4355.94 103.463   1
   5  -9   5 4675.39 144.365   1
   4   5   2 22363.6 227.057   1
  -4  -5  -2 21900.8 231.837   1
  -4   9   2 22456.0 215.068   2
   5   4   1 4457.03 86.2519   1
  -5   9   1 4488.72 103.167   2
  -5  -4  -1 4410.47 88.4379   1
   5  -9  -1 4523.07 99.3786   2
   9  -4   4 2340.76 70.8928   2
   9  -4   4 2321.73 93.5322   1
   5  -9  -4 2453.65 92.6322   1
   5   4   4 2652.02 97.5357   1
   9  -5  -4 2504.43 73.4351   1
  -5  -4  -4 2534.16 97.6375   1
  -4  -5   4 2391.42 72.5018   1
   9  -5  -7-35.2603 24.2768   1
  -9   5   7 6.58222 20.9399   1
  -4  -5   7 25.6980 23.8722   1
   4  -9   7-7.46136 24.7570   1
  -5  -4  -7-51.8132 34.5452   1
  -9   4  -7-4.45130 26.3512   1
   5  -9  -7 28.4245 25.8909   1
   5   4   7 16.6409 23.6725   1
   9  -4   7 8.53783 24.9177   1
  -9   5  10 152.904 38.2847   1
  -4  -5  10 226.398 46.9729   1
  -5  -4 -10 142.763 44.9050   1
   9  -5 -10 156.384 41.7866   1
   5  -9 -10 488.154 71.7545   1
   5  -9 -13 26.2564 44.0414   1
  -5  -4 -13 62.2237 49.7210   1
   9  -5 -13-3.49598 40.9558   1
  -3  -6 -12 241.938 62.6927   1
   9  -3 -12 115.735 42.4744   1
   3  -9 -12 145.530 52.7273   1
  -9   3   9 426.717 51.5850   1
   3  -9  -9 462.398 62.7549   1
  -3  -6  -9 457.083 65.8936   1
  -6  -3   9 492.694 57.7616   1
   9  -3  -9 394.561 49.3126   1
   3   6   6 2596.65 112.190   1
  -9   3   6 2603.49 85.7472   1
   3  -9  -6 2584.87 114.268   1
   6  -9   6 2619.68 118.083   1
   9  -6   6 2642.36 122.089   1
  -3   9   6 2652.43 109.843   1
  -6  -3   6 2699.07 89.9810   1
   9  -3  -6 2574.85 88.2362   1
  -3  -6  -6 2603.98 116.040   1
  -3   9   3 2446.06 70.4106   2
   3  -9  -3 2340.78 87.1307   1
   9  -6   3 2383.62 76.7148   2
   9  -6   3 2374.47 89.9881   1
  -3  -6  -3 2351.95 86.9297   1
   9  -3  -3 2524.01 54.7512   1
  -6  -3   3 2320.11 51.0563   1
   3   6   3 2423.35 86.5085   1
   3  -9   0 1583.56 63.5427   2
  -6   9   0 1597.31 66.3100   2
   6  -9   0 1579.39 64.1605   2
  -6  -3   0 1690.54 43.7920   1
   6   3   3 29477.8 287.624   1
  -9   3  -3 28752.7 227.838   2
   9  -3   3 28773.8 293.512   1
  -6  -3  -3 29622.0 289.661   1
   3  -9   6 2652.00 113.478   1
   6  -9  -6 2645.42 109.562   1
   9  -3   6 2422.89 77.4289   2
   6   3   6 2630.10 113.883   1
  -6  -3  -6 2597.70 114.950   1
   9  -3   6 2528.17 114.184   1
  -9   3  -6 2421.38 108.511   1
  -3  -6   6 2645.62 100.356   1
   9  -6  -6 2651.88 95.0431   1
  -6  -3  -9 623.175 72.9342   1
   6  -9  -9 616.633 67.8429   1
   9  -6  -9 607.156 60.5746   1
  -3  -6   9 676.194 67.6733   1
  -9   6   9 717.003 67.6394   1
  -9   3  -9 555.653 68.2904   1
  -6  -3 -12 24.4643 42.2404   1
   6  -9 -12-44.3683 40.3265   1
   9  -6 -12 22.6123 35.6189   1
   2  -9 -13 41.6007 45.7012   1
  -2  -7 -13 164.244 57.2907   1
   2  -9 -10 55.2746 40.4534   1
  -9   2  10 28.7696 32.6328   1
  -2  -7 -10 142.194 49.0549   1
   9  -2 -10 10.5040 27.3414   1
  -7  -2  10 87.2500 37.2964   1
   7  -9   7 1007.10 79.3504   1
  -9   2   7 982.073 59.0142   1
   2   7   7 994.713 77.5414   1
  -2   9   7 1049.27 76.7290   1
  -7  -2   7 986.418 58.8520   1
   2  -9  -7 979.944 76.5029   1
   9  -7   7 896.698 78.3484   1
   9  -2  -7 1049.77 62.2689   1
  -2  -7  -7 1058.95 81.1899   1
  -2   9   4 93.8519 19.0309   2
  -2  -7  -4 100.442 28.1332   1
   9  -7   4 73.0090 27.1462   1
  -7  -2   4 101.304 16.1633   1
   9  -2  -4 76.3795 15.9945   1
   2  -9  -4 73.0673 25.4719   1
   9  -7   4 93.4908 25.1204   2
   2   7   4 118.884 30.6364   1
   2  -9  -1 1437.67 54.4959   2
   7  -9   1 1467.04 64.2040   2
  -9   7  -1 1377.76 65.0809   2
  -7   9  -1 1347.94 64.2782   2
  -9   2  -2 8852.36 118.705   2
  -9   2  -2 9070.72 148.522   1
   9  -2   2 9128.13 149.363   1
   7   2   2 8786.54 141.653   1
  -7  -2  -2 8684.28 142.060   1
   9  -2   5 412.432 29.9274   2
  -9   2  -5 369.110 45.5326   1
   9  -2   5 382.111 44.2008   1
   7  -9  -5 414.585 45.9360   1
  -2  -7   5 371.708 39.6626   1
   9  -7  -5 404.576 38.3226   1
  -7  -2  -5 344.138 45.3899   1
   7   2   5 405.263 46.0223   1
   9  -2   8 55.3692 21.2882   2
   2  -9   8 105.820 36.6316   1
  -2  -7   8 108.648 32.5353   1
   7  -9  -8 95.9369 35.4314   1
   9  -7  -8 43.4856 23.4615   1
  -9   2  -8 86.7731 35.6305   1
  -7  -2  -8 63.4883 36.1248   1
   7  -9 -11 13.2084 34.9303   1
   9  -7 -11-24.4942 33.3474   1
  -7  -2 -11-7.21193 35.5478   1
  -9   2 -11-21.0012 36.7660   1
   9  -1 -11 184.560 47.3701   1
   1  -9 -11 126.509 47.0849   1
  -1  -8 -11 198.935 59.3941   1
  -9   1   8 395.495 41.1762   1
   1  -9  -8 341.984 53.6059   1
   9  -1  -8 368.018 42.2152   1
  -1  -8  -8 415.005 57.3510   1
  -8  -1   8 393.649 44.2290   1
   9  -8   5 444.375 43.8014   2
  -9   1   5 493.769 34.6736   1
   9  -1  -5 466.967 32.3225   1
  -1  -8  -5 418.980 46.1546   1
   8  -9   5 403.701 48.3514   1
   1  -9  -5 448.225 47.1456   1
   1   8   5 429.594 25.2066   2
  -1   9   5 494.686 49.4425   1
  -8  -1   5 448.855 32.8807   1
   9  -8   5 442.452 51.7135   1
   1   8   5 462.273 48.1951   1
  -9   8  -2 192.270 31.3404   2
  -1  -8  -2 205.943 19.9991   2
  -1  -8  -2 243.676 33.1242   1
   1  -9  -2 194.457 22.7470   2
   8  -9   2 187.526 28.8763   2
   9  -8   2 193.015 27.7577   2
   9  -1   1 5458.95 96.4302   1
  -8  -1  -1 5673.92 99.6404   1
  -8   9   1 5490.15 122.040   2
   8   1   1 5630.96 97.2857   1
  -9   1  -1 5745.99 100.077   1
   9  -8  -4 96.4655 22.8820   1
  -8  -1  -4 148.176 32.0151   1
   8  -9  -4 136.254 28.3882   1
  -9   1  -4 96.3370 27.6312   1
   9  -1   4 112.977 26.3039   1
   8   1   4 168.771 29.7981   1
   8   1   7 36.1689 28.1504   1
   8   1   7 24.5912 9.85848   2
   9  -8  -7 8.27554 22.3547   1
  -8  -1  -7 8.71177 27.4072   1
   8  -9  -7 43.0010 26.9329   1
   1  -9   7 0.80532 27.1592   1
   9  -1   7-26.3241 27.5948   1
  -9   1  -7-7.52029 25.5445   1
  -1  -8   7 55.8918 29.8763   1
   9  -1   7 31.5056 16.8137   2
   8   1  10 146.754 27.5966   2
  -9   1 -10 221.431 58.7476   1
  -8  -1 -10 176.365 51.5753   1
   8  -9 -10 62.9125 34.2836   1
   9  -8 -10 144.808 42.8309   1
   9  -1  10 257.649 38.5503   2
   8  -9 -13 16.3758 45.6302   1
   9  -8 -13-17.5043 38.4034   1
  -8  -1 -13 40.5176 47.0981   1
   0  -9 -12 85.4922 51.2443   1
   0  -9  -9 1123.92 92.4729   1
   9   0  -9 1027.57 72.2670   1
  -9   0   9 1032.10 72.0782   1
   9   0  -6 5840.93 119.367   1
   0  -9  -6 6216.86 177.431   1
   0   9   6 6123.28 173.819   1
   9  -9   6 5914.00 183.234   1
  -9   0   6 5955.74 117.843   1
   9  -9   3 17280.9 231.447   2
   0  -9  -3 16997.8 239.302   1
   9   0   0 57670.6 254.087   1
  -9   0   0 58302.1 256.772   1
  -9   0  -3 63323.8 436.211   1
   9   0   3 63237.8 436.042   1
  -9   0  -3 63188.6 280.223   2
   9   0   6 4615.92 154.885   1
  -9   0  -6 4572.48 150.670   1
   0  -9   6 4613.74 144.623   1
   9  -9  -6 4531.13 137.940   1
   9   0   6 4185.85 76.7174   2
   9   0   9 502.809 39.5294   2
   9  -9  -9 490.686 59.6180   1
   0  -9   9 385.694 54.7888   1
  -9   0  -9 414.536 62.4302   1
   9  -9 -12 26.8715 36.7238   1
  -9   0 -12-54.7466 47.2791   1
  -5  -5   0 72329.1 320.963   1
   5   5   3 31448.5 304.930   1
 -10   5  -3 31459.1 270.309   2
  10  -5   3 31496.5 314.940   1
  -5  10   3 32068.3 280.232   2
  10  -5  -3 31713.8 221.172   1
  -5  -5  -3 31725.6 310.127   1
  10  -5   3 31172.6 256.941   2
  10  -5   6 2521.06 114.228   1
   5 -10   6 2418.32 114.225   1
   5   5   6 2435.39 109.611   1
  10  -5   6 2472.20 86.3450   2
  10  -5  -6 2405.55 87.7280   1
   5 -10  -6 2253.84 105.210   1
  -5  -5   6 2298.48 87.5858   1
  -5  -5  -6 2329.83 109.047   1
 -10   5   9 248.784 40.4515   1
  -5  -5   9 230.507 41.7648   1
  10  -5  -9 227.580 46.0583   1
  -5  -5  -9 195.859 51.2424   1
   5 -10  -9 232.983 49.9066   1
   5 -10 -12 73.4791 47.8828   1
  10  -5 -12 38.6389 38.3410   1
  -5  -5 -12 30.7097 40.8850   1
   4 -10 -13-6.36021 40.6859   1
  10  -4 -13 10.4998 34.8594   1
  10  -4 -10-15.7331 26.8546   1
  -6  -4  10 31.2382 32.5972   1
  -4  -6 -10 17.1990 37.2618   1
 -10   4  10 12.8645 26.6816   1
   4 -10 -10 8.08555 34.6739   1
  10  -6   7 669.503 66.7090   1
  -4  -6  -7 614.364 64.2151   1
   6 -10   7 694.580 66.9858   1
 -10   4   7 670.873 51.0912   1
  10  -6   7 655.833 52.0452   2
  10  -4  -7 646.125 50.4043   1
   4 -10  -7 757.454 69.3928   1
   4   6   7 641.153 61.0613   1
  -6  -4   7 742.538 55.4837   1
  -4  -6  -4 4710.83 132.789   1
  10  -6   4 4712.59 112.574   2
   4 -10  -4 4440.82 130.452   1
   4   6   4 4724.83 130.981   1
  10  -6   4 4553.35 133.848   1
  -6  -4   4 4773.01 91.5797   1
  10  -4  -4 4593.63 89.7744   1
 -10   6  -1 6605.50 127.652   2
   6 -10   1 6318.99 132.879   2
   4 -10  -1 6308.59 121.096   2
  -4  10   1 6353.43 122.358   2
  -4  -6  -1 6177.56 116.541   1
   6   4   2 230.019 27.0922   1
 -10   4  -2 291.331 31.6535   2
  -6  -4  -2 230.456 28.5610   1
  -6  10   2 234.861 30.0638   2
  10  -4   2 268.934 30.7730   1
   6 -10  -5 33.1406 22.3536   1
  -6  -4  -5 21.7015 23.9237   1
   6   4   5 42.3384 27.3765   1
  10  -6  -5 1.17425 18.2340   1
  -4  -6   5 41.4989 18.0239   1
  10  -4   5 91.1061 20.8081   2
  10  -4   5 45.2376 27.9357   1
  -6  -4  -8 123.341 40.3505   1
  10  -4   8 59.7041 19.3775   2
  -4  -6   8 99.0451 32.1408   1
   4 -10   8 74.8470 34.6444   1
  10  -6  -8 100.810 29.5453   1
   6 -10  -8 61.3764 28.0110   1
  10  -6 -11 1.00601 31.4289   1
  10  -4  11-27.2408 29.7861   2
  -6  -4 -11 22.9071 42.5763   1
   6 -10 -11 13.7568 36.0821   1
   3 -10 -11-14.1789 38.5515   1
  10  -3 -11-0.09079 34.0993   1
  -3  -7 -11 34.1849 38.2929   1
   7 -10   8 883.933 83.2771   1
  -7  -3   8 790.311 59.9788   1
 -10   3   8 852.815 60.2556   1
  10  -3  -8 824.187 61.1745   1
  -3  -7  -8 761.003 74.4034   1
   3 -10  -8 737.457 74.1437   1
  10  -3  -5 4441.90 98.4661   1
  -3  -7  -5 4478.68 140.616   1
   3   7   5 4549.18 141.500   1
  -7  -3   5 4490.88 96.2341   1
  10  -7   5 4439.75 119.921   2
   3 -10  -5 4441.86 139.484   1
  10  -7   5 4579.78 146.328   1
   3 -10  -2 4232.38 95.1577   2
  -3  10   2 4114.15 93.1498   2
 -10   7  -2 4226.21 107.423   2
  10  -7   2 4189.77 101.104   2
   7 -10   2 4112.72 113.848   2
  -3  -7  -2 4103.52 106.068   1
  -7  -3  -1 19295.5 182.736   1
  10  -3   1 19232.2 187.384   1
   7   3   1 18969.2 180.750   1
  -7  10   1 18602.0 226.293   2
  10  -7  -4 265.169 29.9105   1
 -10   3  -4 250.079 38.4089   1
  -7  -3  -4 283.450 37.8487   1
   7 -10  -4 286.423 35.6897   1
   7   3   4 326.926 40.5948   1
  10  -3   4 200.694 32.2038   1
 -10   3  -7 70.6381 33.3048   1
  10  -3   7 29.0734 30.7036   1
   7   3   7 86.7526 32.6138   1
   7   3   7 48.0088 8.66770   2
   7 -10  -7 105.554 33.9639   1
  -7  -3  -7 98.5325 35.4615   1
  10  -3   7 67.4759 20.1813   2
  10  -7  -7 72.2144 27.6690   1
  -3  -7   7 41.7987 22.6881   1
   3 -10   7 59.9401 26.8027   1
  10  -3  10-58.3284 29.4841   2
  -7  -3 -10-74.9894 43.0733   1
   7 -10 -10-60.1644 40.8873   1
  -3  -7  10 24.3297 32.5304   1
 -10   3 -10 94.6628 45.7213   1
  10  -7 -10-12.9592 29.8189   1
   7 -10 -13 78.4034 50.9326   1
  -7  -3 -13 156.890 62.3427   1
  10  -7 -13-17.4020 38.9332   1
  -2  -8 -12 89.5401 51.3761   1
   2 -10 -12 69.2662 47.7814   1
  10  -2  -9 1147.86 75.9766   1
 -10   2   9 1189.72 78.3505   1
   2 -10  -9 1061.84 90.9714   1
  -8  -2   9 1198.92 78.8313   1
  -2  -8  -9 1343.16 106.593   1
   2   8   6 6519.14 85.4851   2
   2   8   6 7447.08 192.833   1
  -8  -2   6 6914.11 131.868   1
 -10   2   6 6942.97 130.154   1
  10  -8   6 6931.40 166.312   2
  10  -2  -6 6985.26 136.084   1
   8 -10   6 7151.12 201.958   1
   2 -10  -6 6835.01 188.493   1
  -2  -8  -6 7294.75 194.553   1
  10  -8   6 6768.62 199.398   1
   8 -10   3 5956.85 144.011   2
  10  -2  -3 5446.08 67.3269   1
   2 -10  -3 5625.09 138.570   1
  -2  10   3 5776.66 105.247   2
  10  -8   3 5691.87 129.565   2
  -2  -8  -3 5703.21 137.320   1
 -10   8   0 13844.9 196.161   2
   8   2   0 13804.3 124.612   1
  -8  -2   0 13932.0 127.502   1
   8 -10   0 13122.0 189.814   2
  10  -2   0 13662.9 129.479   1
  -8  10   0 13398.5 196.993   2
  -8  -2  -3 164.674 29.6789   1
  10  -2   3 177.090 29.8715   1
  -8  -2  -3 146.410 12.9846   2
   8   2   3 148.048 29.0035   1
 -10   2  -3 167.516 19.9876   2
 -10   2  -3 134.858 27.9137   1
  10  -2   6 333.013 28.5743   2
  10  -2   6 364.093 48.8267   1
 -10   2  -6 364.131 46.5034   1
  -2  -8   6 340.832 39.5772   1
   8 -10  -6 296.932 43.0056   1
   8   2   6 308.917 43.1947   1
  -8  -2  -6 285.739 44.1072   1
  10  -8  -6 326.728 37.3943   1
   2 -10   6 331.310 45.3899   1
  -2  -8   9 20.0286 31.5721   1
  10  -8  -9-18.2549 26.3769   1
  -8  -2  -9-13.8850 34.2648   1
   8   2   9 9.65408 11.9845   2
   8 -10  -9-73.4115 35.2318   1
  10  -2   9-25.8988 20.4724   2
 -10   2  -9 15.1147 31.3224   1
   8 -10 -12 16.9341 39.9683   1
  10  -8 -12-40.8123 41.5671   1
  -8  -2 -12 27.0796 40.5589   1
  -1  -9 -13-6.92630 42.4574   1
   1 -10 -13 155.653 60.1064   1
  10  -1 -10-17.0128 26.4387   1
   1 -10 -10 36.5128 39.6762   1
  -1  -9 -10 5.47958 35.3507   1
 -10   1  10-26.7023 29.8861   1
  -9  -1  10-2.80770 28.0329   1
   1 -10  -7-56.7548 34.4723   1
 -10   1   7-14.8486 19.9094   1
  10  -9   7-15.4756 27.0209   1
  -1  10   7-31.0424 30.3387   1
  10  -1  -7-13.9588 16.7249   1
  -1  -9  -7 1.51818 29.7038   1
  -9  -1   7 40.8261 20.8985   1
   9 -10   7 14.0077 28.5331   1
   1   9   7-30.6581 31.4551   1
  -1  10   4 897.864 40.4809   2
  10  -1  -4 914.338 33.0275   1
   9 -10   4 903.736 61.5707   2
  10  -9   4 891.804 57.3020   2
  -1  -9  -4 880.915 63.3050   1
  -9  -1   4 843.380 30.2273   1
   1 -10  -4 968.112 67.0878   1
  -9  10  -1 1766.66 77.0670   2
  10  -1  -1 1591.76 32.8674   1
  10  -9   1 1742.03 70.5586   2
   9 -10   1 1742.04 74.1057   2
   1 -10  -1 1755.61 65.8165   2
 -10   9  -1 1804.34 77.6442   2
   9   1   2 8474.93 142.831   1
  -9  -1  -2 8759.60 150.052   1
 -10   1  -2 8641.62 147.169   1
  10  -1   2 8569.29 146.408   1
   9   1   5 203.819 37.1538   1
 -10   1  -5 134.590 31.3061   1
  -9  -1  -5 146.929 33.8497   1
  10  -9  -5 133.705 28.0027   1
  10  -1   5 243.747 38.8803   1
   9 -10  -5 132.756 29.3519   1
  10  -1   8 2.72623 13.9420   2
  -1  -9   8 65.9588 33.0642   1
   1 -10   8 2.62272 29.4740   1
   9   1   8 27.6013 13.0510   2
   9 -10  -8 136.923 49.1888   1
 -10   1  -8 59.9435 33.8277   1
  10  -9  -8 84.8025 33.0451   1
  -9  -1  -8-4.86715 30.4937   1
  -9  -1 -11-36.2296 36.2984   1
 -10   1 -11-31.0239 41.1846   1
   9 -10 -11 19.4425 34.6287   1
  10  -9 -11 68.7541 38.6882   1
 -10   0  11 26.8333 34.6637   1
   0 -10 -11-11.0883 36.3959   1
   0 -10  -8 1632.60 109.531   1
  10   0  -8 1501.37 76.3789   1
 -10   0   8 1673.83 79.1854   1
  10 -10   5 3781.56 142.972   1
  10 -10   5 3613.32 123.653   2
   0  10   5 3701.42 76.7072   2
   0 -10  -5 3771.09 135.072   1
 -10   0   5 3812.88 77.1624   1
 -10  10  -2 15798.2 230.482   2
  10 -10   2 16031.1 225.228   2
   0 -10  -2 16258.5 174.246   2
 -10  10   1 2590.62 92.4717   2
 -10   0  -1 2738.45 72.9924   1
  10   0   1 2692.06 72.9887   1
 -10   0  -4 934.574 62.6495   1
  10 -10  -4 982.289 58.1080   1
  10   0   4 954.876 63.1405   1
  10 -10  -7 157.755 34.3618   1
  10   0   7 139.994 34.5472   1
   0 -10   7 183.994 39.7060   1
 -10   0  -7 74.9613 29.3310   1
  10   0   7 120.796 15.3780   2
  10 -10 -10 49.4280 38.1895   1
  10   0  10 21.5256 16.9130   2
 -10   0 -10-64.0019 46.6945   1
  10 -10 -13 8.14318 45.9580   1
 -10   0 -13-21.6939 54.4984   1
  11  -5 -11 41.1770 32.9057   1
  11  -6  11 57.4275 34.7426   2
  -5  -6 -11 7.31730 38.1376   1
   5 -11 -11 19.8004 41.5024   1
  -6  -5   8 533.886 53.7484   1
  11  -6   8 565.711 53.9013   2
  -5  -6  -8 580.342 67.1097   1
   6 -11   8 577.059 70.5946   1
  11  -5  -8 554.306 52.9826   1
   5 -11  -8 544.023 63.0821   1
  -5  -6  -5 15075.8 259.598   1
   5 -11  -5 14774.3 253.375   1
  -6  -5   5 15333.6 196.221   1
  11  -5  -5 14842.0 187.938   1
   5   6   5 15180.6 258.174   1
  11  -6   5 14263.2 263.432   1
  11  -6   5 14679.8 210.300   2
  -5  -6  -2 45667.5 350.535   1
   5   6   2 45768.8 341.363   1
  -5  11   2 45942.6 341.852   2
 -11   6  -2 45962.3 349.008   2
  -6  -5  -1 40868.2 287.985   1
  -6  11   1 40761.3 331.717   2
   5 -11   1 41319.0 352.519   2
  11  -6  -4 46454.7 313.026   1
  -5  -6   4 46219.8 315.313   1
   6 -11  -4 46509.9 418.467   1
  -6  -5  -4 47053.9 419.435   1
  11  -5   7 1023.88 61.0104   2
   5 -11   7 1107.89 83.9720   1
   6 -11  -7 1178.94 84.9092   1
  -5  -6   7 1049.77 67.3044   1
  -6  -5  -7 1049.07 82.0542   1
  11  -6  -7 1038.51 66.0823   1
  11  -5   7 1099.82 85.1727   1
   6   5   7 1029.85 79.7384   1
  -6  -5 -10 10.5573 38.4636   1
  -5  -6  10 60.0974 37.3889   1
  11  -6 -10 65.5346 35.3816   1
   6 -11 -10 39.1860 35.9642   1
  11  -5  10 30.0946 27.9407   2
   6   5  10 18.6297 11.5469   2
   6 -11 -13 51.8564 46.8875   1
  -6  -5 -13 118.067 55.4062   1
  11  -6 -13 42.8615 37.6642   1
   4 -11 -12-53.5300 42.1751   1
  -4  -7 -12 62.4672 49.8517   1
  11  -4 -12-2.97297 31.9082   1
 -11   4   9-19.8898 25.3219   1
  11  -7   9 6.22720 25.7261   2
  -7  -4   9 22.8859 28.4484   1
   4 -11  -9 45.8159 38.4749   1
  11  -4  -9-40.3040 26.7711   1
  -4  -7  -9-62.4076 38.4886   1
   4   7   6 75.2901 29.2430   1
  11  -7   6 12.8432 20.4105   2
  11  -4  -6 8.78356 15.8616   1
  -7  -4   6 30.0946 18.4979   1
  -4  -7  -6 29.9794 26.0610   1
  11  -7   6 32.8841 27.3763   1
   7 -11   6-21.2138 25.9555   1
   4 -11  -6 37.0292 27.6197   1
  -4  -7  -3 1878.93 81.2008   1
  11  -4  -3 2024.13 50.7040   1
  11  -7   3 1748.20 80.8378   1
 -11   7  -3 1827.64 74.2063   2
  -7  -4   3 1745.45 43.9376   1
  -4  -7  -3 1714.72 37.7260   2
  -4  11   3 1933.70 69.1502   2
  11  -7   3 1815.25 71.6634   2
   4   7   3 1971.21 80.3252   1
   4 -11   0 561.169 43.1596   2
  -7  11   0 601.254 47.0185   2
  -7  -4   0 644.642 32.2307   1
   7 -11   0 559.483 43.7781   2
 -11   4  -3 6880.86 125.820   2
  11  -4   3 7124.76 153.118   1
   7   4   3 6869.31 146.650   1
  -7  -4  -3 6900.84 147.497   1
 -11   4  -6 1523.30 90.7967   1
  11  -7  -6 1494.76 72.3824   1
   4 -11   6 1479.70 90.1645   1
   7 -11  -6 1444.79 87.1838   1
  -4  -7   6 1408.49 73.8885   1
  -7  -4  -6 1416.85 87.9468   1
  11  -4   6 1442.20 91.8973   1
  11  -4   6 1525.69 64.9114   2
   7   4   6 1466.25 87.8591   1
   7   4   9 274.634 19.8350   2
  11  -4   9 470.902 45.7387   2
  11  -7  -9 542.257 59.2202   1
  -4  -7   9 421.407 56.4291   1
   7 -11  -9 499.108 66.3310   1
  -7  -4  -9 568.474 72.0334   1
   7 -11 -12 15.0617 36.7254   1
  -7  -4 -12 35.3434 42.8251   1
  11  -7 -12 70.5161 42.2551   1
  -3  -8 -13 51.0554 47.7833   1
   3 -11 -13 71.8111 53.0589   1
 -11   3  10 241.049 40.4169   1
  -8  -3  10 234.073 43.5251   1
  11  -3 -10 293.075 47.8093   1
   3 -11 -10 204.997 53.5150   1
  -3  -8 -10 257.042 56.8628   1
  -8  -3   7 7434.37 157.148   1
   3 -11  -7 7724.52 213.056   1
  11  -8   7 7550.62 185.397   2
  -3  -8  -7 7739.98 217.937   1
   3   8   7 7834.91 217.938   1
   8 -11   7 7617.68 221.521   1
  11  -3  -7 7621.99 160.880   1
  11  -8   7 7562.03 230.231   1
 -11   3   7 7855.29 156.514   1
  11  -8   4 19180.5 286.182   1
  11  -8   4 19531.9 250.580   2
  11  -3  -4 20233.9 167.638   1
  -3  -8  -4 19989.5 282.882   1
  -8  -3   4 19724.9 156.966   1
  -3  11   4 20196.6 216.229   2
   3 -11  -4 19784.0 285.427   1
   3   8   4 19900.7 273.599   1
  -8  -3   1 18071.0 119.904   1
   3 -11  -1 18577.1 212.945   2
  -8  11  -1 18824.0 242.365   2
   8 -11   1 18871.5 244.746   2
  -3  -8  -1 17857.8 211.022   1
  -8  11   2 1987.32 79.0460   2
   8   3   2 2024.26 73.5619   1
  11  -3   2 1982.75 73.2604   1
  -8  -3  -2 1962.89 71.9632   1
  -3  -8   5 93.2949 24.0647   1
  -8  -3  -5 124.945 31.1745   1
  11  -3   5 129.378 36.5048   1
   8   3   5 138.757 34.9302   1
   8 -11  -5 93.9919 28.2459   1
 -11   3  -5 103.740 30.8709   1
  11  -8  -5 92.5221 24.9892   1
  -8  -3  -8 115.953 36.7419   1
  -3  -8   8 106.479 32.5946   1
  11  -3   8 96.6106 21.0942   2
   8 -11  -8 179.182 44.0481   1
   3 -11   8 139.296 42.2819   1
  11  -8  -8 113.580 33.0368   1
 -11   3  -8 143.910 40.3962   1
  -8  -3 -11 171.193 54.2041   1
  11  -8 -11 151.012 46.8054   1
   8 -11 -11 62.2678 41.9806   1
  11  -2 -11 7.17933 28.8308   1
  -9  -2  11 15.1534 29.2925   1
 -11   2  11 60.1656 38.3012   1
  -2  -9 -11 48.8692 44.6954   1
   2 -11 -11-2.81433 38.8706   1
  11  -2  -8 71.4155 22.9907   1
   2   9   8 94.9306 15.9195   2
  11  -9   8 75.1185 30.1815   2
  -2  -9  -8 82.3650 39.5352   1
  -9  -2   8 91.8516 27.5019   1
 -11   2   8 145.750 30.8593   1
   2 -11  -8 53.7887 32.6747   1
  11  -9   5 1638.72 95.2057   1
  11  -2  -5 1715.87 57.9187   1
  11  -9   5 1573.98 79.0431   2
  -9  -2   5 1767.04 54.2349   1
  -2  11   5 1902.04 65.6288   2
   2 -11  -5 1674.09 89.9701   1
   2   9   5 1768.14 90.6428   1
  -2  -9  -5 1761.48 94.8958   1
   9 -11   2 253.750 34.0307   2
 -11   9  -2 278.748 36.4228   2
   2 -11  -2 280.428 29.4121   2
  11  -9   2 231.965 30.5201   2
  -2  -9  -2 277.560 24.5927   2
  -2  -9  -2 186.191 30.0072   1
   9   2   1 1119.69 46.3270   1
  -9  -2  -1 1108.38 47.5728   1
  -9  11   1 1177.18 66.5168   2
  11  -2   1 1218.07 51.0244   1
   9   2   4 9384.94 191.422   1
 -11   2  -4 9155.40 192.116   1
   9 -11  -4 9475.43 183.614   1
  11  -2   4 9258.58 191.667   1
  11  -9  -4 9416.14 164.793   1
  -9  -2  -4 9424.74 190.672   1
  11  -2   7 820.218 76.4823   1
   2 -11   7 817.899 72.4248   1
  11  -2   7 805.558 43.0094   2
 -11   2  -7 756.373 70.8600   1
  11  -9  -7 815.260 62.7050   1
  -9  -2  -7 866.799 77.9188   1
  -2  -9   7 865.343 68.5111   1
   9   2   7 879.713 75.8317   1
   9 -11  -7 824.059 67.7714   1
  11  -2  10 681.929 50.9528   2
   9   2  10 486.787 32.2889   2
  11  -9 -10 711.642 76.5401   1
 -11   2 -10 621.785 77.8491   1
  -9  -2 -10 542.749 73.1292   1
   9 -11 -10 789.620 81.7923   1
  -9  -2 -13 37.5943 44.3703   1
   9 -11 -13 48.1230 45.0462   1
  11  -9 -13 101.329 50.6157   1
  -1 -10 -12 19.5533 41.8449   1
   1 -11 -12-3.91061 39.9557   1
   1 -11  -9 245.280 55.6207   1
  -1 -10  -9 220.645 53.0256   1
  11  -1  -9 184.438 34.3705   1
 -11   1   9 180.032 35.3133   1
 -10  -1   9 212.155 36.1189   1
   1  10   6 1296.59 42.9811   2
  11 -10   6 1371.94 79.9347   2
   1  10   6 1396.42 86.2729   1
  -1 -10  -6 1401.36 90.3800   1
  11  -1  -6 1339.67 55.0937   1
   1 -11  -6 1292.46 87.6237   1
  11 -10   6 1378.46 92.2708   1
  -1  11   6 1545.76 57.5256   2
 -11   1   6 1448.62 56.0360   1
  10 -11   6 1496.65 96.1433   1
 -10  -1   6 1362.40 53.8595   1
  -1 -10  -3 2860.00 105.079   1
  -1 -10  -3 3107.48 70.5909   2
  11 -10   3 2797.94 100.730   2
   1 -11  -3 2979.57 106.858   1
  10 -11   3 2878.14 104.069   2
  11  -1   0 113.458 15.0479   1
 -10  11   0 133.916 34.9287   2
 -11  10   0 111.250 28.7626   2
  10   1   0 127.955 15.2452   1
 -10  -1   0 119.369 16.1066   1
  10   1   3 4866.91 124.672   1
 -10  -1  -3 4849.25 124.995   1
 -11   1  -3 5036.16 94.4970   2
 -11   1  -3 4943.80 127.482   1
  11  -1   3 4964.29 127.706   1
 -10  -1  -6 29.3490 29.7145   1
  10 -11  -6-14.9825 22.9967   1
   1 -11   6 9.81118 24.0063   1
  -1 -10   6 7.37852 21.2686   1
 -11   1  -6 7.00951 24.8070   1
  11 -10  -6-16.2662 24.0043   1
  10   1   9 31.4873 11.5405   2
 -11   1  -9 90.9702 42.5759   1
  11  -1   9 66.4111 20.9226   2
  -1 -10   9 35.6003 31.1147   1
  11 -10  -9 56.6745 31.9637   1
  10 -11  -9 62.0263 35.3892   1
 -10  -1  -9 41.4226 36.4161   1
   1 -11   9 33.7114 32.1334   1
 -11   1 -12-46.1083 46.8319   1
  11 -10 -12-10.7280 38.7330   1
 -10  -1 -12-23.5281 40.4982   1
  10 -11 -12 56.7379 42.3561   1
   0 -11 -13 164.277 61.8615   1
 -11   0  10 1413.38 88.7197   1
   0 -11 -10 1494.35 122.065   1
  11 -11   7 13211.3 264.313   2
   0 -11  -7 13600.1 290.898   1
   0  11   7 13095.1 160.600   2
 -11   0   7 13096.2 190.902   1
  11 -11   7 13190.4 302.760   1
   0  11   7 13371.3 278.572   1
  11 -11   4 12628.8 225.272   2
   0 -11  -4 12920.9 236.693   1
  11 -11   1 11157.7 191.041   2
 -11  11  -1 11134.6 197.037   2
  11   0  -1 10824.0 86.7134   1
  11   0   2 1174.22 58.2224   1
 -11   0  -2 1227.77 58.8339   1
  11   0   5 311.728 42.3044   1
  11 -11  -5 338.119 40.9136   1
 -11   0  -5 251.725 40.4977   1
   0 -11   8 8.57007 27.4020   1
  11 -11  -8-2.60869 29.2657   1
 -11   0  -8 23.9525 28.7854   1
  11 -11 -11 34.7137 35.8934   1
 -11   0 -11-5.38730 37.8804   1
   6 -12   0 2807.59 95.6014   2
  -6  -6   0 2799.47 71.7704   1
 -12   6  -3 3524.21 101.322   2
  -6  -6  -3 3781.72 114.654   1
  12  -6   3 3651.78 114.590   1
  -6  12   3 3829.96 109.037   2
   6   6   3 3816.35 114.744   1
   6 -12   6 271.991 46.0515   1
   6 -12  -6 358.473 47.9774   1
   6   6   6 327.290 46.1886   1
  12  -6   6 335.958 38.1853   2
  -6  -6  -6 313.604 47.9913   1
  -6  -6   6 295.201 35.4136   1
  12  -6   6 290.458 43.6357   1
  12  -6  -6 370.749 37.9161   1
  12  -6   9 306.655 42.6748   2
  -6  -6  -9 370.160 60.4132   1
  12  -6  -9 285.231 45.6964   1
  -6  -6   9 287.478 44.0898   1
   6 -12  -9 335.540 56.2704   1
   6 -12 -12 112.835 47.2175   1
  12  -6 -12 32.9338 34.4031   1
  -6  -6 -12 68.8541 51.4149   1
  12  -5 -13 15.9329 38.4667   1
  -5  -7 -13 28.8001 43.5158   1
   5 -12 -13-90.6258 55.7525   1
  -7  -5  10 42.3291 33.4045   1
  12  -7  10-11.0326 26.9263   2
   5 -12 -10-31.1634 38.8211   1
  12  -5 -10-24.1432 26.1935   1
  12  -7   7 228.956 36.4537   2
   5 -12  -7 209.598 43.4023   1
   5   7   7 283.336 48.9344   1
  12  -7   7 149.918 41.0284   1
  -5  -7  -7 221.462 45.0059   1
  -7  -5   7 243.753 35.2477   1
   7 -12   7 171.120 43.1076   1
  12  -5  -7 233.751 34.9117   1
  12  -7   4 186.126 35.0112   1
  -7  -5   4 234.102 23.4442   1
  12  -5  -4 274.737 25.6064   1
  -5  12   4 300.573 34.5923   2
  12  -7   4 299.064 34.8538   2
   5 -12  -4 248.423 35.6616   1
   5   7   4 286.933 40.2426   1
  -5  -7  -4 285.760 40.8955   1
 -12   7  -1 225.405 29.4180   2
  -7  -5   1 173.532 17.1538   1
  -5  12   1 202.035 29.0475   2
   5 -12  -1 218.235 31.7982   2
  -5  -7  -1 191.690 28.0403   1
   7 -12   1 202.267 33.0183   2
   7   5   2 2926.78 88.9504   1
  -7  -5  -2 2938.26 89.9348   1
  -7  12   2 2869.97 95.0332   2
 -12   5  -2 3046.45 91.0294   2
  12  -5   2 2866.22 90.9490   1
   7   5   5 59.1155 28.5655   1
  12  -5   5-4.19088 22.6540   1
   7 -12  -5-0.81828 23.8464   1
  12  -7  -5 31.2639 19.7364   1
  12  -5   5 31.9437 17.7106   2
  -7  -5  -5 30.2789 23.7368   1
  -5  -7   5 18.9474 16.7011   1
  12  -7  -8 28.1358 25.4712   1
  -7  -5  -8-69.0176 39.0167   1
  12  -5   8-33.4126 23.5946   2
   5 -12   8-39.4803 35.8634   1
   7 -12  -8-7.21595 28.5789   1
  -5  -7   8-12.2929 24.2557   1
   7 -12 -11-31.0966 38.6355   1
  12  -7 -11-1.91536 33.3540   1
  -7  -5 -11-50.4600 41.5923   1
  -4  -8 -11 34.9939 38.4045   1
   4 -12 -11 105.750 50.5147   1
  12  -8  11 95.2141 37.8978   2
  12  -4 -11 126.588 38.6536   1
  -8  -4  11 21.3578 36.4677   1
  12  -4  -8 335.943 40.9991   1
  12  -8   8 394.708 46.4473   2
  -8  -4   8 351.647 41.3996   1
  -4  -8  -8 374.184 58.7111   1
   4 -12  -8 351.345 54.7286   1
   4 -12  -5 7406.05 186.910   1
  -8  -4   5 7544.67 120.150   1
  12  -8   5 7434.10 164.054   2
  12  -8   5 7073.30 189.761   1
  12  -4  -5 7689.75 126.300   1
   4   8   5 7771.38 188.696   1
  -4  12   5 7637.75 146.550   2
  -4  -8  -5 7584.59 191.489   1
 -12   8  -2 12321.3 200.712   2
   4 -12  -2 12535.5 181.231   2
   8 -12   2 12235.7 209.947   2
  -4  -8  -2 12297.8 191.366   1
  -4  12   2 12517.8 180.994   2
  -8  -4  -1 2421.49 70.0905   1
  12  -4   1 2416.22 73.2937   1
   8   4   1 2477.87 71.5587   1
  -8  12   1 2392.01 90.3673   2
   8 -12  -4 13786.5 230.866   1
  12  -4   4 14247.6 240.930   1
  12  -8  -4 13930.3 189.951   1
  -8  -4  -4 14015.5 234.211   1
   8   4   4 14450.4 238.098   1
  12  -4   7 133.206 25.5955   2
  -4  -8   7 119.795 32.6480   1
   4 -12   7 131.647 39.2010   1
  12  -4   7 65.4237 36.2413   1
   8 -12  -7 96.7199 32.6594   1
  -8  -4  -7 107.226 38.0851   1
   8   4   7 109.267 38.0310   1
  12  -8  -7 101.874 27.2920   1
  12  -4  10-15.0994 24.5533   2
   8 -12 -10-61.0335 40.0218   1
  12  -8 -10-31.1989 30.7315   1
  -4  -8  10-67.3550 37.6431   1
  -8  -4 -10 34.5467 41.0139   1
  12  -8 -13-78.4643 46.4071   1
  -8  -4 -13 116.762 56.9214   1
   8 -12 -13 35.7459 41.7464   1
  -3  -9 -12-5.57415 43.5862   1
  12  -3 -12-31.4536 30.7306   1
   3 -12 -12 14.8110 41.8633   1
  12  -9   9 312.941 53.2227   2
  12  -3  -9 245.762 39.3286   1
   3   9   9 175.274 16.4037   2
  -3  -9  -9 260.244 56.1885   1
   3 -12  -9 299.190 60.0177   1
 -12   3   9 309.279 42.8456   1
  -9  -3   9 257.256 40.1937   1
  -3  12   6 8914.80 155.513   2
  12  -9   6 8575.11 225.386   1
  12  -3  -6 8760.78 151.964   1
  -9  -3   6 8549.46 140.745   1
   9 -12   6 9010.45 236.174   1
  12  -9   6 8224.34 185.630   2
   3 -12  -6 8643.57 219.349   1
   3   9   6 8929.96 217.764   1
  -3  -9  -6 8892.39 222.105   1
  -3  -9  -3 12215.5 124.648   2
   9 -12   3 12054.8 218.682   2
 -12   9  -3 11608.9 198.912   2
  12  -9   3 12041.7 198.503   2
  12  -3  -3 11449.9 100.199   1
   3 -12  -3 11807.4 209.621   1
  -3  -9  -3 12185.1 208.374   1
  -3  12   3 12119.5 170.684   2
  -9  12   0 2897.16 101.028   2
   9   3   0 3033.44 64.3280   1
   9 -12   0 2876.18 99.1507   2
   3 -12   0 2887.30 94.8370   2
  12  -3   0 3019.63 67.6169   1
  -9  -3   0 3080.36 66.2490   1
  -9  -3  -3 63.1036 22.9663   1
  12  -3   3 114.111 26.4850   1
 -12   3  -3 81.8709 19.6388   2
   9   3   3 98.5030 27.7174   1
  -9  -3  -6 434.068 56.2181   1
   9 -12  -6 368.934 46.5266   1
 -12   3  -6 356.052 50.2536   1
  12  -9  -6 394.258 41.3650   1
  12  -3   6 339.443 77.0924   1
  -3  -9   6 409.241 44.4860   1
   9   3   6 395.567 50.9113   1
  12  -3   9 128.166 24.2277   2
  12  -9  -9 268.588 45.7704   1
 -12   3  -9 139.022 46.9367   1
   9 -12  -9 194.323 47.4860   1
  -3  -9   9 244.510 48.5432   1
  -9  -3  -9 197.891 50.6244   1
  -9  -3 -12 59.5858 49.9578   1
  12  -9 -12 35.5522 38.0612   1
   9 -12 -12 36.0172 37.1711   1
   2 -12 -13 41.4991 47.1501   1
  -2 -10 -13-34.6843 44.9764   1
   2 -12 -10 21.7326 36.4948   1
 -12   2  10-34.9293 30.1211   1
  -2 -10 -10 28.5972 39.7255   1
   2  10  10 27.4477 13.6969   2
  12  -2 -10 31.9064 29.3344   1
 -10  -2  10 22.5622 25.7706   1
  12 -10  10-45.0544 34.2163   2
   2  10   7 504.085 25.0603   2
  -2  12   7 650.587 43.4115   2
  12 -10   7 579.057 56.9493   2
  10 -12   7 621.832 69.5918   1
   2 -12  -7 611.435 65.7804   1
  12 -10   7 545.656 65.6476   1
  12  -2  -7 598.109 43.4470   1
 -10  -2   7 664.173 45.6783   1
  -2 -10  -7 637.365 67.0214   1
  -2  12   4 536.067 36.5222   2
  10 -12   4 471.179 49.6403   2
   2 -12  -4 487.372 53.2132   1
  12 -10   4 512.159 46.4608   2
  12  -2  -4 439.786 22.9944   1
  -2 -10  -4 520.845 53.2031   1
 -10  -2   4 381.555 18.8908   1
  12  -2  -1 135.559 13.9183   1
 -12  10  -1 135.782 31.0551   2
   2 -12  -1 157.645 26.6989   2
  10 -12   1 144.309 29.9603   2
 -10  12  -1 118.369 30.0172   2
 -10  -2   1 111.128 11.8794   1
 -10  12   2 2089.43 86.3379   2
  10   2   2 2075.31 75.0179   1
  12  -2   2 2057.13 73.9921   1
 -10  -2  -2 1944.23 73.4467   1
  10   2   5 203.572 37.0416   1
  12  -2   5 204.171 36.9154   1
 -12   2  -5 209.506 37.1256   1
  10 -12  -5 225.928 38.1973   1
  12 -10  -5 206.416 31.1468   1
 -10  -2  -5 239.643 40.8117   1
  12  -2   8 151.857 24.1853   2
  10 -12  -8 97.6972 35.0322   1
  -2 -10   8 190.786 40.8301   1
 -12   2  -8 157.043 42.0979   1
  12 -10  -8 97.2851 31.4389   1
   2 -12   8 161.313 42.5976   1
 -10  -2  -8 213.497 49.1931   1
  12 -10 -11 69.4669 40.6670   1
 -12   2 -11 94.7939 48.8660   1
  10 -12 -11 106.967 46.1552   1
 -10  -2 -11 56.4281 41.4981   1
   1 -12 -11 98.3500 45.8492   1
  -1 -11 -11 50.6251 47.3499   1
  -1 -11  -8 662.460 75.8766   1
   1  11   8 600.137 34.4387   2
  -1  12   8 675.937 43.7632   2
  12  -1  -8 608.206 48.6217   1
  12 -11   8 543.197 60.5426   2
 -12   1   8 601.088 47.7400   1
 -11  -1   8 555.199 46.4701   1
   1 -12  -8 679.673 77.4925   1
  11 -12   5 2947.60 118.437   2
  -1  12   5 3219.76 81.3560   2
  12 -11   5 2976.75 132.014   1
  12  -1  -5 2635.89 60.4490   1
   1 -12  -5 2936.18 124.008   1
  12 -11   5 2953.82 113.260   2
 -11  -1   5 2785.64 60.7927   1
  -1 -11  -5 3078.64 127.360   1
  12 -11   2 39.4896 25.5280   2
  -1 -11  -2 47.3620 17.9534   2
  -1 -11  -2 17.7478 23.2169   1
   1 -12  -2 17.2335 18.0484   2
  11 -12   2-17.9723 21.1542   2
 -12  11  -2-20.7147 24.3784   2
  12  -1   1 1049.32 48.7496   1
  11   1   1 1027.36 47.7237   1
 -11  -1  -1 1106.40 50.1233   1
 -11  12   1 1010.96 65.3433   2
 -11  -1  -4 7950.85 179.905   1
  11   1   4 7990.23 178.622   1
 -12   1  -4 7441.94 116.599   2
 -11  -1  -4 6794.47 93.9905   2
  12  -1   4 7827.41 179.640   1
 -12   1  -4 7804.81 179.661   1
   1 -12   7 748.047 68.8108   1
  11 -12  -7 725.979 65.2429   1
  12 -11  -7 737.326 64.4272   1
 -12   1  -7 702.325 71.4737   1
  -1 -11   7 715.110 64.9370   1
 -11  -1  -7 683.602 69.3420   1
  12  -1  10 102.602 20.0339   2
  11 -12 -10 125.304 45.1085   1
  12 -11 -10 135.549 44.6141   1
 -11  -1 -10 125.301 49.6156   1
 -12   1 -10 68.7695 43.8033   1
  12 -11 -13 9.93496 42.7621   1
  11 -12 -13 121.657 51.1545   1
 -11  -1 -13 151.761 59.0713   1
   0 -12 -12-3.41296 43.0046   1
   0  12   9 228.811 27.0432   2
 -12   0   9 203.495 32.9660   1
   0 -12  -9 187.339 52.2348   1
  12 -12   9 167.696 43.9287   2
  12 -12   6 639.768 60.1791   2
   0 -12  -6 700.369 66.1999   1
   0  12   6 1050.74 47.7690   2
  12 -12   6 621.525 66.9689   1
   0 -12  -3 932.164 47.2389   2
   0 -12  -3 1026.92 67.5224   1
  12 -12   3 988.394 64.3226   2
  12   0   0 4634.97 81.8492   1
 -12  12   0 4138.51 126.915   2
  12   0   3 11244.5 195.238   1
 -12   0  -3 11439.8 198.408   1
  12 -12  -6 1087.86 74.0806   1
 -12   0  -6 916.107 73.6567   1
  12   0   6 1107.64 78.7099   1
   0 -12   9-1.08876 32.6726   1
  12 -12  -9 2.92573 29.3242   1
 -12   0  -9 41.4359 36.7144   1
  12 -12 -12 41.5776 43.0265   1
 -12   0 -12 66.4045 48.3834   1
   6 -13 -11 34.0077 43.1580   1
  13  -6 -11 81.0549 33.5806   1
  -6  -7 -11 112.381 43.9446   1
   6 -13  -8-35.8952 33.8689   1
  13  -6  -8 20.2655 24.2524   1
  -6  -7  -8-35.7156 34.5795   1
  13  -7   8 31.7587 23.8189   2
  -7  -6   8-46.9594 24.0413   1
   6 -13  -5 31.0130 26.9899   1
   6   7   5 73.2905 28.2411   1
  13  -6  -5 18.8783 14.7991   1
  13  -7   5-7.77973 21.0860   2
  13  -7   5 10.2830 23.4771   1
  -6  13   5-9.19120 22.7788   2
  -6  -7  -5-19.7941 31.2107   1
  -7  -6   5 25.2846 17.2846   1
 -13   7  -2 6034.27 138.290   2
  -6  13   2 5781.26 133.088   2
  -6  -7  -2 5736.42 132.809   1
   7 -13   2 6035.82 155.057   2
  -7  13   1 8731.86 168.853   2
   7 -13  -1 8984.89 171.966   2
  -7  -6  -1 8950.94 145.593   1
   6 -13   1 9306.35 183.299   2
   7 -13  -4 6392.52 164.925   1
  -7  13   4 6791.35 152.095   2
  13  -7  -4 6709.44 123.404   1
  13  -6   4 6595.50 166.203   1
  -7  -6  -4 6920.22 169.467   1
   7   6   4 6841.83 166.874   1
  13  -6   7 909.599 58.5548   2
   6 -13   7 1006.12 86.4368   1
   7   6   7 966.557 80.7845   1
  -7  -6  -7 937.871 81.0272   1
   7 -13  -7 872.800 74.6228   1
  -6  -7   7 906.410 60.4771   1
  13  -7  -7 871.225 60.9154   1
  -7  -6 -10-54.4334 42.7033   1
  13  -7 -10 16.9555 28.0691   1
   7 -13 -10-38.3172 36.6049   1
  13  -6  10 22.9894 26.7943   2
  -6  -7  10-4.21680 28.7029   1
   7 -13 -13-15.2023 45.1513   1
  13  -7 -13 51.5051 43.4580   1
  -7  -6 -13-61.5244 53.3037   1
  -5  -8 -12-81.5293 51.4260   1
   5 -13 -12 19.4209 39.9715   1
  13  -5 -12-6.57639 33.4229   1
  -8  -5   9 31.8554 26.0511   1
  -5  -8  -9 155.260 47.2215   1
  13  -5  -9 77.6132 29.2245   1
  13  -8   9 135.262 34.9559   2
   5 -13  -9 146.856 46.1549   1
   5   8   6 447.085 52.8664   1
  -8  -5   6 443.903 35.8978   1
   5 -13  -6 408.320 50.8897   1
  13  -8   6 425.161 55.2790   1
  13  -8   6 392.388 41.2420   2
  -5  -8  -6 401.576 51.8665   1
  13  -5  -6 389.089 35.4420   1
  -5  13   3 4296.02 110.749   2
  -5  -8  -3 4383.20 125.200   1
 -13   8  -3 4252.02 122.185   2
  13  -8   3 4407.05 132.036   1
  -5  -8  -3 4121.87 67.7881   2
   5   8   3 4512.98 124.729   1
   8 -13   3 4308.10 135.464   2
   8 -13   0 2760.04 98.7917   2
   5 -13   0 2654.86 94.3909   2
  -8  -5   0 2792.15 69.9267   1
  -8  13   0 2799.08 100.120   2
 -13   5  -3 17725.4 226.739   2
  -8  -5  -3 17684.2 246.318   1
  13  -5   3 17709.8 249.438   1
   8   5   3 17668.0 244.091   1
  -8  13   3 18097.8 251.654   2
   8 -13  -6 3942.98 143.961   1
  13  -5   6 3951.26 106.575   2
  -5  -8   6 3913.52 119.973   1
  13  -5   6 3665.62 149.330   1
  13  -8  -6 3991.33 119.074   1
  -8  -5  -6 3941.27 149.350   1
   8   5   6 3938.89 145.475   1
  -8  -5  -9 331.059 60.9218   1
  13  -5   9 369.950 42.9582   2
  -5  -8   9 369.767 51.7160   1
  13  -8  -9 392.081 52.7904   1
   8 -13  -9 321.066 54.1363   1
   8 -13 -12 54.6360 44.2037   1
  -8  -5 -12-8.25289 40.2729   1
  13  -8 -12 20.5983 34.2265   1
  -4  -9 -13-1.75047 45.0878   1
   4 -13 -13 57.5191 48.1627   1
  13  -9  10 36.8097 33.2509   2
  -4  -9 -10 126.955 48.3469   1
   4 -13 -10 76.7698 42.3444   1
  -9  -4  10 63.5141 33.2164   1
  13  -4 -10 97.3546 35.5995   1
  -9  -4   7 175.482 28.4307   1
  13  -9   7 148.121 33.4436   2
  13  -4  -7 188.094 30.8136   1
   4 -13  -7 174.830 43.9215   1
  -4  -9  -7 144.963 38.6601   1
   9 -13   7 198.762 46.7549   1
  -4  13   4 233.363 28.6010   2
  -9  -4   4 151.093 15.4299   1
  -4  -9  -4 171.453 34.2591   1
  13  -4  -4 211.255 19.9484   1
   4   9   4 228.490 37.4370   1
  13  -9   4 186.508 38.1333   1
  13  -9   4 174.239 29.8021   2
   9 -13   4 184.675 37.5808   2
   4 -13  -4 187.706 36.2507   1
   4 -13  -1 1574.42 70.7029   2
  -9  -4   1 1549.18 41.0365   1
 -13   9  -1 1635.28 77.5301   2
   9 -13   1 1537.39 78.2567   2
  -4  -9  -1 1549.50 66.1014   1
  13  -4   2 103.140 23.9303   1
   9   4   2 92.4860 20.3791   1
  -9  13   2 59.0330 23.8439   2
  -9  -4  -2 68.7824 18.2686   1
  -9  -4  -5 672.053 57.9481   1
   9 -13  -5 680.946 58.6293   1
   9   4   5 722.913 61.8875   1
  13  -9  -5 682.032 48.4500   1
  13  -4   5 693.594 58.7900   1
  -4  -9   8 204.452 39.7354   1
  13  -4   8 190.711 28.4326   2
   4 -13   8 189.363 48.9233   1
   9 -13  -8 155.124 44.6098   1
  13  -9  -8 221.250 41.1522   1
  -9  -4  -8 186.217 46.2299   1
   9 -13 -11-24.8833 36.4288   1
  13  -9 -11 0.57249 34.8952   1
  -9  -4 -11-44.7118 46.3397   1
  -3 -10 -11 118.746 54.3610   1
   3 -13 -11 107.117 48.5128   1
  13  -3 -11 145.684 39.5175   1
   3 -13  -8 710.845 79.3924   1
 -10  -3   8 673.704 52.2515   1
  13 -10   8 543.793 59.0523   2
  -3 -10  -8 673.408 74.9894   1
  13  -3  -8 659.357 52.6569   1
  -3  13   8 702.163 49.6837   2
   3 -13  -5 25.0941 24.6434   1
   3  10   5-18.8462 24.2899   1
  13  -3  -5 19.2494 13.0738   1
 -10  -3   5-3.26316 10.5551   1
  -3  13   5 8.55888 17.9361   2
  10 -13   5 20.1324 26.5221   2
  13 -10   5-33.6245 30.5233   1
  -3 -10  -5-8.35871 25.0333   1
  13 -10   5 22.0687 25.2245   2
  10 -13   2 43.4041 25.5379   2
   3 -13  -2 44.2070 19.6176   2
 -13  10  -2 29.3744 24.2117   2
  -3 -10  -2 52.1303 26.3836   1
 -10  13   1 2831.18 104.785   2
  10   3   1 2868.55 78.4081   1
  13  -3   1 3041.19 82.1647   1
 -10  -3  -1 2898.56 80.1496   1
 -13   3  -4 2006.76 93.5726   1
  10   3   4 2072.07 91.8283   1
 -10  -3  -4 2050.50 92.1756   1
  13  -3   4 1946.58 90.5815   1
 -13   3  -4 1934.49 69.5037   2
 -13   3  -7 22.7872 27.5955   1
  13 -10  -7 42.2952 22.2004   1
   3 -13   7 66.1690 34.7758   1
 -10  -3  -7 15.3635 28.6200   1
  10 -13  -7 47.1059 30.1025   1
  -3 -10   7 82.7637 31.3837   1
  13 -10 -10 72.3457 36.1626   1
  13  -3  10 138.181 29.0292   2
 -10  -3 -10 31.4696 36.2421   1
  10 -13 -10 167.228 50.0542   1
  10 -13 -13-62.1635 48.7877   1
 -10  -3 -13 12.4866 47.6553   1
  13 -10 -13 18.7415 42.2178   1
  -2 -11 -12 13.7240 42.1411   1
   2 -13 -12 123.609 67.3866   1
  -2 -11  -9-46.7497 43.1723   1
 -11  -2   9-30.8181 26.3965   1
  13  -2  -9-8.78243 21.6437   1
  -2  13   9 12.0856 18.6155   2
  13 -11   9-1.47042 31.6797   2
   2 -13  -9 38.4745 41.8157   1
   2  11   9-0.31872 8.62016   2
   2 -13  -6 2285.78 117.259   1
  11 -13   6 2132.34 109.820   2
 -11  -2   6 2139.51 62.9317   1
  -2 -11  -6 2173.73 113.959   1
  13  -2  -6 2120.36 65.6049   1
  13 -11   6 2066.32 99.5523   2
  -2  13   6 2358.63 78.0607   2
  13 -11   6 2197.25 119.673   1
  11 -13   6 2230.19 123.450   1
  11 -13   3 218.897 37.5646   2
  13 -11   3 149.518 33.4748   2
   2 -13  -3 153.431 35.9597   1
  -2 -11  -3 153.820 35.3627   1
  -2 -11  -3 171.964 20.4792   2
 -13  11   0 3535.65 117.019   2
 -11  13   0 3227.25 113.330   2
 -11  -2   0 3591.45 75.1427   1
  13  -2   0 3445.16 74.1937   1
  11   2   0 3396.63 71.2384   1
  11   2   3 12865.7 210.283   1
 -13   2  -3 13155.0 217.221   1
 -11  -2  -3 13060.7 216.779   1
  13  -2   3 12941.6 212.110   1
 -13   2  -3 13063.2 173.968   2
  13 -11  -6 6.93352 21.7109   1
  11   2   6-5.05034 27.8862   1
  11 -13  -6 34.0418 26.7418   1
  -2 -11   6 52.7453 26.2305   1
  13  -2   6 61.1635 28.6658   1
 -13   2  -6 66.1338 29.4299   1
 -11  -2  -6 72.4695 30.8985   1
 -13   2  -9 64.3132 37.6981   1
  11 -13  -9 67.5444 44.4172   1
 -11  -2  -9 66.2533 38.7678   1
  13 -11  -9 71.6227 31.9153   1
  -2 -11   9 131.758 44.4685   1
  13 -11 -12-10.7472 36.0761   1
  11 -13 -12-20.2549 42.9517   1
 -11  -2 -12-27.4470 44.5343   1
   1 -13 -13-27.2724 46.1304   1
  -1 -12 -13-10.7058 45.3502   1
  -1 -12 -10 14.0199 41.8291   1
   1  12  10 45.9634 16.0486   2
 -13   1  10 89.4437 31.6327   1
 -12  -1  10 38.0401 26.6166   1
   1 -13 -10-4.33967 38.8573   1
  -1  13  10 47.1757 20.2103   2
   1 -13  -7 330.035 53.7970   1
  13 -12   7 411.628 55.0881   2
  12 -13   7 387.811 51.8060   2
  -1 -12  -7 385.232 55.9689   1
  -1  13   7 373.613 31.7932   2
 -12  -1   7 412.264 33.7710   1
  12 -13   4 1885.81 92.5027   2
   1 -13  -4 1927.22 98.2562   1
  13 -12   4 1849.31 91.5543   2
  -1 -12  -4 1816.81 93.4642   1
 -13  12  -1 8087.60 181.303   2
  12 -13   1 7672.51 172.568   2
  13  -1  -1 8068.62 85.8520   1
 -12  13  -1 7779.79 176.398   2
   1 -13  -1 7934.64 153.334   2
 -12  13   2 3014.03 110.758   2
  12   1   2 3159.87 95.6708   1
 -13   1  -2 3107.70 95.5072   1
 -12  -1  -2 3143.30 96.4934   1
  13  -1   2 3029.19 95.0118   1
  13  -1   5 6781.11 181.137   1
  12   1   5 6659.01 178.588   1
 -12  -1  -5 6567.30 180.624   1
 -13   1  -5 6430.43 177.671   1
  13 -12  -5 6756.24 164.193   1
  12 -13  -5 6569.94 169.385   1
  12 -13  -8 55.0859 35.4126   1
  13 -12  -8 4.78276 28.7417   1
 -13   1  -8-49.7328 35.6564   1
 -12  -1  -8 24.4321 33.6414   1
   1 -13   8 15.4891 35.0983   1
  -1 -12   8 17.6247 28.3020   1
  13 -12 -11-50.0208 36.9221   1
  12 -13 -11 21.5776 36.2897   1
 -13   1 -11 108.456 52.0603   1
 -12  -1 -11 19.5480 40.7172   1
   0 -13 -11 14.5636 39.2878   1
   0  13   8 218.860 25.2187   2
  13 -13   8 258.652 48.2585   2
 -13   0   8 284.422 33.9265   1
   0 -13  -8 240.356 52.0326   1
  13 -13   5 6774.29 182.726   2
   0 -13  -5 6912.40 192.579   1
 -13  13  -2 3882.45 131.226   2
  13 -13   2 3811.50 125.939   2
   0 -13  -2 3883.80 102.329   2
 -13  13   1 3499.99 122.964   2
  13   0   1 3541.85 89.0524   1
 -13   0  -1 3565.56 91.3890   1
 -13   0  -4 884.762 65.8235   1
  13   0   4 956.161 65.0789   1
 -13   0  -4 854.011 41.3220   2
   0 -13   7 1063.19 80.1710   1
 -13   0  -7 940.881 80.1300   1
  13 -13  -7 992.794 74.0693   1
  13 -13 -10 286.150 56.3215   1
 -13   0 -10 273.149 59.4756   1
  -7  -7   0 19748.1 203.007   1
   7 -14   0 19726.3 268.348   2
  -7  14   3 2541.35 95.3737   2
  -7  -7  -3 2458.63 96.5716   1
 -14   7  -3 2414.98 91.5863   2
  14  -7   3 2470.22 98.6796   1
   7   7   3 2496.50 94.4177   1
  14  -7   6 514.045 46.1879   2
  14  -7  -6 447.813 39.1947   1
   7   7   6 580.125 61.5950   1
  -7  -7  -6 492.337 57.8419   1
  -7  -7   6 510.432 42.4316   1
  14  -7   6 405.830 53.2984   1
   7 -14  -6 449.904 55.8422   1
  14  -7   9 57.1854 31.3192   2
   7 -14  -9 47.9179 40.2951   1
  -7  -7   9 43.0616 30.3867   1
  14  -7  -9 36.4548 27.5613   1
  -7  -7  -9 59.6916 36.8658   1
   7 -14 -12-15.9097 39.5691   1
  14  -7 -12 58.7147 38.0998   1
  -7  -7 -12 87.1903 49.9604   1
   6 -14 -13-40.4825 45.5637   1
  -6  -8 -13 28.5058 49.8620   1
  -6  -8 -10 22.0465 43.0701   1
  -8  -6  10 46.6841 31.7568   1
  14  -6 -10 34.0996 29.5475   1
   6 -14 -10 23.2895 39.5099   1
  14  -8  10 29.2354 29.7068   2
  14  -8   7 617.467 54.3282   2
   8 -14   7 484.234 65.3155   1
  -6  -8  -7 510.385 60.1255   1
   6 -14  -7 586.481 61.6140   1
  14  -6  -7 561.008 46.0311   1
  -8  -6   7 560.435 45.3489   1
   6   8   4 4.73202 22.3524   1
   6 -14  -4 20.9158 25.3309   1
  -6  14   4-17.7977 24.1871   2
  14  -6  -4-8.90397 14.7181   1
  -8  -6   4 2.16437 12.4930   1
  14  -8   4-35.0685 26.9243   1
   6 -14  -1 7230.04 156.111   2
 -14   8  -1 7586.78 159.756   2
  -6  -8  -1 7099.76 138.193   1
  -8  -6   1 7104.55 103.736   1
   8 -14   1 7008.31 164.678   2
  -8  14   2 18798.9 261.043   2
  14  -6   2 18998.8 242.842   1
  -8  -6  -2 18639.8 234.874   1
 -14   6  -2 19425.2 242.061   2
   8   6   2 18584.5 231.624   1
   8   6   5 12291.8 243.706   1
  -6  -8   5 11778.8 181.092   1
   8 -14  -5 11901.0 245.093   1
  14  -6   5 12260.9 255.505   1
  14  -8  -5 11862.6 182.191   1
  -8  -6  -5 12410.9 246.358   1
  14  -6   8 2327.22 98.3559   2
  -8  -6  -8 2358.47 133.729   1
   8 -14  -8 2371.22 131.190   1
  -6  -8   8 2333.04 106.970   1
  14  -8  -8 2451.01 107.988   1
   8 -14 -11 69.2145 48.4171   1
  14  -8 -11-6.63978 32.6516   1
  -8  -6 -11-6.19628 37.8663   1
  -5  -9 -11 144.517 56.9196   1
   5 -14 -11 242.028 61.5905   1
  14  -5 -11 122.146 41.9202   1
   5 -14  -8 2352.00 134.759   1
  -9  -5   8 2402.43 97.3203   1
  14  -5  -8 2547.39 104.784   1
  -5  -9  -8 2422.43 136.409   1
  14  -9   8 2272.40 109.632   2
   5 -14  -5 3871.40 141.399   1
  -5  14   5 3953.87 113.945   2
  14  -5  -5 3940.56 89.3979   1
  -5  -9  -5 4053.13 143.963   1
  14  -9   5 3924.44 123.541   2
  -9  -5   5 3991.99 85.7269   1
  14  -9   5 4003.08 145.891   1
   5   9   5 4055.36 140.922   1
  -5  -9  -2 2915.94 98.6407   1
   9 -14   2 2846.28 108.439   2
  -5  14   2 2835.85 95.1082   2
 -14   9  -2 2894.52 106.767   2
  -9  -5   2 2471.52 49.7941   1
   5 -14  -2 2906.79 95.9681   2
   5 -14   1 554.497 49.4804   2
  -9  -5  -1 540.800 37.6020   1
  14  -5   1 572.579 38.2712   1
   9   5   1 592.355 37.9822   1
  -9  14   1 555.660 48.6666   2
  -9  14   4 134.293 30.4163   2
  14  -5   4 127.008 32.1570   1
   9   5   4 106.124 27.9541   1
  -9  -5  -4 130.731 31.6789   1
 -14   5  -4 106.799 23.8628   2
  14  -9  -7 1.34494 21.3619   1
  -9  -5  -7-37.3297 30.4867   1
   5 -14   7 14.6206 29.5283   1
  14  -5   7 29.0610 20.3990   2
  -5  -9   7 19.3122 26.8880   1
   9 -14  -7-35.2345 28.5725   1
  -9  -5 -10-12.7162 41.4542   1
  14  -5  10 15.3221 27.2710   2
  14  -9 -10 33.3506 34.3428   1
  -5  -9  10 80.9620 37.9656   1
   9 -14 -10 84.3758 45.6931   1
   9 -14 -13 8.17491 43.4178   1
  -9  -5 -13 117.979 57.3934   1
  14  -9 -13 134.645 52.4221   1
  -4 -10 -12-17.4699 43.9557   1
  14  -4 -12 23.1287 35.3479   1
   4 -14 -12 6.53444 40.1933   1
  14 -10   9-5.99836 30.0004   2
  -4 -10  -9-43.3161 37.1707   1
  14  -4  -9 7.89672 21.0840   1
 -10  -4   9 21.4132 22.4306   1
   4 -14  -9-2.23382 35.3864   1
 -10  -4   6 1170.55 49.5623   1
   4  10   6 1141.90 81.3733   1
  14 -10   6 1096.20 72.9776   2
  -4 -10  -6 1134.42 84.7496   1
  -4  14   6 1116.87 60.8813   2
  14  -4  -6 1100.25 51.3157   1
  14 -10   6 1088.05 86.7354   1
   4 -14  -6 1110.03 84.4459   1
  -4 -10  -3 10572.8 127.222   2
  14  -4  -3 10238.3 101.935   1
 -14  10  -3 10635.4 204.284   2
  -4 -10  -3 10401.6 201.786   1
  10 -14   3 10524.3 217.556   2
  -4  14   3 10475.9 176.948   2
  10 -14   0 10761.5 202.228   2
 -10  14   0 10734.8 204.283   2
  14  -4   0 10836.0 140.655   1
   4 -14   0 10902.1 197.787   2
 -10  -4   0 10935.0 134.804   1
 -14   4  -3 2421.05 84.0716   2
 -10  14   3 2438.25 99.0521   2
  14  -4   3 2430.47 96.1357   1
  10   4   3 2432.61 92.7688   1
 -10  -4  -3 2417.53 93.8688   1
  -4 -10   6 481.490 48.2552   1
  14  -4   6 436.685 51.9346   1
  10 -14  -6 412.251 51.0075   1
 -10  -4  -6 380.862 49.9375   1
  10   4   6 406.288 53.9950   1
  14 -10  -6 378.045 40.7345   1
  14  -4   9 36.5192 24.4698   2
  -4 -10   9 8.96803 27.2610   1
  10 -14  -9-4.84822 32.4249   1
 -10  -4  -9-47.9001 42.3211   1
 -10  -4 -12-8.47464 44.3376   1
  14 -10 -12 67.4568 42.6297   1
  14 -11  10 100.107 38.9781   2
  -3 -11 -10-2.00477 40.5565   1
 -11  -3  10 18.0460 25.4075   1
   3 -14 -10 11.9756 36.5257   1
  -3  14  10 52.8183 24.1154   2
  14  -3 -10 53.6782 26.4050   1
   3 -14  -7 402.566 57.0298   1
  -3  14   7 470.518 41.5826   2
  14  -3  -7 432.705 37.1539   1
 -11  -3   7 405.970 34.3991   1
  14 -11   7 354.885 48.2581   2
  -3 -11  -7 402.603 61.7266   1
  11 -14   4 4539.71 149.108   2
  14 -11   4 4528.01 137.024   2
  -3  14   4 4688.34 115.387   2
   3 -14  -4 4647.69 150.390   1
  -3 -11  -4 4662.20 149.941   1
  14  -3  -4 3933.42 63.5393   1
 -14  11  -1 6490.32 164.302   2
  11 -14   1 6208.20 159.024   2
  14  -3  -1 6367.95 85.9748   1
 -11  -3   1 5835.30 78.4373   1
   3 -14  -1 6316.20 143.144   2
 -11  14  -1 6267.82 162.537   2
 -11  14   2 28726.6 340.207   2
  14  -3   2 28571.4 286.811   1
 -11  -3  -2 28177.0 285.930   1
  11   3   2 28397.7 284.563   1
  14 -11  -5 3565.96 114.369   1
 -14   3  -5 3384.86 133.033   1
  11   3   5 3598.22 131.614   1
 -11  -3  -5 3498.72 134.465   1
  14  -3   5 3599.58 131.477   1
  11 -14  -5 3515.05 128.064   1
  14 -11  -8 66.6522 29.1866   1
 -14   3  -8 114.718 42.3451   1
  11 -14  -8 124.107 38.0924   1
  -3 -11   8 78.0315 29.1507   1
   3 -14   8 99.7377 41.1853   1
 -11  -3  -8 75.7869 35.9663   1
 -11  -3 -11 188.629 54.1769   1
  11 -14 -11 174.121 53.6605   1
  14 -11 -11 147.332 48.6814   1
  -2 -12 -11 56.0647 46.8244   1
   2 -14 -11 76.4487 48.7978   1
  12 -14   8 10.1344 30.0148   2
   2 -14  -8 3.59155 34.1014   1
  14 -12   8 62.7456 31.1968   2
  -2  14   8 42.9723 22.1946   2
  14  -2  -8 100.125 25.8660   1
 -12  -2   8 34.9052 20.9833   1
  -2 -12  -8 39.6850 36.3033   1
  12 -14   5 23.3105 26.1041   2
  14 -12   5 30.1449 23.6319   2
   2 -14  -5 45.3883 28.9818   1
  -2  14   5 35.8352 19.9312   2
  14 -12   5 49.3819 32.2793   1
  -2 -12  -5 39.6412 28.6404   1
  14  -2  -5 19.3262 8.69895   1
 -14  12  -2 706.016 57.8499   2
  12 -14   2 767.998 60.5410   2
  -2 -12  -2 793.186 45.6277   2
   2 -14  -2 782.446 49.9095   2
  -2 -12  -2 721.614 55.5990   1
 -12  -2  -1 1387.32 58.7451   1
  12   2   1 1370.13 56.7729   1
  14  -2   1 1315.34 56.7566   1
 -12  14   1 1305.32 77.7008   2
 -14   2  -4 1153.92 53.1836   2
 -12  -2  -4 1036.50 38.2181   2
 -14   2  -4 1202.77 74.8178   1
 -12  -2  -4 1183.62 73.4414   1
  12   2   4 1227.12 73.1624   1
  14  -2   4 1222.83 74.9792   1
   2 -14   7 76.5251 35.3892   1
 -14   2  -7 88.2783 35.2898   1
  14 -12  -7 60.1270 29.2697   1
  -2 -12   7 63.8628 28.3289   1
 -12  -2  -7 104.191 39.2563   1
  14 -12 -10-43.5239 35.5426   1
 -14   2 -10 8.94168 35.5643   1
  12 -14 -10 11.3035 36.4783   1
 -12  -2 -10-30.1790 39.8867   1
  -1 -13 -12 55.4120 51.5816   1
   1 -14 -12-15.5125 42.2371   1
  14 -13   9 190.754 44.0882   2
  -1  14   9 166.933 26.0913   2
 -13  -1   9 176.064 32.4731   1
  -1 -13  -9 252.417 58.0560   1
   1 -14  -9 282.261 68.2778   1
  13 -14   6 5264.99 175.155   2
  13 -14   6 5462.63 198.930   1
  14 -13   6 5290.78 191.268   1
  -1 -13  -6 5438.56 185.861   1
   1 -14  -6 5597.15 187.323   1
  14 -13   6 5320.62 168.796   2
   1 -14  -3 2657.54 86.5951   2
  13 -14   3 2453.94 106.354   2
  14 -13   3 2540.76 105.655   2
  -1 -13  -3 2625.59 108.061   1
  -1 -13  -3 2596.47 79.9860   2
   1 -14  -3 2574.76 107.518   1
 -13  -1   0 2105.53 60.6771   1
 -13  14   0 2010.82 97.2725   2
 -14  13   0 1982.80 95.6246   2
  14  -1   0 2149.98 61.3097   1
  13   1   0 1991.95 57.2148   1
 -13  -1  -3 716.819 54.7837   1
  14  -1   3 706.085 52.5199   1
 -14   1  -3 732.087 56.6393   1
  13   1   3 730.573 54.6260   1
  13   1   6 2.42749 28.4159   1
 -14   1  -6 14.0015 26.8236   1
  14 -13  -6 25.2336 25.3037   1
  14  -1   6 17.3732 26.3285   1
 -13  -1  -6 26.7715 25.8861   1
  13 -14  -6-8.12835 28.5113   1
  13 -14  -9-27.4605 39.4705   1
  -1 -13   9 36.0419 35.1035   1
 -13  -1  -9 44.2227 38.5784   1
 -14   1  -9 10.9619 33.9235   1
  14 -13  -9-23.6769 32.0527   1
  14 -13 -12 74.2716 45.1596   1
  13 -14 -12 34.2077 38.8033   1
 -13  -1 -12 53.1870 48.3991   1
   0  14  10 20.2892 15.2563   2
   0 -14 -10 32.2803 44.4539   1
  14 -14   7 1895.09 108.509   2
   0 -14  -7 2033.19 125.639   1
  14 -14   4 2025.29 104.165   2
   0 -14  -4 1980.50 103.110   1
 -14  14  -1 4328.99 140.293   2
  14   0  -1 4144.86 63.5735   1
  14   0   2 631.532 44.5070   1
 -14  14   2 581.839 52.9671   2
 -14   0  -2 642.466 48.1819   1
  14 -14  -5 10049.1 212.703   1
  14   0   5 10044.3 225.719   1
 -14   0  -5 9826.44 223.425   1
 -14   0  -8 1039.71 91.6408   1
   0 -14   8 1113.67 90.1160   1
  14 -14  -8 1041.53 82.3720   1
  14 -14 -11 271.043 61.2073   1
 -14   0 -11 197.425 57.7342   1
  15  -7 -11-22.4173 30.3748   1
  -7  -8 -11 39.5647 45.6436   1
   7 -15 -11-2.47054 41.6646   1
  15  -8   8-8.00143 23.8811   2
  -7  -8  -8 11.6940 31.6749   1
  15  -7  -8 21.3244 21.4311   1
   7 -15  -8-14.9696 33.8715   1
  -8  -7   8-8.30394 25.4712   1
  -8  -7   5 78.3898 19.9794   1
  -7  15   5 95.6166 28.0966   2
   7 -15  -5 43.0297 29.6366   1
  15  -7  -5 69.0787 18.5036   1
  -7  -8  -5 50.9194 29.4417   1
   7   8   5 79.2647 28.6902   1
  15  -8   5 105.480 31.0294   1
   8 -15   2 1664.40 88.4869   2
  -7  15   2 1672.72 78.6488   2
  -7  -8  -2 1726.46 77.1591   1
 -15   8  -2 1644.54 78.0455   2
  -8  15   1 8781.69 182.926   2
   8 -15  -1 8807.98 185.037   2
  -8  -7  -1 8845.94 153.510   1
   7 -15   1 8773.17 190.505   2
  15  -7   4 892.098 65.3056   1
   8   7   4 910.941 65.9393   1
  -8  -7  -4 869.009 65.2706   1
  15  -8  -4 935.546 48.2164   1
  -8  15   4 953.086 63.5347   2
 -15   7  -4 892.341 58.3697   2
  15  -8  -7 3059.88 109.577   1
   7 -15   7 3008.86 152.716   1
  -7  -8   7 3248.78 110.175   1
   8 -15  -7 3103.09 142.566   1
  -8  -7  -7 3076.06 143.534   1
  15  -7   7 3192.27 116.197   2
  -8  -7 -10-32.8824 47.3672   1
  15  -8 -10 27.1976 28.2894   1
   8 -15 -10 32.8801 36.4965   1
  15  -7  10 114.881 37.6410   2
  -7  -8  10 70.3675 37.9729   1
   6 -15 -12 90.7657 51.7979   1
  15  -6 -12 89.5852 40.4846   1
  -6  -9 -12 51.8249 52.3407   1
  15  -6  -9 320.593 43.2631   1
  -6  -9  -9 232.333 55.0403   1
  -9  -6   9 224.582 37.7061   1
   6 -15  -9 322.077 60.3457   1
  15  -9   9 244.265 46.7525   2
  15  -9   6 1148.18 71.0766   2
  -6  15   6 1184.10 70.2466   2
  15  -6  -6 1215.90 58.2551   1
  -6  -9  -6 1243.02 88.0386   1
  15  -9   6 1162.08 89.5015   1
   6   9   6 1257.60 88.7197   1
  -9  -6   6 1205.07 56.1824   1
   6 -15  -6 1199.32 89.9352   1
  15  -9   3 395.743 45.9091   1
  -6  15   3 343.099 37.2893   2
  -6  -9  -3 345.605 43.2260   1
 -15   9  -3 340.235 40.7152   2
   9 -15   3 370.563 48.8231   2
   9 -15   0 29.8482 24.1172   2
  -6  -9   0 14.8146 16.8779   1
   6 -15   0 19.9068 24.7234   2
  -9  -6   0 11.4327 15.2411   1
  -9  15   0-24.8922 29.6106   2
 -15   6  -3 290.246 36.6620   2
  -9  15   3 309.770 40.0401   2
   9   6   3 316.401 45.6967   1
  -9  -6  -3 321.505 38.7025   1
  15  -6   3 284.460 36.0505   1
   9   6   6 544.761 60.0376   1
  15  -6   6 525.050 55.5216   1
  -6  -9   6 471.245 43.5088   1
  15  -9  -6 566.639 46.7710   1
  -9  -6  -6 495.333 56.3637   1
   9 -15  -6 517.705 57.7916   1
   9 -15  -9 22.6133 32.3246   1
  -9  -6  -9 44.9745 37.4491   1
  15  -6   9 32.8329 24.5200   2
  15  -9  -9 66.8013 30.8639   1
  -6  -9   9 57.0156 29.4896   1
  15  -9 -12 28.2456 33.0683   1
  -9  -6 -12 12.7691 42.0219   1
   9 -15 -12-29.5052 49.2008   1
  -5 -10 -10-23.0660 36.2279   1
  15 -10  10 23.5961 36.3106   2
 -10  -5  10-28.2890 27.7524   1
   5 -15 -10 37.2526 37.3912   1
  15  -5 -10-43.3683 29.9378   1
  -5  15   7 47.1368 23.9500   2
  15  -5  -7 16.5213 17.6573   1
  15 -10   7 70.9487 28.2352   2
 -10  -5   7 52.9581 19.3768   1
  -5 -10  -7 102.124 40.6309   1
   5 -15  -7 32.3531 33.4025   1
  -5 -10  -4 1007.53 72.9714   1
   5 -15  -4 909.739 68.5068   1
  15 -10   4 952.893 62.6725   2
  -5  15   4 1014.12 59.2471   2
  15 -10   4 1007.12 73.0218   1
  15  -5  -4 1004.19 38.6414   1
 -10  -5   4 755.731 29.8410   1
  10 -15   4 945.166 72.2229   2
  10 -15   1 7436.54 179.461   2
 -10  -5   1 7632.54 100.385   1
  -5 -10  -1 7487.24 152.990   1
   5 -15  -1 7781.37 167.903   2
 -15  10  -1 8006.21 178.595   2
 -10  15   2 291.879 39.9178   2
 -10  -5  -2 311.052 33.8185   1
  10   5   2 345.990 34.6356   1
  15  -5   2 289.129 32.7240   1
  15 -10  -5 2546.27 93.8842   1
  15  -5   5 2596.99 113.531   1
 -10  -5  -5 2588.67 117.120   1
  10 -15  -5 2537.32 114.463   1
  10   5   5 2602.62 114.942   1
  10 -15  -8 238.188 48.5970   1
  15 -10  -8 216.168 38.6042   1
 -10  -5  -8 221.698 49.6729   1
  -5 -10   8 231.754 41.4643   1
  10 -15 -11 19.3317 36.6062   1
  15 -10 -11 75.7473 37.8625   1
 -10  -5 -11 88.7928 46.3576   1
   4 -15 -11-83.4559 51.3624   1
  -4 -11 -11-25.3773 44.0035   1
  -4  15  11-62.2191 27.2067   2
  15  -4 -11 71.5215 33.4235   1
  -4  15   8 36.6307 22.2745   2
  15 -11   8 24.6208 30.8145   2
   4 -15  -8-44.6166 39.4996   1
  -4 -11  -8 84.7609 44.4033   1
 -11  -4   8-22.9767 20.3500   1
  15  -4  -8 21.4777 19.0529   1
  11 -15   5 35.8172 31.1355   2
  15 -11   5 23.3195 23.6759   2
 -11  -4   5 15.7315 8.12506   1
  -4  15   5 36.4319 21.3650   2
  15  -4  -5 37.4792 11.7229   1
  -4 -11  -5-4.23984 28.3897   1
   4 -15  -5 5.80009 32.6016   1
  15 -11   5 86.3449 31.9058   1
 -15  11  -2 15357.8 253.581   2
  11 -15   2 14816.2 259.766   2
   4 -15  -2 15205.3 228.164   2
  -4 -11  -2 15078.6 237.569   1
 -11  15   1 7444.46 178.068   2
  11   4   1 7605.13 134.677   1
  15  -4   1 7730.08 138.589   1
 -11  -4  -1 7672.76 135.808   1
 -15   4  -4 2721.37 91.3614   2
 -11  15   4 3020.94 117.811   2
  11   4   4 3061.36 115.861   1
 -11  -4  -4 2777.61 111.216   1
  15  -4   4 2873.52 111.871   1
   4 -15   7 797.763 81.1385   1
  15 -11  -7 823.037 62.3002   1
  -4 -11   7 787.616 64.6625   1
 -11  -4  -7 800.633 76.8127   1
  11 -15  -7 878.379 77.6583   1
  -4 -11  10 76.5882 36.5797   1
  15 -11 -10 46.5231 34.2275   1
  11 -15 -10 94.6091 44.3612   1
 -11  -4 -10 61.1953 45.1714   1
   3 -15 -12 21.5577 45.4698   1
  -3 -12 -12 67.6771 51.6127   1
  15 -12   9 113.207 41.6181   2
  -3  15   9 125.198 30.6647   2
 -12  -3   9 78.3785 25.2715   1
  15  -3  -9 50.7944 22.1012   1
  -3 -12  -9 89.6092 43.1395   1
   3 -15  -9-8.89064 36.1873   1
  12 -15   6 447.264 57.7708   2
   3 -15  -6 400.174 59.5793   1
  -3  15   6 434.536 40.1464   2
  -3 -12  -6 448.044 60.0098   1
  15  -3  -6 365.429 27.0813   1
  15 -12   6 438.835 50.7000   2
  15 -12   6 449.816 59.1281   1
 -12  -3   6 351.547 25.4529   1
 -15  12  -3 366.666 45.6803   2
  12 -15   3 333.118 46.2472   2
  15 -12   3 346.032 41.7066   2
  -3 -12  -3 332.316 44.7957   1
  -3 -12  -3 381.016 32.7273   2
 -12  15   0 504.603 50.5004   2
  15  -3   0 544.967 33.8943   1
   3 -15   0 547.646 49.8601   2
 -15  12   0 551.083 51.7148   2
 -12  -3   0 518.742 32.2825   1
  12   3   0 514.284 30.9630   1
 -12  15   3-49.5644 30.6595   2
  15  -3   3 35.6222 22.9890   1
 -15   3  -3 17.6344 18.1001   2
  12   3   3 7.79914 20.9572   1
 -12  -3  -3-3.76327 19.4819   1
  12 -15  -6 262.113 44.4102   1
 -12  -3  -6 315.167 50.8355   1
  15 -12  -6 260.849 40.5643   1
  15  -3   6 354.326 52.3960   1
 -15   3  -6 275.557 47.8773   1
  12   3   6 298.535 47.6728   1
  12 -15  -9 195.085 44.7608   1
  -3 -12   9 114.971 38.8707   1
  15 -12  -9 73.8678 31.3533   1
 -12  -3  -9 136.086 48.2024   1
  15 -12 -12 79.9999 44.5113   1
  12 -15 -12 54.0044 47.7551   1
 -12  -3 -12 163.150 58.7181   1
  -2 -13 -10 86.2379 46.4597   1
  -2  15  10 7.80353 20.8593   2
   2 -15 -10 47.6645 41.2609   1
  13 -15   7 1.86854 29.9573   2
  -2  15   7 10.7812 17.9118   2
  -2 -13  -7 1.68345 32.4935   1
  15 -13   7 14.3621 27.1007   2
 -13  -2   7 29.5385 17.3424   1
   2 -15  -7-35.8894 34.8307   1
  15 -13   4 924.899 68.0256   2
   2 -15  -4 887.833 71.9007   1
  13 -15   4 945.497 74.9918   2
  -2 -13  -4 900.490 70.3674   1
  13 -15   1 3420.83 122.985   2
 -15  13  -1 3692.86 130.578   2
   2 -15  -1 3520.99 112.455   2
  15  -2  -1 3592.37 66.7186   1
 -13  15  -1 3552.73 128.712   2
  13   2   2 2048.98 78.9697   1
 -13  -2  -2 2068.50 80.7425   1
 -13  15   2 2013.12 97.3555   2
  15  -2   2 2070.55 80.3513   1
 -15   2  -5 315.971 43.1392   1
 -13  -2  -5 387.823 47.0610   1
  15  -2   5 391.086 47.8676   1
  13 -15  -5 326.374 41.6825   1
  13   2   5 364.420 47.2239   1
  15 -13  -5 283.661 35.0675   1
  13 -15  -8 263.556 48.8388   1
 -15   2  -8 148.783 43.4518   1
   2 -15   8 90.1241 33.8078   1
 -13  -2  -8 111.326 35.9674   1
  -2 -13   8 188.825 41.6601   1
  15 -13  -8 152.123 39.4884   1
  15 -13 -11 22.7855 36.3443   1
  13 -15 -11 17.6008 36.7770   1
 -13  -2 -11 39.2421 43.4151   1
  -1 -14 -11-16.1732 40.6250   1
   1 -15 -11 58.1370 48.9312   1
   1 -15  -8 307.312 59.1075   1
  15 -14   8 296.132 52.7375   2
  -1 -14  -8 365.366 60.8213   1
  -1  15   8 411.225 36.2167   2
  14 -15   5 728.934 64.1807   2
  15 -14   5 766.116 66.5122   2
   1 -15  -5 832.523 74.8256   1
  -1 -14  -5 823.500 70.7598   1
 -14  15  -2 406.067 49.6195   2
   1 -15  -2 407.377 39.0149   2
 -15  14  -2 441.799 51.3536   2
  -1 -14  -2 456.457 40.0097   2
  14 -15   2 449.298 49.1178   2
  15 -14   2 469.614 49.0698   2
 -14  15   1 260.500 41.4631   2
 -15  14   1 214.249 37.9761   2
  14   1   1 220.118 25.7399   1
  15  -1   1 258.331 27.2065   1
 -14  -1  -1 210.177 25.0544   1
  14   1   4 959.436 67.1378   1
 -14  -1  -4 920.340 41.3570   2
 -15   1  -4 875.503 45.1522   2
 -15   1  -4 959.802 67.3584   1
 -14  -1  -4 873.672 63.2278   1
  15  -1   4 895.061 63.8631   1
  15 -14  -7 3.60875 27.5852   1
  14 -15  -7-25.0364 32.3668   1
   1 -15   7 46.6150 33.8066   1
  -1 -14   7 8.13745 26.9384   1
 -15   1  -7-54.7137 38.1645   1
 -14  -1  -7-52.4254 37.2192   1
 -15   1 -10-5.96990 37.9828   1
 -14  -1 -10 45.3176 39.3102   1
  15 -14 -10 117.742 46.7093   1
  14 -15 -10 41.4799 36.6958   1
   0 -15 -12 114.353 60.7555   1
   0 -15  -9 341.198 73.3222   1
  15 -15   6-15.6775 25.9441   2
   0 -15  -6-22.1417 31.7281   1
   0 -15  -3 6330.77 137.621   2
  15 -15   3 6447.39 180.197   2
   0 -15  -3 6312.30 173.565   1
 -15  15   0 12184.7 245.444   2
  15   0   0 12910.9 151.741   1
  15   0   3 11769.7 213.990   1
 -15   0  -3 12088.5 218.948   1
  15 -15  -6 5585.68 175.118   1
 -15   0  -6 5543.70 184.156   1
  15   0   6 5499.82 182.375   1
  15 -15  -9 360.972 56.0301   1
 -15   0  -9 385.524 63.3413   1
 -15   0 -12-108.731 52.9467   1
  15 -15 -12-56.0969 46.3694   1
  -8  -8   0 481.341 37.2622   1
   8 -16   0 476.527 47.3122   2
  -8  16   3 720.742 54.8046   2
  -8  -8  -3 620.615 53.2676   1
  16  -8   3 708.791 57.7106   1
 -16   8  -3 646.022 53.7352   2
   8   8   3 673.443 54.4377   1
   8 -16   3 618.485 61.0191   2
  -8  16   6 31.1576 24.7887   2
   8   8   6 5.25675 26.9822   1
  16  -8  -6 33.6144 20.0984   1
  -8  -8   6-1.14067 17.6670   1
   8 -16  -6-11.7988 29.8365   1
  16  -8   6-37.3716 31.8092   1
  -8  -8  -6 9.67494 27.7767   1
   8 -16  -9 66.2707 42.4833   1
  -8  -8  -9 109.575 47.1731   1
  16  -8  -9 80.2130 29.8580   1
  -8  -8   9 72.5286 27.6936   1
  16  -8   9 127.005 37.8888   2
   8 -16 -12 246.195 66.8583   1
  16  -8 -12 163.471 45.1739   1
  -8  -8 -12 211.153 65.9056   1
  -7  -9 -10 32.3926 41.1388   1
  -9  -7  10 7.43817 27.3000   1
  16  -7 -10 59.5898 31.3203   1
  16  -9  10-11.4413 34.2443   2
   7 -16 -10 105.954 46.6165   1
   7 -16  -7 2019.91 119.505   1
  -7  16   7 2147.91 99.9081   2
  16  -9   7 2041.98 99.2837   2
  -9  -7   7 2127.41 84.0849   1
  16  -7  -7 2074.57 86.1556   1
  -7  -9  -7 2271.18 127.087   1
  16  -7  -4 2909.19 76.3390   1
   7   9   4 2893.11 114.340   1
  16  -9   4 2652.30 116.707   1
  -7  -9  -4 2802.72 117.550   1
  -7  16   4 2808.32 105.530   2
 -16   9  -4 2607.47 106.034   2
   7 -16  -1 3101.55 110.696   2
 -16   9  -1 3312.65 114.023   2
   9 -16   1 3150.20 119.574   2
  -9  -7   1 3303.41 76.2517   1
  -7  -9  -1 3239.71 99.1681   1
  -9  16   2 8229.41 182.038   2
  -9  -7  -2 8267.50 164.653   1
 -16   7  -2 8535.35 174.950   2
   7 -16   2 8199.96 200.453   2
  16  -7   2 8364.81 169.531   1
  16  -9  -5 1631.19 70.9519   1
  -9  16   5 1717.47 89.6590   2
   9   7   5 1808.24 98.1388   1
  -7  -9   5 1657.28 69.1319   1
  16  -7   5 1529.40 91.8970   1
   9 -16  -5 1593.48 93.4784   1
  -9  -7  -5 1715.49 97.8407   1
  -9  -7  -8 102.486 40.6555   1
  -7  -9   8 76.4475 28.5058   1
  16  -7   8 40.8215 25.7926   2
   9 -16  -8 40.5842 35.8539   1
  16  -9  -8 71.9107 28.3697   1
  -9  -7 -11-0.07611 41.2386   1
  16  -9 -11-24.6020 34.3219   1
   9 -16 -11 6.45760 40.6163   1
  -6  16  11 6.05657 25.9984   2
  -6 -10 -11-76.9805 50.3209   1
   6 -16 -11 56.1996 48.2616   1
  16  -6 -11 7.28131 27.5446   1
  16 -10   8 28.3262 26.4719   2
 -10  -6   8 60.8942 25.1306   1
  16  -6  -8 15.0695 19.5546   1
   6 -16  -8 27.5519 34.3659   1
  -6 -10  -8 43.1852 37.0602   1
  -6  16   8 57.6421 27.3991   2
  -6 -10  -5 22.5240 28.6854   1
   6  10   5-8.41077 29.2355   1
 -10  -6   5 14.8416 12.1047   1
  -6  16   5 0.73105 21.4485   2
  16  -6  -5 9.66764 12.6200   1
  16 -10   5 60.3855 29.0959   2
   6 -16  -5 23.6855 27.9561   1
  16 -10   5-12.3486 29.4386   1
  10 -16   2-25.3158 27.2580   2
 -16  10  -2-22.7385 27.3008   2
  -6 -10  -2-23.6601 26.7498   1
   6 -16  -2 8.73270 21.2766   2
 -10  -6   2 35.8971 11.9470   1
 -10  16   1 1255.07 74.5311   2
 -10  -6  -1 1333.55 59.4089   1
  10 -16  -1 1268.24 74.5509   2
   6 -16   1 1231.49 76.0940   2
  16  -6   1 1290.87 59.5280   1
  10   6   4 2962.59 115.315   1
 -10  16   4 3026.41 117.290   2
 -16   6  -4 2700.70 98.1342   2
  16  -6   4 2885.46 115.453   1
 -10  -6  -4 2962.74 116.159   1
 -10  -6  -7 1387.06 98.1149   1
  16 -10  -7 1395.75 80.0643   1
  -6 -10   7 1442.25 80.6558   1
  10 -16  -7 1371.07 95.2101   1
  16 -10 -10 313.858 54.5346   1
  -6 -10  10 163.172 44.8627   1
 -10  -6 -10 365.271 69.6963   1
  10 -16 -10 123.412 47.8839   1
   5 -16 -12 48.4624 46.1451   1
  -5 -11 -12 13.4795 50.7752   1
   5 -16  -9 82.5322 44.4175   1
  -5  16   9 126.533 30.2061   2
 -11  -5   9 190.342 35.7179   1
  -5 -11  -9 177.141 50.7343   1
  16 -11   9 113.513 36.3362   2
  16  -5  -9 163.944 34.2392   1
  -5 -11  -6 299.442 49.1114   1
   5 -16  -6 276.261 49.4250   1
  11 -16   6 283.413 50.7016   2
  -5  16   6 335.742 40.0951   2
  16  -5  -6 324.323 29.5230   1
  16 -11   6 339.504 46.1244   2
   5  11   6 390.970 55.3108   1
 -11  -5   6 303.532 25.7527   1
  16 -11   6 302.665 50.0811   1
  -5 -11  -3 259.135 24.2268   2
 -16  11  -3 231.945 38.7338   2
  11 -16   3 203.434 35.2467   2
  -5 -11  -3 261.009 39.7408   1
 -11  16   0 4767.27 146.941   2
  11 -16   0 4535.95 141.933   2
   5 -16   0 4636.69 139.580   2
  16  -5   0 4718.28 100.536   1
 -11  -5   0 4689.58 95.7875   1
 -11  16   3 7624.98 187.998   2
 -16   5  -3 7482.94 160.207   2
  16  -5   3 7639.35 171.842   1
  11   5   3 7815.77 171.444   1
 -11  -5  -3 7317.29 168.626   1
  11 -16  -6 8058.30 219.601   1
  -5 -11   6 7818.71 174.534   1
 -11  -5  -6 7883.28 217.284   1
  16  -5   6 7761.99 218.938   1
  16 -11  -6 8044.76 176.982   1
  11   5   6 8081.22 217.596   1
  11 -16  -9 1063.85 95.3719   1
 -11  -5  -9 1225.54 107.633   1
  -5 -11   9 1028.37 84.0255   1
  16 -11  -9 1267.92 91.4232   1
  16 -11 -12 161.985 50.8222   1
 -11  -5 -12 131.229 56.9359   1
  11 -16 -12 193.805 62.8836   1
  -4  16  10 70.0502 32.1816   2
  16 -12  10 62.9873 33.7961   2
  -4 -12 -10 149.820 52.7503   1
  16  -4 -10 100.785 28.9299   1
   4 -16 -10 152.083 51.8261   1
  -4  16   7 180.044 32.1889   2
  16 -12   7 191.233 40.7398   2
  12 -16   7 148.749 41.8280   2
   4 -16  -7 181.632 48.0408   1
  -4 -12  -7 176.310 48.7133   1
  16  -4  -7 182.467 24.8701   1
 -12  -4   7 156.468 22.4479   1
  12 -16   4 100.877 34.0062   2
  16 -12   4 100.433 25.9905   2
  16  -4  -4 73.1005 10.8273   1
   4 -16  -4 62.1932 32.3506   1
  -4 -12  -4 116.186 34.9453   1
   4 -16  -1 100.403 46.6294   2
 -16  12  -1 21.2233 25.3171   2
  12 -16   1-0.51405 24.4500   2
 -12  16  -1 39.5699 27.6686   2
  16  -4  -1 21.4416 11.4957   1
 -12  -4   1 20.7155 10.0070   1
  -4 -12  -1 21.4060 21.4765   1
  16  -4   2 114.575 24.9339   1
 -12  -4  -2 109.641 23.0551   1
  12   4   2 113.786 23.0430   1
 -12  16   2 116.317 36.4813   2
  12 -16  -5-12.9629 26.5732   1
  16  -4   5-2.87026 22.7632   1
  16 -12  -5-35.8232 24.9726   1
  12   4   5 41.9242 32.0635   1
 -12  -4  -5-1.33174 25.7231   1
  -4 -12   8 245.469 47.1990   1
  16 -12  -8 298.604 45.7681   1
 -12  -4  -8 250.433 52.4251   1
  12 -16  -8 289.537 53.3545   1
  16 -12 -11-26.6849 36.7987   1
  12 -16 -11 8.00916 36.7622   1
 -12  -4 -11-9.69151 41.3851   1
  -3 -13 -11 160.850 57.7240   1
   3 -16 -11 36.0912 40.0897   1
  -3  16   8 320.756 39.4321   2
  16 -13   8 283.061 51.5958   2
   3 -16  -8 261.702 57.1459   1
  16  -3  -8 270.370 31.7267   1
  -3 -13  -8 275.700 54.4002   1
 -13  -3   8 317.145 32.5586   1
  16 -13   5 6.12649 24.1955   2
  13 -16   5 27.1937 24.9326   2
  16 -13   5-13.4386 27.3249   1
  -3 -13  -5 39.5393 28.0722   1
  16  -3  -5 19.6812 7.38972   1
   3 -16  -5 10.5335 27.2747   1
   3 -16  -2 4655.17 128.647   2
  16  -3  -2 3963.16 59.2729   1
  13 -16   2 4664.04 153.678   2
  -3 -13  -2 4609.31 137.852   1
 -16  13  -2 4756.06 150.989   2
  13   3   1 5886.69 121.225   1
 -13  -3  -1 6248.29 128.435   1
 -13  16   1 6017.82 170.463   2
  16  -3   1 5926.99 122.213   1
 -16   3  -4 6753.62 141.282   2
 -13  -3  -4 6558.69 98.4788   2
 -13  -3  -4 6859.27 178.402   1
  13   3   4 7115.07 179.565   1
  16  -3   4 6930.89 176.642   1
 -16   3  -7 748.701 74.4901   1
  -3 -13   7 810.714 68.6837   1
 -13  -3  -7 856.839 77.6149   1
  16 -13  -7 867.845 70.7920   1
  13 -16  -7 812.874 75.9806   1
  16 -13 -10 212.224 49.7136   1
 -13  -3 -10 211.417 57.3917   1
  13 -16 -10 278.790 57.0473   1
   2 -16 -12 63.1274 55.0314   1
  -2 -14 -12 83.8198 61.0789   1
  -2  16   9 450.411 40.7898   2
  -2 -14  -9 414.927 68.4552   1
 -14  -2   9 485.034 43.6181   1
   2 -16  -9 472.073 74.4942   1
  16 -14   6 3293.54 137.087   2
  14 -16   6 3257.62 144.814   2
  -2 -14  -6 3336.71 148.109   1
   2 -16  -6 3435.69 151.317   1
 -16  14  -3 6.93375 25.4222   2
  -2 -14  -3-15.0356 17.2626   2
  14 -16   3 16.9824 24.4638   2
  16 -14   3 26.3933 22.3208   2
  -2 -14  -3 26.7952 28.5040   1
   2 -16  -3-5.68145 18.0074   2
 -14  16   0 679.369 61.2044   2
 -16  14   0 680.195 58.6356   2
  14   2   0 678.535 39.3784   1
 -14  -2   0 757.785 39.7455   1
  16  -2   0 714.432 38.5983   1
 -14  16   3 2412.64 110.721   2
  14   2   3 2425.43 97.1254   1
 -14  -2  -3 2484.20 101.189   1
  16  -2   3 2470.06 99.1753   1
  14 -16  -6 805.041 71.4108   1
 -16   2  -6 865.243 76.5237   1
  16 -14  -6 803.213 65.9679   1
  14   2   6 713.812 67.6039   1
 -14  -2  -6 770.279 69.9962   1
  16  -2   6 868.878 73.7977   1
  -2 -14   9 69.5088 33.3540   1
  16 -14  -9 154.422 43.4067   1
 -16   2  -9 87.1308 41.6069   1
  14 -16  -9 90.1342 42.8838   1
 -14  -2  -9 139.566 47.6940   1
  16 -14 -12 80.4504 45.7591   1
  14 -16 -12 178.606 59.6579   1
 -14  -2 -12 74.0790 55.6996   1
  -1 -15 -10 85.7050 49.6106   1
   1 -16 -10 28.7990 42.5214   1
  -1 -15  -7 641.971 76.0683   1
  16 -15   7 584.462 66.3664   2
   1 -16  -7 563.849 69.4274   1
  15 -16   7 531.864 66.5239   2
  15 -16   4 4363.30 157.045   2
  -1 -15  -4 4234.59 154.094   1
   1 -16  -4 4444.42 157.874   1
  16 -15   4 4515.89 155.758   2
 -15  16  -1 6301.65 176.784   2
 -16  15  -1 6363.15 177.387   2
  16  -1  -1 6398.90 87.4997   1
   1 -16  -1 6296.85 155.375   2
  16  -1   2 6989.53 151.201   1
  15   1   2 7272.48 155.077   1
 -16  15   2 7083.67 189.960   2
 -15  -1  -2 7227.53 155.196   1
 -15  16   2 7072.63 192.062   2
  15   1   5 764.635 66.6661   1
  16  -1   5 629.006 60.7006   1
 -16   1  -5 571.134 58.7013   1
 -15  -1  -5 705.077 63.4378   1
  16 -15  -8-49.1296 36.0937   1
 -16   1  -8 22.8212 32.1761   1
   1 -16   8 7.54735 34.2744   1
  15 -16  -8-4.27877 31.1411   1
  -1 -15   8 12.8810 31.0185   1
 -15  -1  -8-12.1836 35.7543   1
  16 -15 -11-56.0935 42.8020   1
 -16   1 -11 22.7450 47.6087   1
  15 -16 -11 70.3687 51.4005   1
 -15  -1 -11 59.9984 47.3083   1
   0 -16 -11 99.7702 55.6246   1
   0 -16  -8 1359.59 110.726   1
  16 -16   5 10723.2 254.005   2
   0 -16  -5 10933.7 257.578   1
  16 -16   2 24441.0 349.097   2
 -16  16  -2 25000.6 366.294   2
   0 -16  -2 24577.1 294.044   2
  16   0   1 54665.5 381.275   1
 -16   0  -4 21435.8 230.003   2
  16   0   4 22035.2 324.209   1
 -16   0  -4 21652.9 322.289   1
  16 -16  -7 3344.88 142.039   1
 -16   0  -7 3379.75 155.974   1
 -16   0 -10-38.1563 41.6973   1
  16 -16 -10-54.5583 38.5949   1
  -8  -9 -11 25.3121 46.2836   1
   8 -17 -11 164.949 57.1125   1
  17  -8 -11 126.598 42.8272   1
  17  -8  -8 89.1784 27.6223   1
  17  -9   8 79.7640 30.8410   2
  -8  17   8 139.333 37.1828   2
  -8  -9  -8 85.6302 43.1893   1
  -9  -8   8 132.112 31.7020   1
   8 -17  -8 50.5221 35.6150   1
   8   9   5 314.804 46.0116   1
   8 -17  -5 384.095 54.2432   1
  -8  17   5 406.084 45.4879   2
  -9  -8   5 399.369 32.0283   1
  -8  -9  -5 373.609 50.8466   1
  17  -8  -5 381.370 32.6995   1
  17  -9   5 371.259 49.9219   1
   9 -17   2 584.612 58.9282   2
 -17   9  -2 652.295 57.5662   2
  -8  -9  -2 680.525 51.6446   1
  -8  17   2 657.346 56.9088   2
   8 -17   1 7703.44 192.748   2
   9 -17  -1 7732.71 184.347   2
  -9  -8  -1 7929.52 153.260   1
  -9  17   1 7822.71 184.012   2
 -17   8  -4 626.692 51.7229   2
  -9  17   4 686.652 57.7329   2
  -9  -8  -4 690.698 58.1467   1
  17  -8   4 584.852 55.9959   1
   9   8   4 659.926 56.6246   1
  -9  -8  -7 84.9009 35.5985   1
  -8  -9   7 61.8139 21.3707   1
  -9  17   7 29.1475 28.0540   2
   9 -17  -7 31.4798 30.7340   1
  17  -9  -7 67.8163 26.2331   1
  17  -9 -10 241.627 46.1112   1
  -9  -8 -10 355.747 71.5014   1
   9 -17 -10 331.281 65.7776   1
  -8  -9  10 267.149 48.3483   1
  -7 -10 -12-38.4616 48.8081   1
   7 -17 -12 0.14048 45.1635   1
  -7 -10  -9 471.115 72.0737   1
   7 -17  -9 446.384 70.2212   1
  17 -10   9 384.335 56.5526   2
  17  -7  -9 367.861 45.7176   1
 -10  -7   9 428.289 48.4555   1
  -7  17   9 430.179 51.4975   2
  17 -10   6 93.6867 29.5605   2
  -7  17   6 80.0826 27.3597   2
 -10  -7   6 111.717 22.1253   1
  -7 -10  -6 96.4213 38.1380   1
   7 -17  -6 92.0910 37.4056   1
  17  -7  -6 73.0322 17.9221   1
  -7  17   3 616.052 52.5424   2
  10 -17   3 570.561 58.9305   2
 -17  10  -3 583.604 53.4090   2
  17 -10   3 636.545 61.6302   1
  -7 -10  -3 586.202 53.9210   1
   7 -17   0-4.09773 22.3146   2
 -10  -7   0-1.60155 17.2064   1
  10 -17   0-14.0422 28.4456   2
  -7 -10   0-23.9480 20.1158   1
  10   7   3 430.377 44.3394   1
 -17   7  -3 392.004 42.2027   2
 -10  17   3 387.982 46.8973   2
 -10  -7  -3 432.410 45.5136   1
  17  -7   3 457.407 45.6594   1
  10 -17  -6 3.50081 30.3760   1
  17  -7   6 25.8554 25.4536   1
 -10  -7  -6-9.91468 31.4609   1
 -10  17   6 24.5300 25.3780   2
  -7 -10   6 1.10460 18.7545   1
  17 -10  -6 38.2336 21.9570   1
  10   7   6-7.38641 32.1796   1
  -7 -10   9 12.3489 29.7494   1
 -10  -7  -9 0.28245 41.9196   1
  10 -17  -9 6.98115 34.9314   1
  17 -10  -9 7.69797 27.8584   1
  10 -17 -12 6.02121 42.0476   1
 -10  -7 -12 34.5758 43.0336   1
  17 -10 -12-41.1968 36.8995   1
  -6  17  10 152.485 36.3176   2
  17 -11  10 138.030 46.3311   2
  -6 -11 -10 185.179 56.9245   1
  17  -6 -10 114.290 31.8572   1
   6 -17 -10 207.831 58.8337   1
  17 -11   7 1805.29 100.628   2
 -11  -6   7 1982.38 71.3818   1
  -6 -11  -7 1795.13 116.175   1
  -6  17   7 1762.60 87.8406   2
  17  -6  -7 1844.86 74.3018   1
   6 -17  -7 1873.75 118.094   1
  11 -17   4 2781.25 129.024   2
  -6 -11  -4 2512.59 58.3372   2
  -6  17   4 2732.70 102.517   2
   6 -17  -4 2643.86 122.078   1
  -6 -11  -4 2850.16 122.510   1
  17 -11   4 2729.34 123.081   1
  17  -6  -4 2725.71 65.0123   1
   6 -17  -1 1623.92 83.6286   2
  -6 -11  -1 1637.23 76.3053   1
 -17  11  -1 1689.23 90.4840   2
 -11  -6   1 1676.06 52.0323   1
  11 -17   1 1653.71 91.4034   2
 -11  17   2 30.7482 26.0095   2
  11   6   2 55.1032 18.2496   1
 -11  -6  -2 51.4430 20.7338   1
  17  -6   2 59.5287 21.8654   1
  17  -6   5 325.880 47.4927   1
 -11  -6  -5 367.739 49.2002   1
 -11  17   5 420.241 50.7452   2
  17 -11  -5 403.870 40.0583   1
  11   6   5 445.932 55.1835   1
  11 -17  -5 395.933 50.8262   1
  -6 -11   8 389.517 50.2383   1
  11 -17  -8 421.509 62.0161   1
  17 -11  -8 366.731 48.5904   1
 -11  -6  -8 415.893 64.1056   1
  17 -11 -11 228.603 49.0315   1
  11 -17 -11 208.642 59.3343   1
 -11  -6 -11 226.987 59.2480   1
  -5 -12 -11 50.2879 43.6468   1
  17  -5 -11 63.9345 31.2176   1
   5 -17 -11 107.596 54.4157   1
  -5 -12  -8 736.988 85.3061   1
  17 -12   8 698.842 68.3235   2
  -5  17   8 660.959 56.7426   2
   5 -17  -8 686.809 81.1978   1
  17  -5  -8 664.193 49.9413   1
 -12  -5   8 663.630 46.1734   1
  -5  17   5 3938.58 122.192   2
  17 -12   5 4101.72 138.683   2
  -5 -12  -5 4120.29 157.887   1
   5 -17  -5 4264.90 162.057   1
  17 -12   5 4100.59 161.323   1
  12 -17   5 4083.50 160.549   2
  17  -5  -5 3837.60 77.8624   1
 -17  12  -2 2895.05 118.151   2
  -5 -12  -2 2859.95 108.060   1
  12 -17   2 2832.06 122.419   2
 -12  -5   2 2368.67 45.4924   1
   5 -17  -2 2810.66 106.100   2
 -12  17   1 903.009 67.6287   2
  12   5   1 1073.91 53.9123   1
   5 -17   1 907.270 70.0610   2
  17  -5   1 972.524 52.3969   1
 -12  -5  -1 988.732 52.9041   1
 -12  -5  -4-14.8896 24.4862   1
 -12  17   4-33.5281 31.5968   2
  12   5   4-17.3075 22.0130   1
 -17   5  -4-17.4642 19.8346   2
  17  -5   4-2.53314 20.7047   1
  12 -17  -7 173.714 42.1741   1
  17 -12  -7 257.961 40.6193   1
  -5 -12   7 186.959 35.5494   1
 -12  -5  -7 177.108 45.1237   1
  12 -17 -10 147.182 47.2795   1
  -5 -12  10 239.012 54.2452   1
  17 -12 -10 228.832 48.6050   1
 -12  -5 -10 185.403 58.4570   1
   4 -17 -12-22.5206 43.7369   1
  -4 -13 -12 44.9435 49.0048   1
  17 -13   9-58.9787 40.0003   2
  -4 -13  -9 11.4633 36.1593   1
 -13  -4   9-8.31598 20.1132   1
  17  -4  -9 10.6687 22.8836   1
   4 -17  -9-0.47194 38.9748   1
  -4  17   9-6.52924 24.1429   2
  13 -17   6 220.716 46.9932   2
  -4 -13  -6 257.659 46.9226   1
 -13  -4   6 200.162 17.1546   1
  17 -13   6 303.536 50.4808   2
   4 -17  -6 231.516 44.7185   1
  -4  17   6 247.671 35.4968   2
  17  -4  -6 209.923 20.4231   1
  -4 -13  -3 2461.27 77.2958   2
  13 -17   3 2411.12 117.951   2
   4 -17  -3 2391.23 94.9720   2
  -4 -13  -3 2505.37 108.502   1
 -17  13  -3 2452.06 113.713   2
 -13  17   0 3511.07 132.568   2
 -17  13   0 3656.08 131.868   2
  13 -17   0 3539.30 130.145   2
  17  -4   0 3639.22 88.4030   1
 -13  -4   0 3620.16 85.7931   1
   4 -17   0 3599.08 128.577   2
 -17   4  -3 8788.94 170.278   2
 -13  17   3 9033.55 214.303   2
 -13  -4  -3 8976.58 188.128   1
  17  -4   3 8798.25 186.464   1
  13   4   3 9124.17 188.185   1
  17 -13  -6 3073.16 118.567   1
  13 -17  -6 3091.97 136.518   1
 -13  -4  -6 3065.62 140.281   1
  13   4   6 3157.99 140.059   1
  17  -4   6 2894.09 135.126   1
  13 -17  -9 258.463 52.4441   1
  -4 -13   9 237.037 48.2406   1
  17 -13  -9 295.956 51.1025   1
 -13  -4  -9 293.171 56.1560   1
  17 -13 -12-39.1857 37.6803   1
  13 -17 -12-90.7492 51.8048   1
 -13  -4 -12-66.0228 50.0052   1
  -3  17  10 98.2335 28.4049   2
  -3 -14 -10 69.5703 46.3066   1
   3 -17 -10 97.8660 49.7924   1
  -3 -14  -7 238.344 53.5072   1
  17 -14   7 240.406 47.4831   2
  -3  17   7 228.316 33.1651   2
   3 -17  -7 200.628 53.2033   1
  -3 -14  -4 515.485 35.5765   2
  14 -17   4 501.292 59.1187   2
   3 -17  -4 510.475 58.8651   1
  17 -14   4 469.835 52.1269   2
  -3 -14  -4 452.486 53.7336   1
   3 -17  -1 8731.73 188.759   2
 -17  14  -1 9105.08 215.967   2
  14 -17   1 8599.86 207.177   2
 -14  -3   1 8944.78 108.285   1
  17  -3  -1 9220.97 115.962   1
 -14  17  -1 8985.38 218.190   2
 -14  -3  -2 22468.1 274.094   1
  17  -3   2 21868.3 273.182   1
 -14  17   2 21798.6 334.642   2
  14   3   2 21877.3 267.446   1
  17 -14  -5 12448.0 232.759   1
 -14  -3  -5 12211.7 256.115   1
  14   3   5 12387.6 260.381   1
  17  -3   5 12115.6 257.204   1
  17 -14  -8 2283.97 122.605   1
  -3 -14   8 1668.07 105.147   1
 -14  -3  -8 1679.10 117.952   1
  14 -17  -8 1883.37 121.697   1
  17 -14 -11 154.043 47.7391   1
  14 -17 -11 122.184 54.6623   1
 -14  -3 -11 78.7251 49.1301   1
  -2 -15 -11-86.7377 53.7576   1
   2 -17 -11-38.5669 49.7313   1
   2 -17  -8 96.6164 44.7039   1
  17 -15   8 26.4661 32.4590   2
  -2 -15  -8 87.5830 47.7103   1
  15 -17   5 109.715 36.7635   2
  -2 -15  -5 68.0476 32.6098   1
   2 -17  -5 97.3911 34.5719   1
  17 -15   5 108.183 34.7056   2
 -17  15  -2 554.383 61.2668   2
   2 -17  -2 512.024 46.8555   2
  -2 -15  -2 584.524 53.8549   1
  15 -17   2 572.930 58.1246   2
  -2 -15  -2 593.514 45.6209   2
 -15  17   1 4061.52 147.666   2
 -17  15   1 4014.65 143.275   2
 -15  -2  -1 4217.42 106.038   1
  15   2   1 4105.75 104.186   1
  17  -2   1 4233.70 108.658   1
 -17   2  -4 6120.37 134.109   2
 -15  -2  -4 5880.33 106.848   2
  17  -2   4 6316.29 171.537   1
  15   2   4 6148.83 171.087   1
 -15  -2  -4 5965.29 167.500   1
  -2 -15   7 809.404 72.8706   1
 -17   2  -7 819.225 79.9936   1
 -15  -2  -7 767.231 77.4620   1
  15 -17  -7 794.160 77.4399   1
  17 -15  -7 799.393 68.3896   1
  15 -17 -10-14.2959 35.1633   1
 -15  -2 -10 60.3823 44.4687   1
  17 -15 -10 8.89838 32.6310   1
  -1 -16 -12 5.67641 43.8583   1
   1 -17 -12-30.7294 46.2322   1
   1 -17  -9 75.1331 45.3483   1
  -1 -16  -9-86.9855 48.7767   1
   1 -17  -6 398.756 61.7333   1
  16 -17   6 256.681 48.3787   2
  17 -16   6 337.004 51.4530   2
  -1 -16  -6 454.640 66.4108   1
  -1 -16  -3 3932.80 112.904   2
   1 -17  -3 3812.88 141.187   1
  16 -17   3 3809.27 147.339   2
  17 -16   3 3844.44 141.036   2
   1 -17  -3 4001.06 120.010   2
  -1 -16  -3 3896.51 142.421   1
 -17  16   0 5318.21 171.351   2
  17  -1   0 5732.48 107.707   1
 -16  17   0 5490.41 173.585   2
  16   1   0 5633.80 104.323   1
  17  -1   3 3361.84 117.223   1
 -16  17   3 3319.55 136.326   2
  16   1   3 3297.78 117.102   1
 -17   1  -3 3377.89 120.754   1
 -16  -1  -3 3301.70 118.984   1
  17 -16  -6-0.00582 27.6077   1
 -17   1  -6-21.7887 31.4530   1
 -16  -1  -6-1.46308 30.8424   1
  16 -17  -6-19.5743 35.0956   1
  17 -16  -9 7.02894 34.0065   1
  16 -17  -9-65.5766 40.3858   1
 -17   1  -9 28.4256 34.6423   1
 -16  -1  -9-57.0590 39.1543   1
  17 -16 -12 30.0390 41.7073   1
  16 -17 -12-70.5244 44.7884   1
 -16  -1 -12 33.4974 50.1539   1
   0 -17 -10 103.851 58.5042   1
   0 -17  -7-6.80685 34.9041   1
  17 -17   4 5277.52 177.822   2
   0 -17  -4 5724.88 183.951   1
  17   0  -1 6629.02 92.0479   1
 -17  17  -1 7068.39 200.259   2
 -17  17   2 3721.03 148.760   2
  17   0   2 3690.85 114.448   1
 -17   0  -2 3929.40 120.963   1
 -17   0  -5 818.558 44.5188   2
  17   0   5 940.012 75.5487   1
 -17   0  -5 887.234 72.9768   1
 -17   0  -8 137.711 48.0341   1
  17 -17  -8 104.852 38.9668   1
 -17   0 -11 126.663 53.5671   1
  17 -17 -11 127.068 49.0833   1
  -9  -9   0 10981.1 171.507   1
   9 -18   0 11075.9 229.743   2
  -9  18   3 1637.56 85.2630   2
 -18   9  -3 1674.16 88.0298   2
  -9  -9  -3 1660.65 85.6382   1
  18  -9   3 1797.68 90.5505   1
   9 -18   3 1675.82 102.440   2
   9 -18  -6-0.13909 29.8479   1
  -9  18   6 8.95752 25.0498   2
  -9  -9   6 66.9452 22.1892   1
  18  -9  -6 43.9966 19.3087   1
  -9  -9  -6 32.2477 31.6237   1
  -9  -9  -9 54.3552 35.9349   1
  18  -9  -9 59.3613 23.7802   1
  -9  18   9 100.227 34.6460   2
  18  -9   9 149.172 40.7303   2
  -9  -9   9 116.754 33.2065   1
   9 -18  -9 107.245 46.4630   1
   9 -18 -12-104.655 56.9678   1
  -9  -9 -12 26.7994 47.0433   1
  18  -8 -10 9.00079 29.0225   1
   8 -18 -10 86.0423 48.7521   1
  -8 -10 -10 66.4368 46.1690   1
  -8  18  10 197.930 48.1264   2
 -10  -8   7 17.0807 18.2023   1
   8 -18  -7 47.4136 35.3234   1
  -8  18   7 10.6180 27.7159   2
  -8 -10  -7 157.877 46.7312   1
  18  -8  -7 30.7904 21.8737   1
  -8 -10  -4 171.629 38.3073   1
  10 -18   4 185.438 39.0934   2
  18  -8  -4 174.475 22.4034   1
 -18  10  -4 117.913 31.3521   2
  -8  18   4 107.842 27.8216   2
  18 -10   4 111.196 30.1721   1
  -8 -10  -4 129.403 13.3859   2
   8 -18  -1 24.6366 24.7428   2
  10 -18   1 101.797 34.2295   2
  -8 -10  -1 55.5498 24.8100   1
 -18  10  -1 61.3346 27.3140   2
 -10  -8   1 57.3529 18.7451   1
 -10  18   2 2117.40 99.1150   2
 -18   8  -2 2397.97 100.478   2
 -10  -8  -2 2295.77 92.1481   1
  18  -8   2 2179.90 91.0869   1
   8 -18   2 2171.11 111.695   2
  10 -18  -5 1581.86 99.6141   1
  18 -10  -5 1640.27 72.1683   1
  10   8   5 1696.29 98.0734   1
  18  -8   5 1500.44 96.1484   1
 -10  -8  -5 1529.21 96.1001   1
 -10  18   5 1608.33 90.8442   2
  -8 -10   8 54.6197 28.2144   1
 -10  -8  -8 37.6481 35.4361   1
 -10  18   8 157.131 39.5994   2
  18 -10  -8 96.9745 31.5424   1
  10 -18  -8 66.8668 42.2898   1
 -10  -8 -11 227.663 65.1808   1
  18 -10 -11 199.599 51.3367   1
  10 -18 -11 91.0488 57.8799   1
  -7 -11 -11 147.726 60.2545   1
   7 -18 -11 52.2561 48.9938   1
  18  -7 -11 103.869 34.3386   1
  18  -7  -8 54.4599 23.2131   1
  -7  18   8 32.9222 29.6456   2
  -7 -11  -8 72.1926 40.7559   1
  18 -11   8 54.4632 30.5716   2
 -11  -7   8 68.1729 22.2243   1
   7 -18  -8 77.1624 43.5462   1
  -7 -11  -5 451.371 55.7882   1
  11 -18   5 416.564 60.4521   2
   7 -18  -5 380.267 51.6624   1
  -7  18   5 473.194 48.5785   2
  18  -7  -5 461.447 32.6248   1
 -11  -7   5 347.424 26.3288   1
  18 -11   5 458.210 61.3334   1
  -7 -11  -2 296.391 38.6441   1
   7 -18  -2 289.445 39.9507   2
 -18  11  -2 279.358 44.7309   2
  11 -18   2 325.131 47.4909   2
 -11  -7   2 283.656 22.6750   1
 -11  18   1 3183.93 123.220   2
 -11  -7  -1 3131.16 96.3840   1
  11 -18  -1 3056.88 121.057   2
  18  -7   1 3010.73 95.7563   1
   7 -18   1 3121.97 125.684   2
  11   7   4 328.972 44.4596   1
 -18   7  -4 307.901 38.9953   2
 -11  18   4 349.221 46.5327   2
  18  -7   4 317.595 43.0139   1
 -11  -7  -4 314.474 43.2766   1
 -11  -7  -7 38.0464 35.8615   1
  18 -11  -7 19.9079 21.3179   1
 -11  18   7 58.9810 31.0737   2
  11 -18  -7 55.0924 39.1162   1
  -7 -11   7 109.691 31.4417   1
  11 -18 -10 57.2314 40.6940   1
  18 -11 -10 43.6283 31.1518   1
 -11  -7 -10 29.8717 44.3061   1
  -6 -12 -12 15.9855 47.6834   1
   6 -18 -12-17.7851 43.9125   1
  18 -12   9 130.509 40.7077   2
  -6  18   9 207.096 40.7853   2
   6 -18  -9 215.306 55.2934   1
  -6 -12  -9 193.411 54.2741   1
 -12  -6   9 182.974 33.1033   1
  18  -6  -9 137.317 31.0549   1
  -6  18   6 205.460 36.2784   2
 -12  -6   6 223.077 21.1177   1
  18 -12   6 231.312 40.1041   2
  18  -6  -6 184.207 22.8847   1
   6 -18  -6 265.990 51.6919   1
  -6 -12  -6 222.335 49.1360   1
 -18  12  -3 1217.57 79.1911   2
  -6 -12  -3 1234.35 77.3672   1
  12 -18   3 1147.52 81.7045   2
 -12  -6   0 2111.95 68.6856   1
  12 -18   0 1958.70 100.059   2
 -12  18   0 1906.28 99.2522   2
   6 -18   0 2059.39 99.7921   2
  18  -6   0 2072.56 71.4990   1
  12   6   3 113.159 27.3493   1
 -12  18   3 128.700 33.5719   2
 -18   6  -3 70.3985 23.3302   2
 -12  -6  -3 136.628 32.3581   1
  18  -6   3 81.9984 27.5501   1
 -12  -6  -6-5.23036 31.1619   1
  18 -12  -6-21.8512 23.1090   1
  12 -18  -6 46.9329 38.6873   1
  -6 -12   6 1.85139 21.4564   1
 -12  18   6-34.4841 30.5316   2
 -12  -6  -9 427.059 69.5930   1
  12 -18  -9 475.917 71.2600   1
  18 -12  -9 442.134 57.1458   1
  -6 -12   9 408.525 55.9398   1
  18 -12 -12 2.65820 35.2358   1
  12 -18 -12-28.2554 48.0685   1
 -12  -6 -12-7.96957 45.9278   1
  -5  18  10-23.6223 28.1194   2
  -5 -13 -10-5.19676 39.7835   1
  18  -5 -10-28.1637 25.0871   1
   5 -18 -10-46.0946 47.6204   1
   5 -18  -7 160.192 38.5699   1
 -13  -5   7 166.812 20.1341   1
  -5  18   7 216.265 35.4873   2
  18 -13   7 189.183 42.7614   2
  -5 -13  -7 208.043 50.2000   1
  18  -5  -7 166.693 22.9485   1
  13 -18   4-43.9741 35.7493   2
   5 -18  -4-64.9994 35.5707   1
  18  -5  -4-15.5981 8.02548   1
  -5 -13  -4-13.1789 13.3773   2
  -5 -13  -4-6.81838 27.2670   1
   5 -18  -1 269.908 40.3063   2
 -13  -5   1 237.407 20.6487   1
 -18  13  -1 266.817 45.4329   2
  13 -18   1 225.489 40.0551   2
  18  -5  -1 223.570 21.6553   1
  -5 -13  -1 217.774 34.5432   1
 -13  18   2 1530.68 91.3721   2
  13   5   2 1486.47 72.2092   1
  18  -5   2 1605.09 76.8322   1
 -13  -5  -2 1530.75 72.4222   1
 -13  18   5 447.485 54.9251   2
  13   5   5 439.291 54.6346   1
  18 -13  -5 386.675 43.2167   1
 -13  -5  -5 399.152 51.7512   1
  18  -5   5 407.529 50.5944   1
 -13  -5  -8 164.952 48.1634   1
  18 -13  -8 201.023 41.4281   1
  13 -18  -8 232.353 54.6441   1
  -5 -13   8 92.5278 30.7602   1
  13 -18 -11 109.769 58.9964   1
 -13  -5 -11 16.3567 43.4789   1
  18 -13 -11-33.3552 37.5312   1
  -4 -14 -11 48.5298 45.4333   1
   4 -18 -11 89.8852 54.1809   1
  -4  18   8 238.087 35.2977   2
  18 -14   8 258.540 51.5252   2
 -14  -4   8 217.078 26.5995   1
   4 -18  -8 682.100 89.3134   1
  18  -4  -8 173.516 24.3713   1
  -4 -14  -8 308.650 61.3639   1
  14 -18   5 728.731 71.6808   2
  18 -14   5 764.637 76.7893   1
   4 -18  -5 757.486 77.1214   1
  -4 -14  -5 733.048 70.2836   1
  18 -14   5 754.626 66.0403   2
 -18  14  -2 47.7132 26.7855   2
   4 -18  -2 93.1710 24.7856   2
  14 -18   2 87.3876 28.3216   2
  -4 -14  -2 82.2191 27.6747   1
  18  -4  -2 80.9695 11.8191   1
 -14  -4  -1 59.8958 20.0904   1
 -14  18   1 10.9710 27.9310   2
  18  -4   1 51.9509 17.8466   1
  14   4   1 79.4735 20.3471   1
  14   4   4 107.775 31.5513   1
 -18   4  -4 41.4091 19.6201   2
 -14  18   4 115.076 28.8770   2
  18  -4   4 91.0181 27.5156   1
 -14  -4  -4 68.6129 26.3679   1
 -14  -4  -7 170.026 43.2958   1
  18 -14  -7 126.149 36.6079   1
  -4 -14   7 112.816 32.9791   1
  14 -18  -7 134.555 43.6688   1
  14 -18 -10 0.47954 40.0700   1
  18 -14 -10 11.8904 30.5901   1
 -14  -4 -10 59.6276 40.1461   1
  -3 -15 -12 113.836 58.7846   1
   3 -18 -12-33.7640 51.7371   1
  -3  18   9-50.7188 24.3405   2
   3 -18  -9-47.1238 36.4273   1
  -3 -15  -9 55.6478 41.2261   1
   3 -18  -6 318.174 55.0650   1
  -3 -15  -6 233.709 47.5964   1
  18 -15   6 267.404 46.3747   2
   3 -18  -3 1805.31 84.1719   2
  -3 -15  -3 1901.50 99.6131   1
  -3 -15  -3 1900.73 74.7158   2
  15 -18   3 1788.03 104.810   2
 -18  15  -3 1699.66 99.9139   2
 -18  15   0 8432.14 211.984   2
 -15  18   0 8085.16 208.368   2
   3 -18   0 8247.57 199.946   2
 -15  -3   0 8685.91 135.048   1
  18  -3   0 8661.71 138.143   1
 -15  18   3 3754.14 146.726   2
 -15  -3  -3 3678.05 124.884   1
  15   3   3 3771.17 125.738   1
  18  -3   3 3592.68 122.601   1
  15 -18  -6 235.732 47.8922   1
  18 -15  -6 272.923 43.3117   1
 -15  -3  -6 254.536 48.0951   1
  -3 -15   9-9.91290 34.5823   1
  18 -15  -9 46.4906 34.0570   1
  15 -18  -9-16.9123 33.8550   1
 -15  -3  -9-30.5937 35.6603   1
  18 -15 -12 216.372 57.9828   1
  15 -18 -12-12.9983 42.4251   1
 -15  -3 -12 117.933 60.3055   1
  -2 -16 -10 86.5674 50.0995   1
   2 -18 -10 15.2374 40.3160   1
  18 -16   7 19.0655 30.9555   2
  -2 -16  -7 10.6194 34.1668   1
   2 -18  -7 5.69983 33.7179   1
  -2 -16  -4 793.444 71.4121   1
  18 -16   4 762.822 68.2327   2
   2 -18  -4 770.236 71.4030   1
  16 -18   4 817.521 73.7521   2
  -2 -16  -4 838.253 50.2347   2
 -16  18  -1 1175.58 83.0903   2
 -18  16  -1 1172.56 83.5817   2
  18  -2  -1 1229.49 42.9259   1
   2 -18  -1 1214.91 74.9214   2
 -16  18   2 31.0273 31.5083   2
 -18  16   2-7.16580 29.3020   2
  18  -2   2 24.3659 22.1658   1
 -16  -2  -2 19.9755 18.8477   1
  16   2   2 21.1753 20.1056   1
 -18   2  -5 52.6494 20.6005   2
 -16  -2  -5 41.5753 12.8949   2
  16   2   5 66.3921 31.6894   1
 -18   2  -5 67.0298 33.5332   1
  18  -2   5 70.7721 30.5178   1
 -16  -2  -5 52.0612 29.0556   1
  16 -18  -8 97.8977 40.7963   1
 -18   2  -8 95.3096 43.7798   1
  -2 -16   8 171.539 44.5833   1
  18 -16  -8 142.469 42.8159   1
 -16  -2  -8 118.278 46.1456   1
  18 -16 -11 156.837 51.8740   1
 -16  -2 -11 81.6005 48.4611   1
  16 -18 -11 122.022 51.0560   1
   1 -18 -11-77.4406 52.6766   1
  -1 -17 -11 47.9895 51.2264   1
   1 -18  -8 152.676 51.6732   1
  -1 -17  -8 185.844 57.6918   1
  -1 -17  -5 114.631 35.9477   1
  17 -18   5 182.073 44.1420   2
  18 -17   5 194.816 41.4453   2
   1 -18  -5 94.6709 33.6254   1
 -17  18  -2 23.4733 31.6258   2
  -1 -17  -2 47.1678 21.4304   2
 -18  17  -2 1.85688 30.4291   2
   1 -18  -2 2.25180 18.9702   2
  17 -18   2 33.9013 24.7536   2
 -17  18   1 1.39779 31.1386   2
 -18  17   1 45.9724 31.4489   2
 -17  -1  -1 39.9431 21.5044   1
  17   1   1 35.9590 18.2204   1
  18  -1   1 49.3680 21.0590   1
  17   1   4-24.8581 29.3650   1
 -18   1  -4 31.3455 20.6000   2
 -17  -1  -4 14.8703 16.7749   2
 -18   1  -4 32.3910 24.4652   1
 -17  -1  -4-14.1625 27.9090   1
  18  -1   4 51.0180 28.5574   1
 -18   1  -7 9.80027 32.0145   1
  18 -17  -7-24.1553 31.4652   1
 -17  -1  -7 35.5185 32.3743   1
  17 -18  -7 1.78179 34.9440   1
  17 -18 -10-77.5916 46.5655   1
  18 -17 -10-0.26785 33.5881   1
 -18   1 -10-41.5958 48.7763   1
 -17  -1 -10 15.0705 40.3389   1
   0 -18  -9 143.209 53.1683   1
   0 -18  -6 793.132 83.1868   1
   0 -18  -3 1159.78 67.4025   2
  18 -18   3 1092.15 81.2899   2
   0 -18  -3 1079.08 80.3773   1
 -18  18   0 1235.86 89.5674   2
  18   0   0 1259.00 52.4465   1
  18   0   3 302.938 40.9219   1
 -18  18   3 373.477 52.9285   2
 -18   0  -3 310.169 40.5812   1
 -18   0  -6 1615.75 102.237   1
  18 -18  -6 1638.41 102.910   1
  18 -18  -9-12.3907 33.0010   1
 -18   0  -9 30.5255 36.6607   1
  -9 -10 -11 17.0963 52.7683   1
  -9  19  11 24.3284 36.7929   2
   9 -19 -11-16.7486 40.8151   1
  19  -9 -11 13.1570 29.2468   1
  -9  19   8 94.4757 32.4940   2
  -9 -10  -8 142.046 48.5132   1
  19  -9  -8 123.463 29.2028   1
 -10  -9   8 94.5021 26.6472   1
   9 -19  -8 152.758 47.4532   1
   9  10   5 399.359 52.9902   1
   9 -19  -5 343.787 52.7685   1
  -9  19   5 364.653 46.9894   2
 -10  -9   5 378.729 31.7290   1
  -9 -10  -5 366.564 52.3876   1
  19 -10   5 328.420 52.4104   1
  19  -9  -5 398.759 34.3669   1
  10 -19   2 1024.61 78.9446   2
 -19  10  -2 1046.85 74.6002   2
  -9 -10  -2 1022.23 65.3157   1
 -10  -9   2 1050.73 46.0536   1
  -9  19   2 1004.57 69.1872   2
   9 -19   1 440.240 50.6107   2
  10 -19  -1 444.490 50.5902   2
 -10  -9  -1 479.147 43.8817   1
  -9 -10   1 539.587 38.0236   1
 -10  -9  -4 581.388 56.5387   1
 -19   9  -4 572.272 54.4366   2
  10   9   4 635.865 58.1896   1
  19  -9   4 559.463 56.2012   1
 -10  19   4 642.078 58.2397   2
   9 -19   4 589.792 68.6447   2
 -10  19   7 391.092 50.2496   2
 -10  -9  -7 409.529 59.0720   1
  10 -19  -7 410.776 62.6785   1
  -9 -10   7 408.663 42.0045   1
  19 -10  -7 420.588 42.8756   1
 -10  -9 -10 200.524 60.7497   1
  19 -10 -10 186.912 42.7146   1
  10 -19 -10 139.536 52.2240   1
 -10  19  10 15.2214 29.8241   2
   8 -19 -12-7.89401 44.6428   1
  -8 -11 -12-12.4487 46.7321   1
  19  -8  -9 194.056 36.3534   1
 -11  -8   9 192.667 34.0910   1
   8 -19  -9 231.422 58.5503   1
  19 -11   9 207.718 46.6727   2
  -8 -11  -9 254.012 58.1129   1
  -8  19   9 268.951 45.8019   2
  -8  19   6 27.8302 23.9413   2
 -11  -8   6 49.1319 17.0834   1
   8 -19  -6-6.53853 34.3595   1
  -8 -11  -6 76.5148 34.5430   1
  19  -8  -6 45.1081 18.2722   1
  -8  19   3 14.9964 24.3732   2
  11 -19   3 97.1155 34.0240   2
 -19  11  -3 83.9413 31.8785   2
  -8 -11  -3 53.7556 26.4578   1
  19 -11   3 38.7710 26.2771   1
   8 -19   0 6627.80 184.122   2
  11 -19   0 6754.92 187.943   2
  -8 -11   0 6565.44 143.863   1
 -11  -8   0 6767.18 130.508   1
 -11  19   3 9279.91 212.949   2
 -11  -8  -3 9347.57 201.248   1
  11   8   3 9434.69 200.173   1
  19  -8   3 9095.66 201.521   1
 -19   8  -3 9129.26 200.698   2
   8 -19   3 8889.64 236.735   2
 -11  19   6 3213.38 134.514   2
  11 -19  -6 3158.44 149.056   1
  -8 -11   6 3033.20 104.473   1
  19 -11  -6 3242.07 109.620   1
 -11  -8  -6 3126.58 146.604   1
 -11  19   9 1240.05 92.8491   2
  11 -19  -9 1250.41 109.318   1
 -11  -8  -9 1405.00 119.725   1
  -8 -11   9 1214.82 83.9605   1
  19 -11  -9 1412.13 90.2766   1
  11 -19 -12 52.2550 51.7752   1
 -11  -8 -12 65.1503 52.4219   1
  -7 -12 -10-2.12786 39.9571   1
   7 -19 -10-38.2139 44.4648   1
  -7  19  10-11.8573 27.6783   2
  19  -7 -10 39.8971 27.7552   1
 -12  -7   7 19.4548 14.4944   1
  -7  19   7 4.64175 25.3745   2
   7 -19  -7-14.4533 36.5648   1
  19  -7  -7 29.9604 19.4686   1
  19 -12   7 6.97183 26.0146   2
  -7 -12  -7 19.2918 35.9707   1
 -19  12  -4 120.872 34.5127   2
  -7  19   4 121.667 31.7128   2
  12 -19   4 118.158 34.8045   2
  -7 -12  -4 119.426 16.5785   2
  -7 -12  -4 113.340 35.2509   1
  19 -12   4 119.349 33.7191   1
  19  -7  -4 106.465 17.7853   1
 -12  -7   4 67.6991 10.2664   1
  12 -19   1 2475.85 117.040   2
 -19  12  -1 2621.97 114.733   2
  -7 -12  -1 2545.87 97.6343   1
 -12  -7   1 2539.58 68.8478   1
   7 -19  -1 2543.56 112.059   2
 -12  19   2 4798.86 156.592   2
 -12  -7  -2 4660.79 130.547   1
   7 -19   2 6307.85 197.509   2
  19  -7   2 4700.03 132.688   1
  12   7   5 1972.86 107.549   1
  19  -7   5 1717.02 100.038   1
 -12  19   5 1911.09 105.984   2
  19 -12  -5 1923.23 84.6085   1
 -12  -7  -5 1809.32 104.544   1
 -12  -7  -8 564.190 75.1897   1
  12 -19  -8 479.326 70.4190   1
  19 -12  -8 512.618 54.6164   1
 -12  19   8 526.931 63.4926   2
  -7 -12   8 570.217 58.8756   1
  19 -12 -11 29.1235 31.7323   1
  12 -19 -11 75.6712 51.4456   1
 -12  -7 -11 61.5208 49.0672   1
  -6 -13 -11 256.727 70.8552   1
   6 -19 -11 311.504 77.5346   1
 -13  -6   8 49.8842 18.2297   1
  -6  19   8 24.1105 28.2404   2
  19 -13   8 4.84597 30.5426   2
  -6 -13  -8 90.5328 43.7034   1
   6 -19  -8-14.9764 40.1651   1
  19  -6  -8 62.9414 21.6454   1
  -6 -13  -5-51.0856 35.4953   1
  19  -6  -5-21.2675 11.8683   1
  13 -19   5-2.72026 31.4386   2
  19 -13   5-7.44511 27.0568   1
  -6  19   5-36.0360 28.6874   2
   6 -19  -5-14.4003 31.1377   1
 -19  13  -2 1214.11 82.5812   2
  13 -19   2 1127.34 83.1738   2
   6 -19  -2 1080.20 70.5651   2
  -6 -13  -2 1141.82 70.0685   1
 -13  -6   2 986.968 33.5522   1
  19  -6   1 3584.72 104.279   1
 -13  19   1 3680.70 138.972   2
 -13  -6  -1 3673.21 104.797   1
   6 -19   1 3660.59 140.444   2
  19  -6   4 384.412 48.0454   1
 -19   6  -4 303.340 38.5672   2
 -13  -6  -4 323.218 44.0478   1
 -13  19   4 337.496 47.9519   2
  13   6   4 355.649 46.2172   1
 -13  19   7 220.598 45.3807   2
 -13  -6  -7 180.476 48.8543   1
  13 -19  -7 199.735 50.0181   1
  -6 -13   7 227.521 41.3836   1
  19 -13  -7 232.396 38.7080   1
  13 -19 -10 65.9145 41.0612   1
  19 -13 -10 7.80764 31.9308   1
 -13  -6 -10 52.7872 43.9921   1
  -5 -14 -12-25.9675 46.0042   1
   5 -19 -12-57.4091 53.2999   1
  -5  19   9 48.3781 27.8899   2
   5 -19  -9 46.5745 40.5219   1
  -5 -14  -9-10.9987 43.5366   1
  19  -5  -9 6.55754 18.1345   1
  -5  19   6 754.621 59.7237   2
  19 -14   6 790.646 69.8101   2
  -5 -14  -6 709.440 75.9957   1
  19  -5  -6 554.218 29.7980   1
   5 -19  -6 673.882 74.0301   1
 -19  14  -3 8444.53 214.069   2
  14 -19   3 8395.10 228.491   2
   5 -19  -3 8177.68 187.629   2
  -5 -14  -3 8719.59 154.947   2
  -5 -14  -3 8279.17 202.925   1
   5 -19   0 11148.5 235.782   2
 -14  19   0 11064.0 249.104   2
  14 -19   0 11084.6 242.781   2
  19  -5   0 11448.6 166.570   1
 -19  14   0 11333.4 244.580   2
 -14  -5   0 11802.2 163.090   1
  14   5   3 7129.64 174.400   1
 -19   5  -3 7047.64 163.052   2
 -14  19   3 6889.41 195.245   2
 -14  -5  -3 6772.45 168.303   1
  19  -5   3 6986.89 171.428   1
 -14  19   6 1085.66 85.3906   2
  19 -14  -6 1097.47 75.4675   1
 -14  -5  -6 1138.78 88.2712   1
  14 -19  -6 1009.50 86.0264   1
  -5 -14   9 87.1679 37.7899   1
  14 -19  -9 130.001 50.2040   1
  19 -14  -9 99.5586 33.5372   1
 -14  -5  -9 78.3885 43.6111   1
  19 -14 -12 104.930 42.3010   1
  14 -19 -12 121.616 57.0138   1
 -14  -5 -12 5.28044 45.4506   1
  -4 -15 -10 32.3877 42.9389   1
   4 -19 -10 123.498 55.9076   1
  -4 -15  -7 287.936 58.0660   1
  19 -15   7 255.917 50.9800   2
   4 -19  -7 229.744 51.0457   1
  -4 -15  -4 414.782 51.8346   1
  -4 -15  -4 460.510 36.4619   2
   4 -19  -4 465.761 55.8971   1
  15 -19   4 497.472 63.7416   2
 -15  19  -1 153.051 38.7848   2
   4 -19  -1 94.9418 28.6584   2
 -19  15  -1 108.016 27.9593   2
  19  -4  -1 143.781 17.2875   1
  15 -19   1 153.665 37.8912   2
 -15  -4   1 132.156 17.2058   1
 -15  -4  -2-16.1673 26.4743   1
 -15  19   2-20.2013 32.2564   2
  19  -4   2-8.30140 20.6456   1
  15   4   2 0.44431 20.9544   1
 -15  19   5 823.555 73.3287   2
 -15  -4  -5 824.812 72.4441   1
  15   4   5 926.741 76.3743   1
  19  -4   5 966.612 77.2234   1
 -19   4  -5 841.902 57.2857   2
  15 -19  -8-26.0450 37.4252   1
  19 -15  -8 5.72798 28.7793   1
  -4 -15   8-21.4527 31.6863   1
 -15  -4  -8 12.8458 33.1332   1
  19 -15 -11-23.5810 36.6464   1
 -15  -4 -11 32.4730 45.1306   1
  15 -19 -11-16.2255 40.7239   1
  -3 -16 -11 134.207 56.4773   1
   3 -19 -11 81.4721 51.5976   1
   3 -19  -8 457.708 74.6049   1
  -3 -16  -8 436.428 70.6179   1
  19 -16   5 4229.88 161.621   2
   3 -19  -5 4232.64 170.982   1
  -3 -16  -5 4292.42 168.926   1
   3 -19  -2 6219.76 165.667   2
  16 -19   2 6142.58 191.358   2
 -19  16  -2 6251.31 192.149   2
  -3 -16  -2 6059.18 170.339   1
 -16  19   1 3842.28 150.822   2
 -19  16   1 3823.81 148.138   2
  16   3   1 3942.77 106.543   1
 -16  -3  -1 4048.56 109.989   1
  19  -3   1 3892.88 108.826   1
 -19   3  -4 19.2187 20.3575   2
  16   3   4 45.0524 25.0371   1
 -16  19   4-3.16114 33.7184   2
  19  -3   4 3.97303 25.4637   1
 -16  -3  -4 7.49966 24.8829   1
  19 -16  -7 77.6031 43.0694   1
 -16  -3  -7-47.5625 35.4706   1
  16 -19  -7 38.0673 46.0061   1
  16 -19 -10 72.5830 43.1614   1
 -16  -3 -10 46.6380 43.5546   1
  19 -16 -10 129.903 47.9040   1
   2 -19  -9 266.695 65.4141   1
  -2 -17  -9 194.885 56.5955   1
  19 -17   6 3109.51 147.613   2
  -2 -17  -6 3311.82 160.358   1
   2 -19  -6 2987.99 152.193   1
  -2 -17  -3 10975.0 195.798   2
   2 -19  -3 10902.5 213.943   2
  17 -19   3 10966.1 264.765   2
  -2 -17  -3 11121.2 247.522   1
 -19  17  -3 10921.1 258.482   2
 -17  19   0 9152.79 234.621   2
  19  -2   0 9618.47 147.632   1
  17   2   0 9768.35 142.506   1
 -19  17   0 9186.65 233.564   2
  19  -2   3 1181.03 71.1054   1
 -17  19   3 1132.99 89.1298   2
 -17  -2  -3 1129.29 71.9141   1
  17   2   3 1210.89 73.9702   1
  19 -17  -6 309.596 46.5386   1
  17 -19  -6 346.197 53.4637   1
 -17  -2  -6 333.266 53.1872   1
  19 -17  -9-15.3808 33.6278   1
  17 -19  -9 2.34975 34.2648   1
 -17  -2  -9 24.9882 35.9382   1
  -1 -18 -10-56.3465 51.0823   1
   1 -19 -10 102.779 56.2434   1
  -1 -18  -7 33.3301 33.9834   1
   1 -19  -7 10.5732 35.0391   1
  -1 -18  -4 1245.35 89.7248   1
  18 -19   4 1288.39 94.5769   2
  19 -18   4 1121.06 85.6721   2
   1 -19  -4 1192.03 88.5060   1
  -1 -18  -4 1309.66 67.5854   2
 -18  19  -1 613.462 67.1544   2
 -19  18  -1 617.582 65.3169   2
  19  -1  -1 635.398 31.5223   1
   1 -19  -1 619.977 59.0147   2
 -18  19   2 2765.07 135.880   2
 -19  18   2 2830.90 136.577   2
  19  -1   2 2898.02 106.686   1
 -18  -1  -2 2846.31 105.282   1
  18   1   2 2833.73 103.459   1
 -19   1  -5 659.105 45.9700   2
 -18  -1  -5 664.691 42.0754   2
  19  -1   5 786.442 73.2261   1
 -19   1  -5 736.271 69.9928   1
  18   1   5 707.671 66.7795   1
 -18  -1  -5 729.901 71.4650   1
  19 -18  -8 235.624 47.4575   1
  18 -19  -8 305.735 59.3863   1
 -19   1  -8 245.119 56.9231   1
 -18  -1  -8 209.613 54.3614   1
 -18  -1 -11 84.5258 57.6968   1
  19 -18 -11 7.59490 37.6645   1
  18 -19 -11 16.7012 43.9557   1
   0 -19 -11 70.2575 55.6356   1
   0 -19  -8 182.678 50.5464   1
   0 -19  -5 446.175 64.1244   1
   0 -19  -2 90.4260 28.3809   2
 -19  19  -2 64.9009 32.2067   2
 -19  19   1 710.943 71.8525   2
  19   0   1 654.702 47.1261   1
 -19   0  -4 3268.43 102.680   2
 -19  19   4 3459.63 155.994   2
  19   0   4 3250.80 133.013   1
 -19   0  -4 3446.79 135.811   1
  19 -19  -7 940.432 86.5989   1
 -19   0  -7 861.946 86.1459   1
 -19   0 -10 77.7497 54.5012   1
  19 -19 -10 209.720 57.2649   1
  10 -20   0 867.670 71.1178   2
 -10 -10   0 778.508 49.8092   1
 -10  20   3 2235.42 106.106   2
  10 -20   3 2279.86 123.172   2
 -20  10  -3 2321.65 108.275   2
 -10 -10  -3 2235.39 104.730   1
  20 -10   3 2254.26 107.983   1
 -10  20   6 684.674 64.9481   2
  10 -20  -6 666.949 76.9235   1
  20 -10  -6 581.688 45.6547   1
 -10 -10   6 675.733 45.8447   1
 -10 -10  -6 711.698 76.3581   1
 -10 -10  -9 132.778 55.7938   1
 -10  20   9 6.48874 31.1120   2
  10 -20  -9 121.705 46.4237   1
  20 -10  -9 81.6264 30.4900   1
  -9  20  10 461.654 77.3894   2
  20  -9 -10 775.851 67.9024   1
   9 -20 -10 844.336 101.129   1
  -9 -11 -10 1001.91 110.270   1
  20  -9  -7 1926.75 81.8609   1
   9 -20  -7 1779.95 119.700   1
  -9  20   7 1978.76 103.409   2
 -11  -9   7 1999.30 75.9827   1
  -9 -11  -7 1936.99 125.125   1
  11 -20   4 3413.14 155.975   2
  -9  20   4 3604.64 133.591   2
  -9 -11  -4 3774.26 141.812   1
 -20  11  -4 3448.37 133.648   2
  20 -11   4 3534.97 143.225   1
  -9 -11  -4 3212.14 71.8627   2
   9 -20  -1 1598.48 92.0846   2
 -20  11  -1 1820.61 92.7085   2
 -11  -9   1 1733.59 63.6534   1
  -9 -11  -1 1747.37 79.6748   1
 -11  -9  -2 43.7194 23.2017   1
 -11  20   2 67.4467 30.4947   2
   9 -20   2 47.5053 31.6328   2
 -20   9  -2 65.1685 28.2706   2
  20  -9   2 20.7504 19.5312   1
  20  -9   5-13.5343 29.0574   1
 -11  20   5 22.4715 26.2144   2
  20 -11  -5-1.48928 20.6075   1
 -11  -9  -5 18.8778 28.4457   1
  11   9   5-10.9696 28.8153   1
  11 -20  -5-34.4575 33.7668   1
  11 -20  -8 207.340 53.1392   1
 -11  -9  -8 268.570 54.8755   1
  -9 -11   8 241.021 35.7111   1
 -11  20   8 258.724 47.4640   2
  20 -11  -8 230.979 37.3135   1
  20 -11 -11 83.3723 38.8723   1
 -11  20  11 24.1657 41.3177   2
  11 -20 -11 29.8810 45.8060   1
 -11  -9 -11 97.1857 58.3696   1
  -8 -12 -11 114.740 57.3301   1
   8 -20 -11 69.8378 51.5805   1
  -8  20   8 82.4272 34.6482   2
  -8 -12  -8 154.990 53.1002   1
 -12  -8   8 49.3750 21.3391   1
  20  -8  -8 78.5186 24.8657   1
   8 -20  -8 85.7156 40.6358   1
  -8 -12  -5 271.385 49.3245   1
  -8  20   5 273.003 38.7419   2
  20  -8  -5 336.145 29.6214   1
 -12  -8   5 220.551 20.7998   1
   8 -20  -5 310.596 51.1733   1
 -20  12  -2 2189.56 109.497   2
   8 -20  -2 2183.33 104.083   2
  12 -20   2 2032.76 112.112   2
 -12  -8   2 2290.54 60.0988   1
  -8 -12  -2 2187.74 97.2259   1
   8 -20   1 7578.13 206.096   2
 -12  -8  -1 7786.56 157.693   1
 -12  20   1 7898.12 205.766   2
  20  -8   1 7733.25 163.578   1
  12 -20  -1 7647.67 200.356   2
 -12  20   4 2692.13 123.864   2
  20  -8   4 2499.22 115.350   1
  12   8   4 2676.80 118.276   1
 -12  -8  -4 2570.74 117.569   1
 -20   8  -4 2500.14 107.984   2
 -12  20   7 725.145 69.8906   2
  20 -12  -7 626.414 55.4399   1
  -8 -12   7 630.626 54.3328   1
  12 -20  -7 757.338 82.1076   1
 -12  -8  -7 700.238 76.0593   1
 -12  -8 -10 67.3830 47.1985   1
  12 -20 -10 73.2279 45.2085   1
  20 -12 -10 119.363 39.1363   1
 -12  20  10 43.6653 36.9045   2
  -7  20   9 6.13489 27.8893   2
   7 -20  -9-48.8374 42.3321   1
  20 -13   9-47.9379 37.2389   2
  -7 -13  -9 10.9208 37.8920   1
  20  -7  -9-32.2069 22.4717   1
   7 -20  -6 31.2788 36.3584   1
 -13  -7   6 40.8531 10.6097   1
  20  -7  -6 16.3490 13.2127   1
  -7  20   6 25.1847 24.1350   2
  -7 -13  -6-0.34770 32.1007   1
 -20  13  -3 3.21174 28.6349   2
  13 -20   3-40.7443 34.0181   2
 -13  -7   3 13.0944 6.18985   1
  -7 -13  -3-37.0166 30.6132   1
 -13  -7   0 1751.23 66.6417   1
  13 -20   0 2121.86 129.285   2
 -20  13   0 1792.29 98.4105   2
   7 -20   0 1516.18 89.1253   2
  20  -7   0 1695.05 68.9228   1
  -7 -13   0 1698.32 77.7894   1
 -13  20   3-26.0844 33.2653   2
 -20   7  -3 8.24673 24.2206   2
  13   7   3 31.5063 21.2709   1
 -13  -7  -3-28.9314 25.8480   1
  20  -7   3-13.6245 22.2860   1
  13 -20  -6-3.94777 33.5675   1
 -13  -7  -6 43.0700 31.5622   1
 -13  20   6 55.3526 29.9645   2
  20 -13  -6 45.5081 25.8272   1
 -13  -7  -9-14.0054 39.8114   1
  -7 -13   9 23.7081 27.0104   1
 -13  20   9 13.3751 32.8958   2
  13 -20  -9-102.270 51.1491   1
  20 -13  -9 13.6386 27.9301   1
   6 -20 -10-3.93506 41.4083   1
  -6  20  10 13.3876 28.0273   2
  -6 -14 -10 0.06688 40.9016   1
  -6  20   7 88.5406 30.5258   2
   6 -20  -7 165.641 50.3635   1
  20 -14   7 68.3193 36.5096   2
 -14  -6   7 65.5043 12.6716   1
  -6 -14  -7 100.096 45.2341   1
  20  -6  -7 86.7862 18.6592   1
  -6 -14  -4 3941.69 92.4324   2
  20  -6  -4 3372.70 61.6843   1
  14 -20   4 3612.57 156.677   2
  -6 -14  -4 4121.08 153.332   1
 -20  14  -4 3735.72 147.810   2
  14 -20   1 17874.5 324.169   2
 -20  14  -1 18214.6 320.144   2
   6 -20  -1 18228.7 303.416   2
  20  -6  -1 18236.5 193.698   1
  -6 -14  -1 18026.0 272.956   1
 -14  -6   1 18641.5 180.389   1
 -14  20   2 16933.6 307.952   2
  20  -6   2 17161.2 257.348   1
 -14  -6  -2 17494.4 255.021   1
  14   6   2 17324.1 252.033   1
 -14  20   5 830.519 73.5753   2
  14   6   5 1040.64 82.3130   1
 -20   6  -5 790.837 60.5543   2
 -14  -6  -5 875.766 73.8217   1
  20  -6   5 860.245 72.9349   1
 -14  -6  -8 63.1891 41.3586   1
  20 -14  -8 30.9146 30.3608   1
  14 -20  -8 92.7902 42.9555   1
 -14  20   8 47.9668 37.3747   2
  -6 -14   8 47.9492 30.6671   1
  20 -14 -11 106.164 45.6028   1
 -14  -6 -11-38.2859 48.6175   1
  14 -20 -11-57.3584 49.8062   1
  -5 -15 -11-121.164 60.6763   1
   5 -20 -11 42.9524 53.8264   1
  -5  20   8 18.4874 25.1566   2
   5 -20  -8-59.4625 45.5180   1
  -5 -15  -8-45.9807 42.5248   1
  -5 -15  -5 5449.58 190.107   1
   5 -20  -5 5542.09 197.993   1
 -20  15  -2 13707.8 280.397   2
   5 -20  -2 13615.4 252.965   2
  15 -20   2 13779.9 292.214   2
  -5 -15  -2 13826.7 258.368   1
  20  -5  -2 13197.9 136.755   1
 -15  20   1 11841.6 262.422   2
 -20  15   1 11727.9 258.409   2
  20  -5   1 11827.2 193.828   1
 -15  -5  -1 11958.1 190.732   1
   5 -20   1 11486.2 256.980   2
 -20   5  -4 5291.85 150.363   2
  15   5   4 5455.15 171.320   1
 -15  20   4 5515.96 186.944   2
 -15  -5  -4 5500.35 172.012   1
  20  -5   4 5390.38 167.420   1
  15 -20  -7 1339.24 105.176   1
 -15  20   7 1238.15 96.4101   2
  -5 -15   7 1233.24 83.3517   1
 -15  -5  -7 1275.01 100.082   1
  20 -15  -7 1422.05 90.0348   1
  15 -20 -10 56.3439 44.8054   1
  20 -15 -10-58.3123 36.4539   1
 -15  -5 -10-8.39844 38.2896   1
   4 -20  -9 59.3115 45.6948   1
  -4 -16  -9-12.7461 39.0186   1
  -4 -16  -6 73.8134 38.4029   1
  20 -16   6 13.5343 30.1966   2
   4 -20  -6 10.4404 33.4062   1
  -4 -16  -3 498.474 42.3563   2
 -20  16  -3 498.843 59.8088   2
  16 -20   3 504.789 63.4268   2
   4 -20  -3 472.314 48.3558   2
  -4 -16  -3 589.696 59.1151   1
 -16  20   0 1006.97 81.7262   2
 -20  16   0 1075.12 81.5073   2
 -16  -4   0 1151.35 52.1679   1
  20  -4   0 1124.83 53.1213   1
   4 -20   0 976.994 75.3576   2
  16   4   3 1191.44 73.8126   1
 -16  20   3 1064.83 83.9504   2
 -16  -4  -3 1116.39 71.5711   1
  20  -4   3 1144.00 72.3803   1
 -16  20   6 868.092 82.0135   2
  20 -16  -6 938.932 75.3828   1
 -16  -4  -6 919.412 82.0221   1
  16 -20  -6 889.728 83.6638   1
  20 -16  -9 348.977 55.7947   1
  -4 -16   9 325.813 58.3805   1
  16 -20  -9 231.130 54.7872   1
 -16  -4  -9 270.763 61.4093   1
  -3 -17 -10 93.0606 50.0296   1
   3 -20 -10 176.166 61.2034   1
  -3 -17  -7 731.320 81.6587   1
   3 -20  -7 700.817 82.1334   1
  -3 -17  -4 6075.67 138.599   2
   3 -20  -4 6117.32 198.539   1
  -3 -17  -4 5958.74 191.940   1
   3 -20  -1 8678.63 206.333   2
  20  -3  -1 9193.60 125.064   1
 -20  17  -1 9012.17 237.192   2
 -17  20  -1 8784.48 238.687   2
  17   3   2 946.628 60.5997   1
 -17  20   2 864.923 80.1116   2
 -20  17   2 909.885 78.5946   2
 -17  -3  -2 889.716 60.8224   1
  20  -3   2 895.419 62.1771   1
  17   3   5-6.94303 26.6318   1
 -20   3  -5-24.5935 19.8544   2
 -17  -3  -5 2.69616 10.8649   2
 -17  20   5-31.4500 33.1235   2
  20  -3   5 11.2652 26.7493   1
 -17  -3  -5 21.5924 28.8788   1
  17 -20  -8 320.880 60.4518   1
  -3 -17   8 276.897 49.9493   1
 -17  -3  -8 236.379 54.7719   1
  20 -17  -8 336.422 54.3978   1
  20 -17 -11-43.5855 41.8618   1
 -17  -3 -11-3.08020 42.9217   1
  17 -20 -11 110.322 52.6150   1
  -2 -18 -11 52.9216 53.5142   1
   2 -20 -11 9.90189 47.6897   1
  -2 -18  -8 11.3126 39.6636   1
   2 -20  -8 48.6396 48.8965   1
   2 -20  -5 817.811 81.2507   1
  -2 -18  -5 812.547 76.8986   1
 -20  18  -2 2471.66 129.747   2
   2 -20  -2 2540.20 110.103   2
  -2 -18  -2 2401.13 114.725   1
  18 -20   2 2367.14 124.251   2
  -2 -18  -2 2580.19 105.487   2
 -18  20   1 292.171 51.6177   2
 -20  18   1 239.913 47.9794   2
  18   2   1 229.064 29.2373   1
 -18  -2  -1 296.277 34.7794   1
  20  -2   1 229.874 30.1412   1
 -20   2  -4 123.851 25.9995   2
 -18  20   4 172.446 45.0654   2
  18   2   4 157.400 38.4552   1
 -18  -2  -4 114.871 34.2506   1
  20  -2   4 131.462 33.2925   1
  18 -20  -7 180.548 46.7001   1
 -18  -2  -7 202.301 48.2473   1
  20 -18  -7 291.229 53.4495   1
  18 -20 -10 81.9215 44.9730   1
  20 -18 -10 83.1563 44.3876   1
 -18  -2 -10 54.9036 45.9818   1
   1 -20  -9 63.5925 45.0959   1
  -1 -19  -9 25.0317 38.2546   1
   1 -20  -6 100.826 46.3944   1
  -1 -19  -6 76.1701 45.2719   1
  -1 -19  -3 194.955 42.0403   1
   1 -20  -3 173.340 33.0454   2
  -1 -19  -3 229.787 37.0829   2
   1 -20  -3 197.382 41.4530   1
 -19  20   0 49.1888 32.6026   2
 -20  19   0-26.0374 33.8279   2
  20  -1   0 12.4307 15.2829   1
  19   1   0 1.77201 14.9774   1
  20  -1   3 267.000 39.9053   1
 -19  20   3 252.502 49.3412   2
 -20  19   3 220.207 45.5493   2
  19   1   3 284.245 42.0991   1
 -19  -1  -3 260.086 41.7230   1
  19 -20  -6 801.468 78.2719   1
 -20   1  -6 873.530 82.4209   1
 -19  -1  -6 874.840 80.6561   1
  20 -19  -6 938.003 82.0071   1
  20 -19  -9 8.04217 35.5290   1
 -19  -1  -9 93.6226 49.3278   1
  19 -20  -9 149.723 49.7919   1
   0 -20 -10 240.970 72.7946   1
   0 -20  -7 1058.71 102.399   1
   0 -20  -4 3636.25 123.204   2
   0 -20  -4 3859.83 164.475   1
 -20  20  -1 4502.68 176.358   2
   0 -20  -1 4566.63 154.042   2
  20   0   2 1829.77 86.3919   1
 -20  20   2 1859.70 115.589   2
 -20   0  -5 8.82170 17.6494   2
  20   0   5 4.22228 33.7972   1
 -20   0  -5 11.1681 30.5967   1
  20 -20  -8 19.2134 34.0182   1
 -20   0  -8 31.1973 36.2795   1
  20 -20 -11 142.473 55.1763   1
  10 -21 -11 132.749 59.1838   1
 -10 -11 -11 49.1603 55.3768   1
 -10  21   8 701.979 69.8247   2
  10 -21  -8 635.251 78.9182   1
 -10 -11  -8 690.200 84.2679   1
  21 -10  -8 731.712 57.5898   1
 -11 -10   8 680.465 52.4726   1
 -10 -11  -5 2100.20 116.553   1
  10 -21  -5 2139.77 123.649   1
  21 -10  -5 2156.13 78.4675   1
 -10  21   5 1994.83 104.406   2
 -11 -10   5 1917.00 65.4048   1
  11 -21   2 4115.98 162.004   2
 -21  11  -2 4386.56 152.849   2
 -11 -10   2 4639.48 98.4549   1
 -10 -11  -2 4399.44 136.386   1
  21 -11   2 4526.19 147.117   1
  10 -21   1 3384.48 142.314   2
  11 -21  -1 3195.08 132.097   2
 -10 -11   1 3405.91 99.6903   1
 -11 -10  -1 3465.07 111.477   1
 -21  10  -4 1936.31 102.079   2
 -11  21   4 2071.17 107.334   2
 -11 -10  -4 2117.29 107.136   1
  21 -10   4 2032.30 108.201   1
 -10 -11   7 162.110 29.9299   1
  21 -11  -7 158.787 30.9168   1
 -11  21   7 151.734 39.3002   2
 -11 -10  -7 172.244 49.2871   1
  11 -21  -7 91.6600 41.2070   1
 -11 -10 -10 14.8267 45.4433   1
  21 -11 -10 49.6334 30.7719   1
  11 -21 -10 1.57210 43.1695   1
 -11  21  10 47.7083 39.7394   2
  -9  21   9-24.0267 30.2631   2
  21  -9  -9 38.1643 24.9825   1
   9 -21  -9 29.2328 41.9112   1
  -9 -12  -9 16.9603 39.3136   1
  21  -9  -6 65.6892 20.1443   1
   9 -21  -6 23.7586 33.4856   1
  -9  21   6 48.4300 27.0048   2
 -12  -9   6 83.7590 17.9046   1
  -9 -12  -6 56.7984 36.4676   1
  12 -21   3 492.528 63.4692   2
 -21  12  -3 525.352 57.5766   2
 -12  -9   3 489.881 27.7304   1
  -9 -12  -3 496.923 50.7369   1
  21 -12   3 595.540 61.3588   1
   9 -21   0 1361.72 89.5143   2
  12 -21   0 1500.68 94.3359   2
  -9 -12   0 1474.56 72.0964   1
 -12  -9   0 1428.73 65.1207   1
   9 -21   3 288.923 54.7193   2
 -12  21   3 246.284 41.2039   2
 -21   9  -3 267.450 43.2054   2
 -12  -9  -3 271.044 42.6023   1
  21  -9   3 241.074 36.6760   1
  21 -12  -6 21.1055 20.2978   1
 -12  21   6 32.5948 28.7284   2
 -12  -9  -6-2.31840 32.3538   1
  -9 -12   6 40.3014 22.4744   1
  12 -21  -6 1.41635 37.9144   1
 -12  -9  -9 37.7696 43.0580   1
 -12  21   9 43.7511 36.3785   2
  21 -12  -9-77.5323 30.8103   1
  12 -21  -9-56.8205 45.6199   1
   8 -21 -10 39.6602 46.9730   1
  -8 -13 -10 33.5736 44.1969   1
  -8  21  10 22.2613 32.3456   2
  -8  21   7 961.217 71.5075   2
   8 -21  -7 801.192 86.0769   1
 -13  -8   7 769.342 39.6815   1
  -8 -13  -7 935.933 93.3975   1
  21  -8  -7 821.262 48.6600   1
  -8 -13  -4 6813.39 116.121   2
  -8 -13  -4 7079.42 201.788   1
  21  -8  -4 7311.57 116.789   1
  21 -13   4 6767.00 205.571   1
 -21  13  -4 6741.82 196.837   2
 -13  -8   1 9380.26 140.916   1
   8 -21  -1 9168.25 220.706   2
  13 -21   1 8957.52 236.402   2
 -21  13  -1 9555.78 230.323   2
  -8 -13  -1 9200.33 193.859   1
   8 -21   2 4332.85 168.282   2
 -13  21   2 4171.91 153.812   2
 -13  -8  -2 4305.70 132.005   1
 -21   8  -2 4368.49 142.130   2
  21  -8   2 4195.84 131.581   1
  21 -13  -5 419.342 43.7848   1
 -21   8  -5 344.976 46.0501   2
  21  -8   5 376.629 54.8658   1
 -13  21   5 353.562 51.6645   2
 -13  -8  -5 378.494 53.7815   1
  13   8   5 388.063 55.9198   1
  -8 -13   8 63.2269 30.4928   1
  13 -21  -8 64.3238 45.2867   1
  21 -13  -8 29.6136 29.2521   1
 -13  21   8-49.8626 36.6286   2
 -13  -8  -8 10.5923 36.4390   1
  21 -13 -11 10.6873 29.8969   1
 -13  21  11 0.02947 35.6888   2
 -13  -8 -11-50.2466 53.7096   1
  13 -21 -11 82.1038 53.3182   1
  -7 -14 -11 122.198 65.7687   1
   7 -21 -11 120.690 57.5704   1
  -7  21   8 5.54460 29.7688   2
 -14  -7   8 10.9680 12.5660   1
  -7 -14  -8-11.1439 36.2188   1
  21  -7  -8 15.7608 18.4914   1
   7 -21  -8 18.5202 46.0018   1
  21  -7  -5 332.673 23.8936   1
  -7 -14  -5 434.321 59.6020   1
   7 -21  -5 315.104 52.9951   1
 -21  14  -2 394.350 52.7651   2
  14 -21   2 381.852 53.4513   2
   7 -21  -2 342.008 45.5584   2
  -7 -14  -2 425.304 51.7560   1
 -14  -7   2 355.507 22.9388   1
 -14  21   1 915.950 76.4424   2
   7 -21   1 830.044 72.6711   2
  21  -7   1 859.223 55.4043   1
 -14  -7  -1 923.997 56.5729   1
  21  -7   4 10.6508 26.1769   1
 -21   7  -4 11.5376 24.4919   2
 -14  21   4-17.4571 32.8853   2
 -14  -7  -4 35.7375 28.8896   1
  14   7   4 40.5502 30.8944   1
  14 -21  -7 339.469 64.7365   1
 -14  -7  -7 306.837 58.7872   1
 -14  21   7 247.288 50.5415   2
  -7 -14   7 229.277 39.4181   1
  21 -14  -7 240.704 39.9499   1
  14 -21 -10 22.8015 45.6193   1
 -14  21  10 3.05516 31.3036   2
  21 -14 -10 78.0563 41.0385   1
 -14  -7 -10-43.1736 46.0891   1
  -6  21   9 33.3604 30.2408   2
   6 -21  -9 23.6543 40.2466   1
  -6 -15  -9 61.9709 42.5703   1
  -6 -15  -6 448.138 63.4926   1
  21  -6  -6 281.092 20.4512   1
   6 -21  -6 533.500 71.6193   1
 -21  15  -3 1103.92 84.0898   2
  21  -6  -3 860.604 33.7734   1
  -6 -15  -3 1120.15 78.2915   1
  -6 -15  -3 1111.16 59.6597   2
 -21  15   0 2747.37 127.783   2
   6 -21   0 2555.71 121.979   2
  21  -6   0 2716.25 87.4484   1
 -15  -6   0 2773.39 83.2753   1
 -15  21   0 2791.01 132.467   2
 -15  21   3 1663.96 105.016   2
 -21   6  -3 1633.38 85.9707   2
  15   6   3 1735.19 91.6092   1
  21  -6   3 1566.47 85.3404   1
 -15  -6  -3 1601.70 86.7494   1
 -15  -6  -6-2.78544 29.1168   1
  21 -15  -6-23.7309 27.2543   1
 -15  21   6 6.61972 31.7065   2
  15 -21  -6-15.3605 34.9052   1
 -15  21   9-7.48394 34.6808   2
  15 -21  -9-25.9852 46.3994   1
 -15  -6  -9 96.6523 47.1337   1
  21 -15  -9 49.4099 34.7041   1
   5 -21 -10 284.060 69.4851   1
  -5 -16 -10 191.979 56.3120   1
  -5 -16  -7 1303.26 109.993   1
   5 -21  -7 1076.58 99.4381   1
  -5 -16  -4 2573.04 85.0129   2
   5 -21  -4 2596.29 133.142   1
  -5 -16  -4 2558.73 126.294   1
   5 -21  -1 1784.99 98.6133   2
 -21  16  -1 1807.33 107.710   2
  16 -21   1 1602.10 100.875   2
  -5 -16  -1 1809.89 92.4363   1
 -16  -5   1 1781.77 56.0428   1
  21  -5  -1 1852.70 61.8384   1
 -16  21   2 649.053 66.9312   2
  16   5   2 876.801 59.3727   1
 -16  -5  -2 829.870 60.4987   1
  21  -5   2 747.069 55.7865   1
 -16  -5  -5 153.331 41.9630   1
 -21   5  -5 129.917 30.8707   2
 -16  -5  -5 101.791 12.8367   2
 -16  21   5 158.519 39.4392   2
  21  -5   5 205.357 43.0242   1
  16   5   5 121.430 36.6034   1
  16 -21  -8-45.4163 39.3447   1
 -16  21   8-48.6728 37.7318   2
  21 -16  -8-18.0886 31.4007   1
  -5 -16   8-58.3490 32.7148   1
 -16  -5  -8 26.1832 33.7152   1
  16 -21 -11 30.1899 47.8156   1
  21 -16 -11 18.2221 36.1807   1
 -16  -5 -11 17.0087 42.7700   1
  -4 -17 -11-0.15229 45.3479   1
   4 -21 -11 56.3263 56.5778   1
   4 -21  -8-35.0978 43.2809   1
  -4 -17  -8 46.5673 41.6398   1
   4 -21  -5 114.046 42.0281   1
  -4 -17  -5 109.554 41.5135   1
 -21  17  -2 1497.22 100.583   2
  21  -4  -2 1264.99 38.8526   1
   4 -21  -2 1441.94 86.4684   2
  17 -21   2 1340.51 96.6897   2
  -4 -17  -2 1459.94 90.6477   1
 -17  21   1 351.871 57.6311   2
 -21  17   1 342.457 54.0389   2
  21  -4   1 330.210 36.5918   1
  17   4   1 363.871 36.6320   1
   4 -21   1 326.803 50.6036   2
 -17  -4  -1 353.948 36.2607   1
 -21   4  -4 703.331 58.3721   2
 -17  21   4 764.708 76.6234   2
 -17  -4  -4 753.307 67.8750   1
  17   4   4 692.800 63.9671   1
  21  -4   4 744.319 67.6796   1
  17 -21  -7-22.6726 40.8528   1
 -17  21   7 20.2044 33.1571   2
  21 -17  -7-21.5757 28.0036   1
 -17  -4  -7-24.5517 34.3252   1
  17 -21 -10 42.9606 42.5834   1
 -17  -4 -10-27.6025 41.6002   1
  21 -17 -10 40.3035 38.1078   1
   3 -21  -9 213.517 63.1543   1
  -3 -18  -9 117.938 56.6511   1
   3 -21  -6 363.720 60.2448   1
  -3 -18  -6 343.758 58.5596   1
  -3 -18  -3 1791.40 83.3843   2
  -3 -18  -3 1818.09 107.002   1
   3 -21  -3 1783.41 93.2117   2
 -21  18  -3 1810.20 112.917   2
   3 -21   0 335.418 50.6828   2
 -18  21   0 294.756 50.9785   2
 -21  18   0 303.414 52.5975   2
 -18  -3   0 337.453 31.3113   1
  21  -3   0 335.995 30.9875   1
  18   3   3 139.662 30.6122   1
 -18  21   3 83.4587 35.6197   2
  21  -3   3 53.7100 22.7046   1
 -18  -3  -3 70.0510 27.8856   1
  18 -21  -6 101.448 38.3623   1
 -18  21   6 177.607 49.2190   2
  21 -18  -6 49.8097 30.1894   1
 -18  -3  -6 128.659 41.4266   1
  21 -18  -9-16.1592 33.6432   1
 -18  -3  -9 78.0693 50.1122   1
  18 -21  -9 9.95922 42.5272   1
  -2 -19 -10 28.1933 41.8996   1
   2 -21 -10-10.9248 42.5524   1
  -2 -19  -7 56.9235 41.0988   1
   2 -21  -7 41.3410 42.3932   1
   2 -21  -4 91.0248 36.2192   1
  -2 -19  -4 67.6574 23.1727   2
  -2 -19  -4 89.9791 33.1355   1
 -19  21  -1 9.64885 33.5027   2
   2 -21  -1-34.5114 25.8762   2
 -21  19  -1-27.1442 33.8021   2
  21  -2  -1 8.78407 10.2806   1
  19   2   2 237.220 34.8858   1
 -19  21   2 266.989 55.0315   2
 -21  19   2 225.514 49.3476   2
 -19  -2  -2 260.554 36.5364   1
  21  -2   2 238.063 34.7131   1
 -21   2  -5 36.6418 20.8035   2
 -19  -2  -5 45.3843 16.1048   2
 -19  21   5 46.8190 36.7157   2
 -19  -2  -5 33.1504 30.0044   1
  19   2   5 38.5364 32.5344   1
  21 -19  -8 66.8333 38.3445   1
  19 -21  -8-11.6481 36.2364   1
 -19  -2  -8 21.3036 35.4684   1
 -19  -2 -11 82.8263 59.3211   1
  21 -19 -11 192.373 58.0648   1
  19 -21 -11 168.363 60.9470   1
  -1 -20 -11 76.8027 55.2561   1
   1 -21 -11 30.0859 48.1214   1
  -1 -20  -8 80.5321 46.1110   1
   1 -21  -8 174.379 57.0022   1
  -1 -20  -5 335.670 58.6928   1
   1 -21  -5 290.469 54.0965   1
 -21  20  -2 1830.42 117.142   2
  -1 -20  -2 1683.31 90.7415   2
   1 -21  -2 1578.87 89.8954   2
 -20  21  -2 1582.85 108.552   2
 -20  21   1 1843.81 118.162   2
 -21  20   1 1897.41 118.028   2
  21  -1   1 1855.39 80.5401   1
  20   1   1 1878.08 79.4211   1
 -21   1  -4 236.608 34.4974   2
 -20  21   4 185.906 46.6087   2
 -21  20   4 239.008 49.6503   2
  21  -1   4 206.350 38.2783   1
  20   1   4 242.304 42.7170   1
 -20  -1  -4 278.841 44.8253   1
  21 -20  -7-14.0136 34.9061   1
  20 -21  -7-14.1991 34.3794   1
 -20  -1  -7-37.9236 38.7467   1
  21 -20 -10 21.7171 39.3321   1
 -20  -1 -10-49.5886 52.4921   1
  20 -21 -10-56.3298 40.9877   1
   0 -21  -9 44.0955 42.9673   1
   0 -21  -6 27.0700 35.9869   1
   0 -21  -3-3.53052 26.7069   2
   0 -21  -3-9.64762 34.0354   1
  21   0   0 1649.36 63.7600   1
 -21  21   0 1300.54 98.7479   2
 -21  21   3 1656.60 115.124   2
  21   0   3 1721.89 94.6363   1
  21 -21  -6 152.299 46.1550   1
 -21   0  -6 210.309 47.1729   1
  21 -21  -9 132.307 45.1592   1
  11 -22   0 22791.2 371.603   2
 -11 -11   0 22711.0 270.276   1
 -22  11  -3 6504.17 192.139   2
 -11 -11  -3 6764.81 182.199   1
  22 -11   3 6457.07 187.380   1
 -11  22   3 6447.64 192.163   2
 -11  22   6 462.261 58.0411   2
 -11 -11  -6 442.254 62.6943   1
  22 -11  -6 368.295 38.9261   1
  11 -22  -6 439.497 71.2215   1
 -11 -11   6 371.652 35.0283   1
 -11  22   9 10.1775 31.9624   2
  22 -11  -9 37.4795 27.2372   1
  11 -22  -9 36.9399 42.3481   1
 -11 -11  -9 7.48004 37.9892   1
  10 -22 -10 158.459 60.7108   1
 -10  22  10 38.0207 38.2249   2
 -10 -12 -10 152.197 59.5302   1
 -12 -10   7 11.5959 16.1892   1
 -10 -12  -7 25.4500 38.5374   1
  10 -22  -7-7.65817 35.3948   1
  22 -10  -7 26.8597 21.1016   1
 -10  22   7 13.0144 28.3367   2
 -10 -12  -4 67.7485 27.8226   1
 -10  22   4 99.7529 30.8135   2
 -22  12  -4 132.079 35.9750   2
  22 -12   4 106.795 34.9114   1
  12 -22   1 1271.83 92.0514   2
 -22  12  -1 1326.18 86.1357   2
  10 -22  -1 1346.00 90.2712   2
 -12 -10   1 1308.20 58.6611   1
 -10 -12  -1 1352.37 74.8236   1
  10 -22   2 1495.05 104.147   2
 -22  10  -2 1595.76 92.5782   2
 -12 -10  -2 1563.57 82.6212   1
  22 -10   2 1471.85 84.5411   1
 -12  22   2 1545.03 97.0201   2
 -12  22   5 95.3856 34.4448   2
 -12 -10  -5 49.7239 34.2523   1
  22 -12  -5 68.0166 23.5618   1
 -22  10  -5 50.9549 33.8041   2
 -12 -10  -8-47.9161 45.5522   1
  12 -22  -8-40.3150 43.5866   1
 -12  22   8 9.78566 33.4457   2
  22 -12  -8 14.5035 24.6969   1
 -10 -12   8 73.3631 28.1260   1
  12 -22 -11-9.55033 47.1068   1
 -12 -10 -11-14.1585 49.2200   1
 -12  22  11-4.08884 32.5806   2
  -9 -13 -11 26.0812 46.9320   1
   9 -22 -11 11.6995 44.3511   1
   9 -22  -8 702.776 88.8016   1
  -9 -13  -8 666.743 83.6775   1
  -9  22   8 745.965 71.2606   2
  22  -9  -8 631.579 48.1486   1
   9 -22  -5 1053.19 92.3435   1
  -9 -13  -5 993.621 83.4370   1
 -13  -9   5 734.752 33.5428   1
  22  -9  -5 1038.83 49.1544   1
  -9  22   5 1011.35 78.1093   2
  13 -22   2 3021.51 144.786   2
 -22  13  -2 3021.00 134.796   2
   9 -22  -2 2894.62 126.939   2
 -13  -9   2 3101.07 74.3750   1
  -9 -13  -2 3156.66 122.543   1
   9 -22   1 1341.11 95.0463   2
 -13  -9  -1 1414.80 71.9891   1
  22  -9   1 1344.97 72.5750   1
  -9 -13   1 1383.85 68.0077   1
  22  -9   4 78.8100 31.4965   1
 -13  22   4 101.898 37.6819   2
 -22   9  -4 76.4657 31.8501   2
 -13  -9  -4 58.7937 28.8586   1
  13   9   4 72.7114 29.8381   1
  13 -22  -7 5.56196 38.3349   1
 -13  22   7 59.6188 36.4136   2
  22 -13  -7 158.446 34.6925   1
 -13  -9  -7 101.989 41.7484   1
  -9 -13   7 126.921 31.2587   1
 -13  -9 -10 64.1658 60.2103   1
  13 -22 -10 232.545 67.0192   1
  22 -13 -10 122.283 38.2777   1
 -13  22  10 60.7426 47.3760   2
  -8  22   9 442.531 64.7341   2
  -8 -14  -9 715.622 94.9453   1
   8 -22  -9 526.047 85.4516   1
  -8 -14  -6 2845.21 148.793   1
   8 -22  -6 2806.34 151.141   1
  22  -8  -6 2668.01 74.9699   1
  -8  22   6 2824.88 124.983   2
 -22  14  -3 6620.88 200.911   2
  -8 -14  -3 6964.29 193.953   1
 -14  -8   0 4787.26 117.251   1
   8 -22   0 4479.00 164.388   2
  14 -22   0 4344.07 163.544   2
 -22  14   0 4629.01 164.701   2
  22  -8   0 4762.45 122.793   1
  -8 -14   0 4723.20 136.806   1
 -14  22   3 1623.59 102.273   2
 -22   8  -3 1658.00 91.2150   2
  22  -8   3 1626.74 91.8063   1
 -14  -8  -3 1658.78 90.3673   1
 -14  -8  -6 33.7837 29.3736   1
 -14  22   6-16.9887 34.5707   2
  14 -22  -6 41.6991 33.6079   1
  22 -14  -6 12.4395 24.4861   1
 -14  -8  -9 79.7579 53.2761   1
 -14  22   9 79.8901 49.0541   2
  22 -14  -9 176.289 40.2481   1
  14 -22  -9 167.246 61.0154   1
   7 -22 -10 36.8051 42.0925   1
  -7 -15 -10-69.5287 49.7173   1
  -7  22   7-20.6999 27.9257   2
   7 -22  -7 10.5500 34.8750   1
  -7 -15  -7-94.3946 45.9372   1
  22  -7  -7 9.05733 11.8188   1
 -22  15  -4 255.212 49.1789   2
  -7 -15  -4 344.100 31.9878   2
  -7 -15  -4 313.775 51.5837   1
  22  -7  -4 259.302 19.7905   1
  -7 -15  -1 374.455 45.2388   1
   7 -22  -1 383.806 51.3922   2
  15 -22   1 371.927 53.7811   2
  22  -7  -1 377.900 30.8521   1
 -22  15  -1 391.315 57.9687   2
 -15  -7   1 392.080 30.2488   1
   7 -22   2 303.224 53.4753   2
 -15  -7  -2 230.972 35.2556   1
  22  -7   2 277.640 37.8064   1
 -15  22   2 253.517 50.4087   2
 -22   7  -5 5.84874 23.3259   2
 -15  -7  -5 8.61279 28.9888   1
 -15  22   5 101.758 40.2070   2
  15   7   5 17.8730 30.1499   1
 -15  -7  -8 19.1800 38.4021   1
  22 -15  -8 44.8309 29.6098   1
 -15  22   8 13.4214 33.2911   2
  15 -22  -8-11.0904 44.9470   1
  -7 -15   8 11.7073 26.4021   1
  15 -22 -11 45.8268 51.6390   1
  22 -15 -11 126.025 49.8686   1
 -15  22  11-1.16345 34.5374   2
 -15  -7 -11 69.0877 58.3249   1
  -6 -16 -11-25.6365 49.4223   1
   6 -22 -11 105.090 58.6801   1
  -6 -16  -8 913.649 100.461   1
   6 -22  -8 861.752 97.9912   1
   6 -22  -5 402.802 61.3784   1
  -6 -16  -5 409.527 59.5964   1
 -22  16  -2 676.997 73.6361   2
   6 -22  -2 733.076 66.0669   2
  -6 -16  -2 774.167 67.4847   1
 -16  -6   2 446.797 22.6036   1
  22  -6  -2 721.546 36.4321   1
   6 -22   1 236.471 46.1557   2
  22  -6   1 183.942 28.5633   1
 -16  22   1 185.111 45.0306   2
 -16  -6  -1 173.524 28.6820   1
 -22  16   1 171.015 41.6680   2
 -16  -6  -4 65.8720 33.2338   1
  16   6   4 16.2391 27.6684   1
 -22   6  -4 21.2826 22.3288   2
 -16  22   4 61.0603 35.6528   2
  22  -6   4 66.1251 25.5854   1
 -16  22   7 957.590 91.8619   2
  16 -22  -7 975.402 98.6101   1
  -6 -16   7 879.544 72.3497   1
 -16  -6  -7 979.743 90.3029   1
  22 -16  -7 1010.54 78.4234   1
 -16  22  10-8.45351 33.8114   2
  22 -16 -10 39.1740 34.3432   1
 -16  -6 -10 18.5671 40.4395   1
   5 -22  -9 191.133 62.0643   1
  -5 -17  -9 195.812 58.8585   1
  -5 -17  -6 418.768 65.2272   1
   5 -22  -6 276.596 54.6317   1
  -5 -17  -3 223.043 33.7890   2
 -22  17  -3 255.631 49.2170   2
   5 -22  -3 193.561 36.7040   2
  -5 -17  -3 204.850 42.8920   1
   5 -22   0 259.190 45.6494   2
 -17  22   0 259.778 49.1162   2
  22  -5   0 292.339 30.3371   1
 -22  17   0 309.179 53.6234   2
 -17  -5   0 286.490 29.0048   1
 -17  22   3 1912.74 116.777   2
 -22   5  -3 1929.63 92.0794   2
  17   5   3 1999.18 99.5617   1
 -17  -5  -3 1918.44 97.9920   1
  22  -5   3 1939.21 97.3741   1
 -17  22   6 1055.64 92.9946   2
  17 -22  -6 1171.22 101.203   1
 -17  -5  -6 1073.76 89.0587   1
  22 -17  -6 1246.15 88.1756   1
  22 -17  -9 35.4743 30.4775   1
 -17  22   9 63.6868 47.4161   2
 -17  -5  -9 63.5894 42.7612   1
  17 -22  -9 74.5299 50.0612   1
   4 -22 -10-15.1444 46.6882   1
  -4 -18 -10-16.3029 47.0326   1
  -4 -18  -7-12.3279 36.1550   1
   4 -22  -7 55.5782 44.5494   1
   4 -22  -4 49.7757 35.9956   1
  -4 -18  -4 52.0744 36.0467   1
  -4 -18  -4 62.8312 22.7589   2
  22  -4  -1 1191.15 48.6077   1
   4 -22  -1 1040.69 80.0920   2
 -22  18  -1 1021.61 87.8928   2
 -18  22  -1 1190.20 94.8966   2
 -18  22   2-50.6053 37.5473   2
  18   4   2-0.09417 20.5976   1
 -22  18   2-2.48409 30.8157   2
  22  -4   2 31.3453 22.5623   1
 -18  -4  -2-15.7180 23.0720   1
 -22   4  -5 66.3446 25.6695   2
 -18  -4  -5 81.4710 18.0168   2
 -18  22   5 158.164 47.1479   2
 -18  -4  -5 116.308 36.1347   1
  22 -18  -8-42.2236 36.6883   1
 -18  22   8 56.2537 39.9884   2
  18 -22  -8 30.6075 36.6828   1
  -4 -18   8 18.0172 28.9246   1
 -18  -4  -8 6.97462 34.2162   1
  18 -22 -11 146.011 59.4569   1
  22 -18 -11 60.0118 43.2179   1
 -18  -4 -11-13.1955 47.9815   1
  -3 -19  -8 198.364 57.7386   1
   3 -22  -8 216.605 58.9406   1
  -3 -19  -5 116.210 39.9014   1
   3 -22  -5 109.795 42.1822   1
 -22  19  -2 1499.93 105.612   2
   3 -22  -2 1634.29 96.2858   2
  -3 -19  -2 1594.65 98.3301   1
  -3 -19  -2 1594.59 87.7835   2
 -19  22   1 128.776 43.4369   2
 -22  19   1 118.962 37.4817   2
  19   3   1 90.0220 24.4173   1
 -19  -3  -1 94.4526 22.8447   1
  22  -3   1 86.6188 22.9214   1
  19   3   4 15.9572 26.6728   1
 -22   3  -4 34.0088 22.1976   2
 -19  22   4-58.2835 41.4126   2
 -19  -3  -4 72.7628 31.2876   1
  22  -3   4-5.64260 24.9378   1
  22 -19  -7 58.7362 36.2782   1
  19 -22  -7 24.6267 39.3143   1
 -19  22   7 67.5051 40.1297   2
 -19  -3  -7 38.8071 35.1807   1
  22 -19 -10 192.725 52.9503   1
  19 -22 -10 120.987 54.0049   1
 -19  -3 -10 137.449 58.7143   1
   2 -22  -9 16.4918 45.6054   1
  -2 -20  -9-47.3538 44.6852   1
   2 -22  -6 275.898 59.2956   1
  -2 -20  -6 239.036 51.9591   1
  -2 -20  -3 4503.50 142.199   2
   2 -22  -3 4610.46 155.252   2
   2 -22  -3 4549.91 176.047   1
  -2 -20  -3 4661.01 174.826   1
 -22  20  -3 4387.51 182.206   2
 -20  22   0 1431.53 105.246   2
 -22  20   0 1399.82 105.014   2
  22  -2   0 1510.53 63.5420   1
   2 -22   0 1444.32 97.7879   2
  22  -2   3 508.781 53.2323   1
 -20  22   3 507.114 68.1270   2
 -22  20   3 459.107 63.2263   2
 -20  -2  -3 512.393 54.3798   1
  20   2   3 514.365 53.9115   1
 -20  22   6 36.1097 36.2167   2
  22 -20  -6 82.7015 38.3255   1
  20 -22  -6 90.4043 41.7593   1
 -20  -2  -6 112.910 44.5828   1
  22 -20  -9 34.3568 37.2951   1
 -20  -2  -9 72.4624 46.7983   1
  20 -22  -9-21.0495 38.2460   1
  -1 -21 -10-76.3486 53.0459   1
   1 -22 -10 73.2303 53.9233   1
  -1 -21  -7 10.2688 36.0894   1
   1 -22  -7 84.6209 46.5065   1
  -1 -21  -4 37.1354 36.5100   1
  -1 -21  -4 91.8099 33.6687   2
   1 -22  -4 83.7021 29.1357   2
   1 -22  -4 115.917 42.4445   1
  -1 -21  -1 44.2403 31.3641   2
   1 -22  -1 33.9743 29.3192   2
 -21  22  -1 10.9644 33.2460   2
 -22  21  -1-51.4833 37.0773   2
  22  -1  -1-3.06484 11.0183   1
  22  -1   2 163.210 34.2558   1
 -22  21   2 162.651 45.7778   2
 -21  22   2 156.912 42.0301   2
  21   1   2 194.811 35.7171   1
 -22   1  -5 68.3251 26.8100   2
 -21  -1  -5 68.2011 23.2833   2
 -21  -1  -5 112.757 34.6373   1
  22 -21  -8 63.6611 41.0580   1
  21 -22  -8 41.8183 39.8260   1
 -21  -1  -8 114.503 47.3831   1
   0 -22  -8 26.3035 41.8830   1
   0 -22  -5 166.149 50.0388   1
 -22  22  -2 588.141 74.3502   2
   0 -22  -2 564.341 58.5550   2
  22   0   1 11.7121 17.8872   1
 -22  22   1-35.1832 38.9251   2
 -22   0  -4 650.037 51.7402   2
 -22  22   4 754.817 82.1348   2
  22   0   4 641.842 68.5028   1
  22 -22  -7 1208.20 104.891   1
  22 -22 -10 120.611 51.1867   1
 -11 -12 -11 8.11377 48.9329   1
  11 -23 -11-3.24681 46.5890   1
 -11  23   8-8.50358 31.0244   2
  11 -23  -8-5.95749 38.8406   1
 -11 -12  -8 37.2468 41.3469   1
  23 -11  -8 89.8737 29.0045   1
 -11  23   5 123.910 41.1054   2
  11 -23  -5 102.601 41.5474   1
 -12 -11   5 96.0470 18.8071   1
 -11 -12  -5 120.573 39.8516   1
  23 -11  -5 81.1207 22.1341   1
 -12 -11   2 929.561 50.2361   1
 -23  12  -2 871.305 74.8168   2
 -11 -12  -2 968.624 70.3333   1
  23 -12   2 919.631 71.1063   1
  11 -23   1 1941.44 115.565   2
 -11 -12   1 2009.75 80.6983   1
  12 -23  -1 2096.13 115.464   2
 -12 -11  -1 2100.54 91.8632   1
 -23  11  -4 396.999 54.8862   2
 -12 -11  -4 446.829 57.5488   1
  23 -11   4 407.407 56.8022   1
 -12  23   4 479.482 60.9034   2
  12 -23  -7-9.97970 39.5467   1
 -11 -12   7 7.42324 20.4105   1
  23 -12  -7 56.7641 25.6870   1
 -12  23   7-8.84887 32.7023   2
 -12 -11  -7 19.8396 34.0435   1
 -12 -11 -10-3.85051 51.5989   1
 -12  23  10 19.5434 40.1769   2
  12 -23 -10-11.7609 42.7721   1
 -10  23   9-0.79516 30.1584   2
 -10 -13  -9 2.59835 41.4878   1
  10 -23  -9-23.0271 41.0395   1
 -10  23   6 101.033 37.2669   2
  23 -10  -6 91.0647 21.1327   1
 -13 -10   6 32.8380 13.6247   1
  10 -23  -6 58.0807 39.6460   1
 -10 -13  -6 33.3438 34.6157   1
 -23  13  -3 78.9154 34.2548   2
 -10 -13  -3 68.8840 29.4414   1
 -13 -10   3 35.4538 12.9980   1
  23 -13   3 61.3725 26.6947   1
 -10 -13   0 1723.75 80.8981   1
  10 -23   0 1584.74 99.8584   2
  13 -23   0 1693.00 107.086   2
 -13 -10   0 1698.93 74.0217   1
 -13  23   3-24.5882 29.4164   2
 -23  10  -3 18.8520 26.2592   2
 -13 -10  -3 63.0308 28.8308   1
  23 -10   3 33.6308 25.5751   1
 -13  23   6 25.4003 30.0474   2
 -13 -10  -6 79.8878 36.9297   1
  23 -13  -6 13.5878 20.7473   1
  13 -23  -6 66.3621 39.9531   1
 -10 -13   6 42.0516 23.0311   1
 -13 -10  -9-17.7436 45.0233   1
 -13  23   9 29.4755 36.9671   2
  23 -13  -9 43.1273 33.0665   1
  13 -23  -9-31.9139 47.0552   1
   9 -23 -10 8.05339 41.8437   1
  -9 -14 -10-25.9597 46.0234   1
  -9  23   7 794.769 73.0616   2
  -9 -14  -7 809.974 89.6341   1
 -14  -9   7 382.630 25.1240   1
   9 -23  -7 726.773 89.1119   1
  23  -9  -7 657.829 43.7762   1
 -23  14  -4 455.885 58.9491   2
  -9 -14  -4 458.736 56.3772   1
 -14  -9   4 256.072 16.0015   1
 -14  -9   4 287.668 16.4785   1
  23  -9  -4 500.540 33.5714   1
  -9 -14  -4 487.029 35.8570   2
  -9 -14  -1 2608.88 106.798   1
   9 -23  -1 2518.73 127.615   2
 -14  -9   1 2556.94 78.7614   1
 -23  14  -1 2632.63 128.290   2
 -14  -9  -2 705.117 57.4899   1
 -23   9  -2 735.475 63.0992   2
  23  -9   2 676.309 56.9271   1
 -14  23   2 681.777 69.8761   2
 -23   9  -5-26.8694 27.5212   2
 -14  23   5 57.9693 38.2707   2
 -14  -9  -5 3.33055 29.4938   1
  23 -14  -8 516.610 54.5065   1
 -14  -9  -8 353.026 78.8083   1
 -14  23   8 264.895 62.6052   2
  14 -23  -8 424.983 69.6234   1
  14 -23 -11 38.1164 46.9987   1
 -14  23  11 75.5469 49.0379   2
 -14  -9 -11 74.3849 58.0540   1
  -8 -15 -11-7.41323 46.3655   1
   8 -23 -11 28.9906 53.0306   1
   8 -23  -8 230.134 59.6265   1
  -8  23   8 187.538 41.7915   2
  -8 -15  -8 256.926 61.7361   1
  23  -8  -8 145.546 24.0488   1
  23  -8  -5 1173.83 43.3463   1
  -8 -15  -5 1337.29 99.6526   1
   8 -23  -5 1378.17 108.590   1
 -23  15  -2 2347.68 125.186   2
   8 -23  -2 2373.12 117.753   2
  23  -8  -2 2541.79 75.4477   1
 -15  -8   2 2144.88 58.2768   1
  -8 -15  -2 2480.27 112.057   1
   8 -23   1 1524.33 102.080   2
  23  -8   1 1607.20 78.2503   1
 -15  -8  -1 1626.65 77.7686   1
 -15  23   1 1529.74 101.302   2
  15   8   4 77.6299 32.4813   1
  23  -8   4 61.6026 31.0071   1
 -15  23   4 22.7502 32.6875   2
 -23   8  -4 44.7873 27.8358   2
 -15  -8  -4 49.2839 30.6890   1
  23 -15  -7 177.999 36.0887   1
 -15  -8  -7 163.734 47.4999   1
  15 -23  -7 99.1495 42.4814   1
 -15  23   7 202.531 52.9778   2
  -8 -15   7 240.576 42.3602   1
 -15  23  10 8.63140 35.4383   2
  15 -23 -10 0.05529 44.9113   1
  23 -15 -10 116.445 39.7960   1
 -15  -8 -10-35.7212 46.9341   1
   7 -23  -9 222.766 62.6984   1
  -7 -16  -9 240.407 70.2049   1
  -7 -16  -6 358.071 75.4800   1
   7 -23  -6 323.231 65.8783   1
  -7 -16  -3 17.4214 29.0919   1
 -23  16  -3-15.8850 32.6396   2
  23  -7  -3 3.09513 8.66857   1
  23  -7   0 273.962 32.7729   1
  -7 -16   0 273.466 40.0195   1
   7 -23   0 225.889 44.8817   2
 -16  -7   0 317.816 34.6945   1
 -23  16   0 220.503 45.0667   2
  16   7   3 6.09418 22.8543   1
  23  -7   3 10.0482 22.4944   1
 -16  -7  -3 36.1648 28.7043   1
 -16  23   3 16.2587 32.5512   2
 -23   7  -3-24.7003 25.6180   2
 -16  -7  -6 65.0427 32.7079   1
  16 -23  -6 155.091 50.7725   1
 -16  23   6 65.2534 39.2871   2
  23 -16  -6 70.8126 30.4373   1
  23 -16  -9 1.80003 32.0886   1
 -16  23   9 24.3628 39.4286   2
 -16  -7  -9 15.3382 43.5407   1
  16 -23  -9 8.74592 39.3035   1
   6 -23 -10 38.2419 51.8661   1
  -6 -17 -10 112.026 53.2901   1
  -6 -17  -7 87.9136 40.0697   1
   6 -23  -7 41.3331 38.1964   1
 -23  17  -4 96.5221 40.4214   2
  -6 -17  -4 45.7409 20.9143   2
  -6 -17  -4 89.0058 38.9604   1
   6 -23  -1 1787.70 106.859   2
 -23  17  -1 1758.69 110.228   2
 -17  -6   1 1848.80 61.3778   1
  23  -6  -1 1962.39 69.4362   1
  -6 -17  -1 1967.84 102.014   1
 -17  23   2 1880.17 115.834   2
 -17  -6  -2 1967.26 93.3166   1
  23  -6   2 1766.12 88.0876   1
 -23   6  -5 1026.62 74.0558   2
 -17  -6  -5 829.694 34.4496   2
 -17  23   5 1191.46 97.3857   2
 -17  -6  -5 1108.32 86.8460   1
 -17  23   8 180.970 58.1928   2
  17 -23  -8 285.656 62.9756   1
  23 -17  -8 288.001 50.5683   1
  -6 -17   8 185.460 41.6138   1
 -17  -6  -8 96.2177 54.1099   1
   5 -23  -8 91.0902 49.0518   1
  -5 -18  -8 34.6476 40.0168   1
  -5 -18  -5-6.62027 32.8604   1
   5 -23  -5 11.3272 37.3373   1
 -23  18  -2 102.960 45.3507   2
   5 -23  -2 9.02208 28.7139   2
  -5 -18  -2 70.8604 35.0958   1
  23  -5  -2 37.1439 10.3929   1
   5 -23   1 21.6216 34.6274   2
 -18  23   1-25.2516 36.2810   2
  23  -5   1-6.20790 17.2527   1
 -23  18   1 31.1970 32.9893   2
 -18  -5  -1 8.85765 20.2186   1
 -18  23   4 77.9386 37.5946   2
 -23   5  -4 75.4680 29.6391   2
  23  -5   4 51.7814 26.9479   1
  18   5   4 13.7455 26.4949   1
 -18  -5  -4 109.601 35.1168   1
 -18  23   7 17.7247 34.7469   2
  18 -23  -7-63.7457 46.0380   1
  23 -18  -7 28.4786 30.5979   1
 -18  -5  -7-3.89810 33.4422   1
 -18  23  10 54.0739 46.5945   2
  18 -23 -10-2.13918 43.2358   1
 -18  -5 -10-5.47499 45.9278   1
  23 -18 -10 20.0106 34.1460   1
   4 -23  -9 23.3247 45.4800   1
  -4 -19  -9 61.1298 47.2885   1
  -4 -19  -6 36.0360 38.8682   1
   4 -23  -6-43.1871 41.1380   1
 -23  19  -3 59.5273 33.0815   2
  -4 -19  -3 75.5065 28.8325   2
   4 -23  -3 49.8331 30.4195   2
  -4 -19  -3 40.7913 31.0651   1
  23  -4   0 440.796 37.8617   1
 -19  23   0 360.863 53.7396   2
   4 -23   0 404.031 58.4687   2
 -23  19   0 450.507 64.9731   2
 -19  -4   0 461.461 37.6922   1
 -19  23   3 2.03425 33.7534   2
  23  -4   3-4.46435 23.5653   1
 -19  -4  -3-36.3132 25.8559   1
  19   4   3 7.96228 25.2386   1
  23 -19  -6 155.178 40.3955   1
 -19  23   6 101.478 42.7906   2
  19 -23  -6 103.920 43.0677   1
 -19  -4  -6 62.5332 36.0777   1
  19 -23  -9 127.566 50.6017   1
  23 -19  -9 74.2870 36.4213   1
 -19  23   9 17.4639 42.9125   2
 -19  -4  -9 54.3959 51.2482   1
   3 -23 -10-117.490 61.5105   1
  -3 -20 -10 6.27005 43.6508   1
   3 -23  -7-29.5780 43.7380   1
  -3 -20  -7 4.90322 36.6386   1
  -3 -20  -4 926.838 83.9263   1
  -3 -20  -4 955.926 65.5928   2
   3 -23  -4 999.567 93.2998   1
   3 -23  -1 947.789 79.3456   2
 -23  20  -1 967.100 87.3255   2
  23  -3  -1 966.131 45.3067   1
 -20  23  -1 932.165 90.6384   2
 -20  23   2-10.9487 35.0326   2
 -23  20   2 1.33215 33.3773   2
 -20  -3  -2 11.4543 22.2775   1
  23  -3   2 6.98343 20.1990   1
  20   3   2 3.19635 23.6233   1
 -23   3  -5 263.113 40.4703   2
 -20  -3  -5 248.356 28.8010   2
 -20  23   5 366.727 63.0289   2
 -20  -3  -5 246.009 47.4254   1
  23 -20  -8 65.9942 39.4529   1
 -20  23   8 5.93697 40.2365   2
  20 -23  -8-30.3298 44.7573   1
 -20  -3  -8 14.3970 37.7152   1
  -2 -21  -8 81.3175 48.6140   1
   2 -23  -8-21.7789 42.7422   1
   2 -23  -5-4.70663 35.0836   1
  -2 -21  -5 41.1892 35.7619   1
  -2 -21  -2 23.9840 26.8419   2
   2 -23  -2 22.6789 27.6863   2
 -23  21  -2 41.6889 39.4878   2
  -2 -21  -2-26.4933 35.1753   1
  21   2   1 67.4924 25.2278   1
 -21  23   1 52.2231 36.4638   2
  23  -2   1 110.310 29.1780   1
 -23  21   1 96.0538 44.9746   2
  21   2   4 81.9594 34.9659   1
 -21  23   4 49.1636 35.1431   2
 -23   2  -4 66.7706 25.0963   2
 -23  21   4 111.645 40.1643   2
 -21  -2  -4 96.1792 33.3212   1
  23  -2   4 91.0765 38.2610   1
  23 -21  -7 195.531 50.5078   1
 -21  23   7 67.1638 45.0972   2
  21 -23  -7 54.6787 39.2264   1
 -21  -2  -7 85.2646 43.1875   1
  23 -21 -10-3.84227 41.2130   1
  21 -23 -10-20.7222 46.1656   1
 -21  -2 -10 21.4926 48.9051   1
  -1 -22  -9 156.595 56.5878   1
   1 -23  -9 93.8048 55.1968   1
  -1 -22  -6 124.488 43.5482   1
   1 -23  -6 182.285 53.7309   1
  -1 -22  -3 1619.47 92.5457   2
   1 -23  -3 1562.73 94.2713   2
   1 -23  -3 1574.64 109.320   1
  -1 -22  -3 1616.11 108.514   1
   1 -23   0 627.576 69.7260   2
 -22  23   0 641.281 78.2486   2
 -23  22   0 577.027 70.8317   2
  22   1   0 713.011 43.6205   1
  23  -1   0 641.963 42.8704   1
  22   1   3 183.949 38.2904   1
 -22  23   3 141.404 49.7843   2
 -23  22   3 104.527 43.8540   2
  23  -1   3 129.186 34.9041   1
 -22  23   6 139.764 46.7424   2
 -22  -1  -6 204.839 52.1285   1
  22 -23  -9 14.6710 43.4660   1
 -22  -1  -9 7.56545 41.1268   1
  23 -22  -9-20.1805 39.7400   1
   0 -23 -10 16.5013 48.9744   1
   0 -23  -7 60.7253 47.0921   1
   0 -23  -4 1351.26 84.6369   2
   0 -23  -4 1587.23 114.901   1
   0 -23  -1-6.20991 28.0739   2
 -23  23  -1 3.31910 38.8978   2
 -23  23   2 35.6818 36.5789   2
  23   0   2-2.91228 21.1602   1
 -23   0  -5 1959.52 84.8199   2
 -23  23   5 1998.46 131.065   2
  23 -23  -8 384.597 66.5381   1
 -12 -12   0 191.068 31.4491   1
 -24  12  -3 1092.79 84.9480   2
 -12 -12  -3 1118.49 79.2160   1
  24 -12   3 1145.52 84.1416   1
 -12 -12   3 1199.13 52.7887   1
 -12  24   6 108.347 39.1614   2
  12 -24  -6 105.018 43.3502   1
 -12 -12  -6 51.9313 37.7160   1
  24 -12  -6 118.543 27.8078   1
 -12 -12   6 120.126 23.5296   1
 -12 -12  -9 101.351 59.4645   1
 -12  24   9 127.867 52.3259   2
  12 -24  -9 321.428 73.1908   1
 -11 -13 -10-11.1904 44.1230   1
 -11  24  10 11.4090 32.2432   2
  11 -24 -10 98.5750 56.1250   1
 -11  24   7 80.5590 41.7708   2
 -11 -13  -7 144.862 50.7314   1
  24 -11  -7 147.890 28.2792   1
  11 -24  -7 146.946 49.2963   1
 -11  24   4 73.7970 35.3551   2
 -24  13  -4 103.868 35.9673   2
 -13 -11   4 64.5678 15.2272   1
 -11 -13  -4 81.8989 36.1776   1
  11 -24  -1 341.774 53.3694   2
 -24  13  -1 402.343 54.9428   2
 -13 -11   1 338.124 34.4432   1
 -11 -13  -1 388.394 45.7165   1
 -13 -11  -2 666.259 57.9583   1
 -24  11  -2 700.374 67.3240   2
  24 -11   2 652.676 59.1898   1
 -11 -13   2 720.444 48.6613   1
 -24  11  -5 503.180 58.6118   2
 -13  24   5 496.236 62.6493   2
 -13 -11  -5 512.510 63.8245   1
  24 -13  -5 581.282 50.2088   1
 -13  24   8 312.583 77.5505   2
  24 -13  -8 644.349 58.4433   1
 -13 -11  -8 428.630 84.7216   1
  13 -24  -8 640.888 84.3296   1
 -10  24   8 5.11735 34.3788   2
  10 -24  -8-25.8790 40.7209   1
 -10 -14  -8-42.1436 45.1619   1
  24 -10  -8 16.7267 20.0970   1
 -14 -10   5 11.9175 7.14793   1
 -14 -10   5 7.73998 6.95166   1
  24 -10  -5-1.82810 15.6668   1
 -10  24   5-30.0056 34.4787   2
 -10 -14  -5 25.4490 30.6040   1
 -14 -10   2-0.99929 14.3078   1
 -24  14  -2 50.2901 36.3723   2
  10 -24  -2 40.2632 31.0625   2
 -10 -14  -2 23.3934 24.9387   1
 -14 -10  -1 861.394 60.0173   1
 -10 -14   1 847.600 56.9326   1
  24 -10   1 854.583 61.9656   1
  24 -10   4 319.012 50.7349   1
 -14  24   4 313.372 52.3577   2
 -24  10  -4 281.421 47.2529   2
 -14 -10  -4 413.464 55.4347   1
 -14 -10  -7 229.770 51.3549   1
  14 -24  -7 348.700 67.2689   1
 -14  24   7 274.085 59.7091   2
  24 -14  -7 276.742 42.3202   1
 -10 -14   7 269.169 36.6744   1
 -14 -10 -10 46.8694 56.2215   1
 -14  24  10 33.1071 41.0854   2
  14 -24 -10-11.6574 43.9059   1
  -9  24   9 20.7292 41.3015   2
  -9 -15  -9 6.01529 42.5905   1
   9 -24  -9 43.0085 48.2562   1
   9 -24  -6-50.8547 49.3171   1
  24  -9  -6 22.7405 13.5280   1
  -9 -15  -6 14.9389 32.0445   1
 -24  15  -3 89.0618 39.6950   2
  -9 -15  -3 122.163 35.5643   1
 -15  -9   3 75.7113 11.5998   1
 -15  -9   0 796.892 52.9875   1
   9 -24   0 797.515 77.5871   2
 -24  15   0 785.050 72.6836   2
  -9 -15   0 737.447 60.0554   1
  24  -9   0 801.224 55.1997   1
  24  -9   3 76.6952 31.7418   1
 -15  24   3 60.7520 39.0324   2
 -24   9  -3 54.1134 28.1063   2
 -15  -9  -3 58.1325 24.5456   1
  24 -15  -6 45.0573 27.8815   1
  15 -24  -6 39.2382 39.8390   1
 -15  -9  -6 17.5286 31.3877   1
 -15  24   6 15.1067 31.6344   2
  15 -24  -9 27.9188 43.3983   1
 -15  -9  -9 91.7335 65.2917   1
 -15  24   9 21.0195 41.8887   2
  24 -15  -9-29.8700 26.8462   1
   8 -24 -10 35.9802 50.5640   1
  -8 -16 -10 15.0051 52.2213   1
   8 -24  -7 22.3158 37.3473   1
  -8 -16  -7-28.0771 35.3077   1
  24  -8  -7 24.3695 11.2692   1
 -24  16  -4-7.45833 35.9214   2
  -8 -16  -4-22.8031 19.1747   2
  24  -8  -4 35.9665 11.7271   1
  -8 -16  -4 2.22530 32.6348   1
   8 -24  -1 1435.48 96.9910   2
 -24  16  -1 1458.42 103.176   2
  -8 -16  -1 1462.02 85.9524   1
  24  -8  -1 1451.52 64.4762   1
 -16  -8   1 1540.59 60.2533   1
  24  -8   2 198.217 37.0113   1
 -16  24   2 212.507 48.9149   2
 -16  -8  -2 151.972 33.1529   1
 -24   8  -5-24.6852 31.3150   2
 -16  -8  -5-2.33394 27.9722   1
 -16  24   5 6.81185 35.4256   2
 -16  -8  -5 7.28461 5.77857   2
 -16  -8  -8 11.6056 40.3577   1
 -16  24   8 39.7649 49.0090   2
  24 -16  -8 63.9141 31.3532   1
  16 -24  -8 46.5954 50.6998   1
   7 -24  -8 83.6815 52.8290   1
  -7 -17  -8 5.79732 44.3980   1
  -7 -17  -5 95.4513 46.7410   1
   7 -24  -5 19.8548 39.1284   1
 -24  17  -2 19.8370 31.9574   2
   7 -24  -2-53.3931 35.8639   2
  -7 -17  -2 23.4444 26.7861   1
 -17  -7   2-6.10659 8.79149   1
  24  -7  -2 35.1644 14.8879   1
 -17  24   1 569.815 71.4565   2
 -24  17   1 576.779 66.5627   2
  24  -7   1 551.589 48.4943   1
 -17  -7  -1 607.654 49.7017   1
 -17  -7  -4 197.419 44.7564   1
  17   7   4 264.920 43.7198   1
 -17  24   4 277.584 53.5573   2
 -24   7  -4 180.254 37.5841   2
  24  -7   4 207.620 42.3484   1
 -17  -7  -7 231.703 59.6513   1
 -17  24   7 266.157 57.2066   2
  24 -17  -7 275.555 46.4655   1
  17 -24  -7 338.418 66.3108   1
  -7 -17   7 251.084 45.3288   1
 -17  24  10-16.2412 42.0478   2
  17 -24 -10 60.0495 49.1453   1
  24 -17 -10 104.036 40.6047   1
 -17  -7 -10 25.9471 47.1811   1
   6 -24  -9 51.3798 48.2685   1
  -6 -18  -9 69.2376 48.0832   1
   6 -24  -6 620.531 83.4429   1
  -6 -18  -6 587.912 76.1179   1
  -6 -18  -3 404.405 44.3712   2
 -24  18  -3 388.553 62.4727   2
  -6 -18  -3 363.216 54.7004   1
   6 -24  -3 369.503 48.6294   2
   6 -24   0 1031.46 88.3531   2
 -24  18   0 1175.33 94.9869   2
 -18  24   0 1224.70 104.698   2
 -18  -6   0 1298.14 63.4760   1
  24  -6   0 1249.65 63.4474   1
 -18  -6  -3 98.8579 33.0510   1
 -18  24   3 91.3132 39.2490   2
  18   6   3 107.791 33.3948   1
  24  -6   3 126.109 33.0534   1
 -24   6  -3 117.957 32.4830   2
  24 -18  -6 14.9691 30.5143   1
 -18  24   6-5.07780 34.7509   2
  18 -24  -6-57.6106 44.9532   1
 -18  -6  -6-44.1249 35.7837   1
  18 -24  -9 38.4681 45.5734   1
  24 -18  -9 42.9839 33.5878   1
 -18  24   9-3.67575 36.9228   2
 -18  -6  -9 6.73499 40.2923   1
   5 -24 -10 57.8086 48.0424   1
  -5 -19 -10 5.37384 52.8079   1
  -5 -19  -7 408.704 67.7488   1
   5 -24  -7 284.967 61.2091   1
   5 -24  -4 761.218 80.6003   1
  -5 -19  -4 821.454 57.8128   2
  -5 -19  -4 782.138 79.2945   1
  -5 -19  -1 464.627 55.4741   1
   5 -24  -1 404.953 56.9684   2
 -24  19  -1 480.047 70.1594   2
  24  -5  -1 474.519 34.4993   1
 -19  24   2-29.5571 37.6131   2
 -24  19   2 37.8423 31.2101   2
  24  -5   2 49.1135 27.5606   1
  19   5   2 29.5149 24.4076   1
 -19  -5  -2 5.84144 24.1757   1
 -24   5  -5 31.9209 27.4515   2
 -19  -5  -5 11.6055 12.3059   2
 -19  24   5 82.9715 43.4824   2
 -19  -5  -5 51.5094 33.9619   1
  24 -19  -8 167.438 43.1557   1
 -19  24   8 5.06521 44.4638   2
  19 -24  -8 175.867 53.7703   1
 -19  -5  -8 48.6739 45.5187   1
  -4 -20  -8 60.4100 48.0480   1
   4 -24  -8 7.91408 39.8701   1
   4 -24  -5 43.3871 44.3628   1
  -4 -20  -5 30.8826 34.0588   1
  -4 -20  -2 162.332 41.1577   2
 -24  20  -2 125.365 45.7155   2
  24  -4  -2 71.2099 10.5222   1
   4 -24  -2 92.9257 33.5932   2
  -4 -20  -2 74.4747 34.8376   1
 -20  24   1 16.0779 35.4565   2
 -24  20   1-13.2315 34.1430   2
 -20  -4  -1-9.61844 22.9823   1
  24  -4   1-0.92359 18.6643   1
 -20  24   4 470.971 68.0197   2
 -24   4  -4 440.869 50.2578   2
  20   4   4 455.162 57.8200   1
  24  -4   4 384.340 52.7838   1
 -20  -4  -4 423.367 53.5002   1
  24 -20  -7 9.65591 34.7944   1
 -20  24   7 46.2601 56.0214   2
  20 -24  -7 15.9183 39.4699   1
 -20  -4  -7 6.03468 35.9476   1
  24 -20 -10 54.4230 41.9185   1
 -20  24  10-19.5461 41.8774   2
  20 -24 -10-58.3934 48.7095   1
 -20  -4 -10-62.6744 56.0377   1
   3 -24  -9 63.1039 55.4086   1
  -3 -21  -9 112.862 54.8969   1
   3 -24  -6 7.59867 40.0885   1
  -3 -21  -6-40.0976 38.6422   1
 -24  21  -3 93.7852 48.8339   2
  -3 -21  -3 60.6312 26.8366   2
  -3 -21  -3 80.7382 39.3731   1
   3 -24  -3 95.0359 33.7161   2
   3 -24   0 1098.01 90.3367   2
 -21  24   0 1213.41 100.848   2
 -24  21   0 1262.51 104.783   2
  24  -3   0 1274.12 61.1309   1
 -21  24   3 1137.25 98.0568   2
  21   3   3 1090.08 78.8847   1
  24  -3   3 1135.29 78.6417   1
 -24  21   3 1075.56 95.5547   2
 -21  -3  -3 1178.63 82.2136   1
  24 -21  -6 1599.86 109.240   1
 -21  24   6 1504.81 115.419   2
 -21  -3  -6 1454.23 108.052   1
 -21  24   9 28.3611 44.9108   2
  24 -21  -9 123.410 46.8607   1
 -21  -3  -9 62.4580 48.4394   1
  21 -24  -9 66.5061 46.5470   1
   2 -24 -10 48.3460 52.5048   1
  -2 -22 -10 1.98463 45.6767   1
   2 -24  -7 54.3212 49.3744   1
  -2 -22  -7-54.1225 48.7782   1
  -2 -22  -4 86.8713 31.4412   2
   2 -24  -4-0.93687 37.3788   1
   2 -24  -1 2548.09 131.180   2
 -24  22  -1 2672.52 149.430   2
  24  -2  -1 2466.14 68.5287   1
 -22  24  -1 2771.83 155.524   2
 -22  24   2 1016.03 97.6068   2
  22   2   2 1039.65 72.2529   1
 -24  22   2 1111.01 100.142   2
  24  -2   2 1052.58 71.2955   1
 -24   2  -5 2781.31 110.421   2
 -22  -2  -5 2728.28 93.0273   2
 -22  24   5 3060.59 162.190   2
 -24  22   5 3140.55 162.911   2
 -22  -2  -5 3034.61 145.648   1
 -22  24   8 104.367 54.8715   2
  24 -22  -8 187.488 50.4805   1
 -22  -2  -8 242.266 63.8876   1
  22 -24  -8 264.109 62.4948   1
  -1 -23  -8 141.625 54.7495   1
   1 -24  -8 159.635 60.5160   1
  -1 -23  -5 254.772 58.2411   1
   1 -24  -5 272.230 58.6636   1
  -1 -23  -2 609.990 70.3874   1
 -23  24  -2 591.634 77.1585   2
 -24  23  -2 533.646 74.3008   2
  -1 -23  -2 562.039 62.8641   2
   1 -24  -2 478.007 55.9878   2
 -23  24   1 72.7301 40.2663   2
 -24  23   1 121.122 45.6584   2
  23   1   1 151.112 31.5884   1
  24  -1   1 107.891 25.5102   1
  23   1   4-3.29459 27.9482   1
 -23  24   4-34.8171 43.3346   2
 -24  23   4-87.1227 50.6122   2
 -24   1  -4-24.4442 23.9275   2
  24  -1   4-19.9374 27.7796   1
 -23  24   7 16.0445 40.2436   2
 -23  -1  -7 4.72532 36.9874   1
  24 -23  -7 5.80008 38.4635   1
  23 -24  -7 44.6243 40.5492   1
   0 -24  -9 148.114 66.1027   1
   0 -24  -6 49.4014 38.1330   1
   0 -24  -3 437.033 56.4855   2
   0 -24  -3 478.416 66.4241   1
 -24  24   0 559.981 78.3390   2
  24   0   0 639.101 43.4340   1
 -24  24   3 576.221 76.5397   2
  24   0   3 554.540 59.7474   1
 -24  24   6 463.540 85.0123   2
  24 -24  -9 34.4703 43.2287   1
 -12  25   8 7.07857 36.8668   2
 -12 -13  -8 55.5276 50.7877   1
  12 -25  -8 89.7195 48.3610   1
  25 -12  -8 90.1024 26.9927   1
 -25  13  -5 22.8844 33.4529   2
 -12  25   5 42.6525 33.3045   2
  25 -12  -5 18.5308 21.8923   1
 -13 -12   5 5.16596 13.6647   1
 -12 -13  -5 17.6183 30.0653   1
 -13 -12   2 117.674 22.9311   1
 -12 -13  -2 138.153 33.8817   1
 -25  13  -2 161.175 40.8005   2
  25 -13   2 109.231 33.4549   1
 -25  12  -1 657.548 67.4615   2
 -13 -12  -1 613.697 55.8362   1
  25 -12   1 644.834 56.9881   1
 -12 -13   1 668.209 50.6584   1
 -13  25   4 595.892 70.0332   2
 -25  12  -4 599.395 67.2029   2
 -13 -12  -4 585.860 65.2444   1
  13 -25  -7 340.428 69.2547   1
 -13  25   7 213.384 60.0155   2
  25 -13  -7 344.635 42.7128   1
 -13 -12  -7 273.142 63.6065   1
 -13 -12 -10 3.72932 53.2011   1
 -13  25  10-13.7383 37.7317   2
  13 -25 -10 27.7041 55.2053   1
 -11  25   9 290.635 72.0284   2
 -11 -14  -9 242.041 89.6549   1
  11 -25  -9 546.379 89.7197   1
 -11 -14  -6 808.702 86.9605   1
  25 -11  -6 855.833 50.4301   1
  11 -25  -6 846.398 94.0371   1
 -14 -11   6 497.341 29.2085   1
 -11  25   6 793.452 77.5753   2
 -25  14  -3 1050.34 86.9357   2
 -11 -14  -3 1069.28 79.8132   1
  25 -14   3 1054.55 84.6924   1
 -14 -11   3 1064.85 44.7377   1
 -14 -11   0 36.9853 22.4318   1
 -11 -14   0 5.16499 22.5920   1
  25 -11   0-2.42469 19.2468   1
 -14  25   3 18.6480 31.2606   2
 -25  11  -3 23.2057 28.1152   2
 -14 -11  -3 3.65061 27.5542   1
  25 -11   3-3.91339 24.4960   1
 -14  25   6 410.019 63.1991   2
 -14 -11  -6 306.848 58.5820   1
  25 -14  -6 369.547 43.5516   1
 -11 -14   6 284.394 36.4025   1
  14 -25  -6 276.158 57.6538   1
 -14 -11  -9-7.18036 41.1237   1
 -14  25   9 73.5880 52.9093   2
 -10 -15 -10-10.5099 48.9264   1
  10 -25 -10 87.6074 53.2697   1
 -10  25   7 327.769 55.5010   2
  25 -10  -7 276.595 29.5865   1
 -10 -15  -7 325.390 68.5797   1
  10 -25  -7 407.728 69.0902   1
 -25  15  -4 1712.62 109.715   2
 -10 -15  -4 1900.75 113.992   1
 -10 -15  -4 1867.31 72.5057   2
 -15 -10   1 2217.60 78.9947   1
  10 -25  -1 2010.72 117.866   2
 -25  15  -1 2212.37 123.205   2
  25 -10  -1 2320.72 89.5828   1
 -10 -15  -1 2183.57 101.594   1
 -25  10  -2 1238.92 86.8048   2
  25 -10   2 1232.28 79.6527   1
 -15 -10  -2 1234.87 78.9574   1
 -15  25   2 1197.76 95.2270   2
 -25  10  -5 5.11348 28.1509   2
 -15  25   5 49.5941 39.6693   2
 -15 -10  -5-27.9835 33.4147   1
 -15 -10  -8 47.1935 54.0900   1
  25 -15  -8 72.7078 34.5607   1
 -15  25   8 55.5474 44.3721   2
  15 -25  -8 77.2656 48.6214   1
   9 -25  -8 167.462 56.8831   1
  -9 -16  -8 76.0388 49.6751   1
   9 -25  -5 1362.39 110.796   1
  -9 -16  -5 1326.87 102.401   1
  25  -9  -5 1124.81 42.9715   1
 -25  16  -2 6844.27 223.267   2
   9 -25  -2 6755.30 209.354   2
  25  -9  -2 7420.58 136.582   1
  -9 -16  -2 7053.38 195.291   1
 -16  -9   2 6392.89 107.532   1
  25  -9   1 12263.8 228.148   1
 -16  -9  -1 12408.8 219.982   1
  -9 -16   1 11906.3 224.414   1
 -16  25   4 897.063 85.5636   2
 -25   9  -4 874.049 75.5090   2
  25  -9   4 804.712 71.1608   1
 -16  -9  -4 937.640 78.6618   1
 -16  -9  -7 167.226 62.8751   1
  25 -16  -7 262.203 41.4531   1
 -16  25   7 167.628 59.3524   2
  16 -25  -7 244.453 63.4327   1
 -16  25  10-13.8824 37.9248   2
  16 -25 -10 33.1559 48.5066   1
 -16  -9 -10 8.84154 42.8428   1
  -8 -17  -9 76.6896 66.2701   1
   8 -25  -9 0.26932 44.2326   1
  -8 -17  -6 176.420 53.9756   1
   8 -25  -6 88.9004 41.7580   1
 -25  17  -3 615.700 73.4782   2
  25  -8  -3 532.480 31.9253   1
  -8 -17  -3 705.080 70.7026   1
 -25  17   0 2365.57 132.462   2
  25  -8   0 2209.25 89.6529   1
  -8 -17   0 2168.98 102.840   1
 -17  -8   0 2272.78 83.2919   1
 -17  25   3 252.163 54.3662   2
 -17  -8  -3 267.277 45.0871   1
  25  -8   3 284.233 46.0562   1
 -25   8  -3 263.030 46.6583   2
 -17  -8  -6 8.20038 34.3236   1
  17 -25  -6 34.8236 48.5939   1
 -17  25   6 58.5401 40.5830   2
  25 -17  -6 8.06718 28.1107   1
  25 -17  -9 175.558 47.1709   1
  17 -25  -9 121.074 57.0518   1
 -17  25   9 44.7086 57.1873   2
 -17  -8  -9-8.56221 41.1551   1
   7 -25 -10-42.9022 50.1001   1
  -7 -18 -10 31.9071 53.9275   1
   7 -25  -7 111.956 43.4785   1
  -7 -18  -7 126.131 46.7760   1
 -25  18  -4 260.389 48.7033   2
  -7 -18  -4 312.415 37.3632   2
  -7 -18  -4 276.968 54.5822   1
  25  -7  -1 31.3696 16.3657   1
   7 -25  -1-6.10106 30.4522   2
 -25  18  -1 41.7665 37.5940   2
  -7 -18  -1 76.5301 36.7054   1
 -18  -7   1 40.4601 16.2852   1
 -18  -7  -2 212.364 37.4478   1
 -18  25   2 155.129 47.1719   2
  25  -7   2 210.361 37.2484   1
 -18  -7  -5 138.331 39.2824   1
 -25   7  -5 130.684 33.9901   2
 -18  25   5 98.1238 37.7628   2
 -18  -7  -5 93.0608 13.7152   2
 -18  25   8 42.9863 44.3561   2
  18 -25  -8 55.0072 42.9435   1
  25 -18  -8 32.3400 33.6921   1
 -18  -7  -8 72.1716 49.8529   1
  -6 -19  -8 348.479 81.5090   1
   6 -25  -8 332.356 70.5140   1
   6 -25  -5 351.119 64.7097   1
  -6 -19  -5 222.136 53.3922   1
 -25  19  -2 787.630 80.8726   2
   6 -25  -2 671.622 71.2030   2
  -6 -19  -2 792.774 73.1922   1
  25  -6  -2 728.001 36.3643   1
 -19  25   1 170.887 51.3919   2
  25  -6   1 137.382 31.3179   1
 -25  19   1 188.088 50.4984   2
 -19  -6  -1 128.027 28.2620   1
 -19  25   4 228.176 51.3241   2
 -25   6  -4 85.3855 30.6189   2
  25  -6   4 149.867 37.4097   1
  19   6   4 115.858 36.5670   1
 -19  -6  -4 135.510 37.0942   1
 -19  25   7 425.714 67.4355   2
  19 -25  -7 473.901 77.1178   1
  25 -19  -7 362.507 54.8151   1
 -19  -6  -7 215.639 59.0404   1
 -19  25  10 35.0613 45.9724   2
  19 -25 -10 135.655 57.3959   1
 -19  -6 -10 63.8225 51.2391   1
  25 -19 -10 120.587 46.7615   1
   5 -25  -9 12.4966 44.7349   1
  -5 -20  -9 130.796 62.4289   1
  -5 -20  -6 131.049 53.0393   1
   5 -25  -6-9.54726 39.1651   1
 -25  20  -3 34.0562 34.6182   2
  -5 -20  -3 159.700 37.3306   2
   5 -25  -3 61.5265 31.7814   2
  -5 -20  -3 54.9776 33.8378   1
  25  -5   0 1151.00 61.7511   1
 -25  20   0 1082.55 95.7561   2
 -20  -5   0 1102.31 58.5182   1
 -20  25   0 1035.28 94.6787   2
  25  -5   3 1764.30 99.4541   1
 -20  25   3 1822.52 122.503   2
 -25  20   3 1807.90 120.899   2
 -20  -5  -3 1829.83 101.502   1
  20   5   3 1780.84 98.5781   1
  25 -20  -6 2156.23 122.985   1
 -20  25   6 2069.87 136.747   2
 -20  -5  -6 1778.22 121.204   1
  20 -25  -9 333.296 73.1166   1
 -20  25   9 114.154 72.9650   2
  25 -20  -9 467.354 71.2706   1
 -20  -5  -9 336.924 71.2503   1
   4 -25 -10-52.4294 50.8324   1
  -4 -21 -10 27.0103 55.1043   1
   4 -25  -7 227.894 64.5446   1
  -4 -21  -7 249.759 60.7597   1
   4 -25  -4 101.604 43.0409   1
  -4 -21  -4 162.321 37.6476   2
  -4 -21  -4 165.252 45.7508   1
 -21  25  -1 489.482 70.6910   2
  -4 -21  -1 469.139 59.9709   1
   4 -25  -1 357.556 54.0706   2
 -25  21  -1 397.485 60.6386   2
  25  -4  -1 454.748 32.9476   1
  21   4   2 15.2303 23.4361   1
 -21  25   2-54.6292 42.8584   2
 -25  21   2 18.9845 37.4979   2
 -21  -4  -2-19.7086 25.2898   1
  25  -4   2-15.9983 22.2848   1
 -25   4  -5-10.8759 27.6135   2
 -21  -4  -5-14.4526 19.5980   2
 -21  25   5-52.2095 46.3968   2
 -21  -4  -5-19.5902 35.7517   1
  25 -21  -8-82.6616 45.0058   1
 -21  25   8 54.0013 43.1304   2
 -21  -4  -8 53.2448 45.9708   1
  21 -25  -8-47.1303 44.5333   1
  -3 -22  -8 219.871 64.2588   1
   3 -25  -8 302.160 69.8318   1
   3 -25  -5 395.476 69.0181   1
  -3 -22  -5 258.768 54.3356   1
  -3 -22  -2 90.2231 36.3450   2
 -25  22  -2 176.545 45.9549   2
   3 -25  -2 172.089 45.6275   2
  -3 -22  -2 111.938 43.1620   1
 -22  25   1 1040.53 99.5078   2
 -25  22   1 1046.12 97.0436   2
  25  -3   1 1013.31 65.1526   1
  22   3   1 1080.38 63.5972   1
  22   3   4 3036.07 141.172   1
 -22  25   4 3208.59 167.502   2
 -25   3  -4 3053.36 122.976   2
 -25  22   4 2997.71 159.321   2
  25  -3   4 2926.86 136.509   1
 -22  -3  -4 3020.82 136.792   1
 -22  25   7 269.107 85.7503   2
  25 -22  -7 799.480 86.3848   1
 -22  -3  -7 575.331 86.4528   1
  22 -25  -7 793.237 93.8125   1
  -2 -23  -9 107.950 56.0263   1
   2 -25  -9 83.7175 55.2387   1
   2 -25  -6 199.089 56.6178   1
  -2 -23  -6 170.343 52.2866   1
  -2 -23  -3 63.9522 35.0819   2
   2 -25  -3-15.0306 34.7496   1
   2 -25  -3 18.5564 31.8691   2
  -2 -23  -3 70.8174 41.1611   1
 -23  25   0 313.058 65.1894   2
  25  -2   0 307.296 32.8344   1
 -25  23   0 275.905 59.0180   2
 -23  25   3 289.112 59.2763   2
  25  -2   3 252.200 41.3166   1
 -25  23   3 187.439 50.7996   2
  23   2   3 227.947 43.1970   1
 -23  25   6 397.363 97.6860   2
 -25  23   6 750.831 89.3954   2
 -23  -2  -6 697.839 80.1058   1
  23 -25  -9 10.4676 40.5749   1
 -23  25   9 13.0539 44.7980   2
 -23  -2  -9 30.5637 46.0573   1
  25 -23  -9 73.8871 51.9937   1
  -1 -24  -7 14.5862 39.3388   1
   1 -25  -7-64.7349 54.7426   1
  -1 -24  -4 360.783 63.5504   1
  -1 -24  -4 385.501 51.4344   2
   1 -25  -4 352.013 52.3742   2
   1 -25  -4 370.897 61.4165   1
 -25  24  -1 849.324 97.0766   2
 -24  25  -1 689.008 81.6118   2
   1 -25  -1 681.159 71.7705   2
  -1 -24  -1 693.700 74.9736   2
  24   1   2 572.133 55.6811   1
 -24  25   2 548.491 78.1395   2
 -25  24   2 494.114 71.1824   2
  25  -1   2 537.744 53.7417   1
 -25   1  -5 279.012 40.3230   2
 -24  -1  -5 225.485 33.7287   2
 -24  25   5 240.234 60.1471   2
 -25  24   5 134.077 45.2719   2
 -24  25   8 13.9783 45.3124   2
  25 -24  -8 44.5178 42.6049   1
  24 -25  -8 35.9869 40.6428   1
   0 -25  -8 196.558 60.9071   1
   0 -25  -5 1529.63 122.422   1
   0 -25  -2 8864.63 242.498   2
 -25  25  -2 9340.46 292.943   2
 -25  25   1 3987.24 190.617   2
  25   0   1 4167.89 127.791   1
 -25  25   4 3842.93 191.671   2
 -25  25   7 177.729 69.0942   2
  25 -25  -7 388.841 71.7426   1
 -13 -13   0 481.591 47.3654   1
 -26  13  -3 824.451 81.4080   2
 -13 -13   3 938.238 50.0255   1
 -13 -13  -3 1009.76 78.9663   1
  26 -13   3 833.796 75.9132   1
 -13  26   6 82.0278 45.9526   2
 -13 -13  -6 100.826 43.4852   1
  13 -26  -6 97.8655 47.5927   1
  26 -13  -6 150.410 30.5891   1
  13 -26  -9 100.383 58.1525   1
 -13  26   9-15.7736 37.7562   2
 -13 -13  -9 15.3784 42.1339   1
 -12 -14 -10 144.387 56.4751   1
  12 -26 -10-43.2904 48.3067   1
  12 -26  -7 113.139 47.0957   1
 -12  26   7 50.1721 42.2299   2
 -12 -14  -7 125.395 52.2881   1
  26 -12  -7 189.646 30.4493   1
 -26  14  -4 8.06754 31.4313   2
 -14 -12   4 10.2135 13.5404   1
 -12 -14  -4-28.4701 31.9843   1
 -14 -12   1 338.479 36.7882   1
 -26  14  -1 354.715 55.8665   2
 -12 -14  -1 294.981 42.6194   1
 -14 -12  -2 2057.29 100.938   1
 -12 -14   2 1885.35 80.6005   1
 -26  12  -2 1972.36 114.624   2
  26 -12   2 2007.60 106.976   1
 -26  12  -5 349.060 56.4212   2
 -14  26   5 421.887 63.5764   2
 -14 -12  -5 343.059 57.1051   1
  26 -14  -5 429.409 46.2470   1
 -14  26   8 56.5040 46.0011   2
 -14 -12  -8 65.7042 53.1854   1
  14 -26  -8 205.418 62.0753   1
  26 -14  -8 245.310 41.2327   1
 -11  26   8 46.3367 45.6500   2
  11 -26  -8 108.158 51.9096   1
 -11 -15  -8 32.0354 50.4818   1
  26 -11  -5 50.7504 16.8925   1
 -11 -15  -5 42.9649 11.5937   2
  11 -26  -5 60.9838 51.7159   1
 -11 -15  -5 69.1750 39.0563   1
 -15 -11   2 16.2938 15.2628   1
 -26  15  -2 1.46210 31.8668   2
 -11 -15  -2 87.4459 36.7207   1
 -15 -11  -1 572.499 52.5172   1
 -11 -15   1 546.019 49.8202   1
  26 -11   1 574.750 53.5216   1
 -15  26   4 7.56905 31.8076   2
 -15 -11  -4-15.0524 29.0907   1
 -15  26   7 15.7582 39.2887   2
 -15 -11  -7-14.3238 43.7437   1
  15 -26  -7-29.4619 41.0235   1
  26 -15  -7-10.0227 26.9385   1
 -15 -11 -10 3.65910 47.3138   1
 -15  26  10-37.9109 45.3066   2
  15 -26 -10 63.9533 55.2938   1
 -10  26   9-11.9576 35.6148   2
 -10 -16  -9 14.5961 43.3775   1
  10 -26  -9 76.8228 49.2660   1
  26 -10  -6 47.4242 13.6368   1
  10 -26  -6 66.3854 44.7530   1
 -10 -16  -6 76.6571 40.7137   1
 -26  16  -3 54.7156 34.3868   2
 -16 -10   3 58.2591 11.1818   1
 -10 -16  -3 65.7535 34.8945   1
 -10 -16   0 611.284 58.4532   1
 -26  16   0 536.614 67.0566   2
  26 -10   0 510.325 48.4117   1
 -16 -10   0 492.752 44.0455   1
  26 -10   3 237.306 48.0685   1
 -16  26   3 209.285 49.7390   2
 -26  10  -3 189.374 46.2585   2
 -16 -10  -3 248.002 42.4755   1
  26 -16  -6 204.450 38.7142   1
 -16 -10  -6 156.521 46.2059   1
 -16  26   6 180.081 50.3810   2
  16 -26  -6 279.647 64.3713   1
 -16 -10  -9 29.3283 52.9107   1
  16 -26  -9 1.31084 48.6999   1
 -16  26   9-9.23633 36.3983   2
  -9 -17 -10 17.4063 52.9516   1
   9 -26 -10 55.4366 50.2538   1
   9 -26  -7 98.5329 52.4944   1
  -9 -17  -7 46.8270 46.5880   1
 -26  17  -4-26.5409 37.7044   2
  -9 -17  -4 47.0429 21.9115   2
  -9 -17  -4 38.6129 36.9911   1
  26  -9  -4 24.3886 11.2758   1
  26  -9  -4 21.4647 10.7219   1
 -17  -9   1 92.2116 19.8741   1
 -26  17  -1 54.1066 32.7149   2
  -9 -17  -1 110.097 35.4719   1
  26  -9  -1 100.997 23.3301   1
  26  -9   2 199.814 38.0778   1
 -17  26   2 270.204 57.2082   2
 -17  -9  -2 260.197 38.7055   1
 -26   9  -2 254.131 47.0216   2
 -26   9  -5 88.4464 36.8006   2
 -17  -9  -5 55.9246 37.1794   1
 -17  26   5 74.5445 43.1579   2
 -17  -9  -5 40.6608 9.18933   2
 -17  -9  -8 14.0582 44.1415   1
 -17  26   8-7.20378 36.3192   2
  26 -17  -8 7.93290 30.2864   1
  17 -26  -8 85.7332 50.8225   1
   8 -26  -8 18.9145 43.9728   1
  -8 -18  -8-57.0584 48.1122   1
  -8 -18  -5 200.031 50.8973   1
   8 -26  -5 192.456 55.5887   1
  26  -8  -2 277.067 28.1030   1
 -26  18  -2 244.747 52.0613   2
  -8 -18  -2 455.087 59.8072   1
   8 -26  -2 337.389 59.1266   2
 -18  -8   2 208.400 18.5417   1
 -26  18   1 988.751 89.4778   2
 -18  -8  -1 1109.01 68.6477   1
  26  -8   1 1056.21 68.2518   1
 -18  26   1 1007.87 91.3347   2
 -18  -8  -4 94.0056 40.9713   1
 -18  26   4 62.1069 37.6936   2
 -26   8  -4 30.4146 29.4478   2
  18   8   4 18.1877 31.7485   1
 -18  -8  -7 126.771 60.2476   1
 -18  26   7 139.064 50.5311   2
  26 -18  -7 273.151 46.1565   1
  18 -26  -7 340.245 71.2978   1
 -18  26  10 50.9512 61.8797   2
  18 -26 -10 107.817 60.8810   1
 -18  -8 -10 83.6337 58.1917   1
   7 -26  -9-49.7233 49.6869   1
  -7 -19  -9 18.9738 49.4559   1
   7 -26  -6 406.141 71.5019   1
  -7 -19  -6 393.104 74.3409   1
 -26  19  -3 1139.19 103.401   2
   7 -26  -3 943.824 80.8355   2
  -7 -19  -3 1036.32 85.0669   1
  -7 -19  -3 1087.57 72.3017   2
  26  -7  -3 732.463 27.1269   1
 -26  19   0 1816.63 123.656   2
 -19  -7   0 1944.49 78.1884   1
  26  -7   0 1831.83 80.8153   1
  -7 -19   0 2239.28 123.260   1
 -19  -7  -3 282.299 45.7919   1
 -19  26   3 312.016 57.3188   2
 -26   7  -3 539.412 77.9680   2
  26  -7   3 320.223 44.5234   1
 -19  26   6 176.912 51.8349   2
  26 -19  -6 283.059 47.4481   1
  19 -26  -6 214.345 57.0263   1
 -19  -7  -6 182.977 49.3392   1
  19 -26  -9 70.8939 51.4404   1
  26 -19  -9 4.42806 34.9525   1
 -19  26   9-2.35010 44.6599   2
 -19  -7  -9 50.7287 48.7972   1
  -6 -20  -7 10.3998 38.1159   1
   6 -26  -7 64.1250 46.9977   1
  -6 -20  -4 438.261 63.0126   1
  -6 -20  -4 510.604 51.9863   2
   6 -26  -4 388.599 64.3104   1
 -26  20  -1 211.822 54.8355   2
  26  -6  -1 204.092 26.5301   1
  -6 -20  -1 172.676 49.3803   1
 -20  26   2 908.956 91.3241   2
 -26  20   2 763.137 83.4351   2
 -20  -6  -2 852.087 64.4200   1
  26  -6   2 789.037 63.3028   1
 -20  -6  -5 378.915 30.2293   2
 -26   6  -5 428.202 53.2127   2
 -20  26   5 431.946 68.2448   2
 -20  -6  -5 423.044 61.3846   1
  26 -20  -8 181.697 44.6271   1
 -20  26   8 23.4978 45.7617   2
 -20  -6  -8 65.8875 48.2225   1
  20 -26  -8 268.765 72.5338   1
   5 -26  -8-31.9000 44.3778   1
  -5 -21  -8-58.4348 52.5644   1
   5 -26  -5 12.2608 37.7515   1
  -5 -21  -5 91.8191 40.1332   1
 -26  21  -2 217.057 50.0120   2
  -5 -21  -2 397.593 60.3059   1
   5 -26  -2 290.271 54.1679   2
  26  -5  -2 200.459 17.1285   1
  26  -5   1 541.678 50.5008   1
 -21  26   1 521.769 72.5544   2
 -26  21   1 486.310 67.2619   2
 -21  -5  -1 573.987 50.8803   1
 -26   5  -4 625.837 62.0796   2
 -21  26   4 663.422 82.8082   2
  21   5   4 607.371 65.4886   1
 -21  -5  -4 635.129 65.7390   1
  21 -26  -7 235.484 65.2140   1
  26 -21  -7 224.522 51.6743   1
 -21  26   7 69.2624 61.6868   2
 -21  -5  -7 139.392 47.1726   1
   4 -26  -9 114.558 55.8620   1
  -4 -22  -9 22.4562 48.9839   1
  -4 -22  -6 27.0122 37.9458   1
   4 -26  -6-95.3761 48.5131   1
 -26  22  -3 103.137 46.7518   2
  -4 -22  -3 90.0139 32.0642   2
   4 -26  -3 102.973 41.0529   2
  -4 -22  -3 160.903 52.2120   1
 -22  26   0 45.7555 39.1128   2
  26  -4   0 29.2635 18.5473   1
 -26  22   0 2.65443 40.7772   2
  26  -4   3 639.255 62.6661   1
 -22  26   3 787.900 87.2782   2
 -26  22   3 669.744 80.9599   2
  22   4   3 680.401 66.3872   1
 -22  -4  -3 683.696 63.5560   1
 -22  26   6 20.7487 39.2369   2
 -22  -4  -6 44.5155 39.9304   1
  22 -26  -9 84.6580 54.6258   1
 -22  26   9 45.3470 49.5491   2
 -22  -4  -9 59.9991 50.2778   1
  26 -22  -9-26.0264 42.4137   1
   3 -26  -7 94.9220 47.8117   1
  -3 -23  -7 52.6423 67.5518   1
   3 -26  -4 453.229 70.8835   1
  -3 -23  -4 457.271 53.1248   2
  -3 -23  -4 509.326 73.2141   1
 -26  23  -1 1869.77 130.173   2
  26  -3  -1 1766.87 60.0643   1
 -23  26  -1 2126.75 139.543   2
 -23  26   2 1401.88 111.632   2
 -26  23   2 1470.57 117.937   2
  26  -3   2 1397.76 85.4350   1
  23   3   2 1500.52 83.9205   1
 -26   3  -5 1313.40 85.6598   2
 -23  -3  -5 1281.13 68.0616   2
 -23  26   5 1359.93 115.576   2
 -26  23   5 1285.96 112.647   2
 -23  -3  -5 1247.54 97.6423   1
 -23  26   8 1.34512 41.3116   2
  26 -23  -8 147.515 50.4303   1
 -23  -3  -8 81.5821 48.2155   1
  23 -26  -8 163.240 61.0576   1
  -2 -24  -8 31.4726 51.0861   1
   2 -26  -8 195.919 58.7933   1
  -2 -24  -5 246.644 56.9516   1
   2 -26  -5 309.434 65.0885   1
 -26  24  -2 1672.30 128.227   2
  -2 -24  -2 1696.25 105.139   2
   2 -26  -2 1718.11 112.916   2
  -2 -24  -2 1912.93 123.895   1
 -24  26   1 176.758 47.4574   2
 -26  24   1 164.278 47.4202   2
  24   2   1 172.944 32.0409   1
  26  -2   1 175.833 35.4145   1
 -24  26   4 208.285 53.8615   2
 -26  24   4 277.769 59.5498   2
 -26   2  -4 224.168 39.0911   2
  24 -26  -7 100.243 50.9103   1
 -24  26   7 19.8820 42.5202   2
 -26  24   7-20.4084 42.8429   2
 -24  -2  -7 71.4398 46.6195   1
  26 -24  -7-6.92882 43.3565   1
  -1 -25  -6 39.1056 41.5427   1
   1 -26  -6 59.3121 46.0372   1
  -1 -25  -3 246.615 48.5306   2
   1 -26  -3 275.700 48.6440   2
  -1 -25  -3 275.959 56.3302   1
   1 -26  -3 280.160 58.1311   1
 -25  26   0 749.477 90.2811   2
 -26  25   0 800.635 92.8871   2
  26  -1   0 948.829 53.5896   1
 -25  26   3 706.812 89.9177   2
 -26  25   3 724.112 89.8568   2
  26  -1   3 636.276 64.0435   1
  25   1   3 720.763 68.6518   1
 -25  26   6 76.4557 54.1595   2
 -26  25   6 42.0169 46.3272   2
   0 -26  -7-66.4536 54.1279   1
   0 -26  -4 232.452 57.5241   1
   0 -26  -4 200.234 43.0825   2
 -26  26  -1 1235.27 110.018   2
  26   0   2 532.895 55.5871   1
 -26  26   2 456.607 75.1910   2
 -26   0  -5 85.6526 30.8377   2
 -26  26   5 58.1915 42.5182   2
 -26  26   8 46.3309 56.8989   2
  26 -26  -8-88.1449 54.9016   1
 -13  27   8 17.4838 37.4620   2
 -13 -14  -8 27.6048 45.1399   1
  13 -27  -8 17.0956 45.1790   1
 -13  27   5 7.97561 34.0751   2
 -27  14  -5-52.0867 40.0815   2
  27 -13  -5 44.6898 24.6281   1
 -13 -14  -5 0.06505 7.24204   2
 -14 -13   5 17.1367 14.4710   1
 -13 -14  -5 65.8716 40.3847   1
 -14 -13   5 9.51071 12.9272   1
 -27  14  -2 1624.64 109.216   2
 -13 -14  -2 1712.42 96.1039   1
  27 -14   2 1623.63 100.866   1
 -14 -13   2 1532.61 68.2564   1
 -14 -13  -1 1314.47 80.6681   1
 -27  13  -1 1291.33 93.7037   2
  27 -13   1 1326.54 84.5433   1
 -13 -14   1 1228.87 67.3171   1
 -14  27   4 43.2687 35.0560   2
 -27  13  -4 38.7539 32.1174   2
 -14 -13  -4 62.3846 38.0376   1
 -13 -14   4 63.6445 22.1076   1
 -14  27   7 9.58291 37.7484   2
  27 -14  -7-25.4625 21.7543   1
 -14 -13  -7 10.4363 37.0311   1
  14 -27  -7 40.9038 49.2932   1
  12 -27  -9-34.8317 54.1431   1
 -12  27   9-8.97890 42.0079   2
 -12 -15  -9 12.2390 42.8485   1
  12 -27  -6 56.8810 50.5059   1
  27 -12  -6 3.89370 16.0216   1
 -12 -15  -6 25.8619 34.5294   1
 -12 -15  -3 226.308 44.2125   1
 -27  15  -3 281.107 57.1297   2
 -15 -12   3 152.609 20.9692   1
 -12 -15   0-5.41545 25.0148   1
 -27  15   0 60.2596 41.7272   2
  27 -12   0 11.7370 20.4345   1
 -15 -12   0-7.14944 24.2793   1
 -27  12  -3 75.9440 34.6848   2
 -15 -12  -3 65.9763 34.5760   1
 -12 -15   3 11.3599 20.8622   1
  27 -12   3-2.53873 31.5168   1
 -15  27   6 109.231 45.3529   2
  15 -27  -6 151.357 53.9252   1
 -15 -12  -6 132.269 47.5542   1
  27 -15  -6 79.3888 27.4974   1
 -15 -12  -9 13.5298 45.0554   1
  15 -27  -9-60.7089 49.4596   1
 -15  27   9 23.0945 42.9270   2
  11 -27  -7 83.7355 46.5549   1
 -11 -16  -7 32.3487 45.7729   1
 -11 -16  -4 119.803 29.3440   2
 -11 -16  -4 65.2923 38.6210   1
 -27  16  -4-13.7229 39.0108   2
 -27  16  -1 15.4952 33.0570   2
  27 -11  -1 18.4939 21.9498   1
 -16 -11   1 23.5118 19.8156   1
 -11 -16  -1-4.31456 26.4692   1
 -27  11  -2 393.567 53.6347   2
 -16 -11  -2 434.352 52.4091   1
 -11 -16   2 419.754 45.1098   1
  27 -11   2 455.204 53.8019   1
 -27  11  -5 550.054 65.6255   2
 -16  27   5 707.700 81.8248   2
 -16 -11  -5 771.276 80.1740   1
 -16 -11  -5 433.005 23.7539   2
 -16 -11  -8 326.325 88.2031   1
  27 -16  -8 570.169 58.1557   1
 -16  27   8 205.446 73.2949   2
  16 -27  -8 551.506 86.9355   1
  10 -27  -8 14.7360 46.3029   1
 -10 -17  -8 62.1906 49.7393   1
 -10 -17  -5-30.7304 34.2803   1
  27 -10  -5 16.9365 10.5348   1
 -17 -10   2 50.3404 14.7735   1
 -27  17  -2 10.7163 35.0989   2
  27 -10  -2 71.5952 21.3493   1
 -10 -17  -2 67.6815 33.9202   1
 -17 -10  -1 115.349 27.4952   1
 -27  17   1 66.4588 38.0633   2
 -10 -17   1 73.3087 28.8238   1
  27 -10   1 65.1084 25.0049   1
 -17  27   4 227.526 51.7112   2
 -17 -10  -4 165.882 44.4764   1
 -27  10  -4 247.125 50.2708   2
 -17 -10  -7 63.0419 41.9590   1
  27 -17  -7 115.820 34.9061   1
 -17  27   7 62.8261 46.2155   2
  17 -27  -7 100.303 47.7287   1
  -9 -18  -9 33.3628 46.9575   1
   9 -27  -9 23.9864 51.9840   1
   9 -27  -6 113.477 55.9881   1
  -9 -18  -6 137.334 59.0330   1
 -27  18  -3 285.818 56.5981   2
  27  -9  -3 236.975 24.3359   1
  -9 -18  -3 320.030 56.0314   1
  27  -9   0-4.53674 18.9752   1
 -18  -9   0 23.9642 19.5543   1
  -9 -18   0-0.49086 28.0549   1
 -27  18   0 13.0844 34.3980   2
 -18  27   3 28.5222 37.7764   2
 -18  -9  -3 60.7312 34.2023   1
  27  -9   3 21.9219 29.0912   1
 -27   9  -3-44.8898 39.2715   2
 -18  -9  -6 40.8910 34.3144   1
 -18  27   6 40.0353 37.3994   2
  18 -27  -6-31.2685 42.6915   1
  27 -18  -6-47.2996 31.6440   1
  18 -27  -9-65.5320 56.6764   1
 -18  27   9 34.4762 43.6563   2
 -18  -9  -9 12.2836 42.7278   1
   8 -27  -7 76.5162 54.9240   1
  -8 -19  -7 54.4690 41.4244   1
 -27  19  -4-26.0922 41.2374   2
  -8 -19  -4 31.0186 23.4441   2
  -8 -19  -4-18.4340 38.3322   1
 -27  19  -1 442.729 66.0315   2
 -19  -8   1 421.236 34.9550   1
  27  -8  -1 381.143 36.9751   1
  -8 -19  -1 388.488 50.7223   1
 -19  27   2 2660.12 149.891   2
 -27  19   2 2441.79 142.873   2
 -19  -8  -2 2696.74 116.953   1
  27  -8   2 2473.81 112.510   1
 -27   8  -5 1006.20 82.1931   2
 -19  27   5 1219.59 105.931   2
 -19  -8  -5 856.753 39.6802   2
 -19  -8  -5 1140.28 94.2101   1
 -19  27   8 86.1769 71.9390   2
  27 -19  -8 471.969 62.4989   1
  19 -27  -8 416.344 83.4127   1
 -19  -8  -8 200.727 72.5450   1
   7 -27  -8 128.310 59.1149   1
  -7 -20  -8 25.4407 50.1454   1
   7 -27  -5 122.054 47.0660   1
  -7 -20  -5 225.520 52.8635   1
 -27  20  -2 47.2165 41.9988   2
  27  -7  -2 40.9761 14.7907   1
  -7 -20  -2 20.3805 34.4040   1
 -20  27   1-26.6917 45.5678   2
 -27  20   1-5.77694 38.1868   2
  27  -7   1 45.7638 26.7874   1
 -20  27   4-56.5775 43.6533   2
 -27   7  -4-5.04780 30.3024   2
 -20  -7  -4 36.4720 31.4369   1
  20 -27  -7-47.1054 49.5340   1
 -20  27   7 20.1161 40.1536   2
 -20  -7  -7-4.10441 35.7179   1
  27 -20  -7-5.14180 32.5752   1
   6 -27  -9 96.4371 55.2946   1
  -6 -21  -9-26.1712 50.4648   1
   6 -27  -6 243.402 64.0754   1
  -6 -21  -6 64.1746 43.4525   1
 -27  21  -3 468.969 69.5293   2
  -6 -21  -3 450.468 50.5245   2
   6 -27  -3 388.064 56.8268   2
  -6 -21  -3 498.960 65.8006   1
  27  -6   0 2393.52 91.3745   1
 -27  21   0 2155.24 137.143   2
  -6 -21   0 2216.36 119.074   1
 -21  -6   0 2306.29 84.5493   1
 -21  27   0 2078.34 137.819   2
  27  -6   3 1068.45 83.9699   1
 -21  27   3 1226.03 105.675   2
  21   6   3 1254.29 83.1649   1
 -27   6  -3 1261.62 87.7142   2
 -27  21   3 1173.86 103.309   2
 -21  -6  -3 1135.15 81.7008   1
 -21  27   6 92.1031 60.7688   2
  27 -21  -6 161.037 45.9768   1
 -21  -6  -6 230.722 53.5018   1
  21 -27  -9-22.6163 48.8370   1
 -21  27   9 29.1447 50.4059   2
  27 -21  -9 19.8625 39.1475   1
 -21  -6  -9 8.57018 47.3492   1
  -5 -22  -7 208.402 66.8388   1
   5 -27  -7 126.681 47.6563   1
   5 -27  -4 1882.13 135.054   1
  -5 -22  -4 1903.33 99.4587   2
  -5 -22  -4 1680.85 118.077   1
 -27  22  -1 3982.34 187.764   2
  27  -5  -1 4097.35 100.814   1
  -5 -22  -1 4311.63 169.089   1
 -22  27   2 889.627 91.9296   2
  27  -5   2 753.768 69.4410   1
 -27  22   2 869.558 94.6273   2
 -22  -5  -2 966.514 70.3888   1
 -27   5  -5 627.128 60.4454   2
 -22  27   5 416.892 100.845   2
 -22  -5  -5 670.285 45.1370   2
 -22  -5  -5 747.051 79.5720   1
  27 -22  -8 133.611 46.4387   1
 -22  27   8 66.2567 72.8236   2
 -22  -5  -8 43.6802 45.3195   1
  22 -27  -8 121.859 62.9399   1
  -4 -23  -8-34.8353 51.4493   1
   4 -27  -8 34.5223 48.1120   1
  -4 -23  -5 24.4404 37.3584   1
   4 -27  -5 59.3642 47.3564   1
 -27  23  -2 700.750 86.6220   2
  -4 -23  -2 729.768 76.9849   1
  -4 -23  -2 802.245 75.6581   2
 -23  27   1 39.8280 39.4144   2
  27  -4   1 40.4693 25.4490   1
 -27  23   1 4.19460 40.7610   2
 -23  27   4 30.2347 44.5537   2
 -27   4  -4-4.61725 26.2134   2
 -27  23   4 55.7400 44.4481   2
 -23  -4  -4 39.9217 31.8882   1
  23 -27  -7-41.3061 47.4793   1
 -23  27   7-11.1535 42.0307   2
  27 -23  -7 33.9652 43.9367   1
 -23  -4  -7 56.8891 43.2972   1
   3 -27  -6 222.839 56.7060   1
  -3 -24  -6 197.067 63.8495   1
  -3 -24  -3 1014.76 83.5890   2
   3 -27  -3 997.177 88.4638   2
  -3 -24  -3 1160.28 102.138   1
   3 -27  -3 1259.39 110.698   1
 -27  24  -3 1083.54 108.325   2
 -24  27   0 513.768 78.8109   2
 -27  24   0 488.799 70.7608   2
  27  -3   0 602.537 44.2340   1
  24   3   3 183.724 39.2550   1
 -24  27   3 284.159 64.5795   2
  27  -3   3 210.295 43.8681   1
 -27  24   3 177.334 54.6689   2
 -24  27   6 17.9525 44.9585   2
 -27  24   6-44.8438 42.9385   2
 -24  -3  -6 47.8890 37.9560   1
   2 -27  -7 98.3330 48.2794   1
  -2 -25  -7-44.4254 58.5213   1
   2 -27  -4 85.8317 44.4612   1
  -2 -25  -4 59.7413 43.2647   1
 -25  27  -1 21.0108 40.2163   2
 -27  25  -1 23.6428 38.1034   2
 -25  27   2 111.034 51.3027   2
 -27  25   2 24.1108 37.4950   2
  25   2   2 20.7780 23.9703   1
  27  -2   2 29.6834 23.4890   1
 -27   2  -5 72.7808 28.9325   2
 -25  -2  -5 84.9281 26.4442   2
 -25  27   5 48.6123 42.0796   2
 -27  25   5 236.864 67.7663   2
  25 -27  -8 171.161 65.8417   1
 -25  27   8 39.3836 56.7238   2
 -27  25   8 42.0749 61.6799   2
  27 -25  -8 162.528 57.0619   1
  -1 -26  -8 6.76235 46.8228   1
   1 -27  -8-15.4245 50.7252   1
  -1 -26  -5 38.7013 42.2441   1
   1 -27  -5 25.8517 40.9445   1
 -27  26  -2 12.9770 40.6010   2
  -1 -26  -2 43.8698 34.4750   2
  -1 -26  -2 52.8160 46.9411   1
 -26  27   1 92.4772 49.2661   2
 -27  26   1 19.8940 39.5389   2
  27  -1   1 20.5621 27.6372   1
  26   1   1 34.1275 27.1472   1
 -26  27   4 3.42187 40.3243   2
 -27  26   4 101.469 51.9700   2
 -27   1  -4 9.37315 26.8971   2
  27 -26  -7 6.29496 41.4990   1
  26 -27  -7 64.7538 48.1149   1
 -26  27   7 10.2661 42.6789   2
 -27  26   7 25.8229 47.2244   2
   0 -27  -6 384.039 80.0581   1
   0 -27  -3 1194.58 95.3900   2
   0 -27  -3 1177.33 114.415   1
 -27  27   0 32.0353 44.9198   2
 -27  27   3 99.4222 50.3029   2
  27   0   3 31.3796 27.8534   1
 -27  27   6 52.9478 56.4712   2
 -14 -14   0 1173.66 74.3031   1
 -14 -14   3 262.850 29.9260   1
 -28  14  -3 299.985 54.6005   2
 -14 -14  -3 294.597 47.3363   1
  28 -14  -6 10.9248 20.0580   1
 -14  28   6 37.6347 37.6672   2
 -14 -14  -6 39.2047 47.5815   1
  14 -28  -6 90.5788 50.7156   1
 -14  28   9-12.9628 38.9825   2
  14 -28  -9 90.3611 53.5998   1
 -14 -14  -9 65.2692 50.5970   1
 -13  28   7 4.05047 34.1475   2
  13 -28  -7 38.4657 51.1832   1
 -13 -15  -7-9.92213 41.7463   1
 -28  15  -4 70.7701 38.5761   2
 -15 -13   4 24.1673 13.9534   1
 -13 -15  -4 41.6792 35.5923   1
 -15 -13   1 10.4432 20.4906   1
 -13 -15  -1 43.2736 31.5767   1
 -28  15  -1 125.087 55.2708   2
 -13 -15   2-20.2739 20.8628   1
 -28  13  -2-28.1701 34.4312   2
 -15 -13  -2 14.0453 24.6029   1
  28 -13   2 31.0201 33.3955   1
 -15  28   5-5.40087 36.6818   2
 -28  13  -5-23.4061 36.1554   2
 -15 -13  -5 5.01395 33.2929   1
  28 -15  -5 53.8759 29.4859   1
 -15  28   8 44.3783 46.2229   2
 -15 -13  -8 21.6881 48.1862   1
  15 -28  -8 166.970 62.2257   1
 -12 -16  -8 57.1294 57.7459   1
  12 -28  -8 182.295 62.8875   1
 -28  16  -5 451.392 70.4850   2
 -12 -16  -5 485.953 69.4511   1
  28 -12  -5 460.498 37.3933   1
 -28  16  -2 1275.40 102.392   2
 -16 -12   2 1192.35 55.6642   1
 -12 -16  -2 1287.44 91.4135   1
 -16 -12  -1 1077.01 70.7393   1
  28 -12   1 1125.02 77.2669   1
 -12 -16   1 1051.04 68.0632   1
 -16  28   4-4.12710 35.7695   2
 -28  12  -4-8.62274 31.3483   2
 -16 -12  -4 75.2378 37.5668   1
 -16  28   7 10.9763 37.4867   2
 -16 -12  -7 28.4424 38.5380   1
  16 -28  -7 129.858 57.0703   1
  28 -16  -7 26.3647 23.7420   1
 -11 -17  -9 40.8056 57.9198   1
  11 -28  -9 159.401 61.9472   1
 -11 -17  -6 934.322 99.7202   1
  11 -28  -6 1072.85 113.736   1
 -28  17  -3 2353.40 137.844   2
 -11 -17  -3 2470.23 131.424   1
 -17 -11   3 1714.03 49.6593   1
 -28  17   0 1021.24 91.0899   2
  28 -11   0 1178.07 73.3168   1
 -17 -11   0 1183.73 69.2881   1
 -11 -17   0 1170.50 78.0310   1
 -17  28   3 0.82339 36.9653   2
  28 -11   3 38.6790 29.4112   1
 -28  11  -3 34.5665 34.6106   2
 -17 -11  -3 34.5620 29.6165   1
 -17  28   6 14.4067 37.1484   2
 -17 -11  -6 113.610 47.4316   1
  28 -17  -6 86.1552 32.9823   1
  17 -28  -6 158.241 60.2909   1
 -17 -11  -9 48.9389 56.8771   1
 -17  28   9 33.0334 45.7939   2
  17 -28  -9 131.137 67.2702   1
 -10 -18  -7 60.1601 53.9913   1
  10 -28  -7 12.1759 42.8638   1
 -28  18  -4 286.636 60.1710   2
 -10 -18  -4 283.099 38.1706   2
 -10 -18  -4 282.339 53.8987   1
  28 -10  -4 154.593 19.6842   1
  28 -10  -4 194.519 21.5309   1
 -18 -10   1 209.868 30.1015   1
 -10 -18  -1 180.645 40.4975   1
 -28  18  -1 198.785 52.5453   2
  28 -10  -1 208.141 31.6761   1
 -10 -18   2-29.0714 25.4063   1
 -18  28   2 21.0742 39.7946   2
  28 -10   2-9.94122 24.6188   1
 -18 -10  -2-19.5434 29.9812   1
 -28  10  -2-2.92450 29.8129   2
 -18 -10  -5 42.1105 37.7560   1
 -28  10  -5 58.9273 34.0535   2
 -18  28   5 47.6816 38.6467   2
 -18 -10  -8-12.5362 46.4756   1
 -18  28   8-29.4045 44.0700   2
  18 -28  -8 38.0688 47.4709   1
   9 -28  -8 25.9343 47.1296   1
  -9 -19  -8 26.8813 47.7196   1
   9 -28  -5-29.8834 45.7854   1
  -9 -19  -5-25.3430 40.5039   1
  28  -9  -2 131.502 26.6851   1
  -9 -19  -2 30.3357 33.6516   1
 -28  19  -2-0.45426 39.7164   2
 -19  -9   2 21.2407 10.2647   1
 -28  19   1 1530.77 115.133   2
 -19  -9  -1 1677.10 86.5210   1
  28  -9   1 1552.31 85.4657   1
  -9 -19   1 1660.43 95.4308   1
 -19  28   4 951.391 95.1229   2
 -28   9  -4 925.096 81.9404   2
 -19  -9  -4 1026.12 86.6753   1
 -19  -9  -7 318.616 78.0585   1
 -19  28   7 138.903 72.5060   2
  28 -19  -7 518.982 62.9697   1
  19 -28  -7 407.845 81.3635   1
  -8 -20  -9-0.73023 47.4086   1
   8 -28  -9 57.8232 61.1314   1
  -8 -20  -6 15.3497 36.9242   1
   8 -28  -6 10.1459 42.4304   1
  -8 -20  -3 94.7842 38.4024   1
  -8 -20  -3 101.951 31.3833   2
 -28  20  -3 104.100 46.8095   2
  28  -8  -3 78.9326 11.8160   1
 -28  20   0 1887.37 129.255   2
 -20  -8   0 2017.18 82.7633   1
  -8 -20   0 1907.42 107.976   1
  28  -8   0 1794.40 85.7667   1
 -20  28   3 2077.45 136.897   2
 -28   8  -3 2211.78 116.908   2
 -20  -8  -3 2189.76 113.931   1
  28  -8   3 1879.01 110.113   1
 -20  28   6 209.903 82.0538   2
 -20  -8  -6 357.259 76.7567   1
 -20  28   9 31.6315 49.6475   2
  20 -28  -9 27.5631 45.4210   1
 -20  -8  -9 47.4322 52.4231   1
  -7 -21  -7-1.93397 42.2340   1
   7 -28  -7 5.00651 41.9062   1
   7 -28  -4 16.5511 39.9090   1
 -28  21  -4 35.3710 42.7777   2
  -7 -21  -4 15.9701 25.4038   2
  -7 -21  -4 62.0215 39.8189   1
 -28  21  -1 398.656 69.6739   2
  -7 -21  -1 413.615 57.7056   1
  28  -7  -1 471.219 40.2552   1
 -21  28   2 31.6931 37.8245   2
 -28  21   2-30.3364 35.6456   2
  28  -7   2 24.4100 27.7591   1
 -21  -7  -2-47.9306 29.9229   1
 -28   7  -5 150.698 37.2860   2
 -21  28   5 126.111 59.7981   2
 -21  -7  -5 207.718 53.5309   1
  21 -28  -8 9.23575 47.1354   1
  28 -21  -8 11.2894 35.9715   1
 -21  28   8 6.52662 41.2063   2
 -21  -7  -8 35.9245 43.8553   1
   6 -28  -8-75.9178 52.9660   1
  -6 -22  -8-3.23937 44.5815   1
  -6 -22  -5 71.8632 50.0309   1
   6 -28  -5 149.406 50.1722   1
 -28  22  -2 67.8505 45.3533   2
  28  -6  -2 13.2196 9.52443   1
  -6 -22  -2 52.0853 39.8661   1
  28  -6   1 570.835 55.6957   1
 -22  28   1 617.681 80.6132   2
 -28  22   1 731.187 89.1342   2
 -22  -6  -1 726.951 58.1063   1
 -22  28   4 279.404 62.8191   2
 -28   6  -4 262.792 47.4637   2
 -28  22   4 359.495 67.4496   2
 -22  -6  -4 301.529 51.6325   1
  28 -22  -7-62.5726 35.4983   1
  22 -28  -7 86.5428 50.0218   1
 -22  28   7 3.25904 38.8368   2
 -22  -6  -7 8.10412 38.3474   1
  -5 -23  -6 38.4308 47.4749   1
   5 -28  -6-0.81316 45.3654   1
 -28  23  -3 570.715 79.9084   2
  -5 -23  -3 496.464 58.0644   2
  -5 -23  -3 573.623 74.9698   1
 -28  23   0 779.706 91.6448   2
  28  -5   0 912.615 56.3903   1
 -23  28   0 792.604 96.9773   2
  23   5   3 329.292 46.6385   1
 -23  28   3 331.459 64.7794   2
 -28  23   3 366.734 71.7630   2
 -23  -5  -3 369.368 52.7862   1
  28  -5   3 330.426 53.7893   1
 -28   5  -6 31.1400 28.1855   2
 -23  28   6 40.8191 47.8188   2
 -23  -5  -6-32.8532 37.6969   1
   4 -28  -7 181.110 61.2708   1
  -4 -24  -7 177.430 63.1987   1
  -4 -24  -4 686.625 83.8520   1
   4 -28  -4 653.783 84.5177   1
  -4 -24  -1 48.7193 39.2931   1
 -28  24  -1-63.0138 49.3953   2
  28  -4  -1-1.67732 13.0366   1
 -24  28   2 35.5548 48.2139   2
  28  -4   2 37.8779 29.8523   1
 -28  24   2 73.3371 43.1065   2
 -28   4  -5-1.05194 28.0198   2
 -24  28   5 36.9639 45.7941   2
 -28  24   5-15.6812 40.2847   2
 -24  -4  -5-26.2645 33.5509   1
  24 -28  -8-49.4227 54.1540   1
 -24  28   8 0.93253 49.7001   2
  28 -24  -8 58.2270 49.6559   1
 -24  -4  -8 24.4449 45.0078   1
  -3 -25  -8 40.5151 63.6678   1
   3 -28  -8 33.1888 52.6079   1
   3 -28  -5 923.985 102.923   1
  -3 -25  -5 635.040 95.3727   1
  -3 -25  -2 771.086 76.1922   2
 -28  25  -2 858.572 97.6831   2
  -3 -25  -2 915.997 91.3127   1
 -25  28   1 226.239 58.0062   2
 -28  25   1 252.144 64.1328   2
  28  -3   1 225.027 36.6294   1
 -25  28   4 50.1825 44.4461   2
 -28   3  -4 25.5978 28.1094   2
 -28  25   4 7.42716 43.4999   2
  25 -28  -7-11.8950 45.5298   1
 -28  25   7 9.58995 42.7820   2
 -25  -3  -7 0.69274 39.1577   1
  28 -25  -7 36.8416 39.9800   1
   2 -28  -6 382.903 74.6033   1
  -2 -26  -6 267.009 75.3563   1
  -2 -26  -3 898.432 80.9239   2
  -2 -26  -3 942.838 98.7860   1
   2 -28  -3 1022.31 103.785   1
 -26  28   0 365.836 68.6243   2
 -28  26   0 372.490 64.8185   2
  26   2   3 262.392 46.1105   1
 -26  28   3 261.197 66.8149   2
 -28  26   3 290.546 64.2418   2
  28  -2   3 287.259 50.8014   1
 -26  28   6 9.11461 42.0706   2
 -28  26   6 25.7086 46.4293   2
  -1 -27  -7 87.2812 62.5776   1
   1 -28  -7 27.0264 44.7738   1
   1 -28  -4 7.32570 43.7025   1
  -1 -27  -4 26.6210 41.7495   1
 -27  28  -1 84.4233 50.7038   2
 -28  27  -1 107.170 54.6745   2
 -27  28   2 420.831 71.0735   2
 -28  27   2 381.576 76.0330   2
 -27  28   5 69.7464 56.3294   2
 -28  27   5 120.832 54.4207   2
   0 -28  -5 23.1348 42.6530   1
   0 -28  -2 97.5026 48.8186   1
 -28  28   1 703.531 92.3066   2
 -28  28   4 423.160 73.7707   2
 -28   0  -4 468.417 54.1348   2
 -28  28   7 168.666 68.8677   2
  28 -28  -7 294.391 75.2246   1
 -14  29   8 17.7306 40.7481   2
 -14 -15  -8 56.7243 44.8790   1
  14 -29  -8 83.2871 51.1959   1
 -29  15  -5 235.573 53.6685   2
  29 -14  -5 318.226 39.0030   1
 -14 -15  -5 244.917 54.0950   1
 -14 -15  -2 418.755 53.4096   1
 -15 -14   2 369.452 38.2784   1
 -29  15  -2 396.155 62.8500   2
 -15 -14  -1 740.732 64.0960   1
 -29  14  -1 635.505 72.3132   2
  29 -14   1 584.264 65.8498   1
 -14 -15   1 687.709 54.2453   1
 -29  14  -4 186.599 47.5609   2
 -15 -14  -4 155.023 42.1733   1
 -14 -15   4 142.865 25.0760   1
 -15  29   7 0.96557 41.4649   2
 -15 -14  -7-35.1723 44.5581   1
  15 -29  -7 8.56215 48.8262   1
  13 -29  -9 231.157 68.0440   1
 -13 -16  -9 5.12415 42.8908   1
  13 -29  -6 96.8550 59.4331   1
 -13 -16  -6 32.9208 45.9193   1
 -13 -16  -3 54.1677 39.9937   1
 -29  16  -3 49.6821 41.3043   2
 -16 -13   3 74.1438 20.6453   1
 -29  16   0 170.182 46.5785   2
 -13 -16   0 134.617 34.6787   1
  29 -13   0 125.896 31.4947   1
 -16 -13   0 144.615 31.5973   1
 -29  13  -3 145.932 42.0948   2
 -16 -13  -3 222.263 45.4500   1
 -13 -16   3 252.603 34.6497   1
 -16  29   6 28.1788 43.0602   2
 -16 -13  -6 40.9343 41.0837   1
  16 -29  -6 120.283 61.8842   1
  29 -16  -6 15.0745 25.7052   1
 -16 -13  -9 11.1932 46.5377   1
 -16  29   9 2.11049 46.3621   2
  16 -29  -9 128.649 63.8589   1
  12 -29  -7 112.381 61.3129   1
 -12 -17  -7 46.4584 51.8560   1
 -29  17  -4 838.919 89.8225   2
 -12 -17  -4 959.859 89.5384   1
 -29  17  -1 872.356 86.8429   2
  29 -12  -1 899.206 66.4354   1
 -12 -17  -1 932.301 74.2603   1
 -17 -12   1 898.654 56.8180   1
 -29  12  -2 787.900 79.6819   2
 -12 -17   2 748.926 60.1883   1
  29 -12   2 629.876 67.0053   1
 -17 -12  -2 728.137 65.4183   1
 -17  29   5 32.8570 44.1575   2
 -29  12  -5 58.2753 37.4247   2
 -17 -12  -5 48.9137 37.8390   1
 -17  29   8 99.9719 214.991   2
  17 -29  -8-44.0660 57.8613   1
  11 -29  -8-16.9800 50.6726   1
 -11 -18  -8 15.0941 48.0540   1
  11 -29  -5 96.5624 49.7129   1
 -11 -18  -5 213.159 55.2590   1
 -18 -11   2 21.9233 15.9537   1
 -29  18  -2-47.6904 40.7499   2
 -11 -18  -2-16.8773 33.0974   1
  29 -11  -2 15.8968 22.5193   1
 -11 -18   1 637.753 61.7520   1
 -29  18   1 618.742 77.3462   2
  29 -11   1 595.384 58.7322   1
 -18 -11  -1 601.818 55.7932   1
 -18  29   4 254.280 60.8512   2
 -18 -11  -4 236.073 48.9012   1
 -29  11  -4 160.337 44.3672   2
 -18 -11  -7 109.107 57.3382   1
 -18  29   7 53.7480 44.8789   2
  29 -18  -7 196.748 45.0530   1
  18 -29  -7 133.856 59.4138   1
  10 -29  -6 9.97463 48.8155   1
 -10 -19  -6 72.3684 50.2657   1
 -29  19  -3 462.029 71.2237   2
 -10 -19  -3 410.893 61.9067   1
 -10 -19   0 656.390 66.6180   1
 -29  19   0 686.717 84.2982   2
  29 -10   0 640.932 56.6202   1
 -19 -10   0 648.660 51.7654   1
 -19  29   3 87.5666 41.8444   2
 -19 -10  -3 107.928 36.8136   1
 -29  10  -3 39.6321 35.1234   2
 -19 -10  -6-24.1816 36.0956   1
 -19  29   6 3.09090 39.4105   2
  19 -29  -6 60.2464 52.3936   1
  29 -19  -6 75.2561 33.7181   1
   9 -29  -7 210.185 66.2475   1
  -9 -20  -7 101.555 47.6953   1
 -29  20  -4 426.698 69.0213   2
  -9 -20  -4 434.695 66.3094   1
  29  -9  -1 186.523 29.8702   1
 -29  20  -1 205.856 53.2030   2
  -9 -20  -1 200.529 47.4929   1
 -20  -9   1 231.509 29.1111   1
 -20  -9  -2 7.66764 28.6643   1
 -20  29   2 29.1307 37.8486   2
  29  -9   2 84.2059 30.6514   1
 -29  20   2-1.48128 45.5573   2
 -20  -9  -5-8.45964 33.6942   1
 -29   9  -5-18.7960 34.8345   2
 -20  29   5-21.6258 44.8920   2
  20 -29  -8-63.7594 51.2527   1
 -20  29   8-8.70369 43.8675   2
 -20  -9  -8-9.21117 40.2812   1
   8 -29  -8 81.0347 54.5462   1
  -8 -21  -8-2.46448 43.1023   1
  -8 -21  -5 126.121 56.2610   1
   8 -29  -5 190.867 58.6402   1
 -29  21  -2 403.292 64.5017   2
  -8 -21  -2 440.781 62.1707   1
  29  -8  -2 408.421 31.8535   1
  -8 -21   1 799.511 72.3250   1
 -21  29   1 624.301 81.8074   2
 -29  21   1 769.188 87.4307   2
 -21  -8  -1 811.925 62.8896   1
  29  -8   1 684.612 62.3753   1
 -21  29   4 201.381 68.2200   2
 -29   8  -4 228.739 45.7988   2
 -21  -8  -4 277.401 51.0300   1
  21 -29  -7 19.2156 45.8055   1
 -21  29   7-3.84466 45.8327   2
 -21  -8  -7 71.1195 51.9874   1
  29 -21  -7 19.0585 34.7201   1
   7 -29  -6 29.3018 45.8513   1
  -7 -22  -6 12.5671 37.5190   1
 -29  22  -3 287.649 62.3461   2
  -7 -22  -3 271.862 47.7005   2
  -7 -22  -3 325.329 58.2381   1
  -7 -22   0 309.019 55.5499   1
 -29  22   0 243.330 58.6033   2
 -22  -7   0 252.125 33.7298   1
  29  -7   0 253.280 35.7801   1
 -22  29   3 13.1505 42.5419   2
 -29   7  -3 25.5920 31.5336   2
 -29  22   3 66.1070 50.4762   2
  29  -7   3 24.5875 28.5348   1
 -22  -7  -3 37.8416 34.7966   1
 -29   7  -6 11.0019 28.2577   2
 -22  29   6-59.5447 52.3869   2
  29 -22  -6-25.7118 35.8632   1
 -22  -7  -6 24.2390 36.3324   1
  -6 -23  -7 11.2409 41.2919   1
   6 -29  -7 27.0932 47.6964   1
  -6 -23  -4 71.4060 44.1413   1
   6 -29  -4 7.26043 47.0825   1
 -29  23  -1 61.1557 46.5116   2
  -6 -23  -1 6.00787 35.3479   1
 -23  29   2 393.659 73.2648   2
 -29  23   2 463.606 76.6940   2
 -23  -6  -2 449.291 52.0200   1
 -29   6  -5-3.36269 29.2592   2
 -23  29   5-10.9347 42.5174   2
 -29  23   5 77.4045 47.9754   2
 -23  -6  -5 25.4866 35.9838   1
  23 -29  -8 28.4162 47.0758   1
 -23  29   8-9.34122 45.9620   2
  29 -23  -8 4.18310 35.4988   1
 -23  -6  -8 13.3880 46.2595   1
  -5 -24  -8 1.29184 47.6808   1
   5 -29  -8 137.602 59.8726   1
   5 -29  -5 47.9375 50.7398   1
  -5 -24  -5 11.0887 38.0947   1
  -5 -24  -2 181.229 46.4785   2
 -29  24  -2 232.640 58.6143   2
  -5 -24  -2 229.711 54.7398   1
 -24  29   1 149.943 51.0641   2
  29  -5   1 169.634 34.9385   1
 -29  24   1 192.961 59.1643   2
 -24  29   4 65.1387 42.3871   2
 -29   5  -4 17.2210 29.1108   2
 -29  24   4 19.3715 39.3462   2
 -24  -5  -4 17.0110 34.6815   1
 -24  29   7-5.78688 50.6414   2
  24 -29  -7 115.756 61.3564   1
  29 -24  -7 11.9092 37.1140   1
 -24  -5  -7-20.3858 39.3950   1
  -4 -25  -6 38.1900 59.2410   1
   4 -29  -6 49.6060 44.6342   1
 -29  25  -3 114.406 49.3076   2
   4 -29  -3 48.8597 45.1807   1
  -4 -25  -3-24.8180 36.9337   1
 -25  29   0 72.7060 43.6249   2
 -29  25   0 10.5201 40.4821   2
 -25  29   3 231.560 61.3753   2
 -29  25   3 185.914 61.3015   2
  25   4   3 169.578 40.4291   1
 -25  29   6 47.4080 50.0086   2
 -29  25   6 66.1427 48.6095   2
 -25  -4  -6 12.0818 38.1754   1
   3 -29  -7 110.463 53.6298   1
  -3 -26  -7 45.3984 57.2052   1
  -3 -26  -4 174.200 61.0381   1
   3 -29  -4 170.419 55.4300   1
 -29  26  -1 26.0557 41.3030   2
  -3 -26  -1 147.549 43.3233   1
 -26  29   2-54.5786 49.8213   2
 -29  26   2-66.8072 46.0535   2
 -29   3  -5 8.76184 28.8921   2
 -26  29   5 53.7298 56.6466   2
 -29  26   5-11.7590 41.5154   2
  -2 -27  -5-25.7258 44.0371   1
   2 -29  -5 68.5376 49.1512   1
 -29  27  -2-26.6418 40.5879   2
  -2 -27  -2 18.1987 41.8162   1
 -27  29   1 70.8756 45.1929   2
 -29  27   1 39.8387 48.4033   2
 -27  29   4 50.3017 53.2639   2
 -29  27   4 40.3076 51.7985   2
 -29   2  -4 21.9451 32.5981   2
  29 -27  -7 42.9686 43.9267   1
 -27  29   7 32.7056 51.6623   2
 -29  27   7-31.6297 52.3287   2
  -1 -28  -6-11.4383 44.8388   1
   1 -29  -6 5.86705 46.3575   1
   1 -29  -3-20.2395 41.3139   1
  -1 -28  -3-9.83765 42.2936   1
 -28  29   0 53.8044 44.2477   2
 -29  28   0 163.909 58.8373   2
 -28  29   3 153.096 62.8854   2
 -29  28   3 100.340 53.7178   2
 -28  29   6 16.1574 50.8178   2
 -29  28   6-20.2930 46.0660   2
   0 -29  -4 49.1815 47.8414   1
 -29  29  -1-84.6104 52.6692   2
 -29  29   2 36.9077 41.4984   2
 -29  29   5 11.3527 44.4430   2
 -15 -15   0 634.323 57.9074   1
  30 -15   0 663.969 67.0916   1
 -30  15  -3 372.648 65.8540   2
 -15 -15   3 395.397 36.7582   1
 -15 -15  -3 417.932 57.6223   1
  15 -30  -6-13.8050 49.1518   1
 -15 -15  -6-22.7829 38.4244   1
  14 -30  -7 205.920 65.6663   1
 -14 -16  -7 120.226 62.2517   1
 -30  16  -4 369.829 67.3703   2
 -14 -16  -4 415.280 60.6754   1
 -14 -16  -1 48.3830 29.2226   1
 -30  16  -1 35.0581 41.3983   2
  30 -14  -1 53.6193 30.8021   1
  30 -16   1 4.36076 32.0084   1
 -16 -14   1 38.6448 22.3172   1
 -30  14  -2 4.59549 40.4297   2
 -16 -14  -2 0.40124 28.5799   1
 -14 -16   2 32.3238 22.3996   1
 -30  14  -5 437.557 70.2952   2
 -16 -14  -5 360.233 66.7411   1
  30 -16  -5 469.412 49.8684   1
 -16  30   8 82.7950 62.9206   2
 -16 -14  -8 53.6499 52.0863   1
  16 -30  -8 168.265 66.1254   1
 -13 -17  -8-12.5638 49.6738   1
  13 -30  -8 56.7182 56.7884   1
 -30  17  -5 15.6928 37.8763   2
 -13 -17  -5 41.0096 41.1577   1
 -13 -17  -2 272.870 46.6896   1
 -30  17  -2 234.983 57.8666   2
  30 -13  -2 312.727 42.8325   1
 -17 -13   2 299.912 35.3275   1
 -30  13  -1 1484.12 109.215   2
  30 -13   1 1320.44 91.5104   1
 -13 -17   1 1463.88 83.7775   1
 -17 -13  -1 1439.61 86.4362   1
 -30  13  -4 1464.39 105.628   2
 -13 -17   4 1602.19 77.4072   1
 -17 -13  -4 1331.17 108.203   1
 -17  30   7 128.690 71.6371   2
 -17 -13  -7 131.665 69.1796   1
  12 -30  -6 142.777 58.6065   1
 -12 -18  -6 53.8707 48.2728   1
 -18 -12   3 10.8739 9.00623   1
 -12 -18  -3 38.4852 30.7660   1
 -30  18  -3 75.7754 41.5511   2
 -12 -18   0-16.8653 29.3756   1
 -18 -12   0 1.87959 22.9373   1
 -30  18   0-44.6380 42.8102   2
  30 -12   0 0.04489 22.3779   1
 -18 -12  -3 88.9805 39.0352   1
 -30  12  -3-33.3479 40.5351   2
 -12 -18   3-1.41677 24.0067   1
 -18  30   6 2.46735 40.3622   2
 -18 -12  -6 7.52172 35.6006   1
  30 -18  -6 28.1263 31.6077   1
  18 -30  -6-16.6181 45.8461   1
  11 -30  -7-25.0254 55.3683   1
 -11 -19  -7 26.2227 47.4666   1
 -30  19  -4 358.870 64.0835   2
 -11 -19  -4 407.513 64.2125   1
 -30  19  -1 1297.52 110.343   2
  30 -11  -1 1256.90 74.0712   1
 -19 -11   1 1374.01 65.2224   1
 -11 -19  -1 1408.47 94.4683   1
 -30  11  -2 1808.54 117.200   2
 -11 -19   2 2084.01 103.894   1
  30 -11   2 1679.35 105.703   1
 -19 -11  -2 1886.58 101.308   1
 -19  30   5 147.204 57.7424   2
 -19 -11  -5 129.263 52.1391   1
 -30  11  -5 249.978 50.6237   2
 -19 -11  -8 7.24280 42.7821   1
 -19  30   8 29.4294 43.4171   2
  19 -30  -8-40.6109 55.8605   1
  10 -30  -8-12.2254 44.7337   1
 -10 -20  -8 28.0218 56.0495   1
  10 -30  -5 1027.51 110.050   1
 -10 -20  -5 665.081 96.1074   1
 -30  20  -2 1404.56 116.302   2
 -20 -10   2 928.439 40.7568   1
 -10 -20  -2 1461.67 101.758   1
 -30  20   1 2513.00 153.451   2
 -10 -20   1 2757.41 128.130   1
 -20 -10  -1 2647.31 112.472   1
  30 -10   1 2269.36 112.070   1
 -20 -10  -4 444.034 71.2628   1
 -20  30   4 264.255 67.5361   2
 -30  10  -4 601.241 70.7543   2
  20 -30  -7 42.0578 53.5752   1
 -20  30   7 24.8137 45.7495   2
  30 -20  -7 105.163 40.7272   1
 -20 -10  -7 39.2306 58.3577   1
  -9 -21  -6-1.88783 41.0483   1
   9 -30  -6-18.3857 47.6066   1
 -30  21  -3-53.0492 43.2772   2
  -9 -21  -3-36.0808 39.7132   1
  -9 -21   0 111.874 38.8641   1
 -30  21   0-7.50136 38.8151   2
  30  -9   0 99.8234 29.5804   1
 -21  -9   0 31.7082 20.8690   1
 -21  30   3 14.3539 40.2817   2
 -30   9  -3 8.01161 31.0596   2
 -30  21   3-61.1194 54.5094   2
 -21  -9  -3-19.1002 31.5340   1
 -30   9  -6 36.1859 40.6531   2
 -21  30   6-11.3197 42.8677   2
  30 -21  -6 94.3733 38.5907   1
 -21  -9  -6 18.3883 38.0026   1
   8 -30  -7 282.287 71.9731   1
  -8 -22  -7 245.421 68.5660   1
 -30  22  -4 888.140 97.4727   2
   8 -30  -4 1000.92 107.678   1
  -8 -22  -4 749.598 98.8291   1
  -8 -22  -1 904.264 83.4167   1
 -30  22  -1 805.653 93.0378   2
 -22  30   2 708.476 87.7495   2
 -30  22   2 688.281 87.3192   2
 -22  -8  -2 746.210 66.7269   1
  30  -8   2 581.896 63.6807   1
 -30   8  -5 23.0711 32.2859   2
 -22  30   5 20.3548 48.2373   2
 -22  -8  -5-2.71398 31.4716   1
  22 -30  -8-98.0469 58.5233   1
 -22  30   8-1.27194 42.0750   2
 -22  -8  -8-14.6600 45.1828   1
   7 -30  -8 76.5926 65.5303   1
  -7 -23  -8 18.6132 56.2373   1
  -7 -23  -5 103.400 53.4326   1
   7 -30  -5 183.409 59.8276   1
 -30  23  -2 292.971 64.1204   2
  -7 -23  -2 350.658 62.2881   1
 -23  30   1 135.532 51.6767   2
 -30  23   1 247.903 59.6191   2
  -7 -23   1 188.288 45.1789   1
 -23  -7  -1 238.014 37.6000   1
  30  -7   1 200.595 39.6210   1
 -23  30   4 139.688 60.4683   2
 -30   7  -4 140.527 41.9700   2
 -30  23   4 107.737 48.9404   2
 -23  -7  -4 111.773 40.7905   1
  30 -23  -7-54.4596 41.6364   1
 -23  30   7 13.1791 42.9798   2
  23 -30  -7 83.7439 59.0098   1
 -23  -7  -7-6.04253 39.8006   1
  -6 -24  -6-6.19128 41.2795   1
   6 -30  -6 102.464 58.5100   1
 -30  24  -3 38.8331 49.5952   2
  -6 -24  -3-38.7378 40.1007   1
 -30  24   0 39.1078 44.8884   2
  -6 -24   0 32.8447 38.3931   1
 -24  30   3 320.067 64.9914   2
 -30  24   3 300.818 64.2976   2
 -30   6  -3 319.428 53.0096   2
 -24  -6  -3 325.461 52.0648   1
 -24  30   6 110.674 64.3072   2
 -24  -6  -6 159.083 61.4661   1
  -5 -25  -7 167.479 71.5755   1
   5 -30  -7 259.810 75.4093   1
  -5 -25  -4 507.958 85.8873   1
   5 -30  -4 751.116 94.2034   1
 -30  25  -1 158.535 53.5157   2
  -5 -25  -1 148.438 49.3232   1
 -25  30   2 29.0360 44.9268   2
 -30  25   2-42.0686 44.7679   2
 -30   5  -5 85.4187 36.7736   2
 -25  30   5-18.3627 45.7063   2
 -30  25   5 55.5704 47.8060   2
 -25  -5  -5 62.0979 42.1491   1
  -4 -26  -5 71.4583 48.0811   1
   4 -30  -5 120.314 57.7609   1
 -30  26  -2 111.315 54.2912   2
  -4 -26  -2 111.226 42.4494   1
 -26  30   1 19.2973 45.7488   2
 -30  26   1-15.2669 40.7788   2
 -26  30   4-65.6141 42.3231   2
 -30   4  -4 16.1438 28.9153   2
 -30  26   4-46.4367 44.1179   2
 -26  30   7-21.1551 49.6460   2
 -30  26   7-40.8815 50.2300   2
  26 -30  -7 13.5173 60.4082   1
  30 -26  -7 22.3500 40.1068   1
   3 -30  -6 11.1481 51.4228   1
  -3 -27  -6 59.8066 56.4900   1
  -3 -27  -3 147.754 55.8153   1
   3 -30  -3 204.779 66.3465   1
 -27  30   0 239.931 67.5765   2
 -30  27   0 142.508 53.3985   2
 -27  30   3 58.8651 45.3693   2
 -30  27   3 129.097 52.9986   2
 -27  30   6-34.9611 56.6365   2
 -30  27   6 30.2635 45.1596   2
   2 -30  -4-15.5934 45.0554   1
  -2 -28  -4-14.6634 41.0619   1
 -28  30  -1 240.117 66.6674   2
 -30  28  -1 152.920 57.4361   2
  -2 -28  -1 158.061 55.7014   1
 -28  30   2-18.9589 46.3248   2
 -30  28   2-15.7700 42.2402   2
 -28  30   5-20.5278 46.4837   2
 -30  28   5 28.4079 48.9960   2
  -1 -29  -5-28.9613 41.5785   1
   1 -30  -5-18.5366 47.9675   1
   1 -30  -2 40.7978 43.3954   1
  -1 -29  -2-61.1150 46.2914   1
 -29  30   1-33.5160 49.7624   2
 -30  29   1 32.8894 47.2881   2
 -29  30   4-3.23098 46.0418   2
 -30  29   4 42.5474 53.5359   2
   0 -30  -3-63.2890 50.5296   1
 -30  30   0 14.6983 46.7895   2
 -30  30   3 143.877 60.8931   2
 -15 -16  -8 8.59790 42.1884   1
  15 -31  -8 105.779 63.4895   1
 -31  16  -5 421.332 67.9782   2
 -15 -16  -5 391.952 72.1503   1
 -16 -15   2 280.639 36.3229   1
 -31  16  -2 314.068 59.3007   2
 -15 -16  -2 292.156 49.8110   1
 -15 -16   1 115.478 31.1987   1
 -31  15  -1 62.3982 37.7278   2
  31 -15   1 65.1915 34.8155   1
 -16 -15  -1 142.453 38.3210   1
 -31  15  -4 4.03861 42.4270   2
 -16 -15  -4 4.30694 32.0855   1
 -16 -15  -7 5.39375 39.8112   1
  16 -31  -7 22.5460 52.8065   1
 -16  31   7 136.055 190.986   2
 -14 -17  -6 104.197 51.2971   1
  14 -31  -6 215.627 66.6499   1
 -31  17  -3 31.2183 41.2971   2
 -17 -14   3 51.6494 18.7539   1
 -14 -17  -3 77.5421 41.6574   1
 -17 -14   0 610.065 56.3823   1
 -31  17   0 596.244 76.0635   2
 -14 -17   0 630.349 61.1642   1
  31 -14   0 850.974 105.013   1
 -31  14  -3 1169.54 100.207   2
 -17 -14  -3 1281.64 95.2007   1
 -14 -17   3 1298.94 71.9895   1
 -17  31   6 84.2066 64.2486   2
 -17 -14  -6 139.781 64.4051   1
  13 -31  -7 23.5359 53.3035   1
 -13 -18  -7 3033.81 221.018   1
 -31  18  -4 147.370 58.1063   2
 -13 -18  -4 81.9847 45.0972   1
 -31  18  -1 310.007 61.0841   2
 -18 -13   1 305.382 38.0310   1
 -13 -18  -1 295.532 49.7828   1
  31 -13  -1 326.427 46.1611   1
 -31  13  -2 1416.90 109.155   2
 -18 -13  -2 1423.11 93.7624   1
 -13 -18   2 1434.02 82.9672   1
 -18  31   5 2.59915 43.3239   2
 -31  13  -5 37.5008 38.2794   2
 -18 -13  -5 58.0538 42.9211   1
 -18 -13  -8 18.5782 46.5197   1
 -18  31   8-15.7041 45.7782   2
  18 -31  -8 32.0291 51.4127   1
 -12 -19  -8-10.2421 46.1738   1
  12 -31  -8 228.475 75.4093   1
 -12 -19  -5-50.0873 41.5208   1
  12 -31  -5 18.0153 46.7520   1
 -19 -12   2 54.9758 17.6084   1
 -31  19  -2 27.3871 37.7708   2
 -12 -19  -2 22.8439 33.1746   1
  31 -12   1-9.32655 26.3422   1
 -19 -12  -1 0.65168 25.8547   1
 -12 -19   1-36.1765 29.4282   1
 -31  19   1-21.1293 39.1052   2
 -19  31   4 76.1161 47.8149   2
 -19 -12  -4 164.178 50.1628   1
 -31  12  -4 198.849 50.1965   2
 -12 -19   4 180.284 36.2905   1
 -19 -12  -7 9.76710 39.3538   1
 -19  31   7 4.38938 44.0303   2
  19 -31  -7 14.6861 52.5348   1
  11 -31  -6 583.965 96.5486   1
 -11 -20  -6 392.438 81.9714   1
 -31  20  -3 494.226 74.6694   2
 -11 -20  -3 544.503 74.5644   1
 -31  20   0 1270.59 113.272   2
 -20 -11   0 1397.21 78.2629   1
  31 -11   0 1390.48 84.0256   1
 -11 -20   0 1295.86 90.4355   1
 -31  11  -3 2227.93 133.176   2
 -20 -11  -3 2461.96 127.640   1
 -11 -20   3 2432.78 115.251   1
 -20  31   3 1772.58 152.947   2
 -20 -11  -6 157.579 65.6120   1
 -20  31   6 71.5665 61.9193   2
  31 -20  -6 271.122 48.9403   1
  20 -31  -6 446.129 92.2584   1
 -10 -21  -7-20.3390 49.9714   1
  10 -31  -7 53.7665 46.4535   1
 -31  21  -4 36.0358 38.6597   2
 -10 -21  -4 54.7642 41.9664   1
 -10 -21  -1 195.569 47.5414   1
 -31  21  -1 179.438 59.0865   2
 -21 -10   1 180.814 27.4287   1
 -21 -10  -2 498.371 57.3875   1
 -10 -21   2 584.021 64.3140   1
  31 -10   2 435.696 56.1068   1
 -31  21   2 433.888 70.3704   2
 -31  10  -2 497.059 69.2042   2
 -21 -10  -5 54.2662 40.0214   1
 -21  31   5 66.5270 50.7898   2
 -31  10  -5 28.9920 36.7811   2
  -9 -22  -5 303.285 73.3009   1
   9 -31  -5 520.245 87.5458   1
  -9 -22  -2 126.967 44.3237   1
 -31  22  -2 131.593 53.8075   2
 -31  22   1 139.460 53.4305   2
 -22  -9  -1 190.456 35.2682   1
  -9 -22   1 132.389 38.8556   1
 -22  31   4 53.2442 49.6550   2
 -31   9  -4 73.2652 40.1036   2
 -22  -9  -4 56.3499 38.1311   1
 -22  31   7 9.85825 45.2346   2
  22 -31  -7 89.2308 62.4544   1
 -22  -9  -7 32.0913 45.7758   1
  -8 -23  -6 339.235 100.163   1
   8 -31  -6 858.912 108.059   1
  -8 -23  -3 533.632 75.8026   1
 -31  23  -3 677.756 90.5147   2
 -31  23   0 760.501 92.4288   2
  -8 -23   0 583.663 80.2627   1
 -23  31   3 51.8064 47.8947   2
 -31   8  -3 145.635 42.9637   2
 -31  23   3 66.1439 44.5625   2
 -23  -8  -3 75.2141 33.7880   1
 -23  31   6 18.7574 46.1883   2
  31 -23  -6 112.824 43.7711   1
 -23  -8  -6-9.21159 37.2238   1
  -7 -24  -7 5.02817 49.6618   1
   7 -31  -7 90.7376 50.4361   1
   7 -31  -4 132.671 61.2653   1
  -7 -24  -4 99.0845 46.5592   1
  -7 -24  -1 99.1395 43.3944   1
 -31  24  -1 156.390 53.2078   2
 -24  31   2 190.118 57.9767   2
 -31  24   2 235.030 63.4546   2
 -24  -7  -2 295.814 48.5775   1
 -24  31   5 58.0747 49.7578   2
 -31   7  -5 96.8142 34.5922   2
 -31  24   5 43.6791 51.3298   2
 -24  -7  -5 77.0360 44.3437   1
   6 -31  -5 203.547 65.4543   1
  -6 -25  -5 228.068 68.4586   1
 -31  25  -2-27.1671 47.0297   2
  -6 -25  -2-11.4583 37.3848   1
 -25  31   1-29.6943 47.1493   2
 -31  25   1-13.0567 39.7932   2
 -25  31   4 167.960 64.3882   2
 -31   6  -4 195.929 49.5661   2
 -31  25   4 170.170 56.2150   2
 -25  -6  -4 158.248 45.4815   1
 -25  31   7 36.6323 55.9634   2
 -31  25   7 14.0249 43.5481   2
  31 -25  -7-10.7964 38.6507   1
 -25  -6  -7 9.19114 41.7115   1
  25 -31  -7 117.612 63.1718   1
  -5 -26  -6 5.65324 43.0201   1
   5 -31  -6 25.4509 49.6019   1
 -31  26  -3 47.6012 49.0097   2
   5 -31  -3 79.2595 50.2642   1
  -5 -26  -3 22.7127 40.4622   1
 -31  26   0 80.6069 43.1217   2
  -5 -26   0 23.6095 42.4366   1
 -26  31   3-76.2835 56.7547   2
 -31  26   3-25.1939 44.6351   2
 -31   5  -3-38.1054 31.9768   2
 -26  31   6-9.47775 45.1902   2
 -31  26   6-14.8850 47.8971   2
 -26  -5  -6 19.3091 38.3945   1
   4 -31  -4 116.486 60.6985   1
  -4 -27  -4 126.728 54.7623   1
 -31  27  -1 42.2634 49.0495   2
  -4 -27  -1 49.6751 42.5776   1
 -27  31   2 443.795 80.1140   2
 -31  27   2 363.525 73.8575   2
 -27  31   5 43.4626 59.1099   2
 -31  27   5 138.345 59.5935   2
  -3 -28  -5 28.4118 46.2770   1
   3 -31  -5 21.6586 53.0978   1
 -31  28  -2 34.4239 47.4455   2
  -3 -28  -2 23.8350 42.1765   1
 -28  31   1 72.6336 54.4971   2
 -31  28   1 72.2868 51.3902   2
 -28  31   4-7.63357 42.9240   2
 -31  28   4-10.5926 46.5495   2
 -31   3  -4 4.95380 29.0268   2
  -2 -29  -3 15.5977 45.8854   1
   2 -31  -3 10.7344 42.3297   1
 -29  31   0 235.395 69.4605   2
 -31  29   0 163.180 59.0176   2
 -29  31   3 97.2116 56.1330   2
 -31  29   3-65.4782 52.9378   2
   1 -31  -4 77.8005 58.1726   1
  -1 -30  -4-4.14406 50.0832   1
 -30  31  -1-36.6545 51.2792   2
 -31  30  -1-15.7599 45.0065   2
  -1 -30  -1 33.6520 49.0402   1
 -30  31   2 2.01292 43.9575   2
 -31  30   2-37.4308 44.3042   2
 -30  31   5 49.2039 58.0184   2
 -31  30   5-47.4172 53.3749   2
   0 -31  -2 2844.89 239.181   1
 -31  31   1 106.524 54.8385   2
 -31  31   4 98.7284 61.5846   2
 -16 -16   0 1112.61 75.3782   1
 -32  16   0 1078.91 101.089   2
  32 -16   0 820.596 84.1366   1
 -16 -16  -3 1292.44 99.4507   1
 -32  16  -3 1048.30 103.756   2
  16 -32  -6 83.3863 56.6948   1
 -16 -16  -6 80.8288 69.8596   1
 -15 -17  -7 16.0852 52.1454   1
  15 -32  -7 85.2185 65.2637   1
 -32  17  -4 215.063 57.3730   2
 -15 -17  -4 198.970 57.0031   1
 -15 -17  -1 40.3064 32.0586   1
 -32  17  -1 22.7791 41.7313   2
 -17 -15   1 7.02066 23.5696   1
 -32  15  -2 119.154 49.2537   2
 -15 -17   2 74.1156 26.1960   1
 -17 -15  -2 119.439 38.0071   1
 -32  15  -5 102.467 48.5216   2
 -17 -15  -5 36.4495 43.2371   1
 -32  18  -5 22.9827 39.7890   2
 -14 -18  -5-39.7387 45.8462   1
 -14 -18  -2 147.120 42.6303   1
 -32  18  -2 168.258 52.7640   2
 -18 -14   2 116.080 26.1413   1
 -32  14  -1 202.924 56.0710   2
 -32  18   1 133.577 49.2052   2
 -18 -14  -1 156.102 38.2850   1
 -14 -18   1 208.398 39.9781   1
  32 -14   1 108.072 35.5309   1
 -32  14  -4 266.391 59.1147   2
 -18 -14  -4 153.475 53.2810   1
 -18  32   7 4.79429 45.0347   2
 -18 -14  -7 18.3414 45.2746   1
  18 -32  -7 77.6896 65.8041   1
  13 -32  -6 289.125 73.5718   1
 -13 -19  -6 65.3531 53.2194   1
 -13 -19  -3 144.306 49.4673   1
 -32  19  -3 206.247 58.3906   2
 -19 -13   0 245.138 40.2727   1
 -32  19   0 208.050 61.2627   2
 -13 -19   0 191.262 43.0402   1
 -19 -13  -3 70.9578 35.7219   1
 -32  13  -3 108.642 41.0009   2
 -13 -19   3 135.370 33.8769   1
  19 -32  -6-74.8849 59.6849   1
 -19  32   6-19.7471 45.7782   2
 -19 -13  -6 7.75771 42.7283   1
  12 -32  -7 4.41817 47.9247   1
 -12 -20  -7-0.95699 42.4275   1
 -12 -20  -4 17.7658 38.0339   1
 -32  20  -4 124.995 53.6944   2
 -20 -12   1 51.7267 23.7495   1
 -32  20  -1 88.9538 47.2730   2
 -12 -20  -1 59.7447 38.0954   1
 -20 -12  -2 283.232 46.5700   1
 -32  12  -2 193.965 52.9939   2
 -32  20   2 185.747 54.2447   2
 -12 -20   2 299.049 49.9449   1
 -20  32   5 25.0976 47.6132   2
 -20 -12  -5 68.1458 46.3971   1
 -32  12  -5 47.7724 39.6289   2
 -11 -21  -5 215.710 68.7588   1
  11 -32  -5 499.410 90.9150   1
 -32  21  -2 140.995 52.0552   2
 -11 -21  -2 110.470 47.4286   1
 -21 -11  -1 334.470 46.2291   1
 -32  21   1 351.213 69.9067   2
 -11 -21   1 276.644 50.9303   1
 -21 -11  -4 2.05265 31.7571   1
 -21  32   4 25.4191 42.6375   2
 -32  11  -4-0.40982 36.0069   2
 -21  32   7 12.5949 42.7007   2
  21 -32  -7 80.1794 59.8252   1
 -21 -11  -7 0.25626 38.0479   1
  10 -32  -6-57.8859 52.9150   1
 -10 -22  -6 1.69147 39.9330   1
 -32  22  -3-10.1604 40.6060   2
 -10 -22  -3 42.4395 39.7425   1
 -32  22   0 55.0768 51.8346   2
 -10 -22   0-33.2019 31.8349   1
 -22 -10   0 25.2735 26.4585   1
 -22  32   3 40.1892 47.1624   2
 -32  10  -3 109.944 45.3429   2
 -32  22   3 34.9473 47.2117   2
 -22 -10  -3 33.3736 36.1821   1
 -22  32   6 32.2690 48.2716   2
  32 -22  -6-10.6303 34.7040   1
 -22 -10  -6-7.64329 35.3100   1
   9 -32  -7 182.190 68.9548   1
  -9 -23  -7-2.72654 45.6553   1
 -32  23  -4 23.1972 40.8168   2
  -9 -23  -4 22.1983 40.2303   1
 -32  23  -1-47.6969 43.5806   2
  -9 -23  -1-2.21777 33.2669   1
 -23  32   2-53.7391 40.6202   2
  -9 -23   2 31.1824 40.9092   1
 -32  23   2-8.84602 41.2434   2
 -32   9  -2 34.0803 37.6967   2
 -23  -9  -2 32.4574 31.9138   1
 -23  32   5 82.0830 55.5242   2
 -32   9  -5 22.2880 33.6227   2
 -23  -9  -5 16.0361 34.6062   1
   8 -32  -5-54.6186 53.7892   1
  -8 -24  -5 41.6354 47.0505   1
 -32  24  -2 12.6759 43.4761   2
  -8 -24  -2 31.3568 36.3045   1
 -32  24   1-42.6075 43.6300   2
  -8 -24   1-44.5403 40.9040   1
 -24  -8  -1 49.6256 27.4592   1
 -24  32   4 33.9086 45.8337   2
 -32   8  -4-53.8727 40.5230   2
 -32  24   4 126.943 56.9088   2
 -24  -8  -4 72.0585 37.5217   1
   7 -32  -6 244.139 77.1052   1
  -7 -25  -6 45.6073 58.4015   1
 -32  25  -3 98.1523 48.4029   2
  -7 -25  -3 84.1687 47.5487   1
 -32  25   0 103.531 53.1408   2
  -7 -25   0 77.8754 47.0834   1
 -25  32   3 36.2584 49.7703   2
 -32  25   3 86.6517 51.2657   2
 -32   7  -3 36.3289 37.7156   2
 -25  -7  -3 25.1899 33.3076   1
 -25  32   6 42.0193 52.0282   2
 -32  25   6 15.1609 48.6550   2
 -25  -7  -6-49.5564 45.6749   1
  -6 -26  -4 43.4985 47.3016   1
   6 -32  -4 48.3899 54.1980   1
 -32  26  -1 55.7444 49.4262   2
  -6 -26  -1-12.6431 42.3529   1
 -26  32   2 107.676 54.4974   2
 -32  26   2 73.7707 52.3469   2
 -26  32   5-5.97114 46.9570   2
 -32  26   5-60.3928 46.2667   2
 -26  -6  -5-52.5444 40.8683   1
   5 -32  -5 0.96920 51.2452   1
  -5 -27  -5 66.0495 60.8938   1
  -5 -27  -2 32.0126 47.4595   1
 -32  27  -2 100.878 56.1692   2
 -27  32   1 16.3204 48.1301   2
 -32  27   1-29.9964 47.8082   2
 -27  32   4 231.074 71.1478   2
 -32   5  -4 122.226 40.5380   2
 -32  27   4 229.620 70.9664   2
   4 -32  -3 73.7691 58.0590   1
  -4 -28  -3 35.9451 40.2374   1
 -28  32   0 69.8315 52.9366   2
 -32  28   0-69.0143 50.3620   2
  -4 -28   0 46.3339 47.1135   1
 -28  32   3 11.9653 43.3913   2
 -32  28   3 22.9406 46.7518   2
  -3 -29  -4 42.7538 43.9829   1
   3 -32  -4-24.4454 46.1829   1
 -32  29  -1-86.1576 54.9322   2
  -3 -29  -1 15.8623 45.0391   1
 -29  32   2 19.1796 49.5255   2
 -32  29   2 8.75252 44.4282   2
 -29  32   5 36.2305 52.7876   2
 -32  29   5 71.9808 60.0836   2
 -32  30  -2 66.7424 54.9426   2
   2 -32  -2-0.70845 48.7110   1
  -2 -30  -2 63.6083 54.4588   1
 -30  32   1 159.814 62.9111   2
 -32  30   1-6.86218 49.4759   2
 -30  32   4 311.179 78.0413   2
 -32  30   4 82.5312 63.8670   2
  -1 -31  -3 69.4099 54.6548   1
   1 -32  -3-20.8475 50.5461   1
 -31  32   0-13.8094 45.6169   2
 -32  31   0-144.965 68.4909   2
 -31  32   3 29.6770 54.6111   2
 -32  31   3 64.7853 48.8822   2
 -32  32  -1 134.288 59.4657   2
   0 -32  -1 95.1092 69.5281   1
 -32  32   2 227.843 65.4853   2
 -33  17  -5 135.860 55.8343   2
 -16 -17  -5 164.202 58.5252   1
 -33  17  -2 139.404 51.9602   2
 -16 -17  -2 113.732 40.2697   1
 -16 -17   1 264.047 42.0538   1
 -33  16  -1 259.231 62.1001   2
 -17 -16  -1 286.321 46.9929   1
 -33  16  -4 215.637 58.5581   2
 -17 -16  -4 153.239 55.6018   1
 -17 -16  -7-25.1263 39.6510   1
  17 -33  -7 31.7941 58.9833   1
 -15 -18  -6-13.2023 43.1493   1
  15 -33  -6 13.6377 52.6365   1
 -33  18  -3 135.057 45.9508   2
 -15 -18  -3 114.724 40.2798   1
 -15 -18   0 17.6203 29.3263   1
 -33  18   0 20.8395 38.6057   2
 -18 -15   0 5.57437 25.1180   1
 -33  15  -3 17.7647 37.0671   2
 -18 -15  -3 3.48773 33.1400   1
 -18 -15  -6-16.8050 40.6609   1
  18 -33  -6-22.0635 51.6558   1
  14 -33  -7 384.297 99.7992   1
 -14 -19  -7 138.893 66.9310   1
 -14 -19  -4 643.164 87.9035   1
 -33  19  -4 746.369 94.6044   2
 -14 -19  -1 403.800 61.9599   1
 -33  19  -1 415.342 68.4418   2
 -19 -14   1 547.333 51.7062   1
 -14 -19   2 137.104 30.3522   1
 -19 -14  -2 184.536 41.8226   1
 -33  14  -2 277.029 61.8230   2
 -33  14  -5-33.3270 41.1939   2
 -19 -14  -5-13.0749 39.2416   1
  13 -33  -5 386.856 82.5452   1
 -13 -20  -5 240.725 71.7580   1
 -33  20  -2 233.415 59.3357   2
 -13 -20  -2 169.129 55.1001   1
 -13 -20   1 81.5743 33.6378   1
 -20 -13  -1 164.572 40.6220   1
 -33  20   1 115.866 49.7344   2
 -33  13  -1 139.916 50.3140   2
 -20 -13  -4 57.1390 41.7536   1
 -33  13  -4-27.4417 41.4482   2
 -12 -21  -6 14.8146 52.0433   1
  12 -33  -6 9.88683 51.1834   1
 -33  21  -3 96.0866 48.7055   2
 -12 -21  -3 74.5535 46.7562   1
 -21 -12   0 200.230 35.0757   1
 -12 -21   0 231.352 50.3997   1
 -33  21   0 250.160 65.9736   2
 -21 -12  -3 213.907 54.9306   1
 -12 -21   3 244.549 42.7346   1
 -33  12  -3 235.279 52.9555   2
 -33  21   3 292.336 71.6722   2
 -21 -12  -6 65.1430 54.8106   1
 -21  33   6 65.5285 66.8339   2
  21 -33  -6 174.712 76.4535   1
 -33  22  -4 39.8039 42.6715   2
 -11 -22  -4 7.64039 36.6728   1
 -11 -22  -1 91.5183 43.9486   1
 -33  22  -1 148.056 51.8984   2
 -11 -22   2 479.942 63.5951   1
 -33  22   2 325.686 66.0783   2
 -33  11  -2 391.703 64.5641   2
 -22 -11  -2 478.098 57.5206   1
 -22  33   5 105.401 72.7745   2
 -33  11  -5 381.695 68.3223   2
 -10 -23  -5 1.21497 46.7113   1
  10 -33  -5 11.2547 47.1771   1
 -33  23  -2-15.6912 44.6772   2
 -10 -23  -2 2.10871 36.1471   1
 -10 -23   1 3.36455 31.9043   1
 -33  23   1 83.7513 53.4326   2
 -23 -10  -1 46.8132 27.9704   1
 -23  33   4 37.8527 49.6068   2
 -33  10  -4 22.6806 35.5374   2
 -33  23   4 56.1699 50.6702   2
 -23 -10  -4 59.0170 36.3430   1
  -9 -24  -6-7.17538 45.1538   1
   9 -33  -6-94.0196 64.3109   1
 -33  24  -3 24.0461 42.6322   2
  -9 -24  -3 48.7309 43.9911   1
 -33  24   0 48.5038 44.3253   2
  -9 -24   0 80.2225 45.4523   1
 -24  33   3 175.113 69.9327   2
 -33   9  -3 287.347 56.7968   2
 -33  24   3 315.755 72.9501   2
 -24  -9  -3 177.926 42.7211   1
 -24  33   6-7.79045 46.5443   2
 -24  -9  -6 20.3342 38.4607   1
  -8 -25  -4 106.154 64.4392   1
   8 -33  -4 167.548 62.6886   1
 -33  25  -1 62.1307 42.8662   2
  -8 -25  -1 78.9814 42.4353   1
 -25  33   2 347.412 78.0272   2
 -33  25   2 291.258 66.3825   2
 -25  -8  -2 290.500 49.8377   1
  -8 -25   2 234.974 59.6034   1
 -25  33   5 16.1179 49.3086   2
 -33  25   5 8.66315 42.9420   2
 -25  -8  -5 59.6835 41.8491   1
  -7 -26  -5 9.62749 46.8639   1
   7 -33  -5 107.242 61.1950   1
 -33  26  -2-6.11686 48.7061   2
  -7 -26  -2 3.41629 45.5411   1
 -33  26   1 8.46238 42.2371   2
  -7 -26   1 109.102 51.5522   1
 -26  33   4 115.291 58.3445   2
 -33   7  -4 78.6343 40.3872   2
 -33  26   4 119.060 56.3450   2
 -26  -7  -4-10.5260 34.8871   1
 -33  27  -3 190.415 63.7070   2
  -6 -27  -3 97.3121 57.6587   1
   6 -33  -3 142.544 70.2830   1
  -6 -27   0 62.1916 47.2478   1
 -33  27   0 81.2468 52.4687   2
 -27  33   3-91.1448 62.0979   2
 -33  27   3 23.1515 46.4586   2
 -33   6  -3 50.4508 38.9817   2
   5 -33  -4 192.929 75.2036   1
  -5 -28  -4 99.4874 66.3369   1
 -33  28  -1 257.135 64.5012   2
  -5 -28  -1 88.5867 58.3422   1
 -28  33   2-51.7506 51.3049   2
 -33  28   2-24.3462 44.4449   2
 -28  33   5-3.27987 46.3605   2
 -33  28   5-27.7829 51.4629   2
 -33  29  -2 109.027 52.0947   2
  -4 -29  -2 21.6581 49.4256   1
 -29  33   1 86.6778 59.3980   2
 -33  29   1 28.2298 43.8730   2
 -29  33   4 25.4134 46.0060   2
 -33  29   4 73.2627 57.8932   2
   3 -33  -3 61.2528 56.4494   1
  -3 -30  -3 70.7222 52.7796   1
 -30  33   0 346.392 75.9731   2
 -33  30   0 291.851 75.5921   2
  -3 -30   0 156.357 76.5242   1
 -30  33   3 433.889 91.7475   2
 -33  30   3 565.648 94.2058   2
 -33  31  -1 146.211 62.6309   2
  -2 -31  -1 83.8590 60.4581   1
 -31  33   2 228.077 65.7216   2
 -33  31   2 203.088 63.3213   2
   1 -33  -2 41.7381 57.9291   1
  -1 -32  -2 9.08292 49.8933   1
 -32  33   1-49.8589 53.5377   2
 -33  32   1 23.2833 49.4770   2
 -33  33   0 393.847 85.6474   2
 -34  17   0 66.1649 47.2676   2
 -17 -17   0 87.9139 37.6918   1
 -34  17  -3 85.3933 46.8966   2
 -17 -17  -3 99.9536 44.1053   1
  17 -34  -6 120.070 72.0254   1
 -17 -17  -6 6.01364 39.0406   1
 -34  18  -4 26.8521 40.1305   2
 -16 -18  -4 7.16339 37.4226   1
 -34  18  -1 62.0489 46.2733   2
 -16 -18  -1 94.8663 37.9142   1
 -34  16  -2 200.672 54.8817   2
 -18 -16  -2 117.769 43.9527   1
 -34  16  -5 115.210 46.7689   2
 -18 -16  -5 37.3103 41.4756   1
 -34  19  -5-17.4093 42.9635   2
 -15 -19  -5-3.14233 38.4368   1
 -34  19  -2 90.2168 51.1329   2
 -15 -19  -2 11.9724 31.8002   1
 -19 -15  -1 69.9253 36.7050   1
 -15 -19   1 47.5509 32.0678   1
 -34  15  -1 51.3686 45.4014   2
 -34  19   1 47.3639 44.3066   2
 -34  15  -4-46.0475 40.9262   2
 -19 -15  -4 3.05948 37.4077   1
  14 -34  -6 102.079 73.5993   1
 -14 -20  -6 26.5926 56.4685   1
 -34  20  -3 99.8228 51.4916   2
 -14 -20  -3 1.32420 33.6507   1
 -20 -14   0 57.9832 30.3485   1
 -34  20   0 28.5618 40.4149   2
 -14 -20   0 33.1378 33.7350   1
 -20 -14  -3 133.865 43.3298   1
 -34  14  -3 234.054 57.0087   2
 -20 -14  -6 34.8426 54.5160   1
  20 -34  -6 204.487 77.5094   1
 -34  21  -4-49.3079 46.0454   2
 -13 -21  -4 17.7228 40.3233   1
 -34  21  -1 11.8547 43.4472   2
 -13 -21  -1 8.84695 35.3708   1
 -21 -13  -2-37.3853 29.1668   1
 -13 -21   2-12.9029 32.3297   1
 -34  13  -2-20.9109 44.4661   2
 -34  21   2-24.6033 45.6961   2
 -21 -13  -5 21.9128 43.2065   1
 -34  13  -5 1.50330 38.3331   2
  12 -34  -5-5.73786 49.7174   1
 -12 -22  -5-19.1988 39.0038   1
 -34  22  -2 132.542 56.1036   2
 -12 -22  -2 15.1591 36.1532   1
 -12 -22   1 166.155 46.5295   1
 -34  22   1 86.3435 49.2711   2
 -22 -12  -1 142.284 37.1902   1
 -22 -12  -4 183.593 57.3070   1
 -34  12  -4 232.232 59.1141   2
 -34  23  -3 49.4724 44.0799   2
 -11 -23  -3 15.5618 39.1875   1
 -11 -23   0-21.2272 36.2105   1
 -34  23   0 11.7577 42.1606   2
 -34  11  -3 136.461 49.5044   2
 -34  23   3 113.732 51.9369   2
 -11 -23   3 167.910 50.5463   1
 -23 -11  -3 152.133 46.1414   1
 -34  24  -4 44.3257 47.3932   2
 -10 -24  -4-4.48552 38.1218   1
  10 -34  -4 73.1592 63.1483   1
 -10 -24  -1 128.142 48.2591   1
 -34  24  -1 144.520 60.1701   2
 -34  24   2 166.893 59.2101   2
 -34  10  -2 143.687 50.5622   2
 -10 -24   2 110.371 46.3365   1
 -24 -10  -2 171.576 41.8066   1
 -24  34   5 38.3141 59.7110   2
 -34  10  -5 110.117 45.8468   2
 -34  24   5 46.7960 52.1617   2
 -24 -10  -5 55.5538 43.4074   1
   9 -34  -5 228.188 77.0961   1
  -9 -25  -5 81.5230 62.2189   1
  -9 -25  -2 225.954 67.1292   1
 -34  25  -2 305.723 71.7614   2
 -34  25   1 654.596 99.6106   2
  -9 -25   1 666.848 88.5230   1
 -25  34   4 260.536 79.7648   2
 -34   9  -4 390.838 61.7536   2
 -34  25   4 527.227 88.2176   2
 -25  -9  -4 475.692 67.6043   1
 -34  26  -3 6.63857 44.4054   2
  -8 -26  -3 93.7763 55.5858   1
  -8 -26   0 32.4205 41.6065   1
 -34  26   0 90.4296 53.4893   2
 -26  34   3 12.9018 51.9534   2
 -34  26   3-4.42711 49.2901   2
 -34   8  -3 19.2800 39.2194   2
 -26  -8  -3 0.53281 34.1903   1
  -7 -27  -4 31.5689 46.0822   1
   7 -34  -4-4.66504 49.5522   1
 -34  27  -1-38.6569 45.3031   2
  -7 -27  -1 24.6368 45.7443   1
 -27  34   2 15.6669 45.5515   2
 -34  27   2-51.9334 50.4910   2
 -34  28  -2 199.433 64.5637   2
  -6 -28  -2 3.43501 47.7007   1
  -6 -28   1 3873.66 277.394   1
 -34  28   1-24.3948 47.6905   2
 -28  34   4 56.1444 53.7187   2
 -34  28   4 67.7392 62.7603   2
  -5 -29  -3-17.1557 46.1063   1
   5 -34  -3 11.4941 53.0231   1
 -34  29   0 106.676 56.4676   2
  -5 -29   0 13.9078 52.3289   1
 -29  34   3 311.416 82.0834   2
 -34  29   3 290.476 72.5580   2
 -34   5  -3 264.094 54.5382   2
 -34  30  -1 11.8234 48.4736   2
  -4 -30  -1 55.3711 52.2173   1
 -30  34   2-33.4276 52.0751   2
 -34  30   2-98.0151 54.0708   2
 -34  31  -2 116.401 59.6711   2
  -3 -31  -2 22.8842 54.2644   1
   3 -34  -2 7.80553 49.0070   1
 -31  34   1 201.986 68.9295   2
 -34  31   1 87.3466 52.3946   2
 -32  34   0 126.917 66.8782   2
 -34  32   0 90.2793 57.6308   2
  -2 -32   0 62.1165 54.9648   1
 -35  18  -5 130.580 54.1479   2
 -17 -18  -5 46.9330 43.5833   1
 -35  18  -2 49.5533 45.8459   2
 -17 -18  -2 91.0862 38.6301   1
 -35  17  -1 296.399 66.2689   2
 -35  18   1 311.289 64.8967   2
 -18 -17  -1 267.882 48.2135   1
 -35  17  -4 211.283 62.2914   2
 -18 -17  -4 5080.06 232.083   1
 -35  19  -3 31.6958 46.0220   2
 -16 -19  -3 2.29738 33.3148   1
 -16 -19   0 53.9399 35.8975   1
 -35  19   0 149.832 57.9999   2
 -35  16   0 47.1909 42.5683   2
 -35  16  -3 218.531 61.5877   2
 -19 -16  -3 50.8573 40.4941   1
 -35  20  -4-11.5759 41.5688   2
 -15 -20  -4-8.19116 39.3132   1
 -15 -20  -1 48.8235 35.0399   1
 -35  20  -1 84.5459 45.4987   2
 -20 -15  -2 21.2664 34.6423   1
 -35  15  -2 33.6286 50.1484   2
 -35  20   2 82.5691 51.1372   2
 -35  15  -5-31.4765 43.8495   2
 -20 -15  -5 13.8052 38.9753   1
 -14 -21  -5 3.44387 44.4982   1
  14 -35  -5 24.0996 56.1755   1
 -14 -21  -2 68.4319 42.1352   1
 -35  21  -2 71.5602 49.3739   2
 -21 -14  -1 66.5052 32.6421   1
 -35  14  -1 21.7868 41.8603   2
 -14 -21   1 104.012 44.2575   1
 -21 -14  -4 57.2918 47.4885   1
 -35  14  -4 131.657 47.1461   2
 -13 -22  -3-31.3356 42.3288   1
 -35  22  -3-29.4394 44.8360   2
 -35  22   0-57.7729 51.4057   2
 -13 -22   0 10.1733 34.7564   1
 -22 -13  -3 15.3209 37.7912   1
 -35  13  -3 41.0007 42.2690   2
 -35  22   3-29.3282 41.5049   2
 -35  23  -4 49.4335 52.2595   2
 -12 -23  -4 7.63035 40.9032   1
 -35  23  -1 188.179 57.8229   2
 -12 -23  -1 119.211 46.9268   1
 -35  23   2 291.146 71.0349   2
 -35  12  -2 373.926 71.8591   2
 -12 -23   2 340.312 60.1556   1
 -23 -12  -2 346.741 58.0463   1
 -23  35   5 30.3270 54.1619   2
 -35  12  -5 136.481 52.9743   2
 -23 -12  -5 157.682 65.4727   1
 -35  24  -2 149.542 62.0816   2
 -11 -24  -2 112.866 49.9849   1
 -35  24   1 58.3230 48.6464   2
 -11 -24   1 56.5055 41.1710   1
 -24  35   4-82.4143 56.6793   2
 -35  11  -4 24.8029 39.3972   2
 -35  24   4-62.4098 53.2768   2
 -24 -11  -4 40.1142 39.6575   1
 -35  25  -3 71.0466 46.5044   2
 -10 -25  -3-16.5515 40.1480   1
 -35  25   0 45.3914 47.2948   2
 -10 -25   0 55.8958 39.1998   1
 -35  10  -3 74.4539 41.4056   2
 -35  25   3 103.159 66.5466   2
 -25 -10  -3 80.3541 39.0921   1
  -9 -26  -4 32.7518 48.0079   1
   9 -35  -4 49.6609 58.7293   1
 -35  26  -1 69.0650 48.1501   2
  -9 -26  -1 109.832 52.8263   1
 -35  26   2-14.9249 49.1958   2
 -35   9  -2-17.1407 38.6555   2
  -9 -26   2-40.0414 40.6562   1
 -35  27  -2 105.595 63.1624   2
  -8 -27  -2 59.2039 51.8881   1
 -35  27   1 306.088 74.3154   2
  -8 -27   1 165.205 70.3111   1
 -35  28  -3 114.659 57.8295   2
  -7 -28  -3 18.6752 49.3511   1
   7 -35  -3 79.5604 66.9858   1
 -35  28   0 324.966 75.3505   2
  -7 -28   0 257.145 74.6123   1
 -28  35   3 183.654 75.6086   2
 -35  28   3 410.812 86.4438   2
 -35   7  -3 319.124 60.6041   2
  -6 -29  -1-21.9724 50.2362   1
 -35  29  -1 5.51907 49.3226   2
 -29  35   2 66.0961 50.6040   2
 -35  29   2 60.2296 51.0266   2
 -35  30  -2 118.471 58.8585   2
  -5 -30  -2 117.951 64.4030   1
 -30  35   1 181.917 67.3432   2
 -35  30   1 225.319 77.4376   2
  -5 -30   1 219.782 73.2856   1
 -36  18   0 140.043 57.2343   2
 -36  18  -3 39.2191 40.6492   2
 -18 -18  -3 73.5248 43.0037   1
 -36  19  -4-11.5969 42.9565   2
 -17 -19  -4 24.7866 35.6822   1
 -36  19  -1-43.9230 48.9733   2
 -17 -19  -1 51.0679 36.2474   1
 -36  17  -2 262.102 67.5553   2
 -19 -17  -2 296.606 54.7473   1
 -36  20  -2 155.946 61.8009   2
 -16 -20  -2 190.271 50.1957   1
 -36  16  -1 35.3888 45.0907   2
 -36  20   1 17.5873 44.7798   2
 -36  16  -4 36.6685 48.0542   2
 -20 -16  -4 9.00242 35.7306   1
 -36  21  -3 345.672 78.3653   2
 -15 -21  -3 246.330 63.7680   1
 -15 -21   0 434.594 68.2723   1
 -36  21   0 584.707 89.8639   2
 -36  15   0 499.385 79.8204   2
 -21 -15  -3 312.245 63.4258   1
 -36  15  -3 300.095 63.1783   2
 -36  21   3 294.177 70.1666   2
 -36  22  -4 223.238 72.1940   2
 -14 -22  -4 34.5334 47.8311   1
 -14 -22  -1 411.069 67.5561   1
 -36  22  -1 326.256 75.7759   2
 -36  14  -2 422.761 69.5197   2
 -36  22   2 333.757 77.6642   2
 -36  23  -2-58.4341 46.0145   2
 -13 -23  -2 2.46652 35.8061   1
 -13 -23   1-74.2119 42.9450   1
 -36  23   1 31.8701 44.9273   2
 -36  13  -1 46.0077 42.9005   2
 -36  13  -4 78.7478 49.4231   2
 -36  23   4 28.6792 47.2756   2
 -23 -13  -4 30.8987 45.7105   1
 -36  24  -3-55.0933 52.5602   2
 -12 -24  -3 23.0530 47.5659   1
 -12 -24   0 0.39152 35.1877   1
 -36  24   0 160.338 63.2031   2
 -36  12  -3 2.96917 39.3695   2
 -36  24   3 77.0897 50.6223   2
 -36  25  -1 18.6149 48.3554   2
 -11 -25  -1 31.3948 46.3187   1
 -36  25   2 238.376 71.1612   2
 -36  11  -2 88.2208 46.7956   2
 -36  26  -2 73.1020 55.5194   2
 -10 -26  -2 37.9287 46.1291   1
 -36  26   1 164.195 65.0918   2
 -10 -26   1 139.970 56.3510   1
 -36  27   0-44.5270 52.7215   2
  -9 -27   0 23.0282 45.6507   1
 -36  28  -1 106.452 56.1494   2
  -8 -28  -1 94.8032 56.6099   1
 -36  28   2 299.196 75.3197   2
  -8 -28   2 296.995 77.1925   1
 -36   8  -2 306.136 63.8348   2
 -37  19  -2 86.7264 54.4665   2
 -18 -19  -2 31.7493 35.7859   1
 -37  18  -1 156.589 59.3606   2
 -37  19   1 105.255 57.2325   2
 -37  20  -3 167.024 63.9172   2
 -17 -20  -3 2.40904 40.3450   1
 -37  20   0 74.2010 50.7566   2
 -37  17   0-17.9004 44.0939   2
 -20 -17  -3 156.377 50.6986   1
 -37  17  -3 367.686 77.5413   2
 -37  21  -1-64.5380 51.0033   2
 -16 -21  -1 21.3104 32.2246   1
 -37  16  -2 57.9982 50.6678   2
 -37  21   2-1.42891 48.9670   2
 -37  22  -2-13.4248 47.6233   2
 -15 -22  -2 38.6068 40.3680   1
 -37  22   1 123.172 56.4100   2
 -37  15  -1 175.237 59.2219   2
 -37  23  -3-9.71965 42.5551   2
 -14 -23  -3 17.5527 42.4993   1
 -37  23   0-0.49421 48.0339   2
 -14 -23   0-29.7514 37.4031   1
 -37  14  -3 35.6054 45.5698   2
 -37  23   3-55.9652 48.4843   2
 -37  24  -1 209.684 68.9917   2
 -13 -24  -1 116.807 56.3396   1
 -37  13  -2 213.207 59.2444   2
 -37  24   2 175.299 58.8099   2
 -37  25  -2 128.824 58.2851   2
 -12 -25  -2 32.0695 50.9963   1
 -37  25   1 23.4176 52.7771   2
 -37  12  -1 162.203 59.8591   2
 -11 -26   0 71.4040 54.4741   1
 -37  26   0-66.0128 52.0712   2
 -38  19   0-14.7409 45.3973   2
 -38  20  -1 59.9695 48.9278   2
 -38  18   1 57.0311 49.1016   2
 -38  21   1 1628.45 167.483   2
 -38  17  -1 34.9814 48.8201   2
 -38  22   0-45.9806 53.4620   2
 -38  16   0-3.98115 42.6912   2
   0   0   0    0.00    0.00   0
 
TITL al55rrrr in R-3m
REM R-3m (#166 in standard setting)
CELL 0.71073  31.747689  31.747689  11.665316  90.0000  90.0000 120.0000
ZERR    8.00   0.001392   0.001392   0.000657   0.0000   0.0000   0.0000
LATT  3
SYMM -y, x-y, z
SYMM -x+y,-x, z
SYMM  y, x,-z
SYMM  x-y,-y,-z
SYMM -x,-x+y,-z
SFAC C H N O S Zn
UNIT 176.00 176.00 96.00 128.00 48.00 96.00
TREF
HKLF 4
END
;
_shelx_hkl_checksum              55832
_shelx_fab_file
;
    0    0    3    -57.65      0.00
    0    0    6    -25.13      0.00
    0    0    9     -1.93      0.00
    0    0   12     -8.33      0.00
    0    1   11      2.29      0.00
    0    1    8     -1.78      0.00
    0    1    5     17.79      0.00
    0    1    2     53.22      0.00
   -1    1    4     -7.16      0.00
   -1    1    7     -1.20      0.00
   -1    1   10      6.78      0.00
   -1    1   13      0.23      0.00
   -1    2    3     12.13      0.00
   -1    2    6     -2.55      0.00
   -1    2    9     -1.52      0.00
   -1    2   12     -5.29      0.00
    0    2   13     -0.92      0.00
    0    2   10      3.82      0.00
    0    2    7     -1.33      0.00
    0    2    4     25.00      0.00
   -2    2    2   -109.17      0.00
   -2    2    5      5.72      0.00
   -2    2    8      4.50      0.00
   -2    2   11      3.03      0.00
   -2    2   14      3.94      0.00
   -1    3   14      5.24      0.00
   -1    3   11      0.93      0.00
   -1    3    8      0.90      0.00
   -1    3    5    -25.74      0.00
   -1    3    2   -101.02      0.00
   -2    3    4     -8.01      0.00
   -2    3    7     -5.44      0.00
   -2    3   10     -0.15      0.00
   -2    3   13      4.32      0.00
    0    3   12      6.27      0.00
    0    3    9     -2.43      0.00
    0    3    6     14.35      0.00
    0    3    3    -46.21      0.00
   -3    3    3     34.23      0.00
   -3    3    6     -2.46      0.00
   -3    3    9      2.83      0.00
   -3    3   12     -5.13      0.00
   -2    4    3     -3.23      0.00
   -2    4    6     -1.50      0.00
   -2    4    9      1.68      0.00
   -2    4   12      0.62      0.00
   -1    4   13     -5.52      0.00
   -1    4   10     -3.30      0.00
   -1    4    7      4.52      0.00
   -1    4    4     30.47      0.00
   -3    4    2    -19.06      0.00
   -3    4    5     -2.73      0.00
   -3    4    8      2.08      0.00
   -3    4   11      0.67      0.00
    0    4   11     -0.89      0.00
    0    4    8     -0.33      0.00
    0    4    5    -25.49      0.00
    0    4    2     18.38      0.00
   -4    4    1    -75.49      0.00
   -4    4    4      9.64      0.00
   -4    4    7     -2.44      0.00
   -4    4   10     -0.91      0.00
   -4    4   13      5.69      0.00
   -2    5   11      3.14      0.00
   -2    5    8     -3.81      0.00
   -2    5    5      4.83      0.00
   -2    5    2    -33.91      0.00
   -3    5    1      8.90      0.00
   -3    5    4      3.63      0.00
   -3    5    7      5.08      0.00
   -3    5   10     -0.93      0.00
   -3    5   13     -0.09      0.00
   -1    5   12      7.97      0.00
   -1    5    9      2.86      0.00
   -1    5    6     -4.76      0.00
   -1    5    3    -28.26      0.00
   -1    5    0    169.98      0.00
   -4    5    3    -42.75      0.00
   -4    5    6     -7.16      0.00
   -4    5    9      4.20      0.00
   -4    5   12      0.32      0.00
    0    5   13     -6.37      0.00
    0    5   10     -4.90      0.00
    0    5    7     -0.51      0.00
    0    5    4     13.16      0.00
    0    5    1    -50.59      0.00
   -5    5    2     62.85      0.00
   -5    5    5     -4.08      0.00
   -5    5    8     -0.28      0.00
   -5    5   11      0.73      0.00
   -3    6    0     70.21      0.00
   -3    6    3      7.67      0.00
   -3    6    6    -14.22      0.00
   -3    6    9      1.46      0.00
   -3    6   12      0.44      0.00
   -2    6   13     -0.35      0.00
   -2    6   10     -3.72      0.00
   -2    6    7      6.43      0.00
   -2    6    4    -24.49      0.00
   -2    6    1     44.00      0.00
   -4    6    2      7.37      0.00
   -4    6    5      1.25      0.00
   -4    6    8     -3.01      0.00
   -4    6   11      1.52      0.00
   -1    6   11      0.53      0.00
   -1    6    8      2.88      0.00
   -1    6    5      2.00      0.00
   -1    6    2    -14.15      0.00
   -5    6    1    -23.13      0.00
   -5    6    4      0.88      0.00
   -5    6    7     -5.33      0.00
   -5    6   10      0.35      0.00
   -5    6   13     -3.28      0.00
    0    6   12      4.46      0.00
    0    6    9      1.06      0.00
    0    6    6      3.98      0.00
    0    6    3    -19.52      0.00
    0    6    0     68.17      0.00
   -6    6    3     30.26      0.00
   -6    6    6      9.53      0.00
   -6    6    9     -1.31      0.00
   -6    6   12      7.12      0.00
   -3    7   11      4.55      0.00
   -3    7    8     -3.87      0.00
   -3    7    5     18.60      0.00
   -3    7    2    -73.97      0.00
   -4    7    1     46.54      0.00
   -4    7    4      1.35      0.00
   -4    7    7     -0.23      0.00
   -4    7   10      2.15      0.00
   -4    7   13     -2.25      0.00
   -2    7   12     -4.00      0.00
   -2    7    9      1.07      0.00
   -2    7    6    -11.98      0.00
   -2    7    3     33.69      0.00
   -2    7    0     26.34      0.00
   -5    7    3      1.31      0.00
   -5    7    6      9.49      0.00
   -5    7    9     -2.58      0.00
   -5    7   12      5.22      0.00
   -1    7   13      6.71      0.00
   -1    7   10     -0.58      0.00
   -1    7    7     -7.10      0.00
   -1    7    4     10.70      0.00
   -1    7    1     33.96      0.00
   -6    7    2    -78.11      0.00
   -6    7    5      1.63      0.00
   -6    7    8      3.06      0.00
   -6    7   11      0.91      0.00
    0    7   11     -3.34      0.00
    0    7    8      8.20      0.00
    0    7    5    -29.68      0.00
    0    7    2      2.81      0.00
   -7    7    1    119.34      0.00
   -7    7    4    -51.86      0.00
   -7    7    7     -5.43      0.00
   -7    7   10      1.12      0.00
   -7    7   13     -5.29      0.00
   -4    8    0     36.11      0.00
   -4    8    3     -7.67      0.00
   -4    8    6     -0.21      0.00
   -4    8    9     -2.03      0.00
   -4    8   12      5.76      0.00
   -3    8   13      3.75      0.00
   -3    8   10      0.49      0.00
   -3    8    7      4.02      0.00
   -3    8    4    -11.26      0.00
   -3    8    1     46.81      0.00
   -5    8    2    -19.64      0.00
   -5    8    5    -12.35      0.00
   -5    8    8     -0.72      0.00
   -5    8   11      1.18      0.00
   -2    8   11      3.80      0.00
   -2    8    8      1.24      0.00
   -2    8    5      2.05      0.00
   -2    8    2    -32.48      0.00
   -6    8    1     63.46      0.00
   -6    8    4    -16.08      0.00
   -6    8    7     -5.01      0.00
   -6    8   10     -0.46      0.00
   -6    8   13     -0.18      0.00
   -1    8   12      1.53      0.00
   -1    8    9      1.81      0.00
   -1    8    6      4.37      0.00
   -1    8    3     -8.89      0.00
   -1    8    0    -26.99      0.00
   -7    8    3     44.79      0.00
   -7    8    6      2.50      0.00
   -7    8    9     -4.47      0.00
   -7    8   12      8.12      0.00
    0    8   13     -6.11      0.00
    0    8   10     -0.96      0.00
    0    8    7     -3.12      0.00
    0    8    4     19.96      0.00
    0    8    1     24.87      0.00
   -8    8    2    -25.92      0.00
   -8    8    5     13.34      0.00
   -8    8    8      0.43      0.00
   -8    8   11     -4.11      0.00
   -4    9   11     -3.93      0.00
   -4    9    8     -2.76      0.00
   -4    9    5     -6.00      0.00
   -4    9    2     19.84      0.00
   -5    9    1    -20.19      0.00
   -5    9    4     20.37      0.00
   -5    9    7      1.71      0.00
   -5    9   10      0.10      0.00
   -5    9   13     -2.05      0.00
   -3    9   12      2.87      0.00
   -3    9    9     -1.84      0.00
   -3    9    6     -5.75      0.00
   -3    9    3    -11.86      0.00
   -3    9    0     34.11      0.00
   -6    9    3     -5.81      0.00
   -6    9    6      5.82      0.00
   -6    9    9     -1.46      0.00
   -6    9   12      4.21      0.00
   -2    9   13      2.41      0.00
   -2    9   10     -1.91      0.00
   -2    9    7      1.82      0.00
   -2    9    4     -5.94      0.00
   -2    9    1     16.43      0.00
   -7    9    2     -5.32      0.00
   -7    9    5      0.86      0.00
   -7    9    8      3.09      0.00
   -7    9   11      0.95      0.00
   -1    9   11     -3.19      0.00
   -1    9    8     -3.79      0.00
   -1    9    5     -5.17      0.00
   -1    9    2     -6.84      0.00
   -8    9    1     -3.18      0.00
   -8    9    4    -10.70      0.00
   -8    9    7      4.26      0.00
   -8    9   10      0.11      0.00
   -8    9   13      4.23      0.00
    0    9   12     14.35      0.00
    0    9    9      5.08      0.00
    0    9    6     -1.96      0.00
    0    9    3      3.70      0.00
    0    9    0     18.67      0.00
   -9    9    3    -37.48      0.00
   -9    9    6     -8.97      0.00
   -9    9    9      3.00      0.00
   -9    9   12      3.19      0.00
   -5   10    0     71.01      0.00
   -5   10    3    -32.91      0.00
   -5   10    6      0.54      0.00
   -5   10    9      0.24      0.00
   -5   10   12     12.49      0.00
   -4   10   13     -3.79      0.00
   -4   10   10      1.86      0.00
   -4   10    7      1.36      0.00
   -4   10    4      8.46      0.00
   -4   10    1    -32.45      0.00
   -6   10    2     18.98      0.00
   -6   10    5    -12.58      0.00
   -6   10    8     -1.28      0.00
   -6   10   11     -1.58      0.00
   -3   10   11      0.03      0.00
   -3   10    8      3.53      0.00
   -3   10    5      6.75      0.00
   -3   10    2     21.09      0.00
   -7   10    1    -17.79      0.00
   -7   10    4     -0.92      0.00
   -7   10    7     -1.21      0.00
   -7   10   10     -1.20      0.00
   -7   10   13      8.36      0.00
   -2   10   12      3.34      0.00
   -2   10    9      0.28      0.00
   -2   10    6     -6.12      0.00
   -2   10    3      3.35      0.00
   -2   10    0     19.99      0.00
   -8   10    3    -14.23      0.00
   -8   10    6     -4.06      0.00
   -8   10    9     -1.02      0.00
   -8   10   12     -3.43      0.00
   -1   10   13     -9.61      0.00
   -1   10   10      3.47      0.00
   -1   10    7      6.05      0.00
   -1   10    4    -10.48      0.00
   -1   10    1     18.29      0.00
   -9   10    2     53.33      0.00
   -9   10    5     -4.01      0.00
   -9   10    8     -2.72      0.00
   -9   10   11      3.02      0.00
    0   10   11     -5.27      0.00
    0   10    8     -6.24      0.00
    0   10    5      3.17      0.00
    0   10    2     -4.96      0.00
  -10   10    1    -38.02      0.00
  -10   10    4     20.08      0.00
  -10   10    7      0.32      0.00
  -10   10   10     -4.51      0.00
  -10   10   13     -4.89      0.00
   -5   11   11     -2.73      0.00
   -5   11    8      2.33      0.00
   -5   11    5     -6.79      0.00
   -5   11    2     26.32      0.00
   -6   11    1    -19.77      0.00
   -6   11    4      4.01      0.00
   -6   11    7      3.22      0.00
   -6   11   10      0.11      0.00
   -6   11   13     -0.52      0.00
   -4   11   12      2.08      0.00
   -4   11    9     -6.58      0.00
   -4   11    6      0.91      0.00
   -4   11    3    -15.19      0.00
   -4   11    0     18.04      0.00
   -7   11    3     11.74      0.00
   -7   11    6     -3.40      0.00
   -7   11    9      0.22      0.00
   -7   11   12     -1.88      0.00
   -3   11   13      1.67      0.00
   -3   11   10      2.96      0.00
   -3   11    7     -2.17      0.00
   -3   11    4    -17.22      0.00
   -3   11    1     17.48      0.00
   -8   11    2      3.80      0.00
   -8   11    5     -4.48      0.00
   -8   11    8      4.28      0.00
   -8   11   11      5.52      0.00
   -2   11   11     -1.56      0.00
   -2   11    8     -1.60      0.00
   -2   11    5     12.10      0.00
   -2   11    2     -6.68      0.00
   -9   11    1    -23.15      0.00
   -9   11    4     10.64      0.00
   -9   11    7     -5.12      0.00
   -9   11   10     -2.75      0.00
   -9   11   13      3.87      0.00
   -1   11   12     -2.62      0.00
   -1   11    9     -2.48      0.00
   -1   11    6     -0.87      0.00
   -1   11    3    -10.69      0.00
   -1   11    0     16.69      0.00
  -10   11    3    -11.81      0.00
  -10   11    6      1.48      0.00
  -10   11    9      2.59      0.00
  -10   11   12      2.70      0.00
    0   11   13      5.89      0.00
    0   11   10      6.69      0.00
    0   11    7     -3.16      0.00
    0   11    4      8.48      0.00
    0   11    1      0.07      0.00
  -11   11    2    -17.73      0.00
  -11   11    5      3.73      0.00
  -11   11    8     -2.82      0.00
  -11   11   11      2.27      0.00
   -6   12    0     17.03      0.00
   -6   12    3      2.50      0.00
   -6   12    6     -1.80      0.00
   -6   12    9      0.31      0.00
   -6   12   12     -1.62      0.00
   -5   12   13      3.56      0.00
   -5   12   10      1.59      0.00
   -5   12    7     -5.12      0.00
   -5   12    4     -3.65      0.00
   -5   12    1      8.83      0.00
   -7   12    2    -12.75      0.00
   -7   12    5      0.84      0.00
   -7   12    8     -2.98      0.00
   -7   12   11      3.36      0.00
   -4   12   11     -0.06      0.00
   -4   12    8      9.57      0.00
   -4   12    5      4.18      0.00
   -4   12    2    -10.12      0.00
   -8   12    1      9.05      0.00
   -8   12    4     -5.46      0.00
   -8   12    7     -3.77      0.00
   -8   12   10      0.75      0.00
   -8   12   13      0.66      0.00
   -3   12   12     -4.29      0.00
   -3   12    9     -4.74      0.00
   -3   12    6     -1.68      0.00
   -3   12    3      4.53      0.00
   -3   12    0     -7.30      0.00
   -9   12    3      7.30      0.00
   -9   12    6      3.01      0.00
   -9   12    9     -0.92      0.00
   -9   12   12     -5.35      0.00
   -2   12   13      5.76      0.00
   -2   12   10      5.52      0.00
   -2   12    7     -0.35      0.00
   -2   12    4     -5.20      0.00
   -2   12    1     10.60      0.00
  -10   12    2    -10.68      0.00
  -10   12    5     -1.75      0.00
  -10   12    8     -1.76      0.00
  -10   12   11      6.45      0.00
   -1   12   11      4.17      0.00
   -1   12    8      0.77      0.00
   -1   12    5      1.18      0.00
   -1   12    2     13.92      0.00
  -11   12    1     19.58      0.00
  -11   12    4    -13.93      0.00
  -11   12    7     -2.65      0.00
  -11   12   10     -1.44      0.00
  -11   12   13    -15.12      0.00
    0   12   12    -10.40      0.00
    0   12    9     -2.74      0.00
    0   12    6      2.92      0.00
    0   12    3    -13.75      0.00
    0   12    0     -2.52      0.00
  -12   12    3     27.87      0.00
  -12   12    6      4.04      0.00
  -12   12    9     -7.65      0.00
  -12   12   12     18.12      0.00
   -6   13   11      4.72      0.00
   -6   13    8     -0.93      0.00
   -6   13    5      0.20      0.00
   -6   13    2     -6.35      0.00
   -7   13    1     -3.28      0.00
   -7   13    4     -1.04      0.00
   -7   13    7     -0.70      0.00
   -7   13   10      0.51      0.00
   -7   13   13     -5.42      0.00
   -5   13   12     -3.86      0.00
   -5   13    9     -1.16      0.00
   -5   13    6     -0.57      0.00
   -5   13    3      6.59      0.00
   -5   13    0     -6.64      0.00
   -8   13    3      2.17      0.00
   -8   13    6      0.27      0.00
   -8   13    9     -0.38      0.00
   -8   13   12      1.47      0.00
   -4   13   13      1.54      0.00
   -4   13   10      4.17      0.00
   -4   13    7     -4.36      0.00
   -4   13    4     -5.76      0.00
   -4   13    1     29.48      0.00
   -9   13    2     -6.49      0.00
   -9   13    5     -0.71      0.00
   -9   13    8     -2.27      0.00
   -9   13   11      4.88      0.00
   -3   13   11     -0.66      0.00
   -3   13    8      1.20      0.00
   -3   13    5      2.22      0.00
   -3   13    2     -3.04      0.00
  -10   13    1      5.06      0.00
  -10   13    4     -5.92      0.00
  -10   13    7      0.15      0.00
  -10   13   10     -3.42      0.00
  -10   13   13      0.56      0.00
   -2   13   12     -8.09      0.00
   -2   13    9      2.35      0.00
   -2   13    6     -0.59      0.00
   -2   13    3     -6.39      0.00
   -2   13    0      4.31      0.00
  -11   13    3     14.88      0.00
  -11   13    6     -0.21      0.00
  -11   13    9     -2.32      0.00
  -11   13   12      6.27      0.00
   -1   13   13      5.00      0.00
   -1   13   10     -0.19      0.00
   -1   13    7      0.76      0.00
   -1   13    4     -1.74      0.00
   -1   13    1     -0.45      0.00
  -12   13    2    -16.33      0.00
  -12   13    5     -0.27      0.00
  -12   13    8      0.29      0.00
  -12   13   11     -7.12      0.00
    0   13   11      3.26      0.00
    0   13    8      2.18      0.00
    0   13    5      1.46      0.00
    0   13    2     -3.02      0.00
  -13   13    1      5.84      0.00
  -13   13    4      2.12      0.00
  -13   13    7     -1.62      0.00
  -13   13   10      7.37      0.00
   -7   14    0     20.38      0.00
   -7   14    3    -11.52      0.00
   -7   14    6      2.26      0.00
   -7   14    9      3.35      0.00
   -7   14   12     -3.37      0.00
   -6   14   13      0.98      0.00
   -6   14   10     -1.69      0.00
   -6   14    7      0.09      0.00
   -6   14    4      0.36      0.00
   -6   14    1      7.82      0.00
   -8   14    2     10.45      0.00
   -8   14    5     -3.32      0.00
   -8   14    8     -5.64      0.00
   -8   14   11      5.95      0.00
   -5   14   11     -2.62      0.00
   -5   14    8     -0.74      0.00
   -5   14    5      1.56      0.00
   -5   14    2    -15.24      0.00
   -9   14    1      3.22      0.00
   -9   14    4      1.97      0.00
   -9   14    7     -0.26      0.00
   -9   14   10      0.08      0.00
   -9   14   13    -11.20      0.00
   -4   14   12      0.84      0.00
   -4   14    9      1.62      0.00
   -4   14    6     -1.00      0.00
   -4   14    3     -2.73      0.00
   -4   14    0     -4.61      0.00
  -10   14    3     -2.36      0.00
  -10   14    6     -0.73      0.00
  -10   14    9     -2.55      0.00
  -10   14   12      3.17      0.00
   -3   14   10     -0.39      0.00
   -3   14    7      1.25      0.00
   -3   14    4      4.24      0.00
   -3   14    1     -5.11      0.00
  -11   14    2      4.54      0.00
  -11   14    5      1.93      0.00
  -11   14    8     -2.04      0.00
  -11   14   11     -1.66      0.00
   -2   14   11      4.76      0.00
   -2   14    8     -4.95      0.00
   -2   14    5      0.12      0.00
   -2   14    2      9.21      0.00
  -12   14    1     -5.43      0.00
  -12   14    4     -2.49      0.00
  -12   14    7      6.34      0.00
  -12   14   10      0.74      0.00
   -1   14   12     -3.53      0.00
   -1   14    9     -0.63      0.00
   -1   14    6     -3.63      0.00
   -1   14    3     12.59      0.00
   -1   14    0      2.95      0.00
  -13   14    3    -10.80      0.00
  -13   14    6      1.54      0.00
  -13   14    9     -6.60      0.00
  -13   14   12      1.61      0.00
    0   14   10      8.27      0.00
    0   14    7      4.98      0.00
    0   14    4     -8.36      0.00
    0   14    1     12.50      0.00
  -14   14    2     23.41      0.00
  -14   14    5    -10.76      0.00
  -14   14    8      1.85      0.00
  -14   14   11     -5.05      0.00
   -7   15   11      4.48      0.00
   -7   15    8     -5.58      0.00
   -7   15    5      1.71      0.00
   -7   15    2     -4.29      0.00
   -8   15    1     -2.47      0.00
   -8   15    4      8.51      0.00
   -8   15    7     -1.60      0.00
   -8   15   10     -3.18      0.00
   -6   15   12      4.09      0.00
   -6   15    9      5.57      0.00
   -6   15    6     -6.41      0.00
   -6   15    3     -0.79      0.00
   -6   15    0     -1.02      0.00
   -9   15    3    -18.73      0.00
   -9   15    6      4.88      0.00
   -9   15    9     -0.47      0.00
   -9   15   12      1.08      0.00
   -5   15   10      0.23      0.00
   -5   15    7      1.43      0.00
   -5   15    4      8.88      0.00
   -5   15    1      7.20      0.00
  -10   15    2      7.15      0.00
  -10   15    5     -0.30      0.00
  -10   15    8     -1.18      0.00
  -10   15   11     -0.79      0.00
   -4   15   11      3.29      0.00
   -4   15    8      0.56      0.00
   -4   15    5     -7.64      0.00
   -4   15    2     14.81      0.00
  -11   15    1      0.81      0.00
  -11   15    4     -7.86      0.00
  -11   15    7      3.68      0.00
  -11   15   10      1.33      0.00
   -3   15   12     -6.17      0.00
   -3   15    9      4.23      0.00
   -3   15    6     -0.52      0.00
   -3   15    3     -8.59      0.00
   -3   15    0      6.08      0.00
  -12   15    3     -0.20      0.00
  -12   15    6     -6.84      0.00
  -12   15    9     -3.02      0.00
  -12   15   12     -1.24      0.00
   -2   15   10      2.31      0.00
   -2   15    7      6.78      0.00
   -2   15    4     -1.20      0.00
   -2   15    1      0.14      0.00
  -13   15    2     17.30      0.00
  -13   15    5     -2.97      0.00
  -13   15    8     -1.68      0.00
  -13   15   11     -4.27      0.00
   -1   15   11     -0.22      0.00
   -1   15    8      3.42      0.00
   -1   15    5     -3.06      0.00
   -1   15    2     -5.11      0.00
  -14   15    1    -14.45      0.00
  -14   15    4      8.45      0.00
  -14   15    7      0.87      0.00
  -14   15   10      3.21      0.00
    0   15   12     -8.42      0.00
    0   15    9     -9.29      0.00
    0   15    6      0.23      0.00
    0   15    3      9.97      0.00
    0   15    0      2.67      0.00
  -15   15    3     -2.67      0.00
  -15   15    6     -2.52      0.00
  -15   15    9     -0.10      0.00
  -15   15   12    -13.09      0.00
   -8   16    0     -0.11      0.00
   -8   16    3     -3.18      0.00
   -8   16    6     -1.09      0.00
   -8   16    9     -0.25      0.00
   -8   16   12     -2.08      0.00
   -7   16   10     -0.81      0.00
   -7   16    7      3.02      0.00
   -7   16    4     -0.37      0.00
   -7   16    1     12.45      0.00
   -9   16    2      0.94      0.00
   -9   16    5     -2.61      0.00
   -9   16    8     -2.40      0.00
   -9   16   11      3.53      0.00
   -6   16   11     -1.54      0.00
   -6   16    8     -0.79      0.00
   -6   16    5     -1.87      0.00
   -6   16    2     -2.96      0.00
  -10   16    1      6.74      0.00
  -10   16    4      0.50      0.00
  -10   16    7      2.55      0.00
  -10   16   10     -0.01      0.00
   -5   16   12      1.84      0.00
   -5   16    9     -0.63      0.00
   -5   16    6      0.83      0.00
   -5   16    3    -12.82      0.00
   -5   16    0     -2.25      0.00
  -11   16    3      2.23      0.00
  -11   16    6     -3.81      0.00
  -11   16    9     -3.39      0.00
  -11   16   12     -1.04      0.00
   -4   16   10      1.25      0.00
   -4   16    7     -1.40      0.00
   -4   16    4      9.52      0.00
   -4   16    1     -6.12      0.00
  -12   16    2     -2.15      0.00
  -12   16    5      0.01      0.00
  -12   16    8      3.40      0.00
  -12   16   11     -4.56      0.00
   -3   16   11      3.21      0.00
   -3   16    8     -0.73      0.00
   -3   16    5     -4.07      0.00
   -3   16    2     11.10      0.00
  -13   16    1     -0.47      0.00
  -13   16    4     -0.20      0.00
  -13   16    7      1.44      0.00
  -13   16   10      1.22      0.00
   -2   16   12     -4.89      0.00
   -2   16    9     -0.42      0.00
   -2   16    6      0.62      0.00
   -2   16    3      1.70      0.00
   -2   16    0      1.65      0.00
  -14   16    3      0.77      0.00
  -14   16    6     -5.47      0.00
  -14   16    9      2.21      0.00
  -14   16   12     -7.63      0.00
   -1   16   10      6.20      0.00
   -1   16    7     -1.22      0.00
   -1   16    4      3.17      0.00
   -1   16    1      3.28      0.00
  -15   16    2     -1.96      0.00
  -15   16    5      4.38      0.00
  -15   16    8     -5.21      0.00
  -15   16   11     -0.28      0.00
    0   16   11      4.58      0.00
    0   16    8      7.53      0.00
    0   16    5     -4.34      0.00
    0   16    2      6.74      0.00
  -16   16    1      8.61      0.00
  -16   16    4      1.01      0.00
  -16   16    7     -1.61      0.00
  -16   16   10      0.50      0.00
   -8   17   11     -3.40      0.00
   -8   17    8      3.06      0.00
   -8   17    5      0.78      0.00
   -8   17    2    -11.01      0.00
   -9   17    1      6.20      0.00
   -9   17    4     -3.92      0.00
   -9   17    7      2.79      0.00
   -9   17   10      3.58      0.00
   -7   17   12      5.75      0.00
   -7   17    9     -3.01      0.00
   -7   17    6     -0.13      0.00
   -7   17    3     -0.32      0.00
   -7   17    0      2.06      0.00
  -10   17    3     -0.76      0.00
  -10   17    6     -7.48      0.00
  -10   17    9     -0.14      0.00
  -10   17   12     -3.36      0.00
   -6   17   10      2.16      0.00
   -6   17    7     -1.14      0.00
   -6   17    4      5.98      0.00
   -6   17    1      0.51      0.00
  -11   17    2     -3.93      0.00
  -11   17    5      2.22      0.00
  -11   17    8     -2.08      0.00
  -11   17   11     -0.09      0.00
   -5   17   11      1.48      0.00
   -5   17    8      2.55      0.00
   -5   17    5     -1.76      0.00
   -5   17    2      7.43      0.00
  -12   17    1      8.77      0.00
  -12   17    4     -1.19      0.00
  -12   17    7     -1.79      0.00
  -12   17   10      1.24      0.00
   -4   17   12     -3.73      0.00
   -4   17    9      2.31      0.00
   -4   17    6      0.41      0.00
   -4   17    3      0.80      0.00
   -4   17    0     -3.79      0.00
  -13   17    3      5.37      0.00
  -13   17    6      3.61      0.00
  -13   17    9     -1.44      0.00
  -13   17   12     -2.28      0.00
   -3   17   10      4.83      0.00
   -3   17    7     -1.71      0.00
   -3   17    4      0.75      0.00
   -3   17    1      2.27      0.00
  -14   17    2     -6.15      0.00
  -14   17    5     -1.47      0.00
  -14   17    8     -2.81      0.00
  -14   17   11     -2.82      0.00
   -2   17   11     -2.95      0.00
   -2   17    8      3.04      0.00
   -2   17    5     -4.85      0.00
   -2   17    2      6.76      0.00
  -15   17    1      4.75      0.00
  -15   17    4     -0.92      0.00
  -15   17    7      2.05      0.00
  -15   17   10      0.54      0.00
   -1   17   12     -1.00      0.00
   -1   17    9      4.34      0.00
   -1   17    6      0.38      0.00
   -1   17    3     -5.34      0.00
   -1   17    0     -2.11      0.00
  -16   17    3      0.64      0.00
  -16   17    6      2.95      0.00
  -16   17    9     -0.08      0.00
  -16   17   12      1.20      0.00
    0   17   10     -4.50      0.00
    0   17    7      2.36      0.00
    0   17    4      6.18      0.00
    0   17    1     -0.86      0.00
  -17   17    2     -5.80      0.00
  -17   17    5    -13.91      0.00
  -17   17    8     -0.36      0.00
  -17   17   11     -2.38      0.00
   -9   18    0      5.93      0.00
   -9   18    3      6.46      0.00
   -9   18    6     -3.89      0.00
   -9   18    9     -6.22      0.00
   -9   18   12      1.11      0.00
   -8   18   10      5.49      0.00
   -8   18    7     -0.54      0.00
   -8   18    4     -0.64      0.00
   -8   18    1      2.33      0.00
  -10   18    2     -2.21      0.00
  -10   18    5      3.99      0.00
  -10   18    8      1.24      0.00
  -10   18   11     -4.21      0.00
   -7   18   11     -2.29      0.00
   -7   18    8      2.49      0.00
   -7   18    5     -5.33      0.00
   -7   18    2      1.75      0.00
  -11   18    1     -5.59      0.00
  -11   18    4     -1.31      0.00
  -11   18    7      5.24      0.00
  -11   18   10      0.15      0.00
   -6   18   12      2.28      0.00
   -6   18    9      2.80      0.00
   -6   18    6     -0.27      0.00
   -6   18    3      0.98      0.00
   -6   18    0      6.10      0.00
  -12   18    3      0.42      0.00
  -12   18    6     -3.54      0.00
  -12   18    9      1.94      0.00
  -12   18   12     -5.13      0.00
   -5   18   10     -0.25      0.00
   -5   18    7      1.21      0.00
   -5   18    4     -9.04      0.00
   -5   18    1      5.46      0.00
  -13   18    2     -9.58      0.00
  -13   18    5     -7.41      0.00
  -13   18    8     -0.14      0.00
  -13   18   11      1.65      0.00
   -4   18   11     -3.31      0.00
   -4   18    8     -0.80      0.00
   -4   18    5      4.97      0.00
   -4   18    2     -6.00      0.00
  -14   18    1      9.47      0.00
  -14   18    4      3.77      0.00
  -14   18    7     -4.12      0.00
  -14   18   10      1.80      0.00
   -3   18   12      5.24      0.00
   -3   18    9      4.01      0.00
   -3   18    6      1.14      0.00
   -3   18    3      2.60      0.00
   -3   18    0      4.28      0.00
  -15   18    3      0.68      0.00
  -15   18    6     -0.75      0.00
  -15   18    9     -1.09      0.00
  -15   18   12      2.59      0.00
   -2   18   10      3.19      0.00
   -2   18    7     -0.21      0.00
   -2   18    4      6.02      0.00
   -2   18    1     -8.43      0.00
  -16   18    2     -0.61      0.00
  -16   18    5     -0.81      0.00
  -16   18    8     -2.16      0.00
  -16   18   11     -4.27      0.00
   -1   18   11      0.06      0.00
   -1   18    8     -2.71      0.00
   -1   18    5      0.43      0.00
   -1   18    2      7.32      0.00
  -17   18    1     13.41      0.00
  -17   18    4     13.96      0.00
  -17   18    7     -2.47      0.00
  -17   18   10     -1.15      0.00
    0   18    9      7.05      0.00
    0   18    6     -9.34      0.00
    0   18    3      1.16      0.00
    0   18    0    -18.96      0.00
  -18   18    3     -9.62      0.00
  -18   18    6     11.18      0.00
  -18   18    9     -5.10      0.00
   -9   19   11      2.80      0.00
   -9   19    8      3.39      0.00
   -9   19    5     -5.79      0.00
   -9   19    2     -1.93      0.00
  -10   19    1     -3.22      0.00
  -10   19    4     -0.59      0.00
  -10   19    7      1.42      0.00
  -10   19   10      2.16      0.00
   -8   19   12     -6.71      0.00
   -8   19    9     -2.54      0.00
   -8   19    6      2.42      0.00
   -8   19    3      0.55      0.00
   -8   19    0      8.67      0.00
  -11   19    3     -0.31      0.00
  -11   19    6     -8.48      0.00
  -11   19    9     -0.16      0.00
  -11   19   12     -2.90      0.00
   -7   19   10      3.65      0.00
   -7   19    7      0.91      0.00
   -7   19    4     -2.87      0.00
   -7   19    1      0.34      0.00
  -12   19    2      0.88      0.00
  -12   19    5      0.07      0.00
  -12   19    8     -1.74      0.00
  -12   19   11      4.13      0.00
   -6   19   11     -5.42      0.00
   -6   19    8     -1.56      0.00
   -6   19    5      7.53      0.00
   -6   19    2     -4.39      0.00
  -13   19    1     -0.09      0.00
  -13   19    4      7.19      0.00
  -13   19    7     -1.65      0.00
  -13   19   10      0.85      0.00
   -5   19   12      5.93      0.00
   -5   19    9      9.01      0.00
   -5   19    6     -7.70      0.00
   -5   19    3     10.90      0.00
   -5   19    0      0.99      0.00
  -14   19    3     -2.78      0.00
  -14   19    6      4.26      0.00
  -14   19    9     -2.55      0.00
  -14   19   12     -1.90      0.00
   -4   19   10     -0.21      0.00
   -4   19    7      2.26      0.00
   -4   19    4     -3.25      0.00
   -4   19    1     -2.06      0.00
  -15   19    2     -2.62      0.00
  -15   19    5      2.06      0.00
  -15   19    8     -1.98      0.00
  -15   19   11     -2.78      0.00
   -3   19   11     -3.14      0.00
   -3   19    8      2.22      0.00
   -3   19    5     -0.11      0.00
   -3   19    2      7.14      0.00
  -16   19    1      0.47      0.00
  -16   19    4     -2.60      0.00
  -16   19    7      3.89      0.00
  -16   19   10     -0.99      0.00
   -2   19    9     -0.75      0.00
   -2   19    6     -4.81      0.00
   -2   19    3     -1.40      0.00
   -2   19    0     -1.28      0.00
  -17   19    3     -4.27      0.00
  -17   19    6     -0.52      0.00
  -17   19    9     -2.79      0.00
   -1   19   10      6.13      0.00
   -1   19    7      8.23      0.00
   -1   19    4     -0.45      0.00
   -1   19    1      6.01      0.00
  -18   19    2     -0.05      0.00
  -18   19    5     -8.11      0.00
  -18   19    8      4.33      0.00
  -18   19   11     -2.38      0.00
    0   19   11      1.59      0.00
    0   19    8     -3.68      0.00
    0   19    5      3.22      0.00
    0   19    2     -4.94      0.00
  -19   19    1     14.78      0.00
  -19   19    4      3.56      0.00
  -19   19    7     -0.24      0.00
  -19   19   10     -5.31      0.00
  -10   20    0      1.58      0.00
  -10   20    3     -1.41      0.00
  -10   20    6      0.24      0.00
  -10   20    9      2.24      0.00
   -9   20   10     -2.23      0.00
   -9   20    7      0.42      0.00
   -9   20    4     -0.32      0.00
   -9   20    1      4.21      0.00
  -11   20    2      2.24      0.00
  -11   20    5     -3.85      0.00
  -11   20    8      0.57      0.00
  -11   20   11      6.54      0.00
   -8   20   11      2.17      0.00
   -8   20    8      3.32      0.00
   -8   20    5      1.22      0.00
   -8   20    2     -1.40      0.00
  -12   20    1     -4.39      0.00
  -12   20    4      5.33      0.00
  -12   20    7      1.48      0.00
  -12   20   10      0.12      0.00
   -7   20    9     -1.45      0.00
   -7   20    6     -5.76      0.00
   -7   20    3     -0.69      0.00
   -7   20    0      5.22      0.00
  -13   20    3     -7.40      0.00
  -13   20    6     -1.10      0.00
  -13   20    9     -3.06      0.00
   -6   20   10      0.70      0.00
   -6   20    7      2.70      0.00
   -6   20    4      0.05      0.00
   -6   20    1      1.70      0.00
  -14   20    2      2.77      0.00
  -14   20    5     -4.14      0.00
  -14   20    8     -2.06      0.00
  -14   20   11      0.03      0.00
   -5   20   11     -0.06      0.00
   -5   20    8      1.80      0.00
   -5   20    5      3.38      0.00
   -5   20    2     -0.72      0.00
  -15   20    1      0.22      0.00
  -15   20    4     -0.55      0.00
  -15   20    7      4.45      0.00
  -15   20   10      1.50      0.00
   -4   20    9     -0.72      0.00
   -4   20    6     -4.56      0.00
   -4   20    3      0.55      0.00
   -4   20    0      3.82      0.00
  -16   20    3      0.96      0.00
  -16   20    6     -5.96      0.00
  -16   20    9      0.72      0.00
   -3   20   10      7.12      0.00
   -3   20    7      1.61      0.00
   -3   20    4      0.30      0.00
   -3   20    1     -6.78      0.00
  -17   20    2      2.84      0.00
  -17   20    5      2.72      0.00
  -17   20    8      0.05      0.00
  -17   20   11     -6.71      0.00
   -2   20   11      3.21      0.00
   -2   20    8      3.95      0.00
   -2   20    5      2.26      0.00
   -2   20    2      0.94      0.00
  -18   20    1      3.29      0.00
  -18   20    4     -1.31      0.00
  -18   20    7      2.80      0.00
  -18   20   10     -2.94      0.00
   -1   20    9     -2.87      0.00
   -1   20    6     -3.04      0.00
   -1   20    3      3.48      0.00
   -1   20    0    -10.27      0.00
  -19   20    3      5.90      0.00
  -19   20    6     -6.06      0.00
  -19   20    9      3.00      0.00
    0   20   10      4.45      0.00
    0   20    7     -0.01      0.00
    0   20    4     -0.66      0.00
    0   20    1      2.40      0.00
  -20   20    2     -3.27      0.00
  -20   20    5      3.34      0.00
  -20   20    8      0.16      0.00
  -20   20   11      1.30      0.00
  -10   21   11     14.61      0.00
  -10   21    8     -0.03      0.00
  -10   21    5     -1.78      0.00
  -10   21    2     -1.15      0.00
  -11   21    1     -1.91      0.00
  -11   21    4      4.71      0.00
  -11   21    7     -0.93      0.00
  -11   21   10     -6.92      0.00
   -9   21    9     -0.01      0.00
   -9   21    6     -3.49      0.00
   -9   21    3      2.85      0.00
   -9   21    0      0.83      0.00
  -12   21    3     -5.66      0.00
  -12   21    6     -0.65      0.00
  -12   21    9      0.27      0.00
   -8   21   10      7.64      0.00
   -8   21    7     -1.17      0.00
   -8   21    4      0.79      0.00
   -8   21    1      3.01      0.00
  -13   21    2      1.20      0.00
  -13   21    5     -4.04      0.00
  -13   21    8     -1.05      0.00
  -13   21   11      3.14      0.00
   -7   21   11     -9.24      0.00
   -7   21    8      8.57      0.00
   -7   21    5     -0.25      0.00
   -7   21    2      3.43      0.00
  -14   21    1     -3.37      0.00
  -14   21    4      4.82      0.00
  -14   21    7      4.97      0.00
  -14   21   10      3.01      0.00
   -6   21    9     -0.33      0.00
   -6   21    6     -3.76      0.00
   -6   21    3     -4.62      0.00
   -6   21    0      3.14      0.00
  -15   21    3     -3.50      0.00
  -15   21    6     -5.11      0.00
  -15   21    9     -1.43      0.00
   -5   21   10     -1.34      0.00
   -5   21    7      0.13      0.00
   -5   21    4      2.15      0.00
   -5   21    1     -1.57      0.00
  -16   21    2      2.90      0.00
  -16   21    5     -0.65      0.00
  -16   21    8     -1.96      0.00
  -16   21   11     -4.35      0.00
   -4   21   11      7.29      0.00
   -4   21    8      6.98      0.00
   -4   21    5      1.57      0.00
   -4   21    2      2.97      0.00
  -17   21    1     -0.76      0.00
  -17   21    4      1.22      0.00
  -17   21    7      2.52      0.00
  -17   21   10     -3.11      0.00
   -3   21    9     -8.50      0.00
   -3   21    6     -0.86      0.00
   -3   21    3      2.04      0.00
   -3   21    0     -1.89      0.00
  -18   21    3      3.42      0.00
  -18   21    6     -5.25      0.00
  -18   21    9      4.96      0.00
   -2   21   10      4.95      0.00
   -2   21    7     -3.38      0.00
   -2   21    4     -0.85      0.00
   -2   21    1     -0.12      0.00
  -19   21    2     -2.51      0.00
  -19   21    5      5.21      0.00
  -19   21    8     -1.12      0.00
  -19   21   11     -7.84      0.00
   -1   21   11     10.86      0.00
   -1   21    8      3.65      0.00
   -1   21    5     -3.45      0.00
   -1   21    2      2.24      0.00
  -20   21    1     -1.93      0.00
  -20   21    4     -1.04      0.00
  -20   21    7      1.17      0.00
  -20   21   10     -1.60      0.00
    0   21    9      0.01      0.00
    0   21    6      3.35      0.00
    0   21    3     -4.57      0.00
    0   21    0      2.55      0.00
  -21   21    3     -1.57      0.00
  -21   21    6     -1.35      0.00
  -21   21    9      1.52      0.00
  -11   22    0      9.45      0.00
  -11   22    3     -2.42      0.00
  -11   22    6      2.80      0.00
  -11   22    9      3.60      0.00
  -10   22   10     -3.05      0.00
  -10   22    7     -3.07      0.00
  -10   22    4     -4.23      0.00
  -10   22    1      0.52      0.00
  -12   22    2      3.11      0.00
  -12   22    5     -3.13      0.00
  -12   22    8     -1.15      0.00
  -12   22   11      6.31      0.00
   -9   22   11     -0.09      0.00
   -9   22    8      2.57      0.00
   -9   22    5      4.02      0.00
   -9   22    2     -3.65      0.00
  -13   22    1      2.81      0.00
  -13   22    4     -0.22      0.00
  -13   22    7      2.07      0.00
  -13   22   10      0.40      0.00
   -8   22    9     -0.56      0.00
   -8   22    6     -2.16      0.00
   -8   22    3     -4.17      0.00
   -8   22    0     -1.33      0.00
  -14   22    3      1.50      0.00
  -14   22    6     -3.26      0.00
  -14   22    9     -1.00      0.00
   -7   22   10      4.07      0.00
   -7   22    7     -4.92      0.00
   -7   22    4      7.39      0.00
   -7   22    1     -0.72      0.00
  -15   22    2      1.55      0.00
  -15   22    5     -2.17      0.00
  -15   22    8     -2.19      0.00
  -15   22   11      1.53      0.00
   -6   22   11     -0.33      0.00
   -6   22    8      6.94      0.00
   -6   22    5     -0.67      0.00
   -6   22    2      1.02      0.00
  -16   22    1     -5.41      0.00
  -16   22    4      1.28      0.00
  -16   22    7      4.37      0.00
  -16   22   10     -1.27      0.00
   -5   22    9     -1.88      0.00
   -5   22    6     -0.51      0.00
   -5   22    3      3.47      0.00
   -5   22    0     -3.23      0.00
  -17   22    3      1.16      0.00
  -17   22    6     -0.53      0.00
  -17   22    9      1.44      0.00
   -4   22   10      3.34      0.00
   -4   22    7     -4.08      0.00
   -4   22    4     -3.06      0.00
   -4   22    1      3.22      0.00
  -18   22    2     -1.74      0.00
  -18   22    5     -5.78      0.00
  -18   22    8      1.93      0.00
  -18   22   11     -9.19      0.00
   -3   22    8      9.02      0.00
   -3   22    5     -3.21      0.00
   -3   22    2     -1.38      0.00
  -19   22    1     -1.15      0.00
  -19   22    4      2.26      0.00
  -19   22    7     -0.98      0.00
  -19   22   10      0.19      0.00
   -2   22    9     -2.19      0.00
   -2   22    6      4.15      0.00
   -2   22    3     -2.96      0.00
   -2   22    0      4.55      0.00
  -20   22    3      2.73      0.00
  -20   22    6     -5.45      0.00
  -20   22    9      2.73      0.00
   -1   22   10      2.17      0.00
   -1   22    7     -1.89      0.00
   -1   22    4      1.34      0.00
   -1   22    1     -1.63      0.00
  -21   22    2      1.00      0.00
  -21   22    5     -0.91      0.00
  -21   22    8      0.57      0.00
    0   22    8      2.17      0.00
    0   22    5     -0.81      0.00
    0   22    2     -2.78      0.00
  -22   22    1     -0.53      0.00
  -22   22    4      6.49      0.00
  -22   22    7      0.01      0.00
  -22   22   10      3.43      0.00
  -11   23   11      3.27      0.00
  -11   23    8      0.58      0.00
  -11   23    5      1.39      0.00
  -11   23    2     -1.38      0.00
  -12   23    1     -5.18      0.00
  -12   23    4     -1.88      0.00
  -12   23    7     -2.64      0.00
  -12   23   10      0.68      0.00
  -10   23    9      3.46      0.00
  -10   23    6     -1.33      0.00
  -10   23    3      4.04      0.00
  -10   23    0      2.77      0.00
  -13   23    3     -0.22      0.00
  -13   23    6      2.27      0.00
  -13   23    9      0.23      0.00
   -9   23   10     -1.03      0.00
   -9   23    7     -0.68      0.00
   -9   23    4      1.34      0.00
   -9   23    1      1.82      0.00
  -14   23    2     -6.64      0.00
  -14   23    5     -2.21      0.00
  -14   23    8     -1.33      0.00
  -14   23   11      1.98      0.00
   -8   23   11     -1.51      0.00
   -8   23    8     -0.52      0.00
   -8   23    5     -1.34      0.00
   -8   23    2      1.38      0.00
  -15   23    1      4.06      0.00
  -15   23    4     -3.03      0.00
  -15   23    7      3.25      0.00
  -15   23   10     -3.30      0.00
   -7   23    9      4.14      0.00
   -7   23    6      0.65      0.00
   -7   23    3      1.51      0.00
   -7   23    0     -0.04      0.00
  -16   23    3      5.78      0.00
  -16   23    6     -4.19      0.00
  -16   23    9      1.21      0.00
   -6   23   10      2.05      0.00
   -6   23    7     -4.09      0.00
   -6   23    4     -5.60      0.00
   -6   23    1      1.90      0.00
  -17   23    2      0.36      0.00
  -17   23    5     -4.41      0.00
  -17   23    8      4.06      0.00
   -5   23    8      4.36      0.00
   -5   23    5      1.43      0.00
   -5   23    2     -3.59      0.00
  -18   23    1      0.29      0.00
  -18   23    4      6.32      0.00
  -18   23    7     -6.65      0.00
  -18   23   10      1.55      0.00
   -4   23    9     -0.86      0.00
   -4   23    6      3.36      0.00
   -4   23    3      2.42      0.00
   -4   23    0     -3.03      0.00
  -19   23    3     -0.43      0.00
  -19   23    6      2.93      0.00
  -19   23    9      3.20      0.00
   -3   23   10     -1.87      0.00
   -3   23    7     -5.32      0.00
   -3   23    4      3.68      0.00
   -3   23    1     -1.58      0.00
  -20   23    2     -4.81      0.00
  -20   23    5      0.86      0.00
  -20   23    8      0.26      0.00
   -2   23    8      3.83      0.00
   -2   23    5     -5.16      0.00
   -2   23    2     -0.33      0.00
  -21   23    1     -0.15      0.00
  -21   23    4      0.28      0.00
  -21   23    7     -0.69      0.00
  -21   23   10      0.44      0.00
   -1   23    9     -6.33      0.00
   -1   23    6     -2.93      0.00
   -1   23    3      0.65      0.00
   -1   23    0     -2.21      0.00
  -22   23    3     -6.39      0.00
  -22   23    6      0.89      0.00
  -22   23    9     -3.55      0.00
    0   23   10     14.04      0.00
    0   23    7      5.54      0.00
    0   23    4     -7.97      0.00
    0   23    1      6.80      0.00
  -23   23    2      5.88      0.00
  -23   23    5     -5.94      0.00
  -23   23    8     -2.88      0.00
  -12   24    0      6.71      0.00
  -12   24    3      0.63      0.00
  -12   24    6      0.08      0.00
  -12   24    9     -0.74      0.00
  -11   24   10      3.24      0.00
  -11   24    7      1.87      0.00
  -11   24    4     -2.59      0.00
  -11   24    1     -0.35      0.00
  -13   24    2      0.85      0.00
  -13   24    5     -2.18      0.00
  -13   24    8     -2.60      0.00
  -10   24    8     -4.06      0.00
  -10   24    5      0.17      0.00
  -10   24    2     -2.22      0.00
  -14   24    1      3.35      0.00
  -14   24    4      0.31      0.00
  -14   24    7     -0.15      0.00
  -14   24   10      1.18      0.00
   -9   24    9     10.92      0.00
   -9   24    6      0.32      0.00
   -9   24    3     -0.40      0.00
   -9   24    0     -2.71      0.00
  -15   24    3      4.60      0.00
  -15   24    6     -0.41      0.00
  -15   24    9      1.24      0.00
   -8   24   10     -4.48      0.00
   -8   24    7     -4.01      0.00
   -8   24    4     -0.90      0.00
   -8   24    1     -1.33      0.00
  -16   24    2     -5.72      0.00
  -16   24    5     -1.20      0.00
  -16   24    8      1.33      0.00
   -7   24    8     -0.13      0.00
   -7   24    5      6.39      0.00
   -7   24    2      0.69      0.00
  -17   24    1     -1.79      0.00
  -17   24    4     -2.74      0.00
  -17   24    7     -2.83      0.00
  -17   24   10      1.50      0.00
   -6   24    9      3.87      0.00
   -6   24    6     -4.00      0.00
   -6   24    3      5.48      0.00
   -6   24    0     -1.68      0.00
  -18   24    3      1.98      0.00
  -18   24    6      2.26      0.00
  -18   24    9     -2.40      0.00
   -5   24   10     -2.05      0.00
   -5   24    7     -1.08      0.00
   -5   24    4     -1.94      0.00
   -5   24    1      1.16      0.00
  -19   24    2     -3.36      0.00
  -19   24    5     -4.60      0.00
  -19   24    8      0.98      0.00
   -4   24    8      2.42      0.00
   -4   24    5     -7.70      0.00
   -4   24    2     -2.36      0.00
  -20   24    1      3.65      0.00
  -20   24    4      3.76      0.00
  -20   24    7     -5.26      0.00
  -20   24   10     -5.54      0.00
   -3   24    9      4.48      0.00
   -3   24    6      1.47      0.00
   -3   24    3     -2.06      0.00
   -3   24    0      2.53      0.00
  -21   24    3     -0.27      0.00
  -21   24    6      1.79      0.00
  -21   24    9      1.44      0.00
   -2   24   10      0.82      0.00
   -2   24    7      2.94      0.00
   -2   24    4     -0.59      0.00
   -2   24    1     -0.12      0.00
  -22   24    2     -0.62      0.00
  -22   24    5     -0.70      0.00
  -22   24    8      1.08      0.00
   -1   24    8     -1.01      0.00
   -1   24    5     -0.19      0.00
   -1   24    2     -2.99      0.00
  -23   24    1      1.45      0.00
  -23   24    4      0.63      0.00
  -23   24    7      7.03      0.00
    0   24    9     -5.48      0.00
    0   24    6      1.07      0.00
    0   24    3      3.32      0.00
    0   24    0      1.40      0.00
  -24   24    3     -7.34      0.00
  -24   24    6     -1.03      0.00
  -24   24    9      5.32      0.00
  -12   25    8     -1.32      0.00
  -12   25    5      0.84      0.00
  -12   25    2     -1.49      0.00
  -13   25    1      0.36      0.00
  -13   25    4     -2.06      0.00
  -13   25    7      3.19      0.00
  -13   25   10      2.33      0.00
  -11   25    9     -3.23      0.00
  -11   25    6     -4.72      0.00
  -11   25    3      1.13      0.00
  -11   25    0      1.07      0.00
  -14   25    3     -1.35      0.00
  -14   25    6     -0.24      0.00
  -14   25    9      1.67      0.00
  -10   25   10     -2.54      0.00
  -10   25    7      1.25      0.00
  -10   25    4      3.21      0.00
  -10   25    1     -0.46      0.00
  -15   25    2     -1.01      0.00
  -15   25    5     -5.57      0.00
  -15   25    8      1.45      0.00
   -9   25    8     -1.45      0.00
   -9   25    5     -2.78      0.00
   -9   25    2      2.30      0.00
  -16   25    1      0.88      0.00
  -16   25    4      1.73      0.00
  -16   25    7     -3.26      0.00
  -16   25   10      2.89      0.00
   -8   25    9      6.05      0.00
   -8   25    6      0.48      0.00
   -8   25    3     -0.12      0.00
   -8   25    0      0.10      0.00
  -17   25    3      5.62      0.00
  -17   25    6     -0.95      0.00
  -17   25    9     -2.40      0.00
   -7   25   10      0.48      0.00
   -7   25    7      0.27      0.00
   -7   25    4     -5.56      0.00
   -7   25    1     -3.11      0.00
  -18   25    2     -3.33      0.00
  -18   25    5      2.44      0.00
  -18   25    8     -0.14      0.00
   -6   25    8     -3.25      0.00
   -6   25    5      2.16      0.00
   -6   25    2     -1.60      0.00
  -19   25    1      2.72      0.00
  -19   25    4      0.20      0.00
  -19   25    7     -1.38      0.00
  -19   25   10      1.68      0.00
   -5   25    9      7.32      0.00
   -5   25    6      0.21      0.00
   -5   25    3      3.94      0.00
   -5   25    0     -0.01      0.00
  -20   25    3     -2.80      0.00
  -20   25    6      4.29      0.00
  -20   25    9      1.18      0.00
   -4   25   10     -8.63      0.00
   -4   25    7      0.27      0.00
   -4   25    4      2.55      0.00
   -4   25    1     -1.66      0.00
  -21   25    2     -1.26      0.00
  -21   25    5     -3.46      0.00
  -21   25    8      1.92      0.00
   -3   25    8     -2.84      0.00
   -3   25    5     -5.19      0.00
   -3   25    2      0.03      0.00
  -22   25    1      0.59      0.00
  -22   25    4     -2.61      0.00
  -22   25    7     -0.31      0.00
   -2   25    9      3.31      0.00
   -2   25    6      1.54      0.00
   -2   25    3     -0.85      0.00
   -2   25    0      2.24      0.00
  -23   25    3      0.90      0.00
  -23   25    6     -3.14      0.00
  -23   25    9      1.87      0.00
   -1   25    7     -1.68      0.00
   -1   25    4     -5.77      0.00
   -1   25    1     -1.45      0.00
  -24   25    2     -0.71      0.00
  -24   25    5     -4.49      0.00
  -24   25    8     -5.65      0.00
    0   25    8     -2.74      0.00
    0   25    5      0.97      0.00
    0   25    2      5.97      0.00
  -25   25    1      1.20      0.00
  -25   25    4      1.63      0.00
  -25   25    7      7.98      0.00
  -13   26    0      0.21      0.00
  -13   26    3      1.94      0.00
  -13   26    6     -2.21      0.00
  -13   26    9     -2.87      0.00
  -12   26   10      6.78      0.00
  -12   26    7      2.86      0.00
  -12   26    4      1.57      0.00
  -12   26    1      0.37      0.00
  -14   26    2     -1.21      0.00
  -14   26    5      0.59      0.00
  -14   26    8     -0.85      0.00
  -11   26    8      3.91      0.00
  -11   26    5     -3.63      0.00
  -11   26    2     -0.26      0.00
  -15   26    1     -2.12      0.00
  -15   26    4      2.06      0.00
  -15   26    7     -1.59      0.00
  -15   26   10      1.61      0.00
  -10   26    9     -3.74      0.00
  -10   26    6      0.29      0.00
  -10   26    3     -1.13      0.00
  -10   26    0      3.07      0.00
  -16   26    3     -1.60      0.00
  -16   26    6      2.75      0.00
  -16   26    9     -5.20      0.00
   -9   26   10      1.75      0.00
   -9   26    7     -5.14      0.00
   -9   26    4      3.49      0.00
   -9   26    1     -1.16      0.00
  -17   26    2     -1.55      0.00
  -17   26    5     -3.33      0.00
  -17   26    8      3.84      0.00
   -8   26    8     -1.24      0.00
   -8   26    5      0.71      0.00
   -8   26    2      1.09      0.00
  -18   26    1      2.03      0.00
  -18   26    4     -2.60      0.00
  -18   26    7     -0.85      0.00
  -18   26   10      2.62      0.00
   -7   26    9      1.93      0.00
   -7   26    6     -4.02      0.00
   -7   26    3      3.29      0.00
   -7   26    0      0.68      0.00
  -19   26    3     -1.04      0.00
  -19   26    6     -1.12      0.00
  -19   26    9     -0.82      0.00
   -6   26    7      3.01      0.00
   -6   26    4     -0.03      0.00
   -6   26    1     -3.55      0.00
  -20   26    2      1.81      0.00
  -20   26    5     -1.37      0.00
  -20   26    8     -0.20      0.00
   -5   26    8     -1.58      0.00
   -5   26    5     -7.24      0.00
   -5   26    2     -2.94      0.00
  -21   26    1     -1.06      0.00
  -21   26    4      0.39      0.00
  -21   26    7     -2.47      0.00
   -4   26    9      5.72      0.00
   -4   26    6      0.80      0.00
   -4   26    3      1.91      0.00
   -4   26    0      1.94      0.00
  -22   26    3      0.90      0.00
  -22   26    6     -0.50      0.00
  -22   26    9      0.65      0.00
   -3   26    7     -2.90      0.00
   -3   26    4     -1.14      0.00
   -3   26    1      1.94      0.00
  -23   26    2     -4.25      0.00
  -23   26    5     -1.82      0.00
  -23   26    8      1.82      0.00
   -2   26    8     -0.20      0.00
   -2   26    5     -2.82      0.00
   -2   26    2      2.05      0.00
  -24   26    1      5.69      0.00
  -24   26    4     -1.48      0.00
  -24   26    7      4.27      0.00
   -1   26    6      2.69      0.00
   -1   26    3     -5.18      0.00
   -1   26    0      2.92      0.00
  -25   26    3     -0.38      0.00
  -25   26    6     -5.18      0.00
    0   26    7     -2.80      0.00
    0   26    4     -1.57      0.00
    0   26    1      1.02      0.00
  -26   26    2     -6.61      0.00
  -26   26    5      2.71      0.00
  -26   26    8     -5.52      0.00
  -13   27    8      3.14      0.00
  -13   27    5     -4.25      0.00
  -13   27    2      1.64      0.00
  -14   27    1     -0.45      0.00
  -14   27    4     -2.63      0.00
  -14   27    7     -3.87      0.00
  -12   27    9     -6.17      0.00
  -12   27    6     -4.10      0.00
  -12   27    3     -1.90      0.00
  -12   27    0      2.12      0.00
  -15   27    3      2.21      0.00
  -15   27    6      0.45      0.00
  -15   27    9     -1.23      0.00
  -11   27    7      4.11      0.00
  -11   27    4      4.20      0.00
  -11   27    1      0.49      0.00
  -16   27    2      2.43      0.00
  -16   27    5     -4.73      0.00
  -16   27    8      1.18      0.00
  -10   27    8      0.96      0.00
  -10   27    5     -2.53      0.00
  -10   27    2     -1.48      0.00
  -17   27    1     -4.31      0.00
  -17   27    4      4.98      0.00
  -17   27    7     -3.72      0.00
   -9   27    9     -1.36      0.00
   -9   27    6     -0.60      0.00
   -9   27    3      0.46      0.00
   -9   27    0     -0.27      0.00
  -18   27    3     -1.62      0.00
  -18   27    6      3.89      0.00
  -18   27    9     -1.59      0.00
   -8   27    7      0.57      0.00
   -8   27    4      1.81      0.00
   -8   27    1     -1.32      0.00
  -19   27    2      1.84      0.00
  -19   27    5     -1.45      0.00
  -19   27    8     -2.33      0.00
   -7   27    8     -1.20      0.00
   -7   27    5     -5.21      0.00
   -7   27    2     -0.30      0.00
  -20   27    1     -0.44      0.00
  -20   27    4      1.01      0.00
  -20   27    7     -0.98      0.00
   -6   27    9     -3.12      0.00
   -6   27    6      0.43      0.00
   -6   27    3      2.77      0.00
   -6   27    0      2.32      0.00
  -21   27    3     -2.37      0.00
  -21   27    6      1.85      0.00
  -21   27    9     -4.21      0.00
   -5   27    7     -0.82      0.00
   -5   27    4     -1.63      0.00
   -5   27    1      2.40      0.00
  -22   27    2      2.51      0.00
  -22   27    5     -1.66      0.00
  -22   27    8      4.72      0.00
   -4   27    8      3.70      0.00
   -4   27    5      0.35      0.00
   -4   27    2     -2.78      0.00
  -23   27    1     -0.47      0.00
  -23   27    4      1.08      0.00
  -23   27    7      0.08      0.00
   -3   27    6      1.31      0.00
   -3   27    3     -0.65      0.00
   -3   27    0     -1.15      0.00
  -24   27    3      2.49      0.00
  -24   27    6     -3.16      0.00
   -2   27    7     -7.15      0.00
   -2   27    4      1.37      0.00
   -2   27    1      5.80      0.00
  -25   27    2    -12.07      0.00
  -25   27    5      0.29      0.00
  -25   27    8      0.09      0.00
   -1   27    8      2.12      0.00
   -1   27    5      2.48      0.00
   -1   27    2      3.25      0.00
  -26   27    1      6.69      0.00
  -26   27    4     -3.60      0.00
  -26   27    7      2.52      0.00
    0   27    6     -6.77      0.00
    0   27    3     -1.70      0.00
    0   27    0      3.15      0.00
  -27   27    3     -4.34      0.00
  -27   27    6     -5.79      0.00
  -14   28    0      3.47      0.00
  -14   28    3     -0.69      0.00
  -14   28    6      3.19      0.00
  -14   28    9     -1.97      0.00
  -13   28    7      0.77      0.00
  -13   28    4      3.87      0.00
  -13   28    1     -2.05      0.00
  -15   28    2     -0.24      0.00
  -15   28    5     -0.60      0.00
  -15   28    8     -0.83      0.00
  -12   28    8     -4.73      0.00
  -12   28    5      0.27      0.00
  -12   28    2      1.31      0.00
  -16   28    1     -1.33      0.00
  -16   28    4     -0.72      0.00
  -16   28    7      1.34      0.00
  -11   28    9      1.34      0.00
  -11   28    6    -10.63      0.00
  -11   28    3      0.82      0.00
  -11   28    0      1.80      0.00
  -17   28    3     -3.67      0.00
  -17   28    6      4.17      0.00
  -17   28    9      0.11      0.00
  -10   28    7      4.38      0.00
  -10   28    4      0.19      0.00
  -10   28    1      1.69      0.00
  -18   28    2      4.92      0.00
  -18   28    5     -7.19      0.00
  -18   28    8     -1.41      0.00
   -9   28    8     -4.95      0.00
   -9   28    5     -2.56      0.00
   -9   28    2     -2.35      0.00
  -19   28    1     -0.31      0.00
  -19   28    4      1.75      0.00
  -19   28    7     -1.03      0.00
   -8   28    9     -0.89      0.00
   -8   28    6      0.23      0.00
   -8   28    3     -0.10      0.00
   -8   28    0     -0.30      0.00
  -20   28    3     -1.24      0.00
  -20   28    6      4.37      0.00
  -20   28    9      4.59      0.00
   -7   28    7      0.08      0.00
   -7   28    4      3.19      0.00
   -7   28    1     -1.83      0.00
  -21   28    2      0.78      0.00
  -21   28    5     -2.99      0.00
  -21   28    8      2.94      0.00
   -6   28    8      1.96      0.00
   -6   28    5     -0.59      0.00
   -6   28    2     -1.48      0.00
  -22   28    1      0.28      0.00
  -22   28    4     -0.69      0.00
  -22   28    7     -5.05      0.00
   -5   28    6     -6.27      0.00
   -5   28    3      3.62      0.00
   -5   28    0     -0.02      0.00
  -23   28    3     -1.69      0.00
  -23   28    6     -1.82      0.00
   -4   28    7     -3.48      0.00
   -4   28    4     -3.01      0.00
   -4   28    1      4.06      0.00
  -24   28    2     -2.01      0.00
  -24   28    5     -4.56      0.00
  -24   28    8      0.11      0.00
   -3   28    8      6.23      0.00
   -3   28    5      0.73      0.00
   -3   28    2      0.54      0.00
  -25   28    1      5.48      0.00
  -25   28    4      1.16      0.00
  -25   28    7     -1.95      0.00
   -2   28    6     -3.02      0.00
   -2   28    3     -0.53      0.00
   -2   28    0     -0.18      0.00
  -26   28    3     -0.31      0.00
  -26   28    6     -2.88      0.00
   -1   28    7      0.91      0.00
   -1   28    4     -1.95      0.00
   -1   28    1      9.54      0.00
  -27   28    2     -3.72      0.00
  -27   28    5      6.04      0.00
    0   28    5      5.21      0.00
    0   28    2     -6.43      0.00
  -28   28    1     -0.66      0.00
  -28   28    4     -4.16      0.00
  -28   28    7     -1.88      0.00
  -14   29    8     -6.79      0.00
  -14   29    5     -1.39      0.00
  -14   29    2      1.30      0.00
  -15   29    1     -0.47      0.00
  -15   29    4     -1.24      0.00
  -15   29    7      0.37      0.00
  -13   29    9      9.97      0.00
  -13   29    6     -2.16      0.00
  -13   29    3     -0.72      0.00
  -13   29    0      0.81      0.00
  -16   29    3     -0.13      0.00
  -16   29    6      0.26      0.00
  -16   29    9     -1.51      0.00
  -12   29    7     -5.43      0.00
  -12   29    4     -1.91      0.00
  -12   29    1     -0.61      0.00
  -17   29    2      1.76      0.00
  -17   29    5      1.04      0.00
  -17   29    8     -7.10      0.00
  -11   29    8     -1.05      0.00
  -11   29    5      3.91      0.00
  -11   29    2     -1.49      0.00
  -18   29    1     -1.56      0.00
  -18   29    4     -1.30      0.00
  -18   29    7      1.26      0.00
  -10   29    6     -4.90      0.00
  -10   29    3      3.13      0.00
  -10   29    0     -0.80      0.00
  -19   29    3      0.61      0.00
  -19   29    6      5.71      0.00
   -9   29    7     -0.52      0.00
   -9   29    4      2.68      0.00
   -9   29    1     -0.36      0.00
  -20   29    2     -0.78      0.00
  -20   29    5     -4.35      0.00
  -20   29    8     -2.09      0.00
   -8   29    8     -0.20      0.00
   -8   29    5     -4.42      0.00
   -8   29    2      1.77      0.00
  -21   29    1      3.50      0.00
  -21   29    4     -2.28      0.00
  -21   29    7     -2.29      0.00
   -7   29    6     -3.84      0.00
   -7   29    3     -0.04      0.00
   -7   29    0     -2.34      0.00
  -22   29    3      3.30      0.00
  -22   29    6      2.72      0.00
   -6   29    7      2.55      0.00
   -6   29    4     -3.02      0.00
   -6   29    1      5.53      0.00
  -23   29    2     -0.87      0.00
  -23   29    5      1.09      0.00
  -23   29    8      2.44      0.00
   -5   29    8      1.96      0.00
   -5   29    5      5.93      0.00
   -5   29    2     -1.00      0.00
  -24   29    1     -1.87      0.00
  -24   29    4      3.49      0.00
  -24   29    7     -3.39      0.00
   -4   29    6     -8.02      0.00
   -4   29    3      0.51      0.00
   -4   29    0      6.76      0.00
  -25   29    3     -3.64      0.00
  -25   29    6      1.60      0.00
   -3   29    7      0.22      0.00
   -3   29    4      3.01      0.00
   -3   29    1     -0.10      0.00
  -26   29    2     -2.33      0.00
  -26   29    5      1.47      0.00
   -2   29    5     -2.72      0.00
   -2   29    2     -3.37      0.00
  -27   29    1      0.98      0.00
  -27   29    4     -8.30      0.00
  -27   29    7     -1.20      0.00
   -1   29    6     -2.49      0.00
   -1   29    3     13.89      0.00
   -1   29    0     -1.87      0.00
  -28   29    3     -5.35      0.00
  -28   29    6      2.15      0.00
    0   29    4    -13.85      0.00
    0   29    1      8.69      0.00
  -29   29    2      0.79      0.00
  -29   29    5     -3.65      0.00
  -15   30    0      1.86      0.00
  -15   30    3      0.87      0.00
  -15   30    6     -0.15      0.00
  -14   30    7     -7.13      0.00
  -14   30    4     -4.79      0.00
  -14   30    1     -1.30      0.00
  -16   30    2     -1.02      0.00
  -16   30    5     -0.58      0.00
  -16   30    8     -3.65      0.00
  -13   30    8     10.17      0.00
  -13   30    5      0.73      0.00
  -13   30    2      0.24      0.00
  -17   30    1      2.60      0.00
  -17   30    4     -5.41      0.00
  -17   30    7      2.41      0.00
  -12   30    6     11.64      0.00
  -12   30    3      1.37      0.00
  -12   30    0      0.03      0.00
  -18   30    3      1.93      0.00
  -18   30    6     -0.58      0.00
  -11   30    7    -15.84      0.00
  -11   30    4     -1.06      0.00
  -11   30    1     -0.14      0.00
  -19   30    2     -0.15      0.00
  -19   30    5      1.14      0.00
  -19   30    8      1.63      0.00
  -10   30    8     -1.31      0.00
  -10   30    5     -1.30      0.00
  -10   30    2     -1.54      0.00
  -20   30    1      1.42      0.00
  -20   30    4     -2.52      0.00
  -20   30    7     -3.72      0.00
   -9   30    6     -1.12      0.00
   -9   30    3      0.16      0.00
   -9   30    0      0.40      0.00
  -21   30    3      5.34      0.00
  -21   30    6      3.26      0.00
   -8   30    7     -4.65      0.00
   -8   30    4      0.38      0.00
   -8   30    1     -1.12      0.00
  -22   30    2     -2.84      0.00
  -22   30    5      0.09      0.00
  -22   30    8     -3.63      0.00
   -7   30    8     -0.58      0.00
   -7   30    5      1.30      0.00
   -7   30    2     -2.58      0.00
  -23   30    1      2.16      0.00
  -23   30    4      0.02      0.00
  -23   30    7     -5.85      0.00
   -6   30    6     -4.80      0.00
   -6   30    3      2.85      0.00
   -6   30    0     -0.69      0.00
  -24   30    3     -3.04      0.00
  -24   30    6      2.69      0.00
   -5   30    7      0.41      0.00
   -5   30    4     -2.00      0.00
   -5   30    1     -2.19      0.00
  -25   30    2     -0.33      0.00
  -25   30    5     -1.03      0.00
   -4   30    5      2.22      0.00
   -4   30    2      8.14      0.00
  -26   30    1     -2.52      0.00
  -26   30    4     -3.87      0.00
  -26   30    7      1.10      0.00
   -3   30    6     -1.91      0.00
   -3   30    3      4.23      0.00
   -3   30    0      2.92      0.00
  -27   30    3     -1.82      0.00
  -27   30    6      0.89      0.00
   -2   30    4     -1.21      0.00
   -2   30    1      8.85      0.00
  -28   30    2      3.36      0.00
  -28   30    5      1.03      0.00
   -1   30    5      4.48      0.00
   -1   30    2     12.18      0.00
  -29   30    1      0.67      0.00
  -29   30    4     -3.08      0.00
    0   30    3    -11.54      0.00
    0   30    0     -3.17      0.00
  -30   30    3     -1.22      0.00
  -15   31    8     -4.95      0.00
  -15   31    5      0.98      0.00
  -15   31    2     -0.37      0.00
  -16   31    1      0.24      0.00
  -16   31    4     -0.51      0.00
  -16   31    7      1.08      0.00
  -14   31    6      9.63      0.00
  -14   31    3      2.39      0.00
  -14   31    0     -0.37      0.00
  -17   31    3     -1.65      0.00
  -17   31    6      4.05      0.00
  -13   31    7    -41.72      0.00
  -13   31    4     -3.01      0.00
  -13   31    1     -1.43      0.00
  -18   31    2     -1.15      0.00
  -18   31    5      5.10      0.00
  -18   31    8     -0.99      0.00
  -12   31    8     22.64      0.00
  -12   31    5     -4.30      0.00
  -12   31    2     -0.48      0.00
  -19   31    1      0.78      0.00
  -19   31    4     -5.39      0.00
  -19   31    7     -2.20      0.00
  -11   31    6      0.90      0.00
  -11   31    3      0.31      0.00
  -11   31    0     -1.05      0.00
  -20   31    3      2.58      0.00
  -20   31    6      4.26      0.00
  -10   31    7     -0.86      0.00
  -10   31    4     -1.52      0.00
  -10   31    1     -1.77      0.00
  -21   31    2     -1.78      0.00
  -21   31    5     -3.01      0.00
   -9   31    5      2.35      0.00
   -9   31    2      1.87      0.00
  -22   31    1     -2.76      0.00
  -22   31    4      2.56      0.00
  -22   31    7      1.46      0.00
   -8   31    6     -0.50      0.00
   -8   31    3      0.27      0.00
   -8   31    0      4.82      0.00
  -23   31    3     -4.91      0.00
  -23   31    6      3.29      0.00
   -7   31    7     -5.03      0.00
   -7   31    4     -0.05      0.00
   -7   31    1      3.98      0.00
  -24   31    2     -0.96      0.00
  -24   31    5     -0.22      0.00
   -6   31    5      1.41      0.00
   -6   31    2      0.66      0.00
  -25   31    1      5.62      0.00
  -25   31    4      1.55      0.00
  -25   31    7     -5.00      0.00
   -5   31    6     -3.76      0.00
   -5   31    3      2.94      0.00
   -5   31    0      2.67      0.00
  -26   31    3      0.61      0.00
  -26   31    6     -0.01      0.00
   -4   31    4     -1.36      0.00
   -4   31    1     -3.90      0.00
  -27   31    2      1.82      0.00
  -27   31    5     -2.02      0.00
   -3   31    5     -4.34      0.00
   -3   31    2      2.59      0.00
  -28   31    1     -1.33      0.00
  -28   31    4     -5.41      0.00
   -2   31    3     -1.01      0.00
   -2   31    0     -7.71      0.00
  -29   31    3     -4.38      0.00
   -1   31    4      1.47      0.00
   -1   31    1    -12.82      0.00
  -30   31    2     -2.87      0.00
  -30   31    5     -0.29      0.00
    0   31    2     54.96      0.00
  -31   31    1      0.51      0.00
  -31   31    4     -5.71      0.00
  -16   32    0      2.95      0.00
  -16   32    3     -1.63      0.00
  -16   32    6      0.89      0.00
  -15   32    7     -4.56      0.00
  -15   32    4     -4.49      0.00
  -15   32    1     -2.65      0.00
  -17   32    2     -0.94      0.00
  -17   32    5     -5.07      0.00
  -14   32    5      0.64      0.00
  -14   32    2     -1.00      0.00
  -18   32    1      4.88      0.00
  -18   32    4     -1.12      0.00
  -18   32    7     -2.14      0.00
  -13   32    6     13.10      0.00
  -13   32    3     -2.40      0.00
  -13   32    0     -1.75      0.00
  -19   32    3     -4.07      0.00
  -19   32    6     -0.91      0.00
  -12   32    7    -12.62      0.00
  -12   32    4     -0.76      0.00
  -12   32    1     -0.63      0.00
  -20   32    2      0.65      0.00
  -20   32    5      1.60      0.00
  -11   32    5      4.80      0.00
  -11   32    2     -0.14      0.00
  -21   32    1      1.18      0.00
  -21   32    4      1.34      0.00
  -21   32    7     -3.62      0.00
  -10   32    6     -9.66      0.00
  -10   32    3      0.31      0.00
  -10   32    0      2.88      0.00
  -22   32    3     -0.96      0.00
  -22   32    6      1.35      0.00
   -9   32    7     -4.64      0.00
   -9   32    4     -1.62      0.00
   -9   32    1     -6.78      0.00
  -23   32    2      5.51      0.00
  -23   32    5     -0.53      0.00
   -8   32    5      0.22      0.00
   -8   32    2      2.21      0.00
  -24   32    1     -0.12      0.00
  -24   32    4      6.00      0.00
   -7   32    6      2.08      0.00
   -7   32    3      1.58      0.00
   -7   32    0     -6.74      0.00
  -25   32    3     -2.48      0.00
  -25   32    6      2.07      0.00
   -6   32    4     -7.37      0.00
   -6   32    1      1.68      0.00
  -26   32    2     -2.35      0.00
  -26   32    5      0.07      0.00
   -5   32    5      7.04      0.00
   -5   32    2      6.26      0.00
  -27   32    1     -8.52      0.00
  -27   32    4     -0.43      0.00
   -4   32    3      6.05      0.00
   -4   32    0      2.09      0.00
  -28   32    3     -0.93      0.00
   -3   32    4      2.70      0.00
   -3   32    1      8.31      0.00
  -29   32    2      2.14      0.00
  -29   32    5     -1.62      0.00
   -2   32    2     20.90      0.00
  -30   32    1      0.20      0.00
  -30   32    4     -4.01      0.00
   -1   32    3    -18.23      0.00
   -1   32    0      1.20      0.00
  -31   32    3      3.28      0.00
    0   32    1    -13.85      0.00
  -32   32    2     -7.15      0.00
  -16   33    5     -0.25      0.00
  -16   33    2      2.71      0.00
  -17   33    1     -2.42      0.00
  -17   33    4     -9.09      0.00
  -17   33    7     -1.39      0.00
  -15   33    6     -1.65      0.00
  -15   33    3     -2.17      0.00
  -15   33    0     -4.79      0.00
  -18   33    3      2.13      0.00
  -18   33    6      4.19      0.00
  -14   33    7    -10.73      0.00
  -14   33    4     -4.27      0.00
  -14   33    1      2.42      0.00
  -19   33    2     -0.87      0.00
  -19   33    5      2.26      0.00
  -13   33    5      5.28      0.00
  -13   33    2      1.33      0.00
  -20   33    1     -0.84      0.00
  -20   33    4      2.83      0.00
  -12   33    6     -6.32      0.00
  -12   33    3     -4.11      0.00
  -12   33    0     -0.56      0.00
  -21   33    3      0.85      0.00
  -21   33    6      0.37      0.00
  -11   33    4     -0.44      0.00
  -11   33    1     -0.08      0.00
  -22   33    2     -3.06      0.00
  -22   33    5      2.19      0.00
  -10   33    5      1.51      0.00
  -10   33    2      0.94      0.00
  -23   33    1     -3.48      0.00
  -23   33    4      0.91      0.00
   -9   33    6     -2.43      0.00
   -9   33    3     -4.66      0.00
   -9   33    0      2.95      0.00
  -24   33    3     -4.92      0.00
  -24   33    6     -0.58      0.00
   -8   33    4      2.31      0.00
   -8   33    1      3.15      0.00
  -25   33    2     -2.07      0.00
  -25   33    5      4.43      0.00
   -7   33    5      0.69      0.00
   -7   33    2      0.68      0.00
  -26   33    1     -1.20      0.00
  -26   33    4      2.40      0.00
   -6   33    3      5.24      0.00
   -6   33    0      9.92      0.00
  -27   33    3     -4.72      0.00
   -5   33    4     -4.05      0.00
   -5   33    1     -1.74      0.00
  -28   33    2     14.38      0.00
  -28   33    5     -3.67      0.00
   -4   33    2     -2.68      0.00
  -29   33    1    -10.99      0.00
  -29   33    4     -4.73      0.00
   -3   33    3      2.18      0.00
   -3   33    0     -6.88      0.00
  -30   33    3      0.37      0.00
   -2   33    1      0.00      0.00
  -31   33    2     -1.03      0.00
   -1   33    2      7.18      0.00
  -32   33    1     -5.73      0.00
    0   33    0     -6.81      0.00
  -17   34    0      3.27      0.00
  -17   34    3      7.91      0.00
  -17   34    6      4.69      0.00
  -16   34    4     -7.03      0.00
  -16   34    1     -1.34      0.00
  -18   34    2     -3.37      0.00
  -18   34    5     11.23      0.00
  -15   34    5      3.02      0.00
  -15   34    2     -2.04      0.00
  -19   34    1      2.54      0.00
  -19   34    4    -13.58      0.00
  -14   34    6     -5.01      0.00
  -14   34    3     -4.84      0.00
  -14   34    0     -1.17      0.00
  -20   34    3     -3.82      0.00
  -20   34    6      0.60      0.00
  -13   34    4     -2.60      0.00
  -13   34    1     -3.49      0.00
  -21   34    2     -1.56      0.00
  -21   34    5     -0.49      0.00
  -12   34    5     -5.82      0.00
  -12   34    2     -1.96      0.00
  -22   34    1      1.06      0.00
  -22   34    4     -3.15      0.00
  -11   34    3     -1.63      0.00
  -11   34    0     -0.96      0.00
  -23   34    3      2.10      0.00
  -10   34    4      5.15      0.00
  -10   34    1     -0.11      0.00
  -24   34    2      4.12      0.00
  -24   34    5      3.96      0.00
   -9   34    5     -1.87      0.00
   -9   34    2      1.00      0.00
  -25   34    1      2.00      0.00
  -25   34    4     -0.18      0.00
   -8   34    3     -2.60      0.00
   -8   34    0     -6.31      0.00
  -26   34    3     -0.92      0.00
   -7   34    4      1.99      0.00
   -7   34    1      1.66      0.00
  -27   34    2     15.72      0.00
   -6   34    2      2.13      0.00
  -28   34    1    -36.25      0.00
  -28   34    4      2.27      0.00
   -5   34    3      1.14      0.00
   -5   34    0     10.06      0.00
  -29   34    3      2.89      0.00
   -4   34    1     11.84      0.00
  -30   34    2     -3.40      0.00
   -3   34    2     -2.28      0.00
  -31   34    1     -1.28      0.00
   -2   34    0     -0.48      0.00
  -17   35    5      2.85      0.00
  -17   35    2     -1.32      0.00
  -18   35    1     -6.12      0.00
  -18   35    4    -31.74      0.00
  -16   35    3     -2.42      0.00
  -16   35    0     -1.32      0.00
  -19   35    3     12.34      0.00
  -15   35    4     -3.05      0.00
  -15   35    1      0.98      0.00
  -20   35    2      1.26      0.00
  -20   35    5      4.93      0.00
  -14   35    5      2.17      0.00
  -14   35    2      0.32      0.00
  -21   35    1     -1.71      0.00
  -21   35    4      2.73      0.00
  -13   35    3     -1.20      0.00
  -13   35    0     -0.60      0.00
  -22   35    3      1.05      0.00
  -12   35    4      1.78      0.00
  -12   35    1      1.93      0.00
  -23   35    2     -0.18      0.00
  -23   35    5     -0.71      0.00
  -11   35    2     -4.08      0.00
  -24   35    1     -4.68      0.00
  -24   35    4      2.48      0.00
  -10   35    3     -5.93      0.00
  -10   35    0     -4.20      0.00
  -25   35    3     -2.55      0.00
   -9   35    4      6.60      0.00
   -9   35    1      8.52      0.00
  -26   35    2     -2.15      0.00
   -8   35    2     -3.94      0.00
  -27   35    1     -7.88      0.00
   -7   35    3      1.13      0.00
   -7   35    0     11.06      0.00
  -28   35    3     -4.10      0.00
   -6   35    1      1.43      0.00
  -29   35    2     11.72      0.00
   -5   35    2     -0.25      0.00
  -30   35    1     -5.45      0.00
  -18   36    0     -3.51      0.00
  -18   36    3      9.80      0.00
  -17   36    4     -9.51      0.00
  -17   36    1      1.76      0.00
  -19   36    2      6.34      0.00
  -16   36    2     -1.47      0.00
  -20   36    1    -16.21      0.00
  -20   36    4    -16.30      0.00
  -15   36    3     -4.17      0.00
  -15   36    0      2.62      0.00
  -21   36    3     -3.04      0.00
  -14   36    4     -5.38      0.00
  -14   36    1      1.78      0.00
  -22   36    2     -4.40      0.00
  -13   36    2     -6.65      0.00
  -23   36    1      2.49      0.00
  -23   36    4      4.39      0.00
  -12   36    3      0.91      0.00
  -12   36    0      1.72      0.00
  -24   36    3     -6.09      0.00
  -11   36    1     -0.96      0.00
  -25   36    2      4.45      0.00
  -10   36    2     -0.88      0.00
  -26   36    1      3.69      0.00
   -9   36    0     -9.85      0.00
   -8   36    1      6.76      0.00
  -28   36    2     -1.57      0.00
  -18   37    2     -7.70      0.00
  -19   37    1     -5.77      0.00
  -17   37    3      2.58      0.00
  -17   37    0      9.24      0.00
  -20   37    3     -6.40      0.00
  -16   37    1     -7.05      0.00
  -21   37    2     15.52      0.00
  -15   37    2     -1.85      0.00
  -22   37    1     -2.49      0.00
  -14   37    3      2.97      0.00
  -14   37    0     -9.68      0.00
  -23   37    3     -1.36      0.00
  -13   37    1      0.23      0.00
  -24   37    2      0.41      0.00
  -12   37    2      0.08      0.00
  -25   37    1     -6.61      0.00
  -11   37    0      2.82      0.00
  -19   38    0    -11.70      0.00
  -18   38    1      3.96      0.00
  -21   38    1    -28.95      0.00
  -16   38    0      7.95      0.00
   -1    2    0    223.82      0.00
    0    3    0      9.71      0.00
   -2    4    0     -3.65      0.00
   -4   35    0     -9.91      0.00
   -1   35    0     -4.19      0.00
   -6   36    0     -4.42      0.00
   -3   36    0      2.50      0.00
   -8   37    0     -5.86      0.00
   -5   37    0     -7.91      0.00
  -13   38    0      5.52      0.00
  -10   38    0     -1.17      0.00
   -7   38    0     -2.99      0.00
  -18   39    0      8.03      0.00
  -15   39    0     -8.77      0.00
  -12   39    0      3.59      0.00
   -9   39    0     -0.01      0.00
   -1    1    1   -247.76      0.00
    0    2    1     82.24      0.00
   -2    3    1    154.34      0.00
   -1    4    1     96.80      0.00
  -34   34    1     -5.20      0.00
   -1   34    1     12.17      0.00
  -33   35    1    -11.44      0.00
   -3   35    1      2.94      0.00
    0   35    1      4.05      0.00
  -35   36    1     -3.47      0.00
  -32   36    1      3.08      0.00
  -29   36    1     -8.07      0.00
   -5   36    1      5.17      0.00
   -2   36    1     -6.04      0.00
  -34   37    1     -7.57      0.00
  -31   37    1      5.29      0.00
  -28   37    1      7.35      0.00
  -10   37    1      2.98      0.00
   -7   37    1      1.17      0.00
   -4   37    1     -1.77      0.00
  -33   38    1     -3.31      0.00
  -30   38    1      7.36      0.00
  -27   38    1     -1.88      0.00
  -24   38    1      3.89      0.00
  -15   38    1      3.72      0.00
  -12   38    1     -5.73      0.00
   -9   38    1      0.83      0.00
   -6   38    1     -1.77      0.00
  -29   39    1     -1.28      0.00
  -26   39    1     -4.36      0.00
  -23   39    1     -2.43      0.00
  -20   39    1      0.15      0.00
  -17   39    1    -10.42      0.00
  -14   39    1     -0.25      0.00
  -11   39    1      2.86      0.00
   -8   39    1     -3.46      0.00
  -33   34    2      6.41      0.00
    0   34    2    -17.43      0.00
  -35   35    2      3.87      0.00
  -32   35    2      1.00      0.00
   -2   35    2     -4.60      0.00
  -34   36    2      6.62      0.00
  -31   36    2     -9.83      0.00
   -7   36    2     -4.46      0.00
   -4   36    2      5.40      0.00
   -1   36    2      6.48      0.00
  -33   37    2      2.20      0.00
  -30   37    2     -9.45      0.00
  -27   37    2     -8.00      0.00
   -9   37    2     -4.95      0.00
   -6   37    2      1.72      0.00
   -3   37    2      6.58      0.00
  -32   38    2      3.50      0.00
  -29   38    2     -8.41      0.00
  -26   38    2     -2.97      0.00
  -23   38    2     -3.46      0.00
  -20   38    2     13.99      0.00
  -17   38    2     -1.62      0.00
  -14   38    2     -5.03      0.00
  -11   38    2     -1.37      0.00
   -8   38    2     -2.87      0.00
  -28   39    2     -2.13      0.00
  -25   39    2     -1.28      0.00
  -22   39    2     12.26      0.00
  -19   39    2    -12.29      0.00
  -16   39    2      1.62      0.00
  -13   39    2     -2.43      0.00
  -10   39    2     -2.99      0.00
  -33   33    3     -1.27      0.00
    0   33    3     21.98      0.00
  -32   34    3     -6.67      0.00
   -2   34    3     13.92      0.00
  -34   35    3     -7.25      0.00
  -31   35    3      6.11      0.00
   -4   35    3     -1.38      0.00
   -1   35    3     14.72      0.00
  -33   36    3     -5.85      0.00
  -30   36    3     11.11      0.00
  -27   36    3      3.32      0.00
   -9   36    3     -1.82      0.00
   -6   36    3      3.16      0.00
   -3   36    3      1.95      0.00
  -32   37    3      0.20      0.00
  -29   37    3      7.49      0.00
  -26   37    3      1.57      0.00
  -11   37    3     -3.96      0.00
   -8   37    3      7.21      0.00
   -5   37    3      0.91      0.00
  -31   38    3      1.71      0.00
  -28   38    3      2.87      0.00
  -25   38    3     -0.37      0.00
  -22   38    3     -4.86      0.00
  -19   38    3      2.71      0.00
  -16   38    3      0.38      0.00
  -13   38    3      1.93      0.00
  -10   38    3     -0.90      0.00
   -7   38    3      5.08      0.00
  -27   39    3      5.50      0.00
  -24   39    3     -0.07      0.00
  -21   39    3    -11.18      0.00
  -18   39    3      9.00      0.00
  -15   39    3      1.02      0.00
  -12   39    3      1.02      0.00
    0   32    4      0.10      0.00
  -32   33    4     -2.61      0.00
   -2   33    4      0.66      0.00
  -34   34    4      0.66      0.00
  -31   34    4     -4.28      0.00
   -4   34    4      5.75      0.00
   -1   34    4     -9.15      0.00
  -33   35    4      1.89      0.00
  -30   35    4    -11.13      0.00
  -27   35    4      4.08      0.00
   -6   35    4      5.50      0.00
   -3   35    4      2.58      0.00
  -32   36    4     -1.52      0.00
  -29   36    4     -1.46      0.00
  -26   36    4      3.13      0.00
  -11   36    4     -0.09      0.00
   -8   36    4      3.66      0.00
   -5   36    4      2.36      0.00
  -31   37    4     -4.56      0.00
  -28   37    4      3.99      0.00
  -25   37    4      4.22      0.00
  -22   37    4      0.67      0.00
  -19   37    4    -16.19      0.00
  -16   37    4     -5.73      0.00
  -13   37    4     -7.45      0.00
  -10   37    4      2.03      0.00
   -7   37    4     -4.12      0.00
  -27   38    4      1.16      0.00
  -24   38    4      0.57      0.00
  -21   38    4     -2.45      0.00
  -18   38    4    -10.67      0.00
  -15   38    4     -6.34      0.00
  -12   38    4     -3.02      0.00
   -9   38    4     -0.37      0.00
  -26   39    4     -1.65      0.00
  -23   39    4     -4.80      0.00
  -20   39    4     -0.50      0.00
  -17   39    4     -7.88      0.00
  -14   39    4     -4.31      0.00
    0   31    5      8.48      0.00
  -32   32    5     -0.38      0.00
   -2   32    5      1.73      0.00
  -31   33    5      2.19      0.00
   -4   33    5      2.00      0.00
   -1   33    5      4.24      0.00
  -33   34    5     -4.37      0.00
  -30   34    5      4.98      0.00
  -27   34    5      1.26      0.00
   -6   34    5     -1.76      0.00
   -3   34    5      1.39      0.00
  -32   35    5      0.27      0.00
  -29   35    5      1.43      0.00
  -26   35    5      4.76      0.00
  -11   35    5     -5.19      0.00
   -8   35    5     -6.90      0.00
   -5   35    5     -1.97      0.00
  -31   36    5      4.87      0.00
  -28   36    5     -1.88      0.00
  -25   36    5     -2.85      0.00
  -22   36    5     -6.78      0.00
  -19   36    5     17.19      0.00
  -16   36    5     -0.61      0.00
  -13   36    5     -4.05      0.00
  -10   36    5      2.22      0.00
   -7   36    5     -4.09      0.00
  -27   37    5     -0.13      0.00
  -24   37    5     -2.54      0.00
  -21   37    5      1.70      0.00
  -18   37    5      2.21      0.00
  -15   37    5      2.87      0.00
  -12   37    5      6.37      0.00
   -9   37    5     -0.83      0.00
  -26   38    5      1.41      0.00
  -23   38    5      0.87      0.00
  -20   38    5      2.22      0.00
  -17   38    5      2.17      0.00
  -14   38    5      3.24      0.00
  -11   38    5     -0.56      0.00
  -22   39    5      3.57      0.00
  -19   39    5     -0.99      0.00
  -30   30    6     -1.05      0.00
    0   30    6     -3.75      0.00
  -29   31    6     -0.32      0.00
   -2   31    6      3.84      0.00
  -31   32    6     -4.68      0.00
  -28   32    6      2.49      0.00
   -4   32    6     -1.47      0.00
   -1   32    6     -3.23      0.00
  -33   33    6      3.25      0.00
  -30   33    6     -0.93      0.00
  -27   33    6     -3.06      0.00
   -6   33    6     -1.26      0.00
   -3   33    6     -1.42      0.00
    0   33    6     -0.43      0.00
  -29   34    6      0.23      0.00
  -26   34    6     -6.51      0.00
  -23   34    6      0.75      0.00
  -11   34    6      4.79      0.00
   -8   34    6      1.03      0.00
   -5   34    6     -1.53      0.00
  -28   35    6     -1.12      0.00
  -25   35    6      0.37      0.00
  -22   35    6      4.56      0.00
  -19   35    6      0.11      0.00
  -16   35    6      3.99      0.00
  -13   35    6     11.69      0.00
  -10   35    6     -1.46      0.00
   -7   35    6      4.55      0.00
  -27   36    6     -3.02      0.00
  -24   36    6      6.52      0.00
  -21   36    6      6.51      0.00
  -18   36    6      6.31      0.00
  -15   36    6     -1.75      0.00
  -12   36    6      4.25      0.00
   -9   36    6      0.26      0.00
  -26   37    6      2.37      0.00
  -23   37    6      4.27      0.00
  -20   37    6      0.06      0.00
  -17   37    6      2.12      0.00
  -14   37    6      1.77      0.00
  -11   37    6     -5.20      0.00
  -19   38    6      2.44      0.00
    0   29    7      2.51      0.00
  -29   30    7     -0.42      0.00
   -2   30    7     -1.34      0.00
  -31   31    7      4.25      0.00
  -28   31    7      2.03      0.00
   -4   31    7     -0.27      0.00
   -1   31    7     -1.22      0.00
  -30   32    7      2.05      0.00
  -27   32    7      3.77      0.00
  -24   32    7     -3.91      0.00
   -6   32    7     -2.89      0.00
   -3   32    7     -3.95      0.00
  -29   33    7     -0.49      0.00
  -26   33    7     -0.23      0.00
  -23   33    7      2.05      0.00
  -20   33    7      3.13      0.00
  -11   33    7      6.90      0.00
   -8   33    7     -2.66      0.00
   -5   33    7      0.89      0.00
  -28   34    7     -0.26      0.00
  -25   34    7      1.06      0.00
  -22   34    7      1.23      0.00
  -19   34    7     -2.32      0.00
  -16   34    7     -2.52      0.00
  -13   34    7     -1.06      0.00
  -10   34    7     -3.62      0.00
   -7   34    7      0.52      0.00
  -27   35    7      1.98      0.00
  -24   35    7     -2.38      0.00
  -21   35    7     -0.02      0.00
  -18   35    7    -10.59      0.00
  -15   35    7     -0.67      0.00
  -12   35    7    -12.00      0.00
   -9   35    7     -0.74      0.00
  -23   36    7     -0.90      0.00
  -20   36    7     -1.46      0.00
  -17   36    7     -9.63      0.00
  -14   36    7     -7.45      0.00
  -27   28    8     -1.58      0.00
    0   28    8      1.12      0.00
  -29   29    8      1.44      0.00
  -26   29    8      0.39      0.00
   -2   29    8      1.80      0.00
  -28   30    8     -0.06      0.00
  -25   30    8      0.72      0.00
   -4   30    8      1.26      0.00
   -1   30    8     -0.23      0.00
  -30   31    8      0.83      0.00
  -27   31    8     -2.30      0.00
  -24   31    8      2.31      0.00
  -21   31    8      3.06      0.00
   -9   31    8      3.44      0.00
   -6   31    8      0.70      0.00
   -3   31    8      1.73      0.00
  -26   32    8      2.08      0.00
  -23   32    8     -4.49      0.00
  -20   32    8      0.65      0.00
  -17   32    8     -0.92      0.00
  -14   32    8     15.04      0.00
  -11   32    8     -6.87      0.00
   -8   32    8      3.80      0.00
   -5   32    8      1.51      0.00
  -25   33    8      0.73      0.00
  -22   33    8     -0.16      0.00
  -19   33    8     -4.24      0.00
  -16   33    8     -5.85      0.00
  -13   33    8     -0.67      0.00
  -10   33    8     -1.31      0.00
   -7   33    8     -1.85      0.00
  -24   34    8     -0.44      0.00
  -21   34    8     -5.27      0.00
  -18   34    8      4.48      0.00
  -15   34    8     -2.59      0.00
  -12   34    8     -7.61      0.00
   -9   34    8     -0.56      0.00
  -20   35    8     -0.54      0.00
  -17   35    8      7.92      0.00
  -14   35    8     -3.08      0.00
  -25   26    9      3.32      0.00
   -1   26    9      3.60      0.00
  -27   27    9      1.53      0.00
  -24   27    9      1.82      0.00
   -3   27    9     -0.97      0.00
    0   27    9      0.19      0.00
  -26   28    9     -2.05      0.00
  -23   28    9      1.67      0.00
   -5   28    9     -4.71      0.00
   -2   28    9     -1.74      0.00
  -28   29    9     -0.07      0.00
  -25   29    9      0.09      0.00
  -22   29    9      1.24      0.00
  -19   29    9      2.87      0.00
  -10   29    9      6.88      0.00
   -7   29    9     -0.23      0.00
   -4   29    9     -2.97      0.00
   -1   29    9     -1.89      0.00
  -27   30    9     -2.35      0.00
  -24   30    9     -1.09      0.00
  -21   30    9      3.14      0.00
  -18   30    9      1.05      0.00
  -15   30    9      2.77      0.00
  -12   30    9     -0.57      0.00
   -9   30    9      4.59      0.00
   -6   30    9      2.74      0.00
   -3   30    9     -0.29      0.00
  -26   31    9     -3.72      0.00
  -23   31    9      2.64      0.00
  -20   31    9     -4.10      0.00
  -17   31    9     -4.45      0.00
  -14   31    9      1.99      0.00
  -11   31    9      1.04      0.00
   -8   31    9      0.64      0.00
   -5   31    9     -0.32      0.00
  -22   32    9     -1.22      0.00
  -19   32    9      2.48      0.00
  -16   32    9      4.43      0.00
  -13   32    9     -6.65      0.00
  -10   32    9      0.47      0.00
  -21   33    9      1.89      0.00
  -18   33    9      0.52      0.00
  -15   33    9      4.33      0.00
  -12   33    9      6.08      0.00
  -23   24   10     -4.08      0.00
  -25   25   10     -4.45      0.00
  -22   25   10     -7.28      0.00
   -1   25   10      4.51      0.00
  -24   26   10     -2.62      0.00
  -21   26   10     -2.49      0.00
   -6   26   10     -1.20      0.00
   -3   26   10     -2.27      0.00
    0   26   10     -0.22      0.00
  -26   27   10      2.18      0.00
  -23   27   10     -3.72      0.00
  -20   27   10     -0.89      0.00
  -17   27   10      3.88      0.00
  -14   27   10      4.17      0.00
  -11   27   10      5.96      0.00
   -8   27   10      5.91      0.00
   -5   27   10      1.68      0.00
   -2   27   10      2.62      0.00
  -25   28   10      0.71      0.00
  -22   28   10      1.90      0.00
  -19   28   10     -5.90      0.00
  -16   28   10      1.29      0.00
  -13   28   10      2.27      0.00
  -10   28   10      3.62      0.00
   -7   28   10      5.29      0.00
   -4   28   10      5.89      0.00
  -24   29   10     -1.29      0.00
  -21   29   10     -3.91      0.00
  -18   29   10     -3.51      0.00
  -15   29   10      6.07      0.00
  -12   29   10     -2.94      0.00
   -9   29   10     -2.69      0.00
   -6   29   10      0.64      0.00
  -20   30   10     -2.17      0.00
  -17   30   10      2.28      0.00
  -14   30   10     -3.51      0.00
  -11   30   10     -1.32      0.00
   -8   30   10     -3.47      0.00
  -19   31   10      0.11      0.00
  -16   31   10      3.61      0.00
  -13   31   10      2.08      0.00
  -21   22   11     -2.80      0.00
   -3   22   11      9.06      0.00
    0   22   11      5.02      0.00
  -23   23   11     -1.34      0.00
  -20   23   11     -3.19      0.00
  -17   23   11     -1.57      0.00
   -5   23   11      1.98      0.00
   -2   23   11      8.03      0.00
  -22   24   11      0.65      0.00
  -19   24   11     -0.36      0.00
  -16   24   11      4.34      0.00
  -13   24   11      0.40      0.00
  -10   24   11      2.48      0.00
   -7   24   11      0.92      0.00
   -4   24   11      5.53      0.00
   -1   24   11      0.81      0.00
  -24   25   11     -0.57      0.00
  -21   25   11      5.15      0.00
  -18   25   11      0.96      0.00
  -15   25   11      1.85      0.00
  -12   25   11      0.02      0.00
   -9   25   11      7.00      0.00
   -6   25   11      3.60      0.00
   -3   25   11      6.51      0.00
  -23   26   11     -0.18      0.00
  -20   26   11      1.86      0.00
  -17   26   11      0.83      0.00
  -14   26   11      3.61      0.00
  -11   26   11      1.34      0.00
   -8   26   11      0.99      0.00
   -5   26   11      5.69      0.00
  -22   27   11     -1.16      0.00
  -19   27   11      3.66      0.00
  -16   27   11      2.80      0.00
  -13   27   11     -1.26      0.00
  -10   27   11     -1.43      0.00
   -7   27   11     -0.52      0.00
  -18   28   11      2.28      0.00
  -15   28   11      0.02      0.00
  -12   28   11      0.40      0.00
   -9   28   11     -1.46      0.00
  -18   18   12      2.24      0.00
    0   18   12      6.57      0.00
  -17   19   12      3.91      0.00
   -2   19   12      7.29      0.00
  -19   20   12     -4.98      0.00
  -16   20   12      1.68      0.00
  -13   20   12     -4.36      0.00
  -10   20   12    -10.77      0.00
   -7   20   12      3.48      0.00
   -4   20   12      1.97      0.00
   -1   20   12     -0.83      0.00
  -21   21   12     -7.02      0.00
  -18   21   12      4.46      0.00
  -15   21   12     -1.27      0.00
  -12   21   12     -4.39      0.00
   -9   21   12    -10.09      0.00
   -6   21   12      7.53      0.00
   -3   21   12     -3.92      0.00
    0   21   12     -5.08      0.00
  -20   22   12     -0.15      0.00
  -17   22   12      1.98      0.00
  -14   22   12     -1.34      0.00
  -11   22   12     -5.82      0.00
   -8   22   12      5.53      0.00
   -5   22   12     -0.70      0.00
   -2   22   12     -4.54      0.00
  -19   23   12      3.55      0.00
  -16   23   12     -4.01      0.00
  -13   23   12      1.13      0.00
  -10   23   12      1.42      0.00
   -7   23   12      1.95      0.00
   -4   23   12      0.79      0.00
  -18   24   12     -0.03      0.00
  -15   24   12     -1.89      0.00
  -12   24   12      0.82      0.00
   -9   24   12     -1.21      0.00
   -6   24   12      1.03      0.00
  -17   25   12     -2.75      0.00
  -14   25   12     -1.69      0.00
  -11   25   12      1.00      0.00
   -8   25   12     -2.73      0.00
  -13   13   13    -11.18      0.00
  -12   14   13      0.90      0.00
   -3   14   13     -0.98      0.00
    0   14   13      1.17      0.00
  -14   15   13      6.09      0.00
  -11   15   13      1.88      0.00
   -8   15   13     -3.51      0.00
   -5   15   13     -8.56      0.00
   -2   15   13      0.25      0.00
  -16   16   13     -4.51      0.00
  -13   16   13      2.28      0.00
  -10   16   13     -0.14      0.00
   -7   16   13     -2.95      0.00
   -4   16   13     -2.81      0.00
   -1   16   13      6.45      0.00
  -15   17   13     -5.93      0.00
  -12   17   13     -2.95      0.00
   -9   17   13      4.04      0.00
   -6   17   13     -6.69      0.00
   -3   17   13      1.52      0.00
    0   17   13      0.03      0.00
  -17   18   13     -8.81      0.00
  -14   18   13     -7.77      0.00
  -11   18   13      0.97      0.00
   -8   18   13     -0.38      0.00
   -5   18   13      0.51      0.00
   -2   18   13     -3.84      0.00
  -16   19   13     -4.27      0.00
  -13   19   13     -3.52      0.00
  -10   19   13      1.68      0.00
   -7   19   13      2.76      0.00
   -4   19   13     -1.46      0.00
   -1   19   13     -5.60      0.00
  -15   20   13      0.67      0.00
  -12   20   13      0.07      0.00
   -9   20   13      7.00      0.00
   -6   20   13     -2.69      0.00
   -3   20   13     -1.92      0.00
  -14   21   13      0.59      0.00
  -11   21   13      2.81      0.00
   -8   21   13      1.37      0.00
    0    1   14      9.07      0.00
   -3    4   14      2.35      0.00
    0    4   14      6.69      0.00
   -5    5   14      1.95      0.00
   -2    5   14      7.76      0.00
   -4    6   14      6.56      0.00
   -1    6   14      2.62      0.00
   -6    7   14      2.51      0.00
   -3    7   14      4.32      0.00
    0    7   14     -1.33      0.00
   -8    8   14     -3.87      0.00
   -5    8   14      0.51      0.00
   -2    8   14     -2.73      0.00
   -7    9   14     -6.04      0.00
   -4    9   14      0.77      0.00
   -1    9   14      5.47      0.00
   -9   10   14     -3.42      0.00
   -6   10   14     -5.14      0.00
   -3   10   14     -0.50      0.00
    0   10   14      6.93      0.00
  -11   11   14      6.24      0.00
   -8   11   14     -6.65      0.00
   -5   11   14     -1.11      0.00
   -2   11   14      2.58      0.00
  -10   12   14     -3.75      0.00
   -7   12   14     -0.36      0.00
   -4   12   14     -1.12      0.00
   -1   12   14     -4.44      0.00
  -12   13   14     -0.12      0.00
   -9   13   14     -2.13      0.00
   -6   13   14     -1.78      0.00
   -3   13   14      1.31      0.00
    0   13   14     -1.63      0.00
  -14   14   14     -2.92      0.00
  -11   14   14     -9.92      0.00
   -8   14   14      6.87      0.00
   -5   14   14      1.43      0.00
   -2   14   14     -0.02      0.00
  -13   15   14     -7.22      0.00
  -10   15   14      0.16      0.00
   -7   15   14     -1.20      0.00
   -4   15   14      5.42      0.00
   -9   16   14     -1.95      0.00
   -6   16   14      3.47      0.00
    0    0   15      4.48      0.00
   -1    2   15      5.43      0.00
   -3    3   15      5.58      0.00
    0    3   15      5.34      0.00
   -2    4   15      2.34      0.00
   -4    5   15      2.85      0.00
   -1    5   15      4.35      0.00
   -6    6   15      3.21      0.00
   -3    6   15     -1.51      0.00
    0    6   15      3.75      0.00
   -5    7   15      0.39      0.00
   -2    7   15      0.87      0.00
    0    0    0      0.00      0.00
# SQUEEZE RESULTS (Version = 300118)
# Note: Data are Listed for all Voids in the P1 Unit Cell
# i.e. Centre of Gravity, Solvent Accessible Volume,
# Recovered number of Electrons in the Void and
# Details about the Squeezed Material
loop_
  _platon_squeeze_void_nr
  _platon_squeeze_void_average_x
  _platon_squeeze_void_average_y
  _platon_squeeze_void_average_z
  _platon_squeeze_void_volume
  _platon_squeeze_void_count_electrons
  _platon_squeeze_void_content
   1 -0.000 -0.000 -0.020      1435       253 ' '
   2  0.333  0.667  0.167      1440       254 ' '
   3  0.667  0.333  0.834      1439       254 ' '
# Missing Reflections Below sin(th)/lambda = 0.25
loop_
  _platon_missing_refln_index_h
  _platon_missing_refln_index_k
  _platon_missing_refln_index_l
  _platon_missing_refln_theta
   -1    2    0     1.283
    0    3    0     2.222
   -2    4    0     2.566
   -1    1    1     1.896
    0    2    1     2.290
   -2    3    1     2.625
   -1    4    1     3.192
_platon_squeeze_void_probe_radius                  1.20
_platon_squeeze_details
)
TITL al55rrrr in R-3m; 130K; Xcalibur
CELL   31.7477   31.7477   11.6653     90.00     90.00    120.00
SPGR R-3m
# Solvent Accessible Volume =      4315
# Electrons Found in S.A.V. =       746
# Note: Atoms in Void are Labelled as Cxxx and Qxxx for all Others
C101 0.533 0.638 0.233 !       1.72 eA-3
C102 1.001 1.002 0.092 !       1.61 eA-3
C103 0.685 0.343 0.203 !       1.38 eA-3
C104 0.344 0.868 0.142 !       1.36 eA-3
C105 0.007 0.992 0.268 !       1.28 eA-3
C106 0.665 0.328 0.536 !       1.26 eA-3
Q107 1.001 0.406-0.004 !       1.12 eA-3
C108 0.703 0.353 0.673 !       1.08 eA-3
C109 0.989 0.017 0.163 !       1.05 eA-3
Q110 0.120 0.461 0.736 !       1.00 eA-3
C111 0.543 0.661 0.159 !       1.00 eA-3
C112 0.431 0.541 0.235 !       0.94 eA-3
C113 0.517 0.376 0.949 !       0.93 eA-3
C114 0.938 0.750 0.426 !       0.93 eA-3
C115 0.649 0.296 0.130 !       0.92 eA-3
C116 0.428 0.570 0.049 !       0.88 eA-3
C117 0.750 0.250 0.749 !       0.87 eA-3
C118 0.387 0.687 0.411 !       0.86 eA-3
C119 0.649 0.353 0.404 !       0.86 eA-3
C120 1.000 0.998 0.360 !       0.83 eA-3
Q121 0.079 0.891 0.207 !       0.82 eA-3
C122 0.657 0.313 0.320 !       0.82 eA-3
C123 0.194 0.103 0.618 !       0.82 eA-3
C124 0.260 0.428 0.095 !       0.81 eA-3
C125 0.693 0.508 0.693 !       0.81 eA-3
C126 0.300 0.672 0.918 !       0.79 eA-3
C127 0.282 0.720 0.139 !       0.76 eA-3
C128 0.858 0.430 0.904 !       0.75 eA-3
Q129 0.951 0.149 0.068 !       0.74 eA-3
Q130 0.783 0.571 0.285 !       0.72 eA-3
C131 0.234 0.437 0.177 !       0.72 eA-3
C132 0.070 0.134 0.466 !       0.71 eA-3
C133 0.674 0.500 0.696 !       0.70 eA-3
C134 0.775 0.898 0.422 !       0.70 eA-3
C135 0.373 0.790 0.240 !       0.69 eA-3
C136 0.046 0.955 0.267 !       0.68 eA-3
Q137 0.477 0.954 0.157 !       0.67 eA-3
Q138 0.245 0.236 0.446 !       0.67 eA-3
C139 0.844 0.423 0.029 !       0.67 eA-3
C140 0.271 0.533 0.131 !       0.66 eA-3
C141 0.983 0.197 0.361 !       0.65 eA-3
C142 0.646 0.355 0.004 !       0.65 eA-3
C143 0.391 0.781 0.035 !       0.65 eA-3
C144 0.134 0.093 0.604 !       0.64 eA-3
C145 0.219 0.492 0.310 !       0.64 eA-3
C146 0.095 0.078 0.371 !       0.63 eA-3
C147 0.398 0.866 0.109 !       0.62 eA-3
C148 0.717 0.408 0.545 !       0.60 eA-3
C149 0.400 0.531 0.258 !       0.59 eA-3
Q150 0.298 0.705 0.858 !       0.58 eA-3
C151 0.958 0.993 0.073 !       0.58 eA-3
C152 0.312 0.524 0.312 !       0.58 eA-3
C153 0.250 0.164 0.485 !       0.58 eA-3
C154 0.538 0.741 0.295 !       0.58 eA-3
C155 0.404 0.592 0.285 !       0.55 eA-3
C156 0.678 0.499 0.756 !       0.55 eA-3
C157 0.595 0.297 0.955 !       0.55 eA-3
Q158 0.439 0.477 0.497 !       0.54 eA-3
C159 0.596 0.300 0.469 !       0.54 eA-3
Q160 0.149 0.007 0.313 !       0.54 eA-3
Q161 0.139 0.399 0.190 !       0.53 eA-3
C162 0.077 0.539 0.127 !       0.52 eA-3
Q163 0.835 0.311 0.312 !       0.52 eA-3
C164 0.875 0.751 0.441 !       0.52 eA-3
Q165 0.774 0.549 0.218 !       0.51 eA-3
C166 0.602 0.453 0.051 !       0.50 eA-3
)
;
_shelx_fab_checksum              639
loop_
_space_group_symop_operation_xyz
'x, y, z'
'-y, x-y, z'
'-x+y, -x, z'
'y, x, -z'
'x-y, -y, -z'
'-x, -x+y, -z'
'x+2/3, y+1/3, z+1/3'
'-y+2/3, x-y+1/3, z+1/3'
'-x+y+2/3, -x+1/3, z+1/3'
'y+2/3, x+1/3, -z+1/3'
'x-y+2/3, -y+1/3, -z+1/3'
'-x+2/3, -x+y+1/3, -z+1/3'
'x+1/3, y+2/3, z+2/3'
'-y+1/3, x-y+2/3, z+2/3'
'-x+y+1/3, -x+2/3, z+2/3'
'y+1/3, x+2/3, -z+2/3'
'x-y+1/3, -y+2/3, -z+2/3'
'-x+1/3, -x+y+2/3, -z+2/3'
'-x, -y, -z'
'y, -x+y, -z'
'x-y, x, -z'
'-y, -x, z'
'-x+y, y, z'
'x, x-y, z'
'-x+2/3, -y+1/3, -z+1/3'
'y+2/3, -x+y+1/3, -z+1/3'
'x-y+2/3, x+1/3, -z+1/3'
'-y+2/3, -x+1/3, z+1/3'
'-x+y+2/3, y+1/3, z+1/3'
'x+2/3, x-y+1/3, z+1/3'
'-x+1/3, -y+2/3, -z+2/3'
'y+1/3, -x+y+2/3, -z+2/3'
'x-y+1/3, x+2/3, -z+2/3'
'-y+1/3, -x+2/3, z+2/3'
'-x+y+1/3, y+2/3, z+2/3'
'x+1/3, x-y+2/3, z+2/3'
loop_
_atom_site_label
_atom_site_type_symbol
_atom_site_fract_x
_atom_site_fract_y
_atom_site_fract_z
_atom_site_U_iso_or_equiv
_atom_site_adp_type
_atom_site_occupancy
_atom_site_site_symmetry_order
_atom_site_calc_flag
_atom_site_refinement_flags_posn
_atom_site_refinement_flags_adp
_atom_site_refinement_flags_occupancy
_atom_site_disorder_assembly
_atom_site_disorder_group
Zn1 Zn 0.78700(2) 0.57401(3) 0.36396(8) 0.0770(4) Uani 1 2 d DS T P . .
Zn2 Zn 0.6661(2) 0.52946(14) 0.3495(7) 0.0995(14) Uani 0.5 1 d D U P A -1
O11 O 0.75701(15) 0.60129(17) 0.4749(4) 0.1056(13) Uani 1 1 d D U . . .
O12 O 0.6758(3) 0.5755(4) 0.4700(9) 0.098(2) Uani 0.5 1 d D U P . .
O12' O 0.6821(3) 0.5776(5) 0.4393(9) 0.101(3) Uani 0.5 1 d D U P . .
C11 C 0.71899(17) 0.6017(2) 0.4989(5) 0.0896(14) Uani 1 1 d D U . . .
C12 C 0.72421(19) 0.6380(2) 0.5915(5) 0.0896(15) Uani 1 1 d . U . . .
C13 C 0.6899(2) 0.6489(3) 0.6233(4) 0.099(2) Uani 1 1 d . . . . .
H13 H 0.658147 0.634475 0.591619 0.118 Uiso 1 1 calc R U . . .
S1 S 0.77606(6) 0.666667 0.666667 0.0872(7) Uani 1 2 d S T P . .
N1 N 0.81603(9) 0.63206(19) 0.2436(4) 0.0638(13) Uani 1 2 d DS TU P . .
C1 C 0.7881(3) 0.6170(4) 0.1365(8) 0.099(3) Uani 0.5 1 d D U P . .
H1A H 0.753257 0.604109 0.154125 0.119 Uiso 0.5 1 calc R U P A .
H1B H 0.791395 0.590443 0.101281 0.119 Uiso 0.5 1 calc R U P . .
C2 C 0.8670(3) 0.6494(4) 0.2195(8) 0.083(2) Uani 0.5 1 d D U P . .
H2A H 0.871701 0.621404 0.204450 0.099 Uiso 0.5 1 calc R U P A .
H2B H 0.886800 0.667082 0.287143 0.099 Uiso 0.5 1 calc R U P . .
C3 C 0.8123(4) 0.6739(3) 0.2847(9) 0.090(3) Uani 0.5 1 d D U P . .
H3A H 0.828031 0.684401 0.360615 0.108 Uiso 0.5 1 calc R U P A .
H3B H 0.777625 0.664546 0.292771 0.108 Uiso 0.5 1 calc R U P . .
O1M O 0.7217(2) 0.5203(3) 0.3287(10) 0.105(2) Uani 0.5 1 d D U P A -1
O2M O 0.8047(3) 0.5315(3) 0.2747(8) 0.093(3) Uani 0.5 1 d D U P A -1
C1M C 0.7247(5) 0.4801(5) 0.2756(14) 0.112(4) Uani 0.5 1 d . U P A -1
H1M1 H 0.720656 0.456375 0.335835 0.134 Uiso 0.5 1 calc R U P A -1
H1M2 H 0.697486 0.463327 0.220714 0.134 Uiso 0.5 1 calc R U P A -1
C2M C 0.7698(6) 0.4952(6) 0.2162(14) 0.106(3) Uani 0.5 1 d . U P A -1
H2M1 H 0.776309 0.467765 0.211262 0.127 Uiso 0.5 1 calc R U P A -1
H2M2 H 0.768164 0.505833 0.137431 0.127 Uiso 0.5 1 calc R U P A -1
loop_
_atom_site_aniso_label
_atom_site_aniso_U_11
_atom_site_aniso_U_22
_atom_site_aniso_U_33
_atom_site_aniso_U_23
_atom_site_aniso_U_13
_atom_site_aniso_U_12
Zn1 0.0604(5) 0.0762(6) 0.0997(7) -0.0048(4) -0.0024(2) 0.0381(3)
Zn2 0.0505(6) 0.1223(18) 0.122(4) 0.0187(17) -0.0027(14) 0.0404(14)
O11 0.074(2) 0.130(3) 0.108(3) -0.012(2) 0.0105(19) 0.047(2)
O12 0.064(3) 0.140(4) 0.096(4) 0.006(4) 0.013(3) 0.056(3)
O12' 0.065(3) 0.137(4) 0.101(4) 0.002(4) 0.009(3) 0.050(3)
C11 0.065(3) 0.123(3) 0.091(3) 0.017(3) 0.007(2) 0.054(3)
C12 0.064(3) 0.134(4) 0.089(3) 0.031(3) 0.017(2) 0.063(3)
C13 0.068(3) 0.159(6) 0.086(4) 0.014(4) 0.006(3) 0.070(4)
S1 0.0681(8) 0.1260(18) 0.0868(12) 0.0004(11) 0.0002(6) 0.0630(9)
N1 0.0494(19) 0.065(3) 0.082(3) -0.014(2) -0.0071(12) 0.0326(15)
C1 0.082(5) 0.080(5) 0.095(5) 0.004(4) -0.012(4) 0.010(4)
C2 0.060(4) 0.081(5) 0.107(5) 0.014(4) 0.003(4) 0.036(4)
C3 0.091(5) 0.075(5) 0.097(5) -0.002(4) 0.014(4) 0.037(4)
O1M 0.068(3) 0.106(4) 0.132(5) -0.002(4) 0.015(3) 0.038(3)
O2M 0.089(5) 0.079(4) 0.118(6) -0.002(4) 0.000(4) 0.047(4)
C1M 0.089(5) 0.098(6) 0.139(7) -0.001(5) -0.004(5) 0.039(5)
C2M 0.094(5) 0.093(6) 0.136(7) -0.001(5) 0.002(5) 0.051(5)
loop_
_atom_type_symbol
_atom_type_description
_atom_type_scat_dispersion_real
_atom_type_scat_dispersion_imag
_atom_type_scat_source
C C 0.0033 0.0016 'International Tables Vol C Tables 4.2.6.8 and 6.1.1.4'
H H 0.0000 0.0000 'International Tables Vol C Tables 4.2.6.8 and 6.1.1.4'
N N 0.0061 0.0033 'International Tables Vol C Tables 4.2.6.8 and 6.1.1.4'
O O 0.0106 0.0060 'International Tables Vol C Tables 4.2.6.8 and 6.1.1.4'
S S 0.1246 0.1234 'International Tables Vol C Tables 4.2.6.8 and 6.1.1.4'
Zn Zn 0.2839 1.4301 'International Tables Vol C Tables 4.2.6.8 and 6.1.1.4'
loop_
_geom_angle_atom_site_label_1
_geom_angle_atom_site_label_2
_geom_angle_atom_site_label_3
_geom_angle
_geom_angle_site_symmetry_1
_geom_angle_site_symmetry_3
O11 Zn1 O11 85.6(2) 23_655 .
O11 Zn1 N1 98.22(16) . .
O11 Zn1 N1 98.22(16) 23_655 .
O1M Zn1 O11 89.3(3) . .
O1M Zn1 O11 146.5(3) . 23_655
O1M Zn1 N1 115.3(3) . .
O1M Zn1 O2M 80.5(3) . .
O2M Zn1 O11 97.2(3) . 23_655
O2M Zn1 O11 165.5(3) . .
O2M Zn1 N1 95.5(3) . .
O12 Zn2 O12' 96.8(3) . 18_655
O12 Zn2 O1M 113.0(5) . .
O1M Zn2 O12' 117.9(6) . 18_655
O2M Zn2 O12 104.1(5) 33_545 .
O2M Zn2 O12' 108.2(5) 33_545 18_655
O2M Zn2 O1M 114.6(4) 33_545 .
C11 O11 Zn1 143.9(4) . .
Zn2 O12 Zn2 6.9(3) . 18_655
C11 O12 Zn2 112.8(7) . 18_655
C11 O12 Zn2 114.1(7) . .
C11 O12' Zn2 132.4(9) . 18_655
O11 C11 C12 115.3(5) . .
O12 C11 O11 133.0(8) . .
O12 C11 C12 111.4(6) . .
O12' C11 O11 119.1(8) . .
O12' C11 O12 18.5(8) . .
O12' C11 C12 125.1(7) . .
C11 C12 S1 119.1(4) . .
C13 C12 C11 126.2(5) . .
C13 C12 S1 114.6(5) . .
C12 C13 C13 110.6(4) . 11_566
C12 C13 H13 124.7 . .
C13 C13 H13 124.7 11_566 .
C12 S1 C12 89.5(4) . 11_566
C1 N1 Zn1 110.5(5) . .
C1 N1 Zn1 110.5(5) 23_655 .
C1 N1 C1 52.4(9) 23_655 .
C1 N1 C3 105.2(6) . .
C1 N1 C3 105.2(6) 23_655 23_655
C1 N1 C3 137.1(6) . 23_655
C1 N1 C3 137.1(6) 23_655 .
C2 N1 Zn1 112.0(3) . .
C2 N1 Zn1 112.0(3) 23_655 .
C2 N1 C1 61.3(6) . 23_655
C2 N1 C1 61.3(6) 23_655 .
C2 N1 C1 109.7(6) . .
C2 N1 C1 109.7(6) 23_655 23_655
C2 N1 C2 135.1(7) . 23_655
C2 N1 C3 46.7(6) . 23_655
C2 N1 C3 46.7(6) 23_655 .
C2 N1 C3 107.3(7) . .
C2 N1 C3 107.3(7) 23_655 23_655
C3 N1 Zn1 111.8(5) . .
C3 N1 Zn1 111.8(5) 23_655 .
C3 N1 C3 64.3(9) 23_655 .
N1 C1 H1A 109.0 . .
N1 C1 H1B 109.0 . .
N1 C1 C2 90.4(6) . 25_665
N1 C1 C3 112.8(7) . 11_565
H1A C1 H1B 107.8 . .
C2 C1 H1A 92.4 25_665 .
C2 C1 H1B 144.6 25_665 .
C3 C1 H1A 109.0 11_565 .
C3 C1 H1B 109.0 11_565 .
C3 C1 C2 35.7(6) 11_565 25_665
N1 C2 C1 90.5(5) . 25_665
N1 C2 C2 110.7(4) . 11_565
N1 C2 H2A 109.5 . .
N1 C2 H2B 109.5 . .
C1 C2 H2A 155.4 25_665 .
C1 C2 H2B 77.0 25_665 .
C2 C2 C1 47.9(6) 11_565 25_665
C2 C2 H2A 109.5 11_565 .
C2 C2 H2B 109.5 11_565 .
H2A C2 H2B 108.1 . .
N1 C3 C1 109.0(7) . 11_565
N1 C3 H2B 112.0(9) . 23_655
N1 C3 H3A 109.9 . .
N1 C3 H3B 109.9 . .
C1 C3 H2B 104.9(9) 11_565 23_655
C1 C3 H3A 109.9 11_565 .
C1 C3 H3B 109.9 11_565 .
H3A C3 H2B 111.2 . 23_655
H3A C3 H3B 108.3 . .
H3B C3 H2B 5.1 . 23_655
Zn2 O1M Zn1 119.2(5) . .
C1M O1M Zn1 110.2(7) . .
C1M O1M Zn2 130.1(7) . .
Zn2 O2M Zn1 118.5(5) 32 .
C2M O2M Zn1 117.6(8) . .
C2M O2M Zn2 120.4(7) . 32
O1M C1M H1M1 108.8 . .
O1M C1M H1M2 108.8 . .
H1M1 C1M H1M2 107.7 . .
C2M C1M O1M 113.7(13) . .
C2M C1M H1M1 108.8 . .
C2M C1M H1M2 108.8 . .
O2M C2M C1M 107.6(13) . .
O2M C2M H2M1 110.2 . .
O2M C2M H2M2 110.2 . .
C1M C2M H2M1 110.2 . .
C1M C2M H2M2 110.2 . .
H2M1 C2M H2M2 108.5 . .
loop_
_geom_bond_atom_site_label_1
_geom_bond_atom_site_label_2
_geom_bond_distance
_geom_bond_site_symmetry_2
_geom_bond_publ_flag
Zn1 O11 2.038(4) . yes
Zn1 O11 2.038(4) 23_655 ?
Zn1 N1 2.126(6) . yes
Zn1 O1M 1.961(6) . yes
Zn1 O2M 1.996(6) . yes
Zn2 O12 1.938(8) . yes
Zn2 O12' 1.954(7) 18_655 yes
Zn2 O1M 1.942(6) . yes
Zn2 O2M 1.932(6) 33_545 yes
O11 C11 1.246(5) . ?
O12 C11 1.244(8) . ?
O12' C11 1.243(8) . ?
C11 C12 1.525(9) . ?
C12 C13 1.348(8) . ?
C12 S1 1.676(6) . ?
C13 C13 1.408(13) 11_566 ?
C13 H13 0.9500 . ?
N1 C1 1.467(8) . ?
N1 C1 1.467(8) 23_655 ?
N1 C2 1.451(8) . ?
N1 C2 1.451(8) 23_655 ?
N1 C3 1.472(8) . ?
N1 C3 1.472(8) 23_655 ?
C1 H1A 0.9900 . ?
C1 H1B 0.9900 . ?
C1 C2 1.982(16) 25_665 ?
C1 C3 1.558(13) 11_565 ?
C2 C2 1.554(13) 11_565 ?
C2 H2A 0.9900 . ?
C2 H2B 0.9900 . ?
C3 H3A 0.9900 . ?
C3 H3B 0.9900 . ?
O1M C1M 1.463(16) . ?
O2M C2M 1.321(16) . ?
C1M H1M1 0.9900 . ?
C1M H1M2 0.9900 . ?
C1M C2M 1.442(17) . ?
C2M H2M1 0.9900 . ?
C2M H2M2 0.9900 . ?
