#------------------------------------------------------------------------------
#$Date: 2019-11-02 08:09:33 +0200 (Sat, 02 Nov 2019) $
#$Revision: 221049 $
#$URL: file:///home/coder/svn-repositories/cod/cif/4/12/78/4127889.cif $
#------------------------------------------------------------------------------
#
# This file is available in the Crystallography Open Database (COD),
# http://www.crystallography.net/
#
# All data on this site have been placed in the public domain by the
# contributors.
#
data_4127889
loop_
_publ_author_name
'Lysova, Anna A.'
'Samsonenko, Denis G.'
'Dorovatovskii, Pavel V.'
'Lazarenko, Vladimir A.'
'Khrustalev, Victor N.'
'Kovalenko, Konstantin A.'
'Dybtsev, Danil N.'
'Fedin, Vladimir P.'
_publ_section_title
;
 Tuning the Molecular and Cationic Affinity in a Series of Multifunctional
 Metal-Organic Frameworks Based on Dodecanuclear Zn(II) Carboxylate
 Wheels.
;
_journal_issue                   43
_journal_name_full               'Journal of the American Chemical Society'
_journal_page_first              17260
_journal_page_last               17269
_journal_paper_doi               10.1021/jacs.9b08322
_journal_volume                  141
_journal_year                    2019
_chemical_formula_sum            'C33.1 H51.9 N3.7 O15.7 S2 Zn4'
_chemical_formula_weight         1078.48
_space_group_crystal_system      trigonal
_space_group_IT_number           166
_space_group_name_Hall           '-R 3 2"'
_space_group_name_H-M_alt        'R -3 m :H'
_symmetry_space_group_name_Hall  '-R 3 2"'
_symmetry_space_group_name_H-M   'R -3 m :H'
_atom_sites_solution_hydrogens   geom
_atom_sites_solution_primary     dual
_atom_sites_solution_secondary   difmap
_audit_creation_method           SHELXL-2018/3
_cell_angle_alpha                90
_cell_angle_beta                 90
_cell_angle_gamma                120
_cell_formula_units_Z            9
_cell_length_a                   32.0583(8)
_cell_length_b                   32.0583(8)
_cell_length_c                   11.5030(3)
_cell_measurement_reflns_used    4958
_cell_measurement_temperature    130(2)
_cell_measurement_theta_max      29.38
_cell_measurement_theta_min      3.83
_cell_volume                     10238.2(4)
_computing_cell_refinement       'CrysAlisPro 1.171.38.46 (Rigaku OD, 2015)'
_computing_data_collection       'CrysAlisPro 1.171.38.46 (Rigaku OD, 2015)'
_computing_data_reduction        'CrysAlisPro 1.171.38.46 (Rigaku OD, 2015)'
_computing_molecular_graphics    'ShelXle (H\"ubschle, 2011)'
_computing_publication_material  'CIFTAB (Sheldrick, 2015)'
_computing_structure_refinement  'SHELXL-2018 (Sheldrick, 2015)'
_computing_structure_solution    'SHELXT-2018 (Sheldrick, 2015)'
_diffrn_ambient_temperature      130(2)
_diffrn_detector                 'CCD plate'
_diffrn_detector_area_resol_mean 10.6168
_diffrn_detector_type            AtlasS2
_diffrn_measured_fraction_theta_full 0.996
_diffrn_measured_fraction_theta_max 0.885
_diffrn_measurement_device       'four-circle diffractometer'
_diffrn_measurement_device_type  'New Xcalibur, AtlasS2'
_diffrn_measurement_method       '\w scans'
_diffrn_radiation_monochromator  graphite
_diffrn_radiation_probe          x-ray
_diffrn_radiation_source         'fine-focus sealed tube'
_diffrn_radiation_type           MoK\a
_diffrn_radiation_wavelength     0.71073
_diffrn_reflns_av_R_equivalents  0.0154
_diffrn_reflns_av_unetI/netI     0.0154
_diffrn_reflns_Laue_measured_fraction_full 0.996
_diffrn_reflns_Laue_measured_fraction_max 0.885
_diffrn_reflns_limit_h_max       30
_diffrn_reflns_limit_h_min       -43
_diffrn_reflns_limit_k_max       42
_diffrn_reflns_limit_k_min       -31
_diffrn_reflns_limit_l_max       14
_diffrn_reflns_limit_l_min       -15
_diffrn_reflns_number            9837
_diffrn_reflns_point_group_measured_fraction_full 0.996
_diffrn_reflns_point_group_measured_fraction_max 0.885
_diffrn_reflns_theta_full        25.242
_diffrn_reflns_theta_max         29.498
_diffrn_reflns_theta_min         3.363
_diffrn_source                   'sealed X-ray tube'
_exptl_absorpt_coefficient_mu    2.242
_exptl_absorpt_correction_T_max  1.00000
_exptl_absorpt_correction_T_min  0.87315
_exptl_absorpt_correction_type   multi-scan
_exptl_absorpt_process_details
;
CrysAlisPro 1.171.38.46 (Rigaku Oxford Diffraction, 2015)
Empirical absorption correction using spherical harmonics,
implemented in SCALE3 ABSPACK scaling algorithm.
;
_exptl_crystal_colour            colorless
_exptl_crystal_density_diffrn    1.574
_exptl_crystal_description       block
_exptl_crystal_F_000             4986
_exptl_crystal_size_max          0.50
_exptl_crystal_size_mid          0.24
_exptl_crystal_size_min          0.20
_refine_diff_density_max         0.430
_refine_diff_density_min         -0.369
_refine_diff_density_rms         0.052
_refine_ls_extinction_method     none
_refine_ls_goodness_of_fit_ref   1.061
_refine_ls_hydrogen_treatment    constr
_refine_ls_matrix_type           full
_refine_ls_number_parameters     150
_refine_ls_number_reflns         2954
_refine_ls_number_restraints     56
_refine_ls_restrained_S_all      1.133
_refine_ls_R_factor_all          0.0345
_refine_ls_R_factor_gt           0.0267
_refine_ls_shift/su_max          0.002
_refine_ls_shift/su_mean         0.000
_refine_ls_structure_factor_coef Fsqd
_refine_ls_weighting_details
'w=1/[\s^2^(Fo^2^)+(0.0385P)^2^+9.7248P] where P=(Fo^2^+2Fc^2^)/3'
_refine_ls_weighting_scheme      calc
_refine_ls_wR_factor_gt          0.0711
_refine_ls_wR_factor_ref         0.0740
_reflns_Friedel_coverage         0.000
_reflns_number_gt                2505
_reflns_number_total             2954
_reflns_threshold_expression     'I > 2\s(I)'
_cod_data_source_file            ja9b08322_si_005.cif
_cod_data_source_block           al57e_sq
_cod_original_cell_volume        10238.2(6)
_cod_database_code               4127889
_shelx_shelxl_version_number     2018/3
_shelx_space_group_comment
;
The symmetry employed for this shelxl refinement is uniquely defined
by the following loop, which should always be used as a source of
symmetry information in preference to the above space-group names.
They are only intended as comments.
;
_shelx_estimated_absorpt_t_min   0.400
_shelx_estimated_absorpt_t_max   0.663
_shelx_res_file
;
TITL al57e in R-3m; 130K; Xcalibur
    al57e_sq.res
    created by SHELXL-2018/3 at 15:17:00 on 23-Jul-2018
CELL  0.71073  32.0583  32.0583  11.5030   90.000   90.000  120.000
ZERR    9.000   0.0008   0.0008   0.0003    0.000    0.000    0.000
LATT  3
SYMM -Y, X-Y, Z
SYMM -X+Y, -X, Z
SYMM Y, X, -Z
SYMM X-Y, -Y, -Z
SYMM -X, -X+Y, -Z
SFAC C     H     N    O     S  ZN
UNIT 297.9 467.1 33.3 141.3 18 36
 
LIST 4 ! automatically inserted. Change 6 to 4 for CHECKCIF!!
TEMP -143
 
L.S. 6 0 19
BOND $H
FMAP 2
PLAN 5
 
SIMU 0.01 0.02 O1S > C4S'
 
EQIV $1 +x, 1+x-y, +z
EQIV $2 1-y, 1-x, +z
EQIV $3 4/3-x, 5/3-y, 2/3-z
EQIV $4 4/3-x, 2/3-x+y, 2/3-z
 
FREE C3S C3S_$1
FREE C4S C4S_$2
FREE C4S' C4S'_$2
 
SADI 0.01 C3S C4S  C3S C4S'
 
FREE C1 C1_$1
FREE C1 C3_$1
FREE C1 C3_$3
FREE C2 C2_$1
FREE C2 C3_$1
FREE C2 C3_$3
FREE C3 C1_$1
FREE C3 C2_$1
FREE C3 C1_$3
FREE C3 C2_$3
 
SIMU 0.01 0.01 N1 C1 C2 C3
 
SADI C1 C2  C2 C3  C3 C1
SADI 0.01 N1 C1  N1 C2  N1 C3
SADI 0.01 C1 C2_$4  C3 C3_$4
 
OMIT 0
SIZE 0.50 0.24 0.20
 
ABIN
ACTA
 
WGHT    0.038500    9.724800
FVAR       0.41959   0.90222
ZN1   6    0.573739    0.786870    0.140095    10.50000    0.02845    0.02923 =
         0.03046    0.00054    0.00108    0.01422
ZN2   6    0.528718    0.666667    0.166667    10.50000    0.04104    0.03277 =
         0.06249    0.01899    0.00949    0.01638
N1    3    0.631756    0.815878    0.257898    10.50000    0.02812    0.03412 =
         0.03240    0.00106    0.00213    0.01406
C1    1    0.673079    0.809723    0.214208    10.50000    0.04681    0.10354 =
         0.04320   -0.02199   -0.01249    0.05147
AFIX  23
H1A   2    0.682519    0.823373    0.135033    10.50000   -1.20000
H1B   2    0.662926    0.775071    0.210648    10.50000   -1.20000
AFIX   0
C2    1    0.616809    0.786359    0.368013    10.50000    0.04650    0.06402 =
         0.03306    0.00907   -0.01183   -0.00703
AFIX  23
H2A   2    0.603892    0.751978    0.348528    10.50000   -1.20000
H2B   2    0.590931    0.789502    0.406706    10.50000   -1.20000
AFIX   0
C3    1    0.648613    0.864624    0.282157    10.50000    0.06273    0.03584 =
         0.09841   -0.01899   -0.04736    0.02879
AFIX  23
H3A   2    0.620985    0.869051    0.301559    10.50000   -1.20000
H3B   2    0.664505    0.884093    0.212124    10.50000   -1.20000
AFIX   0
O11   4    0.562883    0.654358    0.291860    11.00000    0.05610    0.04235 =
         0.06609    0.01888   -0.00424    0.01600
O12   4    0.508176    0.576340    0.312468    11.00000    0.05673    0.03884 =
         0.04515    0.00148   -0.01580    0.01760
C11   1    0.547101    0.613418    0.335639    11.00000    0.04309    0.03630 =
         0.03266    0.00173    0.00363    0.01779
C12   1    0.577860    0.608760    0.424592    11.00000    0.04123    0.03183 =
         0.03260    0.00251    0.00320    0.01305
C13   1    0.623802    0.641862    0.457182    11.00000    0.04374    0.03436 =
         0.05095    0.00656   -0.00002    0.00595
AFIX  43
H13   2    0.641450    0.673401    0.425581    11.00000   -1.20000
AFIX   0
S1    5    0.555960    0.555960    0.500000    10.50000    0.03255    0.03255 =
         0.03444    0.00341   -0.00341    0.00792
O1S   4    0.526106    0.722932    0.202958    11.00000    0.04706    0.03619 =
         0.08272    0.02008    0.02789    0.01962
C1S   1    0.489102    0.722261    0.268017    11.00000    0.07221    0.04680 =
         0.10506    0.01191    0.05554    0.02082
C2S   1    0.464701    0.690309    0.357324    10.50000    0.06449    0.04676 =
         0.10224    0.02310    0.03913    0.02579
AFIX  23
H2S1  2    0.488515    0.697049    0.419742    10.50000   -1.20000
H2S2  2    0.454848    0.657702    0.327483    10.50000   -1.20000
AFIX   0
C3S   1    0.420137    0.687220    0.415679    10.50000    0.07284    0.08141 =
         0.11174    0.03173    0.05213    0.02858
PART 1
C4S   1    0.401647    0.650213    0.515108    20.50000    0.09308    0.09943 =
         0.11939    0.04272    0.05978    0.03192
AFIX  33
H4S1  2    0.373281    0.648997    0.550673    20.50000   -1.50000
H4S2  2    0.392903    0.618373    0.484242    20.50000   -1.50000
H4S3  2    0.426971    0.659680    0.573787    20.50000   -1.50000
AFIX   0
PART 2
C4S'  1    0.367798    0.657231    0.374054   -20.50000    0.08669    0.08782 =
         0.11648    0.02375    0.04383    0.02279
AFIX  33
H4S4  2    0.346612    0.661876    0.427346   -20.50000   -1.50000
H4S5  2    0.364910    0.667584    0.295767   -20.50000   -1.50000
H4S6  2    0.358453    0.623085    0.372471   -20.50000   -1.50000
PART 0
AFIX   0
HKLF 4
 
 
 
 
REM  al57e in R-3m; 130K; Xcalibur
REM wR2 = 0.0740, GooF = S = 1.061, Restrained GooF = 1.133 for all data
REM R1 = 0.0267 for 2505 Fo > 4sig(Fo) and 0.0345 for all 2954 data
REM 150 parameters refined using 56 restraints
 
END
 
WGHT      0.0385      9.7248
 
REM Highest difference peak  0.430,  deepest hole -0.369,  1-sigma level  0.052
Q1    1   0.6802  0.8401  0.2047  10.50000  0.05    0.43
Q2    1   0.4962  0.7481  0.3069  10.50000  0.05    0.33
Q3    1   0.4499  0.6864  0.2806  11.00000  0.05    0.32
Q4    1   0.3333  0.6667  0.6667  10.08333  0.05    0.30
Q5    1   0.5417  0.6570  0.2287  11.00000  0.05    0.30
;
_shelx_res_checksum              29007
_shelx_hkl_file
;
   0   0  -3 62410.6 497.695   2
   0   0   3 63495.5 497.804   2
   0   0   6 59249.1 490.000   2
   0   0  -6 58527.6 489.028   2
   0   0  -6 59181.2 509.558   1
   0   0  -9 6838.00 98.3600   2
   0   0  -9 7025.73 119.915   1
   0   0 -12 601.957 42.4929   1
   0   0 -15-4.31537 24.6510   1
   0  -1 -14 21.1245 23.0343   1
  -1   1 -14 21.2304 20.9570   1
   1   0 -14 100.173 26.5337   1
   1   0 -11 67.2843 19.1040   1
   0  -1 -11 53.7508 12.8582   2
  -1   1 -11 67.5385 19.5919   1
   1   0 -11 47.5436 11.7682   2
  -1   1 -11 47.6356 10.8638   2
   0  -1 -11 61.2979 19.7592   1
   0  -1  -8 6046.13 86.7046   2
  -1   1  -8 6184.75 105.242   1
  -1   1  -8 5930.16 83.9262   2
   1   0  -8 6212.36 104.363   1
   1   0  -8 5770.85 88.2523   2
   0  -1  -8 6091.94 105.725   1
  -1   1  -5 11111.3 128.466   1
   0  -1  -5 11165.7 114.801   2
   0   1   5 11211.8 115.162   2
  -1   1  -5 11201.3 111.679   2
   1   0  -5 10969.1 117.245   2
   0   1   2 42307.6 337.176   2
  -1   0   2 42857.4 340.839   2
   0  -1  -2 42187.6 337.879   2
  -1   1  -2 43124.0 344.491   1
  -1   1  -2 42818.5 333.748   2
  -1   0  -4 7375.72 77.0841   2
   1   0   4 7288.74 77.2373   2
  -1   0  -4 7547.93 91.0156   1
  -1   1   4 7571.08 83.0746   2
   0   1  -4 7468.47 88.6589   1
   1  -1  -4 7442.87 82.7673   2
   0   1  -4 7613.50 80.7009   2
   0   1  -7 6163.40 96.8663   1
  -1   0  -7 5954.47 97.9401   1
  -1   1   7 5925.03 84.6382   2
   1  -1  -7 5745.68 83.1390   2
   0   1  -7 5738.10 80.8592   2
  -1   0  -7 5831.40 78.5839   2
   1  -1 -10 15.2438 15.2913   1
   0   1 -10-2.95385 17.0577   1
  -1   0 -10-1.66018 10.3153   2
   1  -1 -10 15.9402 10.8566   2
  -1   0 -10-4.33452 17.2282   1
   0   1 -10 17.0236 10.6695   2
   1  -1 -13 244.516 31.8095   1
  -1   0 -13 253.178 32.3997   1
   0   1 -13 242.997 31.8164   1
   1  -2  -3 19.3497 6.06469   2
  -2   1  -3 22.0315 4.28041   2
  -2   1   3 17.7636 6.90146   2
  -2   1  -3 7.65220 7.03480   1
   2  -1   3 12.1128 3.84993   2
   1   1  -3 10.4115 5.03799   2
  -1   2  -3 24.2682 5.43755   2
   2  -1  -3 4.27076 5.71194   2
   1   1   3 23.4480 5.01625   2
  -1  -1  -3-8.21051 5.24625   2
  -1   2  -3 18.6814 6.97295   1
  -1   2   3 10.3361 6.01614   2
  -1   2  -6 798.003 30.0268   1
   1   1   6 804.490 23.4489   2
  -1   2   6 831.782 26.3467   2
  -2   1   6 857.659 28.2380   2
   1   1  -6 803.603 25.6732   2
   1   1  -6 817.629 30.4902   1
   1  -2  -6 823.690 26.1727   2
  -2   1  -6 829.726 22.3552   2
  -1  -1  -6 775.599 23.1844   2
  -1  -1  -6 725.056 30.7240   1
   2  -1  -6 842.277 27.5297   2
  -1   2  -6 793.819 22.9862   2
  -2   1  -6 813.313 30.5428   1
  -1   2  -9 28.3666 15.1008   1
  -1  -1  -9-17.7742 11.5097   2
   1  -2  -9-28.9011 19.1015   1
   2  -1  -9 13.5155 14.6454   1
   1   1  -9 0.13705 15.1985   1
  -2   1  -9-27.8313 11.2388   2
   1   1  -9 2.73091 10.9305   2
  -2   1  -9-5.85440 16.1086   1
  -1  -1  -9-3.95799 17.4420   1
   2  -1  -9-8.21476 11.8222   2
  -1   2  -9-5.44719 10.5325   2
   1  -2  -9-7.43882 10.9753   2
   1   1 -12 54.8518 20.6866   1
  -1   2 -12 48.7817 19.3189   1
   2  -1 -12 54.2969 20.2419   1
   1  -2 -12 48.3689 20.8232   1
  -1  -1 -12 25.1659 18.3812   1
  -2   1 -12 42.8391 18.7405   1
  -2   1 -15 4.72481 24.3920   1
  -1  -1 -15 27.4966 24.1228   1
   1   1 -15 33.4912 24.8619   1
   2  -1 -15 6.58205 24.5115   1
   1  -2 -15 30.1494 26.8037   1
  -1   2 -15-17.1908 25.9021   1
   2   0 -13 2494.25 86.8245   1
  -2   2 -13 2496.15 85.9336   1
   0  -2 -13 2487.09 87.4921   1
   2   0 -10 4510.17 98.5135   1
  -2   2 -10 4397.21 73.6740   2
   0  -2 -10 4543.83 101.298   1
   2   0 -10 4616.37 85.9393   2
   0  -2 -10 4488.23 79.5956   2
  -2   2 -10 4586.56 100.615   1
  -2   2  -7 1946.10 39.2327   2
   0   2   7 2072.70 44.2142   2
  -2   2  -7 2027.63 53.3261   1
   2   0  -7 1893.77 44.4692   2
   0  -2  -7 2044.70 43.1944   2
  -2   2  -4 1741.16 37.5433   1
   0  -2  -4 1773.68 31.5760   2
   2   0  -4 1759.36 33.9854   2
  -2   0   4 1804.94 35.2625   2
   0   2   4 1711.56 31.3837   2
  -2   2  -4 1772.51 27.6268   2
  -2   0  -2 2470.04 36.3621   1
  -2   2   2 2431.56 34.1355   2
   2  -2  -2 2421.84 33.9407   2
   0   2  -2 2444.80 32.3777   1
   2   0   5 2166.39 34.5252   2
   0   2  -5 2061.80 44.1984   1
  -2   2   5 2160.42 41.9166   2
   0   2  -5 2099.17 38.8137   2
  -2   0  -5 2125.81 34.3984   2
  -2   0  -5 2163.85 47.6056   1
   2  -2  -5 2082.41 41.1166   2
  -2   0  -8 7894.09 98.4906   2
  -2   0  -8 8151.48 126.271   1
   2  -2  -8 8009.22 110.339   2
   0   2  -8 8159.04 106.643   2
   0   2  -8 8127.84 122.896   1
  -2   2   8 8416.45 113.191   2
   2  -2 -11 2.14194 17.9306   1
   2  -2 -11 1.07292 12.5636   2
  -2   0 -11 0.93880 20.0079   1
  -2   0 -11 13.8644 9.51914   2
   0   2 -11 12.3950 10.3309   2
   0   2 -11-1.89491 16.7237   1
  -2   0 -14 12.6808 21.6523   1
   2  -2 -14-15.8969 26.3821   1
   0   2 -14-15.5176 21.5413   1
  -1  -2 -14 173.473 31.3229   1
  -2   3 -14 154.038 30.7650   1
   2   1 -14 175.338 31.2849   1
   3  -1 -14 169.930 32.2285   1
   1  -3 -11 15.4974 17.4760   1
  -2   3 -11-5.64023 10.7880   2
   3  -1 -11 30.4303 13.9372   2
  -1  -2 -11 43.3124 12.4052   2
   2   1 -11 26.7338 12.7580   2
   1  -3 -11 15.7665 12.1244   2
  -3   2 -11 33.4220 9.63983   2
   2   1 -11 12.6165 17.5029   1
  -1  -2 -11 11.2467 20.2089   1
   3  -1 -11-11.7315 18.7544   1
  -2   3 -11 1.00480 17.0780   1
  -3   2 -11 34.4410 19.3152   1
  -1  -2  -8 56.2435 10.1530   2
  -3   2  -8 59.3656 9.44306   2
   1  -3  -8 62.5014 12.5967   2
  -2   3  -8 26.1457 13.9356   1
  -1  -2  -8 33.7087 15.2004   1
  -2   3  -8 35.4257 8.74379   2
   2   1  -8 30.9983 10.3734   2
   2   1  -8 50.2408 14.7543   1
   1   2   8 53.6235 11.5559   2
   3  -1  -8 56.5922 12.0528   2
  -1   3   8 51.2078 12.3549   2
  -3   2  -8 50.3129 15.3142   1
  -2   3  -5 13995.1 151.771   1
   1   2   5 14099.4 136.044   2
  -1  -2  -5 13880.7 135.546   2
  -3   1   5 14142.6 148.417   2
  -2   3  -5 13956.2 133.006   2
  -3   2  -5 13910.2 127.563   2
   2   1  -5 13882.7 144.022   2
  -3   2  -5 14289.5 154.158   1
  -1   3   5 13795.8 141.622   2
   3  -1  -5 14105.8 146.057   2
   1  -3  -5 13906.7 141.355   2
   3  -2   2 49751.5 398.949   1
   3  -1  -2 47562.6 395.906   2
   1   2   2 46926.9 387.302   2
  -1   3   2 49089.1 393.486   2
  -2   3  -2 50995.3 396.244   1
   2   1  -2 49250.2 396.606   2
  -3   1   2 49706.2 396.897   2
  -3   2  -2 50617.5 399.375   1
   2  -3   2 50067.4 395.782   1
  -1   3  -4 12519.7 120.322   2
   1   2  -4 12471.9 125.338   2
  -1   3  -4 12678.3 129.403   1
   3  -1   4 12626.9 110.105   2
  -2  -1  -4 12379.9 114.617   2
  -3   1  -4 12596.1 134.556   1
  -3   1  -4 12172.4 109.425   2
   2  -3  -4 12568.6 126.628   2
   2   1   4 12213.3 114.330   2
   3  -2  -4 12472.4 127.615   2
  -2  -1  -4 12644.6 134.688   1
  -2   3   4 12272.9 125.648   2
  -3   2   4 12467.8 128.637   2
   1   2  -4 12467.1 126.374   1
   2   1   7 26189.6 235.636   2
   1   2  -7 25737.1 246.570   2
  -3   2   7 26103.5 253.857   2
  -3   1  -7 25470.3 266.619   1
   3  -2  -7 25888.3 252.216   2
  -1   3  -7 25444.3 240.157   2
  -2  -1  -7 25815.6 268.358   1
  -2  -1  -7 25954.5 235.182   2
  -3   1  -7 25806.7 230.035   2
  -1   3  -7 25651.4 261.047   1
  -2   3   7 26155.8 249.892   2
   2  -3  -7 25702.6 248.887   2
  -2  -1 -10 2156.17 48.8709   2
   2  -3 -10 2223.99 57.3096   2
  -3   1 -10 2146.58 46.7197   2
   3  -2 -10 2141.28 57.4114   2
  -1   3 -10 2178.51 52.3601   2
  -2  -1 -10 2228.83 70.2291   1
   1   2 -10 2182.33 55.9476   2
   1   2 -10 2193.68 66.2178   1
  -1   3 -10 2224.20 67.1938   1
  -3   1 -10 2140.65 68.2398   1
   2  -3 -10 2158.33 69.3826   1
   3  -2 -10 2192.53 69.3211   1
  -2  -1 -13 577.621 44.9784   1
  -3   1 -13 654.620 46.7660   1
   3  -2 -13 650.867 45.9736   1
   1   2 -13 621.089 44.8060   1
   2  -3 -13 584.446 45.9487   1
  -3   3 -15 750.795 55.4833   1
   3   0 -15 782.702 55.2356   1
   0  -3 -12 907.266 52.1874   1
   3   0 -12 973.967 51.9403   1
  -3   3 -12 986.771 52.5978   1
  -3   3  -9 5511.73 78.9446   2
   0  -3  -9 5594.34 109.731   1
  -3   3  -9 5397.18 104.141   1
   3   0  -9 5632.35 104.720   1
   0   3   9 5787.04 90.2485   2
   0  -3  -9 5676.28 88.4801   2
   3   0  -9 5530.76 94.6152   2
   0   3   6 1031.70 28.7208   2
  -3   3  -6 1108.56 36.0714   1
  -3   3  -6 1046.69 24.3697   2
   3   0  -6 1036.24 31.1037   2
   0  -3  -6 1056.80 28.7929   2
   0   3   3 3534.71 46.3204   2
   3   0  -3 3560.95 50.8348   2
  -3   0   3 3607.70 51.0912   2
   0  -3  -3 3409.98 45.6620   2
   3  -3   3 3462.01 52.1281   1
  -3   3  -3 3611.28 52.2289   1
  -3   0  -3 3538.66 37.3365   2
   3  -3  -3 3812.69 51.9175   2
  -3   3   3 3811.49 51.8895   2
   3   0   3 3606.82 37.8260   2
  -3   0  -3 3784.24 55.3461   1
   0   3  -3 3902.07 49.2493   1
   0   3  -6 14935.0 153.988   2
  -3   0  -6 14991.0 171.373   1
  -3   3   6 14944.1 160.417   2
   3   0   6 15229.5 141.960   2
  -3   0  -6 14852.5 141.159   2
   0   3  -6 15073.3 164.799   1
   3  -3  -6 14818.7 159.873   2
   0   3  -9 17584.1 213.575   1
  -3   3   9 17870.8 201.230   2
  -3   0  -9 17435.5 176.835   2
   0   3  -9 17606.2 191.883   2
  -3   0  -9 17816.9 221.401   1
   3  -3  -9 17450.5 198.593   2
   0   3 -12 448.360 36.7848   1
  -3   0 -12 395.101 36.2315   1
   3  -3 -12 448.585 38.5251   1
   0   3 -15 63.2481 27.9208   1
   2   2   3 381.728 11.8147   2
  -4   2  -3 392.819 17.1665   1
  -2   4   3 359.406 14.9975   2
  -4   2   3 382.678 16.2880   2
   2  -4   3 375.701 15.2527   1
  -2   4  -3 374.092 15.5308   1
   2  -4  -3 365.121 14.7781   2
   2   2  -3 395.029 15.9378   2
   4  -2   3 350.417 16.3292   1
   4  -2  -3 367.432 15.2030   2
  -2  -2  -6 176.540 11.7187   2
   2   2  -6 150.696 14.2284   1
  -2   4   6 168.224 14.2739   2
  -4   2  -6 194.245 18.3791   1
   4  -2  -6 150.537 13.6170   2
   2  -4  -6 196.460 14.8337   2
   2   2   6 176.037 11.8302   2
  -4   2   6 152.831 13.9963   2
  -2  -2  -6 167.364 17.5828   1
   2   2  -6 156.066 13.2710   2
  -2   4  -6 178.226 16.5943   1
  -4   2  -6 179.896 9.63679   2
  -2   4  -6 161.934 11.8334   2
  -4   2  -9 2.70581 8.39128   2
  -2   4  -9 18.6801 8.83617   2
   2   2  -9-2.67129 10.9657   2
  -4   2  -9 19.4509 16.8213   1
  -2  -2  -9 7.95560 17.8659   1
   2   2  -9-21.8424 16.9009   1
   4  -2  -9 5.63771 11.7183   2
  -2   4   9 14.1923 12.5385   2
   2  -4  -9 22.5795 11.7361   2
  -2  -2  -9 22.2771 9.72187   2
  -2   4  -9-15.5538 15.5237   1
   2   2   9 20.5137 10.0402   2
  -4   2 -12 31.5372 22.1507   1
   2  -4 -12-15.1625 22.3504   1
  -2   4 -12 9.17817 18.5324   1
   2   2 -12 14.1200 18.0110   1
  -2  -2 -12-7.77246 21.0818   1
   2   2 -15 60.3127 27.1235   1
   4  -2 -15 3.19220 22.5096   1
  -4   2 -15 30.6849 28.9056   1
   3   1 -13-20.1133 20.5793   1
  -3   4 -13-18.8728 22.9878   1
   1  -4 -13-4.59645 22.6719   1
  -1  -3 -13 23.8267 21.3066   1
  -4   3 -13 25.1901 21.8517   1
   4  -1 -13-11.0108 20.1333   1
  -4   3 -10-13.9605 17.9682   1
  -1  -3 -10 5.74183 9.47602   2
  -3   4 -10-21.9209 19.2297   1
   1  -4 -10-5.19222 11.3925   2
  -3   4 -10-2.26508 9.53307   2
   4  -1 -10-10.0939 18.1703   1
   1  -4 -10-36.9950 22.6527   1
   1   3  10 19.1612 11.3423   2
  -4   3 -10-7.77044 8.63340   2
  -1  -3 -10-41.9389 21.2823   1
  -1   4  10-0.26621 11.3376   2
   3   1 -10-18.1647 13.2902   2
   3   1 -10-23.4204 18.3268   1
   4  -1 -10-7.12154 12.1712   2
   1  -4  -7 1128.22 33.5480   2
  -3   4  -7 1011.76 37.5012   1
  -1  -3  -7 1113.02 31.0194   2
  -3   4  -7 1110.83 28.2679   2
   4  -1  -7 1068.41 35.4139   2
   3   1  -7 1209.84 36.6189   2
  -1   4   7 1039.15 32.5958   2
   1   3   7 1102.00 30.9247   2
  -4   3  -7 1154.75 26.0871   2
  -4   3  -7 1099.81 39.7086   1
  -4   3  -4 3683.62 59.7904   1
  -4   1   4 3633.44 57.9684   2
   3  -4   4 3788.13 58.8151   1
  -3   4  -4 3712.17 58.2486   1
  -1  -3  -4 3673.90 49.4098   2
  -3   4  -4 3780.03 45.3973   2
   1  -4  -4 3647.87 53.1831   2
  -4   3  -4 3562.33 38.9708   2
   1   3   4 3688.15 49.7446   2
   4  -3   4 3632.10 60.9038   1
   4  -1  -4 3714.23 57.1104   2
  -1   4   4 3701.42 53.5820   2
   3   1  -4 3710.89 56.6403   2
  -3  -1  -2 29860.2 254.879   1
  -4   3   2 29793.2 254.333   2
  -4   1  -2 30796.7 256.664   1
   4  -1   2 30206.1 256.434   1
   1  -4   2 30174.9 247.029   1
   3  -4  -2 29671.9 253.613   2
   4  -3  -2 29473.0 254.687   2
  -3   4   2 29877.3 254.035   2
   1   3  -2 30162.6 242.083   1
  -1   4  -5 6213.36 84.4714   1
  -1   4  -5 6214.55 77.1032   2
  -4   3   5 6256.18 85.2477   2
  -4   1  -5 6396.40 91.1355   1
   1   3  -5 6192.35 82.7147   1
   3  -4  -5 6273.29 83.1068   2
   3   1   5 6394.19 69.2703   2
  -3  -1  -5 6216.56 91.1401   1
   4  -3  -5 6330.46 85.1545   2
  -3  -1  -5 6235.90 68.3452   2
   4  -1   5 6143.05 64.2224   2
   1   3  -5 6297.80 81.3812   2
  -3   4   5 6165.37 83.2395   2
  -4   1  -5 6169.97 63.6697   2
  -1   4  -8 2455.33 61.4051   1
  -1   4  -8 2466.62 51.2179   2
  -4   1  -8 2452.21 42.6376   2
   1   3  -8 2422.63 60.2698   1
  -3  -1  -8 2453.66 45.5133   2
  -3   4   8 2472.59 57.2061   2
   3   1   8 2641.38 47.7747   2
   4  -3  -8 2573.27 58.6802   2
  -4   3   8 2494.16 58.5047   2
   1   3  -8 2466.70 54.6501   2
  -4   1  -8 2434.83 64.9141   1
  -3  -1  -8 2487.60 65.7895   1
   3  -4  -8 2428.19 56.0682   2
  -4   1 -11 1216.63 33.7865   2
   1   3 -11 1277.62 54.1522   1
   1   3 -11 1205.58 44.1054   2
  -3  -1 -11 1332.27 37.6259   2
  -3  -1 -11 1225.08 55.9554   1
  -1   4 -11 1254.09 41.5508   2
   4  -3 -11 1203.64 45.8481   2
   3  -4 -11 1347.25 58.1743   1
  -4   1 -11 1287.95 56.5718   1
   4  -3 -11 1246.52 55.9681   1
  -1   4 -11 1304.00 54.9432   1
   3  -4 -11 1244.22 45.8762   2
  -3  -1 -14 390.527 42.1586   1
   4  -3 -14 354.045 39.9971   1
   3  -4 -14 349.841 38.4283   1
  -4   1 -14 345.286 40.3701   1
  -1   4 -14 418.441 40.2375   1
   1   3 -14 360.370 39.3870   1
   0  -4 -14 541.989 47.0334   1
  -4   4 -14 585.999 47.1220   1
   4   0 -14 542.708 45.2332   1
   4   0 -11 2865.87 73.0150   2
   0  -4 -11 2875.61 85.5821   1
  -4   4 -11 2913.41 83.7549   1
  -4   4 -11 2826.41 54.5969   2
   4   0 -11 2943.84 82.9249   1
   0  -4 -11 2913.67 65.1028   2
  -4   4  -8 4674.25 65.4342   2
  -4   4  -8 4625.39 90.1458   1
   0  -4  -8 4716.47 75.8196   2
   0   4   8 4824.18 77.8719   2
   4   0  -8 4714.00 83.7100   2
   4   0  -5 939.123 29.1234   2
  -4   4  -5 912.389 19.5386   2
   0   4   5 894.794 25.6817   2
   0  -4  -5 874.344 24.7616   2
  -4   4  -5 976.224 31.5725   1
   4   0  -2 3856.91 52.6083   2
   0   4   2 4000.77 48.7073   2
  -4   0  -1 234.007 10.0489   1
   4   0   1 236.106 10.0881   1
   4  -4  -4 316.851 15.7558   2
  -4   4   4 307.463 16.4264   2
   0   4  -4 334.050 15.3615   1
   4   0   4 308.793 9.34864   2
  -4   0  -4 348.175 18.5506   1
   4  -4  -7 11047.3 136.279   2
   0   4  -7 11065.1 129.159   2
   0   4  -7 11041.1 138.920   1
   4   0   7 11170.4 113.057   2
  -4   0  -7 10849.9 111.138   2
  -4   0  -7 10790.0 146.273   1
  -4   4   7 10987.7 136.293   2
   0   4 -10 534.243 34.5617   1
   4  -4 -10 488.720 28.4372   2
   0   4 -10 475.860 26.1303   2
  -4   0 -10 497.878 20.5836   2
  -4   0 -10 554.170 36.2270   1
  -4   4  10 500.449 30.4132   2
   0   4 -13 547.778 42.0213   1
   4  -4 -13 578.603 44.0584   1
  -4   0 -13 568.735 45.9719   1
   2  -5 -14 148.865 29.9614   1
   5  -2 -14 211.957 33.3884   1
   3   2 -14 185.904 31.8510   1
  -5   3 -14 183.498 32.5786   1
  -2  -3 -14 203.963 33.8948   1
  -5   3 -11 245.559 29.3822   1
   3   2 -11 260.001 26.4587   1
   2  -5 -11 186.064 24.8420   1
   3   2 -11 248.260 22.9369   2
   5  -2 -11 282.633 29.6060   1
   2  -5 -11 231.306 21.2798   2
  -2  -3 -11 244.728 29.0994   1
  -2   5  11 253.593 22.7100   2
  -3   5 -11 200.913 16.6031   2
  -3   5 -11 285.638 29.8525   1
   3   2  -8 289.712 20.4434   2
   2   3   8 254.151 16.2780   2
   5  -2  -8 269.977 20.9225   2
  -5   3  -8 254.613 12.6365   2
   2  -5  -8 254.648 18.5826   2
  -5   3  -8 286.464 23.5829   1
  -2  -3  -8 274.655 16.5610   2
  -3   5  -8 300.720 16.7291   2
   3   2  -8 260.827 21.7807   1
  -3   5  -8 258.186 22.3916   1
  -2  -3  -8 274.186 24.1576   1
  -2   5   8 278.041 20.1899   2
  -2  -3  -5 6293.19 73.7430   2
  -5   3  -5 5977.07 60.3894   2
  -5   2   5 6319.45 87.3890   2
  -3   5  -5 6471.68 73.6025   2
   3   2  -5 6445.63 86.2014   2
  -2   5   5 6464.11 83.4894   2
  -5   3  -5 6181.59 90.4587   1
   2  -5  -5 6182.09 82.4528   2
   5  -2  -5 6287.78 86.5151   2
   2   3   5 6299.05 74.5865   2
  -3   5  -5 6264.93 87.8059   1
  -5   2   2 6406.22 73.7531   2
  -2   5   2 6255.42 71.1532   2
   5  -2  -2 6353.64 73.4685   2
   5  -3   2 6226.34 74.5667   1
   2  -5  -2 6192.22 71.0455   2
  -5   3   1 67500.3 529.544   2
   3  -5  -1 66768.4 529.138   2
  -3  -2  -1 67993.2 524.828   1
   5  -3  -1 66094.9 528.982   2
   5  -2   1 65222.0 515.528   2
  -5   2  -1 67470.8 516.226   2
  -3   5   1 65656.7 529.089   2
   3  -5  -4 2444.89 44.5121   2
   2   3  -4 2460.46 44.7266   2
   3   2   4 2418.15 35.1521   2
  -5   3   4 2427.00 46.2738   2
   5  -2   4 2374.96 48.9770   1
  -3  -2  -4 2396.97 47.9946   1
  -3   5   4 2471.45 44.9388   2
   5  -3  -4 2380.83 45.2558   2
  -5   2  -4 2502.26 48.8652   1
   2  -5   4 2497.83 44.9420   1
   2   3  -4 2399.85 40.6313   1
  -2   5  -4 2461.29 44.5423   1
   3   2   7 167.369 11.7063   2
  -5   2  -7 135.191 17.8772   1
  -3  -2  -7 169.639 11.3780   2
  -5   3   7 153.972 16.4363   2
   2   3  -7 171.656 15.5091   2
  -3   5   7 158.722 15.0092   2
   3  -5  -7 161.437 15.3501   2
  -5   2  -7 164.599 9.52428   2
  -2   5  -7 134.782 14.9370   1
  -3  -2  -7 188.513 20.2788   1
  -2   5  -7 163.998 12.6928   2
   2   3  -7 160.165 15.7283   1
   5  -3  -7 183.774 16.9513   2
   3  -5 -10 516.104 29.1255   2
  -5   2 -10 502.973 19.5153   2
   5  -3 -10 583.417 32.1767   2
  -3   5  10 538.212 30.9706   2
  -3  -2 -10 535.879 36.9161   1
   2   3 -10 459.194 27.5084   2
  -5   2 -10 539.695 36.6153   1
  -3  -2 -10 531.101 23.2460   2
  -2   5 -10 492.187 24.2413   2
   2   3 -10 593.499 34.8890   1
  -2   5 -10 593.766 36.1826   1
  -3  -2 -13 138.689 28.8528   1
   5  -3 -13 123.674 27.3985   1
   2   3 -13 198.744 29.7013   1
  -2   5 -13 156.041 28.2929   1
  -5   2 -13 208.326 32.2281   1
   3  -5 -13 96.5016 25.1066   1
   4   1 -15-46.7057 26.4226   1
   5  -1 -15-32.5434 25.0272   1
  -1  -4 -12-40.1861 23.5038   1
   5  -1 -12-10.5913 19.3988   1
   4   1 -12-26.1112 19.7462   1
  -5   4 -12-10.6013 18.1769   1
   1  -5 -12-2.81897 21.9446   1
  -4   5 -12-9.73778 20.9468   1
   1   4   9 190.829 16.9700   2
  -5   4  -9 224.336 24.8447   1
  -4   5  -9 195.048 23.0332   1
   5  -1  -9 197.235 19.1249   2
   1  -5  -9 196.399 17.8144   2
  -5   4  -9 207.878 12.7493   2
  -1  -4  -9 166.109 20.5923   1
   4   1  -9 163.891 18.9367   1
  -1   5   9 225.119 19.3706   2
   4   1  -9 186.049 18.6842   2
  -4   5  -9 208.998 14.3748   2
  -1  -4  -9 209.335 17.3713   2
  -4   5  -6 4061.87 54.6014   2
   4   1  -6 4152.60 70.3707   2
   1  -5  -6 4221.66 66.2106   2
  -5   4  -6 4180.05 75.3023   1
  -5   4  -6 4030.02 49.2318   2
   5  -1  -6 4115.44 71.0796   2
  -5   1   6 4192.82 72.2039   2
  -1  -4  -6 4142.90 61.5474   2
   1   4   6 4141.61 62.2666   2
  -1   5   6 4044.45 65.1264   2
  -4   5  -6 4112.27 73.9154   1
   4   1  -3 1590.19 34.2369   2
   1   4   3 1506.12 28.7923   2
   1  -5  -3 1531.30 30.6421   2
   5  -1  -3 1566.33 33.7250   2
   5  -4   3 1569.05 34.6532   1
  -1   5   3 1576.97 31.6696   2
  -5   1   3 1463.60 33.6975   2
   4  -5   3 1657.67 33.8368   1
   4  -5   0 13257.9 118.580   2
   5  -1   0 13041.6 117.862   2
   5  -4   0 13082.6 117.718   2
   5  -4  -3 1112.68 28.5860   2
  -4  -1  -3 1218.79 30.2645   1
  -4   5   3 1139.73 28.3801   2
  -5   1  -3 1222.23 31.3736   1
   4  -5  -3 1194.34 28.3412   2
   5  -1   3 1211.13 30.0686   1
  -5   4   3 1147.42 28.4298   2
   4   1   3 1114.60 18.7073   2
   1  -5   3 1233.75 25.7335   1
   1   4  -3 1217.22 23.6129   1
   4  -5  -6 7315.14 99.0249   2
  -1   5  -6 7316.31 99.6876   1
   4   1   6 7253.10 79.1194   2
   1   4  -6 7213.22 95.4378   2
  -4   5   6 7321.03 99.3339   2
  -1   5  -6 7333.79 91.9967   2
  -5   1  -6 7503.23 107.530   1
  -4  -1  -6 7213.41 107.570   1
  -5   1  -6 6843.87 72.3759   2
  -5   4   6 7389.77 101.162   2
   1   4  -6 7361.79 97.2844   1
   5  -4  -6 7359.44 100.716   2
  -5   1  -9 4976.07 66.7909   2
  -4  -1  -9 5291.03 105.841   1
   5  -4  -9 5118.54 93.2214   2
  -1   5  -9 5272.60 98.6416   1
   1   4  -9 5192.31 97.5290   1
  -5   4   9 5417.46 96.3542   2
  -1   5  -9 5164.00 84.4138   2
   4  -5  -9 5220.56 92.6375   2
  -4   5   9 5406.99 94.6194   2
   1   4  -9 5199.41 88.4861   2
  -5   1  -9 5139.44 104.251   1
  -4  -1  -9 5025.13 71.2956   2
   5  -4 -12 325.636 34.9271   1
   4  -5 -12 308.558 34.2103   1
  -1   5 -12 353.238 33.6017   1
  -5   1 -12 335.563 33.7999   1
  -4  -1 -12 316.671 33.6957   1
   1   4 -12 317.175 32.2602   1
   5  -4 -15 65.9605 29.5153   1
   1   4 -15 87.9132 28.0925   1
   5   0 -13 442.619 38.0988   1
   0  -5 -13 446.001 43.3485   1
  -5   5 -10 87.8079 20.4419   1
  -5   5 -10 106.452 11.0085   2
   0   5  10 129.818 16.2821   2
   5   0 -10 82.9362 18.2317   1
   5   0 -10 102.217 17.0030   2
   0  -5 -10 116.502 15.6528   2
   0  -5 -10 57.4295 17.9906   1
  -5   5  -7 35.6296 6.85535   2
   0   5   7 19.4704 9.23322   2
   0  -5  -7 43.2517 9.33232   2
   5   0  -7 36.7869 10.7444   2
  -5   5  -7 61.2592 14.4027   1
   5   0  -4 2169.36 44.1335   2
   5  -5   4 2119.71 44.8429   1
   0  -5  -4 2040.57 38.4673   2
   0   5   4 2088.83 38.8495   2
  -5   5  -1 19725.6 166.729   2
   5   0  -1 20151.5 177.841   2
   0  -5   2 187901. 1436.53   1
  -5   5   2 189050. 1454.26   2
   5   0   2 186190. 1453.05   1
  -5   0  -2 186264. 1453.28   1
   5  -5  -2 186363. 1453.26   2
   0   5  -5 24596.0 227.521   1
  -5   5   5 24516.1 234.580   2
  -5   0  -5 24711.1 242.267   1
   5   0   5 23911.0 201.632   2
   5  -5  -5 24926.3 236.145   2
   5  -5  -8 27894.5 282.459   2
  -5   0  -8 27519.2 297.249   1
   0   5  -8 27930.0 270.948   2
   0   5  -8 28021.9 283.953   1
  -5   5   8 28148.9 283.411   2
   0   5 -11 8841.76 130.227   2
   0   5 -11 8958.22 149.914   1
  -5   0 -11 9070.55 160.727   1
  -5   0 -14 2840.05 100.155   1
   5  -5 -14 2851.63 98.9385   1
   0   5 -14 2850.17 95.4504   1
  -6   3   0 25.0685 5.73542   2
  -3  -3   0 33.3647 3.76757   1
   6  -3   0 15.4968 5.47391   2
  -3   6   3 9758.75 106.577   2
  -6   3   3 9620.61 108.984   2
   3  -6  -3 9711.97 106.319   2
   6  -3  -3 9645.09 107.915   2
   3  -6   3 9832.81 103.335   1
   3   3   3 9503.60 94.8854   2
   6  -3   3 9788.57 111.044   1
  -3  -3  -6 273.020 20.7449   1
  -3   6  -6 274.077 14.3176   2
   3   3  -6 305.988 18.7470   2
   3  -6  -6 299.406 18.5451   2
  -6   3  -6 215.659 7.84145   2
   6  -3  -6 241.086 17.2127   2
  -6   3  -6 282.294 20.7469   1
   3   3  -6 255.734 16.3515   1
  -6   3   6 255.480 18.2383   2
  -3   6  -6 260.987 18.4243   1
  -3   6   6 289.527 19.1891   2
   3   3   6 288.876 14.1292   2
   6  -3  -9 2237.78 60.3741   2
  -3  -3  -9 2291.49 68.7512   1
  -6   3  -9 2092.25 36.0925   2
   3   3   9 2389.26 48.8105   2
   3  -6  -9 2241.89 57.4902   2
  -3   6  -9 2243.06 63.8371   1
   3   3  -9 2200.43 60.3937   1
  -6   3  -9 2273.93 66.9317   1
  -3   6  -9 2247.59 48.8634   2
  -3   6   9 2275.32 58.4777   2
   3   3  -9 2229.82 57.9102   2
   6  -3 -12 2441.55 81.5796   1
   3   3 -12 2345.22 77.3518   1
  -3  -3 -12 2403.98 84.1618   1
  -6   3 -12 2475.87 84.2628   1
  -3   6 -12 2536.23 81.2492   1
   3  -6 -12 2395.60 84.6059   1
   6  -3 -15 1305.83 70.2450   1
   3   3 -15 1366.81 70.5806   1
   4   2 -13 338.178 35.2317   1
   2  -6 -13 314.898 35.8385   1
  -6   4 -13 363.498 39.0460   1
   6  -2 -13 303.085 34.9425   1
  -2  -4 -13 340.953 38.4711   1
   6  -2 -10 145.592 19.7400   2
   4   2 -10 125.710 19.9310   1
  -6   4 -10 139.913 23.1418   1
   2   4  10 157.867 16.7602   2
  -2   6  10 152.070 18.9843   2
   4   2 -10 140.432 18.9456   2
  -2  -4 -10 83.6080 18.8994   1
   2  -6 -10 123.734 16.2013   2
  -4   6 -10 105.653 20.7697   1
  -6   4 -10 127.000 9.97333   2
  -4   6 -10 139.971 14.1073   2
   4   2  -7 1140.27 37.0375   2
  -4   6  -7 1075.43 37.9849   1
  -6   2   7 1131.11 38.9184   2
  -2  -4  -7 1035.53 41.0523   1
  -4   6  -7 1153.94 28.8608   2
  -2   6   7 1098.68 34.6819   2
  -6   4  -7 1049.35 21.1023   2
  -2  -4  -7 1113.80 30.2990   2
   6  -2  -7 1119.73 37.8411   2
   2  -6  -7 1141.50 35.6772   2
  -6   4  -7 1143.24 40.8769   1
   4   2  -7 1107.74 36.2607   1
   2   4   7 1113.40 30.8443   2
  -6   2   4 5951.66 82.6970   2
   2  -6  -4 5956.42 77.7533   2
  -2   6   4 6038.33 79.3627   2
   4  -6   4 6039.51 81.3371   1
   6  -4   4 6057.18 85.2723   1
   6  -2  -4 5968.29 82.4428   2
   4   2  -4 6101.87 82.3342   2
   2   4   4 5818.74 71.1893   2
   6  -4   1 16543.8 140.819   2
   6  -2  -1 16644.6 152.560   2
  -6   4  -1 16687.7 140.933   2
  -6   2   1 16675.3 152.742   2
   4  -6  -2 86090.6 690.343   2
  -6   4   2 85542.3 691.398   2
  -4   6   2 87771.0 690.299   2
  -4  -2  -2 86221.7 688.214   1
   6  -2   2 86078.1 692.128   1
   2   4  -2 87189.8 667.524   1
   6  -4  -2 85835.2 691.059   2
   2   4  -5 5695.62 81.0299   2
   4   2   5 5541.01 64.7026   2
  -6   4   5 5604.17 83.6052   2
   4  -6  -5 5703.63 81.9097   2
  -4   6   5 5696.80 82.1062   2
  -4  -2  -5 5645.11 87.4466   1
   2   4  -5 5600.60 74.6973   1
   6  -4  -5 5600.27 82.9886   2
  -2   6  -5 5744.17 80.7266   1
  -6   2  -5 5566.49 86.8749   1
   2   4  -8 342.098 22.3613   2
  -2   6  -8 318.774 23.0739   1
  -4   6   8 318.691 22.1330   2
  -4  -2  -8 366.155 28.0303   1
   6  -4  -8 350.785 23.7740   2
   4  -6  -8 365.885 23.4252   2
  -2   6  -8 343.033 19.0727   2
  -6   4   8 339.473 23.5542   2
  -6   2  -8 325.673 26.0841   1
   4   2   8 329.750 16.1634   2
  -6   2  -8 267.676 11.0901   2
   2   4  -8 295.200 22.2539   1
  -2   6 -11 160.660 25.0917   1
  -4   6  11 165.608 21.9727   2
  -2   6 -11 150.832 16.9503   2
   4  -6 -11 132.600 18.1988   2
   2   4 -11 155.595 23.7675   1
  -4  -2 -11 191.384 27.3795   1
  -6   2 -11 175.791 27.4140   1
   2   4 -11 177.770 20.6764   2
   2   4 -14 75.8522 25.4170   1
   6  -4 -14 24.7967 25.4323   1
  -4  -2 -14 102.386 31.4680   1
   4  -6 -14 56.2484 24.9064   1
  -6   2 -14 104.190 30.1766   1
   5   1 -14 76.3177 26.3704   1
  -1  -5 -14 63.5919 25.0215   1
   6  -1 -14 46.8149 24.2476   1
   1  -6 -14 66.4532 24.0218   1
  -1   6  11 906.815 38.8457   2
  -6   5 -11 828.460 47.3700   1
   1   5  11 868.813 35.9601   2
  -5   6 -11 822.646 45.6787   1
   1  -6 -11 805.832 47.6260   1
   6  -1 -11 868.263 45.3484   1
   1  -6 -11 809.475 35.9380   2
  -1  -5 -11 771.310 47.5252   1
   5   1 -11 819.782 44.0471   1
  -5   6  -8 658.751 21.5677   2
  -1   6   8 649.388 28.6956   2
   1  -6  -8 649.435 27.9105   2
  -6   5  -8 633.207 34.7320   1
   1   5   8 679.165 26.8925   2
  -1  -5  -8 671.424 26.7208   2
   6  -1  -8 637.094 31.0401   2
  -6   5  -8 655.417 18.9503   2
  -5   6  -8 636.299 32.8537   1
   5   1  -8 648.046 30.7694   2
  -1   6   5 7.15352 8.54584   2
   6  -1  -5-7.58708 9.81209   2
  -6   5  -5 3.76470 2.88655   2
   5  -6   5-1.01600 8.60252   1
   5   1  -5 5.18410 8.00575   2
   1  -6  -5 9.96953 7.15822   2
   6  -5   5 1.44943 8.80683   1
  -6   1   5-25.7698 13.9168   2
   1   5   5 10.2175 8.35511   2
   6  -1  -2 447.209 17.7255   2
  -6   5  -2 481.955 10.9118   2
  -6   1   2 454.559 18.2604   2
  -1   6   2 423.928 16.9194   2
  -5   6   1 18.1286 8.22253   2
   5   1   1 29.6145 6.28688   1
  -6   5   1 42.2317 8.74481   2
  -5  -1  -1 39.9586 7.69047   1
   5  -6  -1 44.3046 8.03213   2
   6  -5  -1 31.8465 6.96449   2
   6  -1   4 13197.4 147.243   1
   6  -5  -4 13278.3 143.691   2
   1   5  -4 13312.0 130.519   1
   5   1   4 13048.5 117.503   2
   1  -6   4 13437.0 134.563   1
  -5  -1  -4 13380.1 147.059   1
  -6   5   4 13233.1 143.702   2
   5  -6  -4 13333.1 142.470   2
  -5   6   4 13559.8 143.301   2
  -6   1  -4 13463.4 147.190   1
  -1   6  -7 3266.01 59.9002   2
  -1   6  -7 3338.04 65.9325   1
   6  -5  -7 3273.29 67.8628   2
   5   1   7 3315.10 47.4396   2
   1   5  -7 3224.31 62.5819   2
  -5   6   7 3309.61 66.8199   2
   1   5  -7 3239.58 64.0397   1
  -5  -1  -7 3384.66 73.6929   1
   5  -6  -7 3286.18 66.2462   2
  -6   5   7 3164.26 66.6070   2
  -6   1  -7 3268.36 72.5634   1
   6  -5 -10 2839.63 71.4480   2
   1   5 -10 2894.43 74.3901   1
  -6   1 -10 2903.22 82.0724   1
  -5  -1 -10 2953.02 83.2879   1
  -5   6  10 2894.99 72.4701   2
  -6   5  10 2946.75 73.9300   2
  -1   6 -10 2981.10 77.2840   1
   5  -6 -10 2949.90 72.1320   2
   1   5 -10 2799.63 66.5356   2
  -1   6 -10 2905.79 64.0279   2
   1   5 -13 837.467 49.8675   1
  -1   6 -13 931.389 54.4036   1
  -6   1 -13 937.635 58.6899   1
   5  -6 -13 875.415 54.8653   1
  -5  -1 -13 869.069 54.9430   1
   6  -5 -13 809.462 52.5977   1
   6   0 -15 29.9368 25.8566   1
   6   0 -12 496.669 38.5982   1
   0   6  12 557.964 31.9945   2
   0  -6 -12 505.862 41.1034   1
  -6   6  -9 181.549 11.6825   2
   0  -6  -9 192.525 17.5783   2
   6   0  -9 181.656 19.4838   2
   0   6   9 213.935 18.8070   2
  -6   6  -9 176.183 22.4928   1
   0  -6  -6 5609.56 79.4166   2
   6   0  -6 5648.40 88.6164   2
  -6   6  -6 5473.09 61.3406   2
   6  -6   6 5430.53 90.2427   1
   0   6   6 5459.10 79.9385   2
   0   6   3 2515.29 43.1392   2
   6  -6   3 2624.29 47.8979   1
   6   0  -3 2516.68 46.9111   2
  -6   6   0 2329.10 35.3918   2
   6  -6   0 2233.86 35.2547   2
   6  -6  -3 40730.0 352.909   2
  -6   6   3 41278.9 353.882   2
   0  -6   3 40827.4 335.557   1
   6   0   3 41022.5 354.365   1
  -6   0  -3 41222.6 354.722   1
   0   6  -6 15466.4 164.485   2
   6  -6  -6 15590.9 172.043   2
  -6   6   6 15375.0 171.340   2
   0   6  -6 15726.7 164.589   1
   6   0   6 14748.6 134.223   2
  -6   0  -6 15378.6 180.044   1
   0   6  -9 8029.80 116.734   2
   6  -6  -9 8119.63 125.501   2
   0   6  -9 8018.31 125.100   1
  -6   6   9 8238.90 127.041   2
  -6   0  -9 8064.61 137.791   1
   0   6 -12 2203.84 74.1815   1
  -6   0 -12 2144.47 79.2065   1
   6  -6 -12 2049.73 77.2475   1
   3  -7 -14-5.10597 23.6292   1
   4   3 -14 46.3967 24.6577   1
   7  -3 -14-8.18451 22.5549   1
  -3  -4 -11-56.6271 25.3778   1
  -3   7  11-0.09284 13.6408   2
  -7   4 -11 47.8082 23.7054   1
   3  -7 -11 22.8683 13.8350   2
   4   3 -11-5.15457 15.7762   1
   3  -7  -8 138.704 17.3251   2
   4   3  -8 115.435 17.0728   1
  -7   3   8 162.931 20.5057   2
  -4   7  -8 138.550 19.4896   1
  -3   7   8 131.805 16.9784   2
  -7   4  -8 117.498 6.83504   2
   7  -3  -8 141.395 17.8653   2
   3   4   8 148.008 14.1798   2
   4   3  -8 131.357 16.7572   2
  -3  -4  -8 119.652 21.3304   1
  -4   7  -8 128.336 12.2672   2
  -7   4  -8 161.348 22.6788   1
   3   4   5 166.731 12.0585   2
  -7   3   5 143.089 14.6658   2
  -7   4  -5 182.695 18.8384   1
   7  -3  -5 144.231 13.7733   2
   7  -4   5 158.809 15.5727   1
   4   3  -5 170.803 15.5571   2
   4  -7   5 152.088 13.5082   1
  -3   7   5 144.386 14.1544   2
   3  -7  -5 150.804 14.1986   2
  -3   7   2 4149.86 58.3293   2
   3  -7  -2 4051.91 57.2969   2
   7  -3  -2 4271.68 59.7065   2
   7  -4   2 4039.60 41.1233   2
  -7   3   2 4274.70 59.8407   2
  -7   4  -2 4021.75 40.8295   2
   7  -3   1 2559.93 33.3658   2
  -4  -3  -1 2548.08 36.6842   1
  -7   4   1 2731.98 42.4928   2
   7  -4  -1 2660.89 41.4173   2
  -7   3  -1 2645.72 34.0838   2
  -4   7   1 2547.02 41.6655   2
   4  -7  -1 2584.70 41.4345   2
   4   3   4 356.951 13.7136   2
   7  -3   4 387.839 20.9446   1
   7  -4  -4 343.352 18.4151   2
  -4  -3  -4 338.792 19.2497   1
   3   4  -4 375.146 14.4405   1
  -7   4   4 352.008 19.6629   2
   4  -7  -4 393.791 19.6959   2
  -4   7   4 345.274 19.0903   2
  -7   3  -4 371.761 21.5651   1
   3  -7   4 383.460 18.2450   1
   7  -4  -7 3820.99 74.8505   2
  -3   7  -7 3775.23 62.0702   2
  -7   4   7 3713.63 74.3516   2
   3   4  -7 3905.02 72.9097   2
   4   3   7 3764.19 56.7302   2
   4  -7  -7 3840.96 72.7548   2
  -7   3  -7 3789.47 78.5450   1
  -4   7   7 3887.47 73.0756   2
  -4  -3  -7 3728.64 79.6621   1
  -3   7  -7 3856.43 73.8090   1
   3   4  -7 3790.96 68.6668   1
  -4  -3 -10 1679.13 63.4046   1
  -4   7  10 1679.13 54.0317   2
  -3   7 -10 1779.76 59.8924   1
   4   3  10 1695.81 41.8597   2
   3   4 -10 1636.81 55.1677   1
   3   4 -10 1642.29 53.4648   2
  -7   3 -10 1723.54 63.4406   1
  -3   7 -10 1592.60 43.7890   2
   4  -7 -10 1673.47 53.4826   2
   4  -7 -13 333.537 37.2607   1
   7  -4 -13 398.038 39.0198   1
  -7   3 -13 446.821 43.6509   1
  -4  -3 -13 322.149 39.2288   1
   3   4 -13 348.643 34.6325   1
   5   2 -15 391.644 41.4532   1
   7  -2 -15 365.747 41.4598   1
  -2   7  12 1163.69 47.0839   2
   5   2 -12 1097.03 53.0580   1
  -2  -5 -12 1104.27 59.3347   1
   7  -2 -12 1097.64 55.4934   1
   2  -7 -12 1034.62 57.0571   1
   2  -7  -9 2245.88 56.2877   2
   5   2  -9 2242.92 60.5684   2
  -7   5  -9 2004.07 32.6168   2
  -2  -5  -9 2123.75 68.2435   1
   5   2  -9 2228.22 61.0548   1
  -7   5  -9 2291.77 67.7432   1
  -2   7   9 2270.75 57.5486   2
   2   5   9 2243.19 51.1953   2
   7  -2  -9 2309.75 62.6440   2
  -5   7  -9 2280.17 44.7585   2
   2  -7  -6 1954.89 44.7484   2
   2   5   6 1998.97 41.2254   2
  -2   7   6 1968.04 46.0363   2
  -7   2   6 1957.29 49.5980   2
   5  -7   6 1913.35 48.9339   1
  -5   7  -6 2000.12 35.5950   2
   5   2  -6 1997.92 48.9346   2
   7  -2  -6 1902.40 48.4744   2
  -7   5  -6 1971.52 51.3438   1
   7  -5   6 1887.39 50.8402   1
  -2   7   3 6114.88 78.3294   2
   2  -7  -3 6072.08 77.0088   2
  -7   2   3 6249.42 82.8719   2
   7  -2  -3 6179.63 82.0658   2
   2   5   3 6102.41 73.0657   2
   7  -5   3 6129.73 83.1088   1
   7  -2   0 5358.02 62.0145   2
  -7   5   0 5391.56 61.6853   2
   5   2   0 5051.64 53.4492   1
   7  -5   0 5416.56 61.8435   2
  -7   2   0 5333.15 62.0720   2
  -5   7   0 5385.43 62.8257   2
  -7   5   3 574.973 22.5855   2
   5  -7  -3 538.669 20.9786   2
   2   5  -3 569.198 14.5717   1
   2  -7   3 555.634 18.1259   1
  -5   7   3 498.535 20.8291   2
   7  -2   3 528.833 21.4670   1
   7  -5  -3 517.492 20.8110   2
  -5  -2  -3 595.881 23.1618   1
  -7   5   6 4432.38 78.0298   2
   2   5  -6 4522.20 75.0850   2
  -5  -2  -6 4438.79 81.7669   1
   5   2   6 4349.61 56.2868   2
  -2   7  -6 4592.44 74.8379   1
   7  -5  -6 4495.16 77.9067   2
  -5   7   6 4375.60 75.7172   2
  -7   2  -6 4487.36 81.7203   1
   5  -7  -6 4382.03 75.6280   2
   2   5  -6 4474.20 69.9154   1
  -7   5   9 2220.69 61.8680   2
  -5   7   9 2138.38 59.4159   2
  -2   7  -9 2116.82 60.9122   1
   7  -5  -9 2158.34 60.7948   2
   2   5  -9 2153.01 59.3465   1
  -7   2  -9 2012.08 64.1495   1
   2   5  -9 2121.78 56.5450   2
  -2   7  -9 2066.99 50.4278   2
  -5  -2  -9 2103.66 66.9990   1
   5   2   9 2178.57 42.5735   2
   5  -7  -9 2077.14 57.8806   2
   2   5 -12 55.2043 18.6031   1
  -5   7  12 66.9046 18.7041   2
  -5  -2 -12 57.9650 23.8551   1
   7  -5 -12 74.6172 22.9333   1
   5  -7 -12 64.6413 21.2056   1
  -7   2 -12 113.241 26.6766   1
   7  -5 -15 77.3648 25.9905   1
   6   1 -13-9.06341 21.2704   1
  -1  -6 -13-10.2168 25.0504   1
   1  -7 -13-17.9658 25.3274   1
   7  -1 -13 21.0525 20.1705   1
   6   1 -10-24.0786 15.4885   2
   6   1 -10-26.1196 20.0825   1
   1  -7 -10-8.40964 11.2219   2
   1   6  10 3.41757 11.8067   2
  -6   7 -10 4.17212 7.01570   2
  -1   7  10 17.0516 12.1972   2
  -1  -6 -10-47.1611 24.6005   1
  -7   6  -7 825.167 17.9151   2
  -6   7  -7 890.456 22.7824   2
  -1   7   7 866.868 31.3485   2
   6   1  -7 872.173 34.2521   2
   1   6   7 842.264 29.2665   2
   7  -1  -7 893.613 34.9777   2
   1  -7  -7 862.551 31.1964   2
   6  -7   4 498.283 22.4545   1
   7  -1  -4 465.795 21.7999   2
   6   1  -4 454.926 21.9097   2
   1   6   4 450.334 18.7922   2
   7  -6   4 485.554 22.7110   1
  -1   7   4 461.992 20.2423   2
  -6   7  -1 524.647 15.3405   2
   7  -1  -1 465.619 17.5118   2
  -7   6  -1 520.254 14.6526   2
   7  -6   1 539.806 14.7903   2
   6  -7  -2 26996.2 244.409   2
  -6   7   2 27159.0 245.222   2
   7  -6  -2 27307.9 244.709   2
  -1  -6   2 27472.8 219.343   1
   6   1   2 27143.4 240.399   1
   7  -1   2 26829.3 242.711   1
  -6  -1  -2 26825.2 240.796   1
  -7   6   2 27318.7 244.460   2
   7  -6  -5 610.154 25.9390   2
   1   6  -5 578.810 20.9588   1
  -6  -1  -5 644.171 28.5513   1
  -7   1  -5 631.884 28.9072   1
   6   1   5 630.589 15.6668   2
   6  -7  -5 641.699 25.8709   2
  -7   6   5 594.654 26.8734   2
  -6   7   5 611.075 26.2672   2
   1   6  -8 457.753 25.0870   2
   6   1   8 439.545 16.4410   2
  -7   6   8 408.124 27.0844   2
  -6   7   8 377.494 25.1482   2
  -1   7  -8 394.845 25.1481   1
  -7   1  -8 378.904 27.5244   1
   7  -6  -8 484.516 28.0524   2
   6  -7  -8 378.343 24.4131   2
  -1   7  -8 412.574 22.4620   2
   1   6  -8 413.945 25.1183   1
  -6  -1  -8 382.148 29.4532   1
  -7   1 -11 589.241 41.8970   1
  -1   7 -11 573.116 30.2601   2
   1   6 -11 608.219 37.9323   1
  -6   7  11 617.696 37.1064   2
   1   6 -11 577.892 32.1082   2
  -7   6  11 618.221 38.3972   2
  -6  -1 -11 679.702 44.6825   1
  -1   7 -11 608.283 37.9199   1
   6  -7 -14 67.0532 25.3743   1
   7  -6 -14 56.4387 25.5389   1
  -7   1 -14 89.6664 32.1311   1
  -6  -1 -14 68.4372 28.5437   1
   7   0 -14 89.4118 26.2054   1
   0  -7 -14 43.4830 25.6637   1
   7   0 -11 49.0259 18.3500   1
   0   7  11 86.4692 15.5478   2
   0  -7 -11 10.9255 23.7721   1
   7   0  -8 8.47101 11.3280   2
  -7   7  -8 46.2608 6.27483   2
   0   7   8 65.8646 12.3311   2
   7   0  -5 4199.38 73.1917   2
   0   7   5 4226.88 66.2008   2
   7  -7   5 4365.95 75.0460   1
   7   0  -2 17878.9 174.263   2
  -7   7  -2 17659.4 154.281   2
  -7   7   1 6996.05 82.3518   2
   7  -7  -1 6971.18 81.3516   2
   7   0   1 6649.75 77.2824   1
  -7   0  -4 8646.30 109.409   1
   7  -7  -4 8843.11 108.263   2
  -7   7   4 8763.11 107.975   2
   7   0   4 8032.91 76.1211   2
  -7   7   7 1882.22 51.7661   2
   0   7  -7 1849.33 47.1987   2
  -7   0  -7 1791.57 54.4236   1
   0   7  -7 1913.36 47.5443   1
   7   0   7 1767.85 28.4788   2
   7  -7  -7 1913.36 51.7439   2
   0   7 -10 5657.78 98.5776   2
  -7   7  10 5804.56 110.116   2
  -7   0 -10 5594.17 117.442   1
   0   7 -10 5655.49 107.586   1
   8  -4   0 5647.14 65.6073   2
  -8   4   0 5554.75 65.4019   2
  -4  -4   0 5526.46 54.8477   1
  -8   4   3 12331.6 135.165   2
   4  -8  -3 12121.8 131.036   2
   8  -4  -3 12428.7 134.270   2
   8  -4   3 12069.4 135.655   1
  -4  -4  -3 12151.7 131.530   1
   4  -8  -6 5908.50 90.1512   2
  -8   4   6 5693.23 92.7138   2
   4   4   6 5816.98 74.9672   2
   4   4  -6 5804.39 90.8759   2
  -4   8   6 5749.43 89.2146   2
   8  -4   6 5717.23 96.7710   1
   4  -8   6 5652.34 89.1774   1
   4   4  -6 5729.60 81.2147   1
  -4  -4  -6 6018.45 98.7946   1
  -8   4  -6 5772.45 96.2831   1
   8  -4  -6 5798.01 92.3744   2
  -4   8  -9 7.68153 8.50262   2
   4  -8  -9 1.26013 12.2202   2
   4   4  -9-1.36999 14.8757   1
  -4   8   9-0.10630 14.1583   2
   4   4  -9 24.1104 13.1126   2
  -4  -4  -9 6.90663 17.8788   1
   8  -4  -9-3.86014 14.3050   2
  -8   4  -9 22.7476 18.1148   1
   4   4   9-6.27507 10.0119   2
   8  -4 -12 65.3679 21.7415   1
  -4   8  12 103.909 20.3447   2
   4   4 -12 110.233 22.8832   1
  -4  -4 -12 97.6972 25.4297   1
   4  -8 -12 63.3461 22.7300   1
   4   4 -15 25.5249 23.8332   1
   8  -3 -13 342.135 36.8275   1
   3  -8 -13 280.147 36.3317   1
  -3  -5 -13 313.370 36.9491   1
   5   3 -13 310.539 33.2859   1
  -3   8  10 1526.89 50.9195   2
   3   5  10 1522.68 42.5753   2
  -5   8 -10 1531.03 39.1702   2
  -3  -5 -10 1506.80 61.3332   1
   5   3 -10 1510.07 53.2821   1
   5   3 -10 1472.70 52.3210   2
   3  -8 -10 1521.81 49.6655   2
  -8   5 -10 1494.80 58.8172   1
   8  -3  -7 756.235 33.2310   2
  -3   8   7 710.284 30.2762   2
   5   3  -7 689.437 28.2848   1
   3   5   7 718.451 25.3181   2
  -8   3   7 709.691 32.6792   2
   5   3  -7 779.172 33.1776   2
  -3  -5  -7 744.891 35.5562   1
  -5   8  -7 705.295 23.3762   2
   3  -8  -7 730.905 30.0019   2
   5   3  -4 702.268 26.4823   2
   5  -8   4 734.343 25.8843   1
   3  -8  -4 651.020 24.8787   2
   8  -3  -4 714.167 26.6114   2
   3   5   4 629.132 20.7129   2
  -3   8   4 649.580 25.6142   2
   8  -5   4 682.055 27.3738   1
  -8   3   4 629.345 26.1037   2
  -8   3   1 39.3098 9.34649   2
  -8   5  -1 40.4639 6.17229   2
   8  -3  -1 180.829 11.8372   2
   8  -5  -2 28868.1 259.364   2
   5  -8  -2 29219.4 258.223   2
  -8   5   2 28626.9 259.896   2
  -5  -3  -2 29024.5 254.503   1
   8  -3   2 28943.7 234.406   2
  -5   8   2 29288.6 259.319   2
   3  -8   5 57723.9 486.192   1
   3   5  -5 57425.8 472.359   1
  -8   3  -5 57446.5 501.257   1
  -5  -3  -5 57336.9 499.132   1
   5  -8  -5 56792.3 491.623   2
  -5   8   5 57391.8 492.826   2
  -8   5   5 56015.2 496.338   2
   8  -3   5 57078.4 501.441   1
   8  -5  -5 57341.1 495.735   2
   3   5  -8 20043.6 223.002   2
  -3   8  -8 20242.4 206.396   2
  -8   3  -8 19747.5 237.504   1
   3   5  -8 20571.7 219.530   1
  -5   8   8 20090.2 223.924   2
  -8   5   8 20301.9 231.022   2
   8  -5  -8 20232.1 229.385   2
  -5  -3  -8 20361.2 241.129   1
   5  -8  -8 20437.8 225.257   2
   5   3   8 20331.8 193.036   2
  -8   3 -11 4062.89 103.798   1
  -5  -3 -11 3992.58 104.441   1
  -5   8  11 4057.53 91.4310   2
   3   5 -11 4078.91 93.6579   1
   5  -8 -14 666.946 51.2243   1
  -5  -3 -14 714.354 56.3080   1
   3   5 -14 660.538 47.3838   1
   8  -5 -14 670.407 50.6454   1
   6   2 -14 310.090 35.6895   1
   8  -2 -14 290.264 35.9828   1
  -2  -6 -14 309.804 39.7834   1
   2  -8 -11 913.227 39.6881   2
  -2   8  11 849.465 39.0230   2
   2   6  11 934.667 36.7856   2
   2  -8 -11 835.711 49.4068   1
   6   2 -11 912.145 45.0269   1
   8  -2 -11 880.835 45.4818   1
  -2  -6 -11 824.451 49.3860   1
   2  -8  -8 693.992 30.5611   2
   6   2  -8 643.516 30.2729   1
  -6   8  -8 695.286 22.3556   2
   8  -2  -8 689.532 33.9519   2
  -2  -6  -8 697.482 37.9047   1
   6   2  -8 715.752 34.0215   2
   2   6   8 707.517 27.6320   2
  -2   8   8 696.927 31.4257   2
   8  -2  -5 51.2102 11.4958   2
   6   2  -5 57.8500 11.5446   2
   8  -6   5 55.3753 12.2890   1
   6  -8   5 84.5646 12.3385   1
   2  -8  -5 33.8014 8.81182   2
  -8   2   5 42.4183 11.4172   2
   2   6   5 62.9494 9.55435   2
  -2   8   5 58.9597 11.3265   2
  -8   6  -2 10891.4 99.0681   2
  -8   2   2 10756.0 119.777   2
   8  -2  -2 10989.3 119.994   2
   8  -6   2 10646.7 98.7942   2
  -2   8   2 11038.6 117.087   2
   8  -2   1 21386.7 185.436   2
  -8   6   1 21512.7 196.700   2
   6   2   1 21090.6 188.565   1
   8  -6  -1 21791.9 196.922   2
  -6   8   1 21476.6 197.397   2
   6  -8  -1 21666.6 196.878   2
  -6  -2  -1 21328.0 189.163   1
  -6  -2  -4 66300.9 562.042   1
   8  -6  -4 66979.8 562.092   2
   2   6  -4 67527.6 535.547   1
  -8   2  -4 66367.7 564.693   1
   8  -2   4 67667.6 565.626   1
  -6   8   4 66782.5 560.268   2
   2  -8   4 66678.4 545.975   1
  -8   6   4 67208.8 562.113   2
   6  -8  -4 65817.3 559.336   2
   6   2   4 66018.0 529.668   2
  -8   6   7 18268.0 208.877   2
   2   6  -7 18530.2 194.902   1
  -6  -2  -7 18738.9 217.381   1
  -6   8   7 18626.2 206.895   2
  -2   8  -7 18495.5 192.284   2
   6  -8  -7 18593.1 206.031   2
   8  -6  -7 18443.5 208.493   2
   6   2   7 18503.1 170.097   2
   2   6  -7 18371.7 201.623   2
  -8   2  -7 17989.7 214.268   1
   2   6 -10 8629.82 132.837   2
  -6   8  10 8742.75 138.287   2
  -6  -2 -10 8824.25 154.051   1
  -8   2 -10 8712.30 152.493   1
  -8   6  10 8872.93 143.514   2
  -2   8 -10 8705.49 123.282   2
   2   6 -10 8678.09 136.240   1
  -6  -2 -13 761.282 54.3581   1
   2   6 -13 794.653 47.9065   1
  -8   2 -13 852.939 54.9033   1
   6  -8 -13 751.993 52.0105   1
   8  -6 -13 815.796 52.3695   1
   8  -1 -15 84.3010 27.1173   1
   1   7  12 434.152 28.2190   2
   8  -1 -12 437.954 36.5695   1
   7   1 -12 451.824 36.1065   1
  -1   8  12 454.165 30.4972   2
   1  -8 -12 405.657 38.6416   1
  -1  -7 -12 427.871 40.5486   1
   1   7   9 995.910 36.2583   2
   8  -1  -9 922.831 41.1371   2
  -1   8   9 927.635 36.9597   2
  -7   8  -9 868.740 24.1069   2
   7   1  -9 887.147 40.5551   2
  -1  -7  -9 953.557 46.6859   1
   7  -8   6 648.364 29.4860   1
  -7   8  -6 632.864 17.7267   2
   7   1  -6 659.102 29.1432   2
  -8   7  -6 571.977 12.6761   2
   8  -7   6 680.123 30.7708   1
   1   7   6 645.576 25.6013   2
  -1   8   6 633.463 26.9728   2
   8  -1  -6 661.805 29.6868   2
   7   1  -3 2019.71 44.2773   2
   1   7   3 1965.65 39.9255   2
  -1   8   3 1908.46 40.5168   2
   8  -1  -3 1971.28 43.7501   2
  -8   7  -3 1982.05 27.5107   2
  -8   7   0 4560.01 59.4429   2
   7  -8   0 4619.67 59.9658   2
  -7   8   0 4518.54 60.0768   2
   8  -7   0 4589.22 59.4127   2
   8  -1   0 4478.20 59.2300   2
  -7   8   3 28291.1 263.809   2
   7   1   3 28515.9 261.831   1
   8  -1   3 28568.0 264.037   1
   1  -8   3 28235.4 242.867   1
  -8   7   3 28965.8 264.961   2
   8  -7  -3 28421.3 263.612   2
  -7  -1  -3 28147.1 261.699   1
   7  -8  -3 28872.9 263.401   2
  -8   1  -6 1573.25 47.7771   1
  -7  -1  -6 1547.16 47.6699   1
   1   7  -6 1587.23 39.1475   1
   8  -7  -6 1598.73 45.6682   2
  -8   7   6 1539.93 45.2102   2
   7   1   6 1479.64 25.7769   2
  -7   8   6 1520.06 44.0474   2
   7  -8  -6 1546.82 44.3943   2
  -7  -1  -9 1577.86 58.8568   1
   1   7  -9 1649.88 51.2272   1
  -1   8  -9 1532.76 45.7986   2
  -1   8  -9 1568.38 51.2358   1
  -8   7   9 1580.93 53.9297   2
   7  -8  -9 1486.69 51.2831   2
   1   7  -9 1536.72 47.8223   2
   8  -7  -9 1531.56 52.0474   2
  -8   1  -9 1463.77 56.3216   1
  -7   8   9 1513.22 52.6210   2
   1   7 -12 594.654 39.8748   1
  -7   8  12 528.725 37.2808   2
  -8   1 -12 536.564 44.5215   1
  -7  -1 -12 549.024 43.8656   1
   8   0 -13 1950.44 74.3095   1
   0  -8 -13 1975.04 82.3753   1
   0  -8 -10 820.403 46.3618   1
   0   8  10 901.381 37.2412   2
   8   0 -10 775.529 38.7783   1
   8  -8   7 157.162 18.1148   1
   0   8   7 139.695 15.3221   2
  -8   8  -7 146.254 8.37828   2
   8   0  -7 133.365 16.2283   2
   8   0  -4 85.8453 10.6871   2
   0   8   4 73.2449 11.3021   2
   8  -8   4 89.7547 12.1904   1
   8  -8   1 10097.8 103.428   2
  -8   8  -1 10304.2 103.749   2
  -8   8   2 21333.6 203.825   2
   8   0   2 21029.0 199.320   1
  -8   0  -5 3840.76 71.3084   1
  -8   8   5 3922.15 69.8220   2
   8  -8  -5 3973.79 69.7998   2
  -8   8   8 575.436 31.8509   2
   8  -8  -8 598.495 31.7473   2
   0   8  -8 592.390 28.5318   1
  -8   0  -8 565.783 34.6172   1
   0   8  -8 560.238 27.3798   2
  -8   8  11 3193.42 84.4172   2
  -8   0 -11 3133.60 91.8674   1
   0   8 -11 2994.20 72.3464   2
   8  -8 -14 462.930 45.0038   1
   5   4 -14 1216.63 61.6513   1
   9  -4 -14 1029.70 60.0928   1
   4  -9 -14 1053.28 63.5799   1
  -4  -5 -14 1177.32 69.4514   1
   5   4 -11 3976.00 92.1976   1
  -4  -5 -11 3971.19 105.382   1
   4   5  11 3974.40 72.0625   2
  -4   9  11 3927.82 89.1116   2
  -5   9  -8 9779.46 117.100   2
   9  -4  -8 9846.22 143.794   2
   4   5   8 9802.96 117.478   2
  -9   4   8 10040.5 145.079   2
  -4   9   8 9726.72 135.974   2
   5   4  -8 10081.0 140.795   2
  -4  -5  -8 9955.62 152.254   1
   4  -9  -8 9721.94 135.036   2
   5   4  -8 9948.83 131.862   1
   5  -9   5 4843.45 76.6347   1
   9  -4  -5 4952.66 81.4047   2
   9  -5   5 4874.62 84.2207   1
  -4  -5  -5 4723.04 81.4972   1
   5   4  -5 4938.66 80.9239   2
  -4   9   5 4814.05 78.2851   2
  -9   4   5 4915.73 82.0484   2
   4   5   5 4676.98 65.7524   2
   4  -9  -5 4701.84 76.4762   2
  -9   4   2 27581.8 250.695   2
  -9   5  -2 27539.1 224.956   2
   9  -5   2 26866.9 225.041   2
   9  -4  -2 27857.9 249.746   2
  -4   9   2 27137.2 248.008   2
   9  -5  -1 5261.01 69.5722   2
  -5   9   1 5415.24 71.3273   2
  -9   4  -1 5367.38 61.4484   2
   9  -4   1 5293.23 61.1540   2
  -5  -4  -1 5509.76 63.2068   1
  -9   5   1 5223.98 69.8354   2
   5  -9  -4 8127.83 105.135   2
   4  -9   4 8172.07 99.7747   1
   9  -5  -4 8156.72 107.887   2
   4   5  -4 8311.86 85.5150   1
  -5   9   4 8328.32 107.039   2
  -9   5   4 8380.91 109.730   2
   9  -4   4 8261.19 110.545   1
  -5  -4  -4 8101.09 107.918   1
  -9   4  -7 27.9539 14.3947   1
   5  -9  -7-3.80946 11.2047   2
  -9   5   7 7.20461 12.4590   2
  -4   9  -7 6.61119 7.52725   2
   9  -5  -7 4.33287 12.0881   2
  -5  -4  -7 3.00836 14.8073   1
   4   5  -7 29.5609 12.4352   2
   5   4   7 13.6512 7.77651   2
  -5   9   7-6.71446 14.3751   2
   4   5  -7 4.43749 11.1604   1
   4   5 -10 741.259 37.7000   2
   5  -9 -10 594.098 33.2257   2
   5   4  10 732.478 27.0022   2
  -9   4 -10 690.292 42.1787   1
  -4   9 -10 697.571 29.5532   2
  -5   9  10 659.198 36.3615   2
   4   5 -10 781.014 38.1343   1
  -5  -4 -10 722.162 44.4499   1
   4   5 -13 5.48700 20.4865   1
  -5  -4 -13 43.3895 25.6832   1
   9  -5 -13 39.3477 21.9388   1
  -5   9  13 25.1475 17.5600   2
   5  -9 -13-0.34398 25.2872   1
   6   3 -15 396.488 41.1076   1
   9  -3 -15 435.196 43.2273   1
  -3   9  12 2979.42 78.1127   2
   3  -9 -12 2963.46 94.6416   1
   9  -3 -12 2962.83 88.1804   1
   6   3 -12 2918.57 83.4733   1
  -3  -6 -12 2960.18 95.7275   1
   3  -9  -9 1899.95 54.0812   2
  -6   9  -9 1842.76 40.7604   2
   6   3  -9 1846.72 56.8824   2
  -3   9   9 1833.60 54.2507   2
   3   6   9 1853.12 46.3957   2
   6   3  -9 1767.70 52.8293   1
  -3  -6  -9 1918.62 64.7881   1
   6  -9   6 5221.75 87.1309   1
   9  -3  -6 5255.53 90.1350   2
   9  -6   6 5412.46 93.3422   1
  -3   9   6 5083.09 83.9081   2
  -9   3   6 5321.21 90.6019   2
   3  -9  -6 5256.71 84.2875   2
   6   3  -6 5212.05 89.0169   2
   3   6   6 5342.45 76.2051   2
  -9   3   3 7344.25 96.7054   2
  -3   9   3 7473.16 94.5470   2
   9  -3  -3 7519.98 96.8265   2
  -9   6  -3 7237.40 67.3313   2
  -9   3   0 4968.91 64.4984   2
   6   3   0 4980.17 54.2143   1
  -6   9   0 5176.45 66.8005   2
   9  -6   0 5169.00 64.4827   2
   9  -3   0 5068.93 64.2582   2
  -9   6   0 5224.32 64.7283   2
   6  -9  -3 43459.5 362.506   2
  -6   9   3 44184.4 362.442   2
  -9   6   3 42888.1 363.438   2
   9  -6  -3 42861.9 362.587   2
   9  -3   3 42697.2 364.143   1
  -6  -3  -3 43541.9 359.300   1
  -6  -3  -6 9264.55 130.503   1
  -9   6   6 8961.09 125.879   2
   9  -6  -6 9174.98 126.495   2
  -9   3  -6 9293.25 131.401   1
   3   6  -6 9098.24 109.435   1
  -6   9   6 9348.84 125.235   2
   3   6  -6 9081.69 122.485   2
   6  -9  -6 9263.44 124.400   2
   6   3   6 9348.32 99.5338   2
   3   6  -9 5062.21 96.2464   2
  -9   3  -9 5129.58 108.078   1
  -6   9   9 5291.27 99.7280   2
   6  -9  -9 5369.00 99.7997   2
  -3   9  -9 5185.52 85.5876   2
  -6  -3  -9 5061.06 108.451   1
  -9   6   9 5317.17 103.048   2
   6   3   9 5264.42 72.4668   2
   3   6  -9 5108.43 93.3921   1
  -6   9  12 1691.79 62.1133   2
   3   6 -12 1637.76 62.5777   1
  -6  -3 -12 1606.25 71.4261   1
  -9   3 -12 1668.39 70.6270   1
   9  -6 -15-11.7366 24.5196   1
   7   2 -13 860.596 50.3304   1
  -2  -7 -13 801.431 54.6246   1
   2  -9 -13 759.434 54.6282   1
   9  -2 -13 818.715 50.4017   1
  -2   9  10 238.977 23.2833   2
  -2  -7 -10 192.048 27.6621   1
   7   2 -10 140.793 19.7424   1
   2   7  10 204.055 19.0165   2
  -7   9 -10 191.514 13.4260   2
  -7   9  -7 1570.99 32.7183   2
   2   7   7 1588.75 41.4838   2
  -2   9   7 1555.21 45.1951   2
   7   2  -7 1648.68 49.0376   2
   2  -9  -7 1525.47 43.7645   2
   7  -9   7 1522.49 48.0940   1
   9  -2  -7 1541.64 48.6690   2
   9  -7   7 1532.69 49.9885   1
  -9   2   4 266.439 18.9639   2
   7  -9   4 346.461 20.3732   1
   2   7   4 288.704 16.7924   2
  -2   9   4 294.342 19.1428   2
  -9   7  -4 244.375 7.58373   2
   9  -7   4 356.487 21.2164   1
   7   2  -4 301.568 19.5982   2
   9  -2  -4 303.423 19.1089   2
  -9   7  -1 1030.77 23.9206   2
   9  -2  -1 1075.07 28.3291   2
   9  -7   1 1059.90 23.6753   2
  -7   9  -1 1091.30 25.7451   2
   9  -7  -2 12079.4 131.528   2
  -7  -2  -2 12138.6 126.677   1
  -7   9   2 12001.2 131.661   2
   7  -9  -2 12109.5 131.835   2
   9  -2   2 11849.9 111.117   2
   7   2   2 12020.5 126.149   1
  -9   7   2 12161.6 131.791   2
   9  -2   5 124.156 14.7904   1
  -9   7   5 88.9743 13.9128   2
   2  -9   5 193.785 13.6389   1
  -7  -2  -5 112.432 14.7378   1
  -9   2  -5 125.278 17.3940   1
  -7   9   5 111.034 14.8707   2
   9  -7  -5 122.464 14.4351   2
   7   2   5 104.241 8.34808   2
   2   7  -5 111.495 9.79635   1
   7  -9  -8 49.0549 14.4477   2
   7   2   8 50.2686 7.39628   2
   2   7  -8 36.2357 11.1782   2
  -9   7   8 68.1507 17.7049   2
  -2   9  -8 30.1313 10.3821   2
  -7   9   8 37.2141 14.5506   2
  -9   2  -8 33.2380 16.2356   1
   9  -7  -8 0.13046 14.8158   2
   2   7  -8 14.1360 11.5415   1
  -7  -2  -8 24.9385 15.7625   1
  -9   7  11 159.612 24.1256   2
  -7   9  11 174.711 25.1686   2
   2   7 -11 140.462 21.0339   1
  -7  -2 -11 142.789 28.2240   1
  -9   2 -11 166.528 29.6061   1
   7  -9 -14-6.86963 22.6910   1
   9  -7 -14 17.4148 21.7676   1
  -7  -2 -14-7.13297 26.3922   1
   9  -1 -14 928.459 56.5397   1
   1  -9 -14 953.675 62.5865   1
   8   1 -14 1001.56 57.5807   1
  -1  -8 -14 956.820 62.4636   1
  -1   9  11 701.709 35.8337   2
   1   8  11 706.202 34.1415   2
   1  -9 -11 649.962 44.1900   1
  -1  -8 -11 667.797 46.1915   1
   8   1 -11 668.606 39.4674   1
   9  -1 -11 674.271 40.2274   1
  -1   9   8 2301.01 56.6138   2
  -8   9  -8 2238.72 37.5584   2
   8   1  -8 2271.20 62.9640   2
   9  -1  -8 2204.04 62.3653   2
   1   8   8 2380.89 55.4056   2
   9  -1  -5 1356.52 41.0953   2
   9  -8   5 1382.25 41.7817   1
   8   1  -5 1319.76 40.6528   2
   8  -9   5 1320.56 40.2816   1
  -1   9   5 1325.52 37.4803   2
   1   8   5 1344.15 36.0042   2
  -9   8  -5 1196.69 19.1890   2
  -8   9  -2 1630.17 30.7140   2
  -9   8  -2 1677.01 29.0268   2
   9  -1  -2 1690.83 38.7529   2
   8   1   1 5168.98 66.1421   1
  -9   8   1 5282.15 72.6213   2
  -8   9   1 5246.33 72.4708   2
   8  -9  -1 5409.45 72.3535   2
   9  -8  -1 5274.04 71.7609   2
   9  -1   4 175.726 15.7075   1
   8  -9  -4 182.726 15.5213   2
  -9   8   4 176.282 15.9144   2
  -9   1  -4 199.389 18.9719   1
   9  -8  -4 162.706 15.0890   2
   1  -9   4 163.219 11.3281   1
  -8   9   4 175.015 16.5666   2
  -8  -1  -4 230.875 18.3016   1
   9  -8  -7 1201.53 42.9960   2
   1   8  -7 1210.57 36.6923   1
  -8   9   7 1199.88 43.2051   2
   8   1   7 1107.57 22.1385   2
  -9   1  -7 1229.60 46.2901   1
   1   8  -7 1161.62 38.8873   2
  -9   8   7 1228.70 43.4994   2
   8  -9  -7 1182.36 42.0977   2
  -8  -1  -7 1125.43 44.2089   1
  -1   9 -10 210.243 19.9354   2
   1   8 -10 204.210 23.0032   1
   1   8 -10 235.188 22.4631   2
  -8   9  10 219.274 25.6123   2
  -9   8  10 271.308 27.6419   2
  -9   1 -10 193.886 27.5056   1
  -8  -1 -10 222.472 27.5167   1
  -8  -1 -13 498.148 46.0047   1
  -9   1 -13 475.568 44.1142   1
   9   0 -15 9.93457 23.7492   1
   0  -9 -12 47.5265 23.2681   1
   9   0 -12 39.9966 19.3303   1
   0   9  12 70.1540 16.9165   2
   0   9   9 4980.50 89.5113   2
   0   9   6 13210.3 153.607   2
   9  -9   6 13441.9 167.569   1
   9   0  -6 13552.0 166.925   2
   0   9   3 25640.8 239.597   2
   9   0  -3 25552.0 247.633   2
  -9   9  -3 25489.4 217.969   2
   9  -9   0 73975.2 598.015   2
  -9   9   0 73391.1 597.244   2
   9   0   3 70213.6 591.117   1
  -9   9   3 70952.6 593.559   2
   9  -9  -3 71020.1 593.056   2
   0  -9   3 70949.6 561.792   1
  -9   9   6 24814.7 243.967   2
  -9   0  -6 24332.1 245.791   1
   9  -9  -6 24917.5 243.913   2
  -9   9   9 7400.74 127.197   2
  -9   0  -9 7323.59 133.092   1
   0   9  -9 7416.09 115.891   2
  -9   9  12-11.4787 19.2424   2
  -9   0 -12-1.44779 23.2724   1
  10  -5   0 54425.9 444.726   2
 -10   5   0 53695.0 445.662   2
  -5  -5   0 54047.9 427.555   1
   5   5  -3 40939.6 332.790   1
  10  -5   3 43286.4 377.010   1
  -5  -5  -3 43605.4 368.939   1
  10  -5  -3 43274.6 374.184   2
   5 -10  -3 42997.2 371.306   2
 -10   5   3 42703.9 373.942   2
  -5  10   3 42245.7 371.252   2
  -5  10   6 9088.51 124.589   2
   5 -10  -6 9225.00 123.786   2
   5   5   6 9159.17 105.428   2
   5 -10   6 9167.40 122.709   1
  10  -5  -6 9390.17 130.515   2
  10  -5   6 9346.39 133.663   1
  -5  -5  -6 9188.37 131.551   1
   5   5  -6 9160.50 127.212   2
   5   5  -6 9283.11 108.385   1
 -10   5   6 8835.82 127.939   2
  -5  10  -9 4810.66 78.0605   2
   5   5   9 4940.88 75.5957   2
   5 -10  -9 4844.59 93.5730   2
 -10   5   9 4835.93 100.924   2
  -5  -5  -9 5059.43 108.462   1
   5   5  -9 4790.23 95.8004   2
   5   5  -9 5026.33 90.9946   1
  -5  10   9 4857.91 94.9529   2
   5   5 -12 111.379 21.9409   1
  -5  -5 -12 115.453 28.4338   1
  -5  10  12 94.1667 20.3487   2
  10  -5 -15-2.12116 25.2013   1
  -4  10  13 262.902 27.0513   2
  -4  -6 -13 337.872 40.0145   1
   4 -10 -13 262.600 36.5059   1
  -4  10  10 874.616 41.2826   2
   4 -10 -10 961.497 41.3376   2
   6   4 -10 941.997 41.8321   1
  -6  10 -10 917.758 30.4463   2
  -4  -6 -10 925.988 49.4954   1
   4   6  10 885.997 32.9094   2
   4   6   7 3844.76 64.0472   2
  10  -4  -7 3652.18 78.2233   2
   4 -10  -7 3926.62 75.9790   2
  -4  10   7 3662.01 74.4715   2
 -10   4   7 3748.89 79.6435   2
   6 -10   7 3840.09 76.9305   1
   6   4  -7 3803.72 78.3058   2
  -4  -6  -7 3866.93 83.7333   1
   6   4  -7 3822.64 67.5163   1
  10  -6   7 3721.90 82.0503   1
  10  -6   4 9674.39 124.971   1
 -10   4   4 9494.21 122.795   2
   6 -10   4 9812.71 117.387   1
  10  -4  -4 9656.15 122.750   2
  -4  10   4 9669.88 119.666   2
   4 -10  -4 9519.04 119.164   2
  -4  10   1 6392.05 83.7440   2
  10  -6   1 6431.19 73.5506   2
 -10   4   1 6541.55 82.6576   2
 -10   6  -1 6455.50 73.3368   2
  10  -4  -1 6553.59 82.7273   2
  10  -4   2 457.706 13.4808   2
 -10   6   2 457.685 21.2490   2
  10  -6  -2 474.744 21.0512   2
  -6  -4  -2 446.641 19.3463   1
   6 -10  -2 413.953 19.9083   2
  -6  10   2 418.307 21.1335   2
  10  -6  -5 292.366 20.3365   2
  10  -4   5 278.112 20.8292   1
  -6  -4  -5 270.875 20.4053   1
 -10   6   5 261.993 20.7482   2
   4   6  -5 295.909 14.1823   1
   4 -10   5 265.962 17.3661   1
   6 -10  -5 237.114 17.9788   2
   6   4   5 252.363 13.4655   2
  -6  10   5 294.103 20.3436   2
   6 -10  -8 1.61735 10.9728   2
 -10   6   8-2.90042 13.8562   2
   6   4   8 11.0384 7.73924   2
  -6  -4  -8 20.6543 17.3010   1
   4   6  -8 20.7250 10.4840   1
  -6  10   8-6.69026 13.1800   2
   4   6  -8 4.98677 10.8631   2
  -4  10  -8-14.8190 11.7642   2
  10  -6  -8-14.6747 13.6104   2
  -6  -4 -11 82.5457 23.5647   1
  -6  10  11 77.3214 19.1211   2
   4   6 -11 90.3708 19.1460   1
  -6  -4 -14 40.2374 29.8621   1
   4   6 -14 45.5309 25.7748   1
   6 -10 -14-37.0163 28.5269   1
   7   3 -14 40.4944 22.9831   1
   3 -10 -14 8.98114 25.1912   1
  -3  -7 -14 13.7695 25.0704   1
  10  -3 -14-2.89211 23.6274   1
  -3  -7 -11 269.752 31.7531   1
   3   7  11 296.282 21.9414   2
  -3  10  11 320.909 26.9435   2
   7   3 -11 274.125 26.7105   1
   3 -10  -8 5656.49 96.4048   2
   3   7   8 5782.96 87.8023   2
  -3  10   8 5678.69 97.9528   2
  10  -3  -8 5767.80 105.488   2
   7   3  -8 5821.06 93.8177   1
   7   3  -8 5789.55 104.312   2
  -7  10  -8 5656.65 76.6239   2
  -3  -7  -8 5823.20 112.094   1
   7   3  -5 9395.86 125.775   2
  10  -3  -5 9270.66 125.587   2
  -3  10   5 9307.02 119.943   2
   3   7   5 9247.38 110.703   2
  10  -7   5 9316.23 128.254   1
   7 -10   5 9344.16 121.593   1
 -10   3   5 9170.33 125.515   2
 -10   7  -2 5232.07 59.3902   2
  -3  10   2 5141.89 73.9447   2
  10  -7   2 5070.32 59.2920   2
  10  -3  -2 5056.90 75.5818   2
 -10   3   2 5245.88 75.8879   2
  -7  10   1 20408.6 195.747   2
   7   3   1 20005.6 182.715   1
 -10   7   1 20652.4 194.371   2
  -7  -3  -1 20137.2 183.648   1
  10  -3   1 20334.4 183.394   2
  10  -7  -1 20446.1 194.157   2
   7 -10  -1 20516.1 195.386   2
  10  -3   4 1515.01 42.7882   1
   3 -10   4 1572.83 35.7238   1
 -10   7   4 1468.73 41.5666   2
  -7  -3  -4 1518.75 41.1431   1
  -7  10   4 1582.52 42.6361   2
  10  -7  -4 1543.32 42.0211   2
   7 -10  -4 1571.73 41.9255   2
   7   3   7 374.673 15.6764   2
  -7  -3  -7 387.706 28.4867   1
   7 -10  -7 358.778 24.1126   2
  10  -7  -7 315.703 23.1094   2
  -7  10   7 376.069 25.2377   2
   3   7  -7 307.445 18.6365   1
 -10   7   7 343.269 25.8798   2
 -10   3  -7 346.420 27.3293   1
   3   7  -7 334.720 22.7825   2
  -3  10 -10 12.0188 10.2831   2
   3   7 -10-2.54098 12.1974   2
  -7  10  10-5.53704 15.7214   2
 -10   3 -10 35.7970 20.9680   1
   3   7 -10 14.3667 15.5881   1
 -10   7  10 11.3696 17.1285   2
  -7  -3 -10 0.67192 18.3864   1
   7   3  10 8.22508 6.82233   2
  -7  10  13 80.6084 22.8418   2
   3   7 -13 33.5465 19.1876   1
  -7  -3 -13 52.6770 26.9164   1
   8   2 -15 210.573 33.4169   1
   2   8  12 765.326 35.7316   2
   8   2 -12 857.197 46.1727   1
   2 -10 -12 707.153 49.5721   1
  10  -2 -12 713.263 44.2708   1
  -2  10  12 757.476 39.5775   2
  -2  -8 -12 781.775 52.4092   1
   2   8   9 7524.64 109.875   2
  -8  10  -9 7233.61 86.3708   2
  -2  -8  -9 7379.00 136.229   1
   8   2  -9 7439.36 117.168   1
  -2  10   9 7531.80 118.772   2
  10  -2  -6 14460.2 176.359   2
  10  -8   6 14412.1 178.462   1
   2   8   6 14367.2 158.771   2
  -2  10   6 14301.8 167.048   2
   8   2  -6 14306.7 174.934   2
   8 -10   6 14694.7 174.234   1
  -2  10   3 8352.09 105.450   2
  10  -2  -3 8458.60 110.357   2
 -10   8  -3 8485.40 83.3281   2
   8 -10   0 13201.3 136.931   2
 -10   8   0 13400.6 136.013   2
  10  -2   0 13290.3 135.845   2
  10  -8   0 13608.5 135.757   2
   8 -10  -3 1284.78 35.7232   2
  -8  -2  -3 1189.71 34.1399   1
  10  -2   3 1121.81 34.4050   1
  10  -8  -3 1202.26 35.2626   2
 -10   8   3 1247.09 35.9399   2
  -8  10   3 1167.35 35.4063   2
  10  -2   3 1221.80 21.7265   2
  10  -8  -6 599.219 29.9470   2
   2   8  -6 626.107 23.3645   1
 -10   2  -6 594.828 31.9615   1
   8   2   6 610.613 17.6038   2
  -8  -2  -6 570.766 31.0414   1
   8 -10  -6 582.396 28.7130   2
  -8  10   6 609.341 29.7104   2
 -10   8   6 552.719 29.2177   2
 -10   2  -9 5.13612 16.9121   1
  -8  -2  -9 7.26389 18.2264   1
   2   8  -9-13.1789 12.8726   2
   2   8  -9 7.60423 14.4854   1
   8   2   9 45.1630 7.30570   2
  -8  10   9-19.8886 17.4029   2
  -2  10  -9 42.3813 13.1849   2
 -10   8   9 25.1259 17.4840   2
  -8  -2 -12 242.800 34.0227   1
  -8  10  12 255.449 28.9961   2
 -10   2 -12 230.174 32.8047   1
   9   1 -13 11.9993 20.2484   1
   1 -10 -13-10.0486 25.9729   1
  -1  -9 -13 27.1516 26.0992   1
  10  -1 -13 32.1133 20.8027   1
  -1  -9 -10-11.1960 21.5652   1
  -1  10  10 19.0059 14.5547   2
  -9  10 -10 11.5293 4.85814   2
   9   1 -10 0.80456 14.5116   1
   1   9  10 16.6169 12.3848   2
   9   1  -7 29.9658 12.7872   2
  10  -1  -7-1.02297 12.5964   2
  -1  10   7 2.91567 11.5401   2
  10  -9   7 6.59342 11.8664   1
   9 -10   7 4.36132 12.5525   1
  -9  10  -7 23.7710 6.53064   2
   1   9   7 18.6041 11.6873   2
   1   9   4 2883.48 55.5579   2
  -1  10   4 2785.32 55.9105   2
  10  -1  -4 2968.55 61.8008   2
 -10   9  -4 2902.30 38.1040   2
   9   1  -4 3004.80 61.1218   2
 -10   9  -1 680.626 21.4018   2
  -9  10  -1 699.471 22.3863   2
  10  -1  -1 677.275 24.4372   2
  10  -9   1 718.235 21.3956   2
   9   1   2 15287.7 158.990   1
 -10   9   2 15894.9 166.582   2
   9 -10  -2 15984.2 166.379   2
  -9  10   2 16087.7 166.792   2
  10  -1   2 15434.3 161.745   1
  10  -9  -2 15825.5 165.197   2
   9   1   5 1371.27 24.8623   2
  10  -9  -5 1523.65 44.2064   2
   9 -10  -5 1470.99 43.6474   2
  -9  -1  -5 1499.03 44.4627   1
 -10   9   5 1508.12 43.7772   2
   1 -10   5 1560.34 35.3764   1
  -9  10   5 1511.19 43.9667   2
  10  -1   5 1530.83 44.5012   1
 -10   1  -5 1521.45 45.9869   1
 -10   9   8 1250.97 48.3074   2
  -9  -1  -8 1300.25 50.5720   1
 -10   1  -8 1262.14 50.5469   1
  -9  10   8 1259.93 47.7783   2
   1   9  -8 1233.42 42.9551   2
  -1  10  -8 1219.28 41.4447   2
  10  -9  -8 1236.31 46.0791   2
   9 -10  -8 1251.18 46.9876   2
   9   1   8 1144.86 21.3958   2
  -9  10  11 811.511 44.2054   2
  -9  -1 -11 886.137 51.2311   1
 -10   9  11 824.401 45.2249   2
 -10   1 -11 815.535 49.2404   1
   9 -10 -14-21.4233 24.0078   1
  -9  -1 -14 12.7742 28.3136   1
  10  -9 -14-20.9799 23.3361   1
  10   0 -11 2000.18 66.5881   1
   0 -10 -11 1990.59 76.6551   1
   0  10  11 1964.39 58.6417   2
   0  10   8 9386.08 131.070   2
  10 -10   5 8263.60 119.119   1
 -10  10  -5 8297.25 83.7829   2
   0  10   5 8357.19 111.495   2
  10   0  -5 8438.91 121.543   2
 -10  10  -2 13354.9 131.010   2
  10   0  -2 13219.0 148.350   2
  10   0   1 3593.40 56.2700   1
 -10  10   1 3732.37 61.5855   2
  10 -10  -1 3796.71 61.8580   2
 -10  10   4 4602.51 78.6338   2
 -10   0  -4 4480.83 77.8665   1
  10 -10  -4 4523.78 77.7089   2
   0 -10   4 4475.25 58.9254   1
  10   0   4 4390.34 77.2589   1
 -10   0  -7 1463.01 51.1212   1
  10 -10  -7 1381.94 47.2960   2
 -10  10   7 1393.94 47.7977   2
   0  10 -10 60.8409 14.8576   2
 -10   0 -10 91.7802 24.3782   1
 -10  10  10 11.7760 15.8052   2
  11  -5 -14 420.046 41.3566   1
   5 -11 -14 447.762 44.5874   1
   6   5 -14 540.236 42.6134   1
  -5  -6 -11 374.861 37.0383   1
   5   6  11 409.085 22.7010   2
  -5  11  11 404.256 31.8616   2
   6   5 -11 391.312 30.8344   1
  -5  11   8 5570.84 100.039   2
   5   6   8 5509.19 81.8176   2
   5 -11  -8 5807.94 101.023   2
 -11   5   8 5452.74 104.522   2
  -5  -6  -8 5625.38 110.318   1
   6   5  -8 5687.95 90.1998   1
  -6  11  -8 5389.92 81.6397   2
   6   5  -8 5404.29 101.207   2
  11  -5  -5 30499.0 299.971   2
   5 -11  -5 30592.0 295.378   2
   6 -11   5 30675.8 290.169   1
  11  -6   5 30902.7 303.867   1
  -5  11   5 30670.6 295.552   2
   6   5  -5 30912.8 264.746   1
  -5  -6  -5 30691.5 299.647   1
   5   6   5 29986.2 275.027   2
 -11   5   5 30348.8 300.015   2
  11  -6   2 63619.6 508.417   2
 -11   6  -2 63580.6 508.105   2
  -5  -6  -2 64326.0 522.426   1
 -11   5   2 62974.7 534.406   2
  -5  11   2 63581.3 533.607   2
  11  -5  -2 63663.1 534.126   2
  -6  -5  -1 46322.9 377.592   1
  11  -5   1 45148.2 378.287   2
  11  -6  -1 46111.1 391.876   2
 -11   5  -1 45822.5 379.251   2
 -11   6   1 45408.3 391.594   2
  -6  11   1 45818.1 394.134   2
  11  -5   4 82802.1 695.664   1
   6 -11  -4 81892.0 688.329   2
   5 -11   4 81297.3 676.127   1
  11  -6  -4 83991.4 693.771   2
  -6  -5  -4 82708.7 688.511   1
 -11   6   4 82918.1 692.950   2
  -6  11   4 83221.6 689.672   2
   6 -11  -7 7955.02 119.455   2
   5   6  -7 8118.21 104.825   1
  -6  11   7 7901.99 120.346   2
   5 -11   7 7818.08 116.468   1
  -6  -5  -7 8030.09 127.882   1
   6   5   7 8088.72 98.4458   2
  11  -6  -7 8066.37 125.760   2
 -11   6   7 7762.74 123.474   2
   5   6  -7 7841.18 120.958   2
  -6  -5 -10 201.756 27.5116   1
  -6  11  10 218.022 24.6222   2
   6   5  10 261.558 17.5700   2
   5   6 -10 239.575 23.1566   1
  -5  11 -10 245.252 18.9893   2
  -6  -5 -13 50.0296 25.9757   1
  -6  11  13 94.9120 22.5547   2
  -4  11  12 159.755 23.9122   2
  -4  -7 -12 192.725 32.0580   1
   7   4 -12 204.690 26.3080   1
  -4  -7  -9 91.4685 22.8719   1
  -4  11   9 83.3155 17.1423   2
  -7  11  -9 106.088 11.7381   2
   4 -11  -9 87.7296 14.9916   2
   4   7   9 125.909 15.6368   2
   7   4  -9 103.790 16.2313   1
 -11   4   6 333.198 24.5543   2
   7   4  -6 345.227 23.2725   2
  11  -4  -6 340.574 23.4652   2
  -4  11   6 326.511 23.0337   2
   4 -11  -6 355.998 22.5983   2
   4   7   6 339.415 19.0745   2
   7 -11   6 339.705 23.0043   1
  11  -7   6 348.742 24.4236   1
 -11   7  -3 5504.73 57.9586   2
  11  -7   3 5366.11 58.3463   2
  -4  11   3 5601.33 83.3075   2
  11  -4  -3 5577.79 84.3228   2
 -11   4   3 5514.30 84.0894   2
 -11   7   0 414.210 17.9770   2
  11  -4   0 398.479 17.5740   2
 -11   4   0 428.108 18.3489   2
  11  -7   0 414.106 17.5175   2
   7   4   0 424.565 13.1868   1
  -7  11   0 446.032 20.1144   2
  11  -7  -3 14577.9 158.400   2
  11  -4   3 13524.2 123.279   2
   7 -11  -3 14526.6 157.358   2
  11  -4   3 14306.0 159.436   1
  -7  -4  -3 14442.8 152.515   1
 -11   7   3 14242.6 157.712   2
  -7  11   3 13781.1 155.763   2
   7   4   6 3828.02 56.4455   2
   4 -11   6 3824.34 69.4994   1
   4   7  -6 3855.11 59.5936   1
  11  -7  -6 3756.27 77.4803   2
  -7  11   6 3793.38 76.1637   2
  -7  -4  -6 3794.96 78.3950   1
  11  -4   6 3855.98 80.9202   1
   7 -11  -6 3765.82 75.9685   2
 -11   7   6 3699.76 77.3332   2
  -7  11   9 2453.65 68.5648   2
  -4  11  -9 2461.63 56.9521   2
  -7  -4  -9 2414.01 74.9140   1
   4   7  -9 2546.55 61.7432   1
 -11   7   9 2602.96 74.0370   2
   4   7  -9 2633.36 69.1426   2
   7   4   9 2492.36 46.1721   2
  -7  -4 -12 559.961 45.6800   1
  -7  11  12 596.267 39.4015   2
   4   7 -12 577.236 38.2219   1
  11  -7 -15 324.424 40.4392   1
  -3  -8 -13 1680.13 78.5257   1
  11  -3 -13 1618.26 69.4765   1
   8   3 -13 1744.99 67.6562   1
   3 -11 -13 1613.79 77.0085   1
   8   3 -10 5269.57 100.870   1
   3   8  10 5115.15 88.1963   2
  -3  11  10 5127.62 100.895   2
  -8  11 -10 4886.11 70.0886   2
  -3  -8 -10 5432.05 119.967   1
  11  -3  -7 22771.6 251.262   2
   8   3  -7 22574.7 249.516   2
  11  -8   7 22585.0 254.752   1
  -3  11   7 21980.5 239.000   2
   3   8   7 22530.9 226.571   2
   8 -11   7 22123.5 246.355   1
  11  -3  -4 29661.4 284.472   2
   8   3  -4 30199.2 286.798   2
  11  -8   4 29723.8 286.382   1
 -11   8  -4 28490.6 235.094   2
  -3  11   4 29487.7 278.093   2
 -11   3   4 29340.3 285.001   2
  -8  11  -1 21627.4 201.054   2
 -11   8  -1 21341.7 195.706   2
 -11   3   1 21423.7 207.247   2
  11  -3  -1 21468.0 207.295   2
  -8  -3  -2 1571.65 36.4296   1
  11  -8  -2 1670.69 40.6569   2
 -11   8   2 1584.57 39.6467   2
   8   3   2 1604.58 35.5408   1
  -8  11   2 1567.80 39.8287   2
   8 -11  -2 1667.85 39.9413   2
  11  -3   2 1676.77 30.2120   2
  11  -3   5 4.31465 9.84947   1
 -11   8   5 0.64609 12.0544   2
  -8  -3  -5 12.5725 12.5218   1
  -8  11   5 79.9868 15.4402   2
  11  -8  -5 0.77091 10.1914   2
   8   3   5 24.1946 7.69083   2
   3 -11   5 8.07304 8.35574   1
   8 -11  -5 40.4737 11.9125   2
  -8  -3  -8 19.7807 17.4246   1
   8 -11  -8 43.1629 13.8321   2
  -3  11  -8 46.9141 11.6318   2
 -11   8   8 61.2811 17.7683   2
   8   3   8 56.2310 8.35050   2
   3   8  -8 24.1299 11.3066   1
  -8  11   8 101.452 19.3907   2
   3   8  -8 34.1632 12.7872   2
   3   8 -11 942.502 43.6872   1
  -8  -3 -11 889.658 51.9307   1
 -11   8  11 999.227 50.8000   2
  -8  11  11 933.771 47.6460   2
  11  -8 -14 208.602 31.0943   1
   8 -11 -14 212.451 33.2255   1
   9   2 -14 16.0448 20.6885   1
  -2  -9 -11-20.5519 25.3294   1
  -2  11  11 11.4338 14.3609   2
   2   9  11 26.1426 14.0929   2
   9   2 -11 12.3530 16.2192   1
   9   2  -8 383.975 27.1250   2
  -9  11  -8 396.669 16.4262   2
   2   9   8 403.519 24.7398   2
  -2  11   8 415.883 26.8240   2
  11  -9   5 4388.15 82.2843   1
   2   9   5 4471.40 72.1325   2
  11  -2  -5 4474.19 81.4916   2
   9   2  -5 4383.29 80.8213   2
   9 -11   5 4586.04 80.4062   1
 -11   9  -5 3986.41 43.6937   2
  -2  11   5 4403.42 76.2731   2
  -9  11  -2 90.9161 10.1137   2
  11  -2  -2 66.9594 10.5057   2
 -11   9  -2 82.2452 8.59631   2
  11  -9   2 75.4118 7.54721   2
  11  -9  -1 524.021 21.8865   2
   9   2   1 503.238 18.9531   1
   9 -11  -1 531.892 21.9562   2
 -11   9   1 660.235 24.7053   2
  -9  11   1 553.257 23.1356   2
  11  -2   1 545.613 18.9196   2
  11  -2   4 18511.1 195.326   1
 -11   9   4 17760.7 193.218   2
  -9  -2  -4 18029.1 191.549   1
  11  -9  -4 18525.4 195.231   2
   2 -11   4 17905.4 171.317   1
  -9  11   4 18362.5 195.046   2
   9 -11  -4 18772.3 195.217   2
  -9  11   7 1199.50 44.9770   2
  -9  -2  -7 1110.50 46.1177   1
   9   2   7 1154.43 24.5991   2
  11  -9  -7 1156.84 43.2401   2
   9 -11  -7 1230.78 44.6302   2
 -11   2  -7 1179.56 46.9182   1
 -11   9   7 1126.17 44.0756   2
  -9  11  10 4710.30 103.551   2
  -9  -2 -10 4321.81 107.003   1
 -11   9  10 4661.17 104.267   2
 -11   2 -10 4482.99 108.056   1
  -2  11 -10 4500.21 88.2763   2
   2   9 -10 4455.88 94.0041   2
  -9  11  13 1800.63 71.0927   2
  -9  -2 -13 1812.04 80.7386   1
  11  -1 -15 275.664 36.1163   1
  10   1 -12 873.873 46.8593   1
   1  10  12 879.460 40.1740   2
   1 -11 -12 867.202 55.8880   1
  11  -1 -12 879.012 48.1858   1
  -1  11  12 928.512 43.5504   2
  -1 -10 -12 841.085 54.0098   1
 -10  11  -9 1134.92 23.0134   2
  -1  11   9 1317.72 46.9380   2
   1  10   9 1250.96 43.8036   2
  10 -11   6 5035.27 90.3047   1
  11 -10   6 5057.49 92.2445   1
   1  10   6 5037.00 81.2743   2
  -1  11   6 4893.18 83.1013   2
  10   1  -6 4976.73 91.3492   2
  11  -1  -6 5056.89 91.1886   2
 -10  11  -3 7401.33 84.2850   2
  -1  11   3 7317.67 100.316   2
 -11  10  -3 7459.59 81.5092   2
  10   1  -3 7459.58 105.146   2
  11  -1  -3 7452.03 104.018   2
  11  -1   0 166.635 13.3985   2
 -10  11   0 124.280 12.9925   2
  10 -11   0 125.205 12.0037   2
 -11  10   0 121.186 12.8041   2
  11 -10   0 110.576 11.5201   2
  10   1   3 4361.11 71.4347   1
 -10  11   3 4359.02 75.1691   2
 -11  10   3 4377.21 74.9133   2
  11  -1   3 4390.92 73.2800   1
  10 -11  -3 4339.02 74.7052   2
  -1 -10   3 4416.50 50.8592   1
  11 -10  -3 4429.38 75.0744   2
 -11  10   6 2.23262 13.2252   2
 -10  11   6-10.6137 14.2197   2
  11 -10  -6-8.09299 11.6253   2
 -10  -1  -6 21.1721 13.4408   1
  10   1   6 2.99986 4.30320   2
 -11   1  -6 49.2488 17.5674   1
  10 -11  -6-0.98069 12.1986   2
 -11  10   9 154.300 22.2919   2
   1  10  -9 143.833 17.9351   2
 -10  -1  -9 111.634 21.2697   1
 -11   1  -9 134.227 23.7762   1
  -1  11  -9 143.347 16.6773   2
 -10  11   9 153.613 23.0184   2
 -10  11  12-33.1113 22.6070   2
 -11   1 -12 6.39404 21.6718   1
 -10  -1 -12 42.1098 25.8056   1
 -11  10  12-51.3458 23.0395   2
   0 -11 -13 5556.06 141.805   1
   0  11  10 11355.1 157.839   2
 -11  11  -7 31696.2 267.220   2
  11 -11   7 34719.7 341.447   1
   0  11   7 34655.3 322.905   2
 -11  11  -7 32485.8 269.293   2
  11   0  -7 34230.3 338.981   2
  11   0  -4 23661.2 245.808   2
   0  11   4 24098.0 237.756   2
 -11  11  -4 23508.0 207.840   2
  11   0  -1 10930.4 128.089   2
 -11  11  -1 10814.2 118.894   2
  11 -11   1 10944.0 119.369   2
 -11  11   2 333.827 20.6233   2
  11   0   2 310.216 17.8624   1
  11 -11  -2 335.023 19.5636   2
 -11   0  -5 3303.96 70.7743   1
  11 -11  -5 3387.28 70.6918   2
 -11  11   5 3250.36 70.5753   2
   0  11  -8 12.0935 12.2020   2
 -11  11   8-29.9892 18.4862   2
 -11   0  -8-22.6086 18.3287   1
 -11   0 -11 640.737 45.5630   1
 -11  11  11 667.687 42.4824   2
  12  -6   0 1386.48 33.2127   2
  -6  -6   0 1365.02 23.9829   1
 -12   6   0 1506.13 34.4769   2
  -6  12   3 9004.53 117.337   2
  12  -6  -3 9183.20 118.412   2
  12  -6   3 9029.03 87.7136   2
 -12   6   3 9229.86 118.490   2
  -6  -6  -3 9163.27 111.958   1
  12  -6   6 1221.57 44.9551   1
   6 -12   6 1191.18 39.1638   1
   6   6  -6 1175.78 29.9939   1
  -6  12   6 1150.12 41.7499   2
  12  -6  -6 1146.86 42.2163   2
   6 -12  -6 1193.93 40.8615   2
 -12   6   6 1132.57 42.3955   2
   6   6  -6 1173.00 41.4595   2
   6   6   6 1186.18 32.6845   2
  -6  -6  -6 1183.90 43.8003   1
  -6  12   9 715.450 37.8099   2
  -6  12  -9 672.269 27.9889   2
   6   6   9 743.961 27.6390   2
  -6  -6  -9 724.760 43.0045   1
 -12   6   9 758.295 41.5661   2
   6   6  -9 779.550 33.8134   1
  -6  12  12 1.96925 17.9164   2
   6   6 -12 8.42478 16.2350   1
  -6  -6 -12 38.8037 24.3381   1
  12  -6 -15 715.558 53.5857   1
   5 -12 -13-41.5184 27.1443   1
   7   5 -13-3.53563 17.9877   1
  -5  12  13 18.2626 18.5652   2
  -5  -7 -10-37.0206 23.6069   1
   7   5 -10-18.8976 14.6171   1
  -5  12  10-4.15444 16.0242   2
   5   7  10 13.7868 11.0839   2
  -7  12 -10 8.91420 8.70394   2
   7   5  -7 315.171 18.3783   1
   5   7   7 324.963 19.4327   2
  12  -5  -7 315.202 24.4724   2
  -5  12   7 323.988 25.2103   2
   5 -12  -7 363.134 24.5813   2
   7 -12   7 373.932 24.8702   1
 -12   5   7 333.990 27.1946   2
   7   5  -7 324.077 24.4894   2
  -5  -7  -7 328.522 27.0316   1
  12  -5  -4 296.571 19.7407   2
  12  -7   4 378.098 23.2595   1
  -5  12   4 443.658 24.7549   2
 -12   5   4 354.461 21.3354   2
  -5  12   1 73.5432 12.9182   2
  12  -5  -1 66.1449 10.4641   2
  12  -7   1 66.5015 8.87302   2
 -12   7  -1 72.8639 9.11305   2
 -12   5   1 68.4456 12.2934   2
  -5  -7  -1 52.0802 7.48015   1
  12  -7  -2 2996.09 56.7519   2
  -7  12   2 2851.07 56.5081   2
  -7  -5  -2 2850.14 50.2417   1
  12  -5   2 2845.19 42.4368   2
 -12   7   2 3008.89 56.6762   2
 -12   7   5 139.795 17.0819   2
   7   5   5 158.596 12.7344   2
   5   7  -5 135.916 9.79860   1
  12  -5   5 166.554 18.9233   1
   5 -12   5 175.640 15.7046   1
  12  -7  -5 141.088 16.7783   2
  -7  -5  -5 117.757 16.5699   1
   7 -12  -5 163.233 17.5642   2
  -7  12   5 156.709 18.6005   2
   5   7  -8 83.9868 15.1783   2
 -12   7   8 96.6336 19.7102   2
  -7  12   8 69.2314 16.5850   2
   7   5   8 114.452 12.1234   2
   7 -12  -8 87.6441 16.2155   2
   5   7  -8 45.8035 11.9702   1
  -7  -5  -8 76.0339 19.9993   1
  -7  12  11 69.9830 19.3552   2
   5   7 -11 95.2712 19.5505   1
  -7  -5 -11 80.8447 25.5158   1
   7 -12 -14 6.36141 25.2427   1
  12  -7 -14-30.7649 24.9952   1
  12  -4 -14 93.1799 26.1120   1
   8   4 -11 2678.03 73.4821   1
   4   8  11 2474.84 59.2632   2
  -4  -8 -11 2540.76 87.0565   1
  -4  12  11 2443.14 72.0260   2
   8   4  -8 3536.40 68.8590   1
   4   8   8 3559.45 67.6007   2
  -4  12   8 3608.73 79.5365   2
  -4  -8  -8 3610.56 88.7227   1
   8   4  -8 3584.96 82.7222   2
  -8  12  -8 3583.63 59.6297   2
   8 -12   8 3346.08 78.7432   1
  12  -4  -5 16573.0 191.046   2
  12  -8   5 16673.7 193.417   1
  -4  12   5 16451.0 184.907   2
   8   4  -5 16652.8 191.126   2
   4   8   5 16476.3 173.082   2
   8 -12   5 15849.2 183.188   1
 -12   4   5 16146.8 190.971   2
 -12   8  -2 15609.1 145.396   2
  -4  12   2 15631.1 167.372   2
 -12   4   2 15368.1 167.155   2
  12  -8   2 15209.2 146.197   2
  12  -4  -2 15378.2 166.059   2
  12  -8  -1 4896.56 72.8804   2
  -8  12   1 4889.67 74.6876   2
   8   4   1 4859.27 62.8504   1
 -12   8   1 4859.80 72.3314   2
  12  -4   1 4956.85 65.7114   2
  12  -8  -4 22007.1 217.530   2
   8 -12  -4 21928.5 214.526   2
  -8  -4  -4 21653.5 211.747   1
   4 -12   4 21809.7 197.315   1
  -8  12   4 21816.2 216.717   2
 -12   8   4 21336.1 216.316   2
  12  -4   4 21917.6 218.173   1
   8 -12  -7 1161.16 43.5319   2
  -8  12   7 1146.35 44.4971   2
   4   8  -7 1202.09 34.7227   1
  -8  -4  -7 1178.29 46.6699   1
  12  -8  -7 1166.01 44.6824   2
 -12   8   7 1159.64 45.9863   2
   4   8  -7 1143.92 42.3846   2
   8   4   7 1141.36 29.4911   2
  -4  12 -10 33.6364 12.3661   2
 -12   8  10 24.4580 18.0624   2
   4   8 -10 71.2210 17.0569   1
  -8  12  10 37.4041 18.1927   2
   8   4  10 44.0210 9.23013   2
  -8  -4 -10 59.2238 21.7421   1
  -8  -4 -13 12.7828 23.9982   1
  -8  12  13 55.2689 22.1435   2
  -3  -9 -12 1109.82 62.1919   1
  -3  12  12 1099.47 49.6194   2
   9   3 -12 1175.22 52.6643   1
  -3  12   9 3528.15 80.2581   2
   3   9   9 3532.89 71.5737   2
  -3  -9  -9 3464.61 91.9110   1
   9   3  -9 3650.98 76.2364   1
  -9  12  -9 3390.84 54.9604   2
  12  -3  -6 23337.9 254.068   2
   3   9   6 23419.1 234.221   2
  12  -9   6 23587.0 256.620   1
  -3  12   6 23090.5 244.383   2
   9 -12   6 23158.9 249.065   1
   9   3  -6 23543.9 254.146   2
  -3  12   3 17271.8 188.181   2
 -12   9  -3 17911.8 159.906   2
  12  -3  -3 17780.6 191.722   2
  12  -9   0 5279.88 73.3397   2
 -12   9   0 5489.29 74.4536   2
   9   3   0 5065.16 61.7453   1
  12  -3   0 5427.37 74.4981   2
  -9  12   0 5264.34 75.6363   2
  12  -3   3 140.863 8.92974   2
 -12   9   3 124.672 14.7250   2
  -9  12   3 124.939 16.0013   2
   9 -12  -3 109.871 13.7953   2
  12  -9  -3 102.006 13.0159   2
  -9  -3  -3 143.730 14.6155   1
  12  -3   3 211.874 17.5331   1
  -9  -3  -6 57.2562 15.2817   1
   9 -12  -6 85.6285 15.0844   2
   3 -12   6 88.0210 12.5053   1
 -12   9   6 72.0701 16.3467   2
  -9  12   6 67.4869 16.1811   2
  12  -9  -6 76.4319 14.6044   2
  12  -3   6 84.0628 16.4263   1
   9   3   6 93.3065 9.61431   2
  -3  12  -9 424.683 26.2726   2
 -12   9   9 440.188 32.4697   2
   3   9  -9 399.548 27.5303   2
   9   3   9 405.461 15.8976   2
  -9  12   9 434.912 31.4136   2
  -9  -3  -9 425.198 34.5514   1
  -9  -3 -12 572.023 47.0073   1
  -9  12  12 638.150 42.7736   2
  12  -2 -13 16.8220 20.9107   1
  10   2 -13 57.1619 22.2617   1
   2 -12 -13 42.4904 26.3728   1
  -2 -10 -13 33.7577 27.0710   1
  10   2 -10 315.756 27.2149   1
   2  10  10 275.943 23.6206   2
  -2 -10 -10 236.397 30.0257   1
  -2  12  10 314.280 27.5302   2
  -2  12   7 1353.88 45.8242   2
  10   2  -7 1308.96 48.0347   2
   2  10   7 1338.66 42.0215   2
  12  -2  -7 1308.53 48.6824   2
  10 -12   7 1306.52 47.5390   1
  10   2  -4 347.319 22.5506   2
  -2  12   4 296.613 20.9366   2
   2  10   4 305.618 19.3749   2
 -12  10  -4 336.993 12.4903   2
  12  -2  -4 330.786 21.6796   2
 -12  10  -1 344.328 17.0490   2
 -10  12  -1 356.914 18.5912   2
  12 -10   1 346.511 16.5778   2
  12  -2  -1 364.188 19.2278   2
  10 -12  -2 4141.87 70.5952   2
 -12  10   2 4300.02 71.1722   2
  10   2   2 4067.06 64.5029   1
  12  -2   2 3959.77 68.6218   1
  12  -2   2 4251.19 58.0431   2
 -10  12   2 4145.83 70.9162   2
  12 -10  -2 4236.63 70.5966   2
  12  -2   5 13.7400 2.61639   2
 -10  -2  -5 3.39378 13.3948   1
 -12  10   5 25.4042 13.2126   2
 -10  12   5 20.7003 13.2792   2
  12  -2   5 36.2957 11.7071   1
   2 -12   5 11.0754 7.26611   1
  12 -10  -5 6.77001 11.3543   2
  12  -2   5 10.6433 2.58735   2
  10 -12  -5 18.2040 11.1693   2
 -10  -2  -8 981.197 45.3737   1
 -10  12   8 1041.00 46.1982   2
 -12  10   8 1096.47 46.8512   2
   2  10  -8 1060.52 42.1555   2
  10   2   8 983.016 21.7176   2
 -12  10  11 310.698 31.3677   2
 -10  -2 -11 319.196 34.2199   1
 -10  12  11 327.460 31.6106   2
  12  -1 -14 306.924 34.6620   1
  -1  12  11 736.721 38.9416   2
   1  11  11 699.169 36.0959   2
  11   1 -11 682.569 38.4839   1
  -1 -11 -11 683.135 47.6663   1
  -1  12   8 3765.00 79.0206   2
   1  11   8 3882.96 77.6331   2
 -11  12  -8 3534.90 47.9554   2
  11   1  -5 4021.84 80.2490   2
  11 -12   5 3958.82 78.8298   1
 -12  11  -5 3967.24 49.1466   2
 -11  12  -5 4016.93 54.6198   2
  -1  12   5 3903.48 74.1506   2
  12 -11   5 3931.11 80.1135   1
   1  11   5 3871.46 71.9109   2
  12  -1  -5 3997.79 79.8413   2
  12  -1  -2 11.2916 8.95184   2
 -11  12  -2 15.8021 7.99697   2
  11   1  -2 20.1539 10.1906   2
 -12  11  -2 20.9032 7.88900   2
 -12  11   1 491.410 23.1147   2
  11   1   1 511.301 20.2674   1
 -11  12   1 539.567 24.0844   2
  12  -1   1 481.999 20.0554   2
  11 -12  -1 484.049 22.7042   2
  12 -11  -1 515.884 23.0002   2
  12  -1   4 19117.8 206.690   1
 -11  12   4 18804.7 207.292   2
  -1 -11   4 18864.3 170.631   1
  12 -11  -4 18965.5 207.984   2
  11 -12  -4 19336.2 209.178   2
 -11  -1  -4 18438.3 203.535   1
  11   1   4 18720.9 204.016   1
   1 -12   4 19141.6 177.734   1
 -12  11   4 18863.6 207.308   2
 -12  11   7 3331.96 77.4533   2
 -11  -1  -7 3341.65 79.7628   1
  11 -12  -7 3458.72 78.7919   2
 -12   1  -7 3275.50 78.9816   1
  12 -11  -7 3486.77 78.2564   2
 -11  12   7 3416.46 78.4931   2
 -11  12  10 2024.83 69.1563   2
 -11  -1 -10 2033.81 73.3536   1
  -1  12 -10 1977.59 58.9646   2
 -12   1 -10 1938.64 71.4557   1
 -12  11  10 2066.74 71.2451   2
 -11  12  13 94.2223 27.3043   2
 -11  -1 -13 60.8622 25.9453   1
   0  12  12 335.825 28.1278   2
  12   0 -12 317.969 30.4653   1
   0 -12 -12 295.551 37.3929   1
   0  12   9 1575.68 51.9966   2
 -12  12  -6 621.316 17.3469   2
  12 -12   6 661.699 33.5602   1
  12   0  -6 652.623 32.8715   2
   0  12   6 678.446 31.3954   2
 -12  12  -3 2332.56 42.1600   2
  12   0  -3 2366.91 55.8129   2
  12 -12   0 5396.93 79.0050   2
 -12  12   0 5436.86 79.2562   2
  12   0   3 20167.0 208.449   1
  12 -12  -3 19921.3 212.648   2
 -12  12   3 19703.1 211.543   2
 -12   0  -6 5192.93 96.9697   1
  12 -12  -6 5342.08 95.5903   2
 -12  12   6 5141.38 94.8135   2
 -12   0  -9 1274.10 56.1564   1
 -12  12   9 1321.88 54.2276   2
   0  12  -9 1263.24 47.0678   2
 -12  12  12-13.6709 22.8456   2
  13  -6 -14 19.4738 21.4092   1
   6   7  11 492.627 24.8942   2
  -6  -7 -11 427.452 40.4185   1
   7   6 -11 515.321 33.1538   1
  -6  13  11 532.559 37.8211   2
 -13   6   8 286.071 28.6009   2
  -6  13   8 277.194 25.7755   2
   6   7   8 271.550 18.8202   2
   6 -13  -8 326.727 26.2895   2
  -6  -7  -8 273.086 28.6611   1
   7   6  -8 279.496 19.5712   1
   7   6  -5 18.6338 5.77466   1
   6 -13  -5 66.6832 13.5607   2
   6   7   5 51.5772 10.9136   2
  -6  -7  -5 79.0145 15.2419   1
   7 -13   5 45.2185 11.8290   1
  13  -7   5 34.6885 14.0448   1
  -6  13   5 87.8010 17.5555   2
 -13   6   5 40.3512 15.1736   2
  13  -6  -5 22.2847 10.8139   2
  -6  -7  -2 9049.49 105.301   1
 -13   7  -2 9119.36 97.0545   2
  13  -6  -2 9129.30 115.963   2
  -6  13   2 9135.00 116.227   2
  13  -7   2 8982.92 97.0125   2
 -13   6   2 8867.89 114.554   2
  13  -6   1 11270.9 121.772   2
  -7  13   1 11821.4 135.006   2
  13  -7  -1 11684.7 132.107   2
 -13   6  -1 11642.8 122.480   2
 -13   7   1 11467.3 132.239   2
  -7  13   4 10556.3 130.836   2
   7 -13  -4 10718.5 132.493   2
  13  -7  -4 10638.9 133.983   2
  13  -6   4 10612.7 136.188   1
  -7  -6  -4 10538.6 128.355   1
 -13   7   4 10438.9 133.275   2
  13  -7  -7 3014.34 75.6090   2
   7 -13  -7 3290.87 74.3046   2
   7   6   7 3106.84 56.2897   2
  -7  -6  -7 3063.48 77.0225   1
   6   7  -7 3055.04 72.7552   2
   6   7  -7 3208.35 57.3364   1
 -13   7   7 3028.12 74.7669   2
  -7  13   7 3102.55 73.7260   2
   6 -13   7 3059.54 68.8103   1
   6   7 -10 319.214 25.1857   1
  -7  13  10 264.197 28.5722   2
   7   6  10 258.963 17.6682   2
  -6  13 -10 275.015 20.6856   2
  -7  -6 -10 287.272 32.1104   1
   6   7 -13 114.369 23.3855   1
  -7  -6 -13 34.1876 25.7679   1
  -7  13  13 42.2546 20.0759   2
  -5  13  12 137.229 24.0922   2
  -5  -8 -12 90.1236 27.8987   1
   8   5 -12 122.604 22.2399   1
  -5  -8  -9 218.748 26.8142   1
  -5  13   9 234.765 24.3234   2
  -8  13  -9 233.645 16.8545   2
   5   8   9 242.015 19.1580   2
   8   5  -9 259.582 21.0193   1
   8   5  -6 361.024 24.8008   2
   8   5  -6 381.291 17.0557   1
  13  -8   6 409.597 27.5670   1
   5   8   6 365.062 20.7518   2
 -13   5   6 380.482 26.6997   2
  -5  13   6 426.341 27.1186   2
   8 -13   6 377.225 24.3080   1
  -5  -8  -6 370.246 26.1751   1
  13  -5  -6 400.209 26.0624   2
  13  -5  -3 8376.31 114.249   2
 -13   5   3 8407.92 115.606   2
  -5  13   3 8215.19 113.560   2
 -13   8  -3 8469.94 86.5800   2
  13  -8   3 8239.15 86.1375   2
  13  -5   0 3960.11 62.2498   2
 -13   8   0 3997.85 62.7685   2
  -5  -8   0 3929.38 47.8288   1
  -8  13   0 3941.30 65.3991   2
  13  -8   0 3914.18 61.9782   2
 -13   5   0 3865.94 62.2890   2
   8 -13  -3 22247.0 226.612   2
  13  -8  -3 22373.2 228.077   2
  -8  -5  -3 21885.3 217.494   1
  13  -5   3 22009.7 227.868   1
 -13   8   3 22135.7 227.400   2
  13  -5   3 21679.2 190.609   2
  13  -5   6 10660.0 151.148   1
 -13   8   6 10378.3 147.762   2
   8   5   6 10455.5 117.931   2
  -8  -5  -6 10651.7 148.258   1
  -8  13   6 10414.7 146.120   2
   8 -13  -6 10874.7 146.057   2
  13  -8  -6 10792.7 149.494   2
   5 -13   6 10536.0 134.356   1
   5   8  -6 10894.4 115.974   1
  -8  13   9 3910.70 90.6809   2
   8   5   9 3915.03 62.1641   2
  -8  -5  -9 3925.85 97.6124   1
  -5  13  -9 3786.12 74.6758   2
   5   8  -9 4201.43 78.9642   1
 -13   8   9 3923.36 95.0100   2
  -8  13  12 1676.17 65.9896   2
  -8  -5 -12 1596.87 73.6022   1
   9   4 -13 72.9695 22.6521   1
  -4  -9 -13 50.6467 24.7997   1
   4 -13 -13 1.35912 26.9829   1
  13  -4 -13 38.9531 21.4880   1
   9   4 -10 8.09385 13.5084   1
  -9  13 -10 29.5066 9.30278   2
  -4  13  10 35.4928 17.5961   2
  -4  -9 -10 6.39325 20.6936   1
   4   9  10 25.9852 12.9920   2
   4   9   7 1103.97 36.6238   2
  -4  13   7 1062.56 42.4762   2
   9   4  -7 1078.82 43.0268   2
   9 -13   7 1051.01 41.9489   1
 -13   9  -4 559.700 14.4501   2
  -4  13   4 567.931 28.1469   2
  13  -4  -4 532.274 27.4783   2
 -13   4   4 499.167 27.4442   2
 -13   4   1 2030.99 46.0968   2
   9   4  -1 1990.88 29.1635   1
  -9  13  -1 2117.42 44.5330   2
 -13   9  -1 2070.35 40.5621   2
  13  -9   1 2039.45 40.1320   2
  13  -4  -1 2072.45 45.5942   2
 -13   9   2 550.556 25.2233   2
  -9  -4  -2 553.690 22.7621   1
  13  -9  -2 514.360 24.0136   2
   9 -13  -2 526.691 24.6858   2
  13  -4   2 539.155 18.5117   2
  -9  13   2 539.708 25.2166   2
 -13   9   5 1456.87 46.6503   2
  13  -4   5 1593.87 49.1154   1
  -9  13   5 1469.08 47.2353   2
  13  -9  -5 1494.91 47.1959   2
  -9  -4  -5 1433.95 45.0944   1
   4 -13   5 1449.38 38.2905   1
   9 -13  -5 1482.20 45.8878   2
  -9  13   8 404.191 30.6074   2
   9   4   8 404.711 17.4767   2
 -13   9   8 388.682 30.5499   2
   4   9  -8 373.198 27.1040   2
  -9  -4  -8 371.768 29.5714   1
  -9  -4 -11 569.549 43.8194   1
 -13   9  11 586.157 41.5702   2
  -9  13  11 581.716 40.2029   2
  13  -3 -14 690.393 49.0033   1
  -3 -10 -11 912.134 54.6631   1
   3  10  11 954.420 39.4048   2
  -3  13  11 1012.54 46.9186   2
  10   3 -11 968.648 44.5929   1
  -3  13   8 1229.22 46.8362   2
   3  10   8 1242.52 41.8911   2
 -10  13  -8 1234.98 30.8199   2
  -3  13   5 0.64003 13.6261   2
  13  -3  -5 5.01808 10.5655   2
 -13  10  -5-0.55388 3.07347   2
  13 -10   5-13.4694 13.0707   1
   3  10   5 8.57914 10.3567   2
  10   3  -5 17.6885 10.3142   2
  10 -13   5-11.9589 11.6468   1
  13  -3  -2 70.8397 11.8261   2
  13 -10   2 63.5611 8.54474   2
 -10  13  -2 76.8863 10.8136   2
 -13  10  -2 78.6656 9.80815   2
  10 -13  -1 2528.21 52.5372   2
  10   3   1 2490.52 44.1458   1
  13  -3   1 2492.71 45.7786   2
  13 -10  -1 2516.07 51.0768   2
 -13  10   1 2562.96 51.9543   2
 -10  13   1 2439.10 51.7942   2
 -10  -3  -4 2527.98 57.1919   1
 -10  13   4 2488.04 59.4448   2
  13 -10  -4 2608.66 60.0845   2
  13  -3   4 2378.73 34.4284   2
   3 -13   4 2642.24 47.6693   1
  13  -3   4 2585.55 59.5717   1
  10 -13  -4 2527.90 59.5951   2
 -13  10   4 2601.69 60.7678   2
 -10  -3  -7 231.767 24.3402   1
 -10  13   7 253.425 24.2021   2
  10 -13  -7 264.004 22.8750   2
  10   3   7 242.565 12.9127   2
 -13  10   7 206.199 22.0501   2
  -3  13 -10 590.154 31.5092   2
 -10  -3 -10 598.052 42.0205   1
 -13  10  10 560.528 38.7703   2
  10   3  10 554.370 15.6617   2
 -10  13  10 624.096 39.8058   2
 -10  -3 -13 695.924 53.8368   1
 -10  13  13 707.740 48.3898   2
  -2  13  12-17.2293 16.8770   2
  11   2 -12 8.49166 17.3549   1
   2 -13 -12-0.83047 23.8561   1
  13  -2 -12-12.8731 19.4632   1
  -2 -11 -12-46.0336 26.7488   1
  -2  13   9 236.533 24.4028   2
   2  11   9 228.132 21.9639   2
   2  11   6 5485.73 88.6784   2
  -2  13   6 5480.12 93.2620   2
  13  -2  -6 5702.17 100.509   2
  11 -13   6 5509.27 96.8002   1
  11   2  -6 5557.88 99.7830   2
  13 -11   6 5457.92 99.5815   1
 -11  13  -3 1245.44 31.1339   2
 -13  11  -3 1284.09 28.8987   2
  -2  13   3 1234.55 38.9199   2
  11   2  -3 1289.55 41.1414   2
  13  -2  -3 1331.67 41.1663   2
  11   2   0 7952.30 91.7704   1
 -13  11   0 8455.15 104.616   2
  13  -2   0 8341.03 103.926   2
  13 -11   0 8400.81 104.363   2
  11 -13   0 8337.78 105.409   2
 -11  13   0 8190.50 104.819   2
  -2 -11   3 23769.6 200.053   1
  11 -13  -3 24655.3 248.558   2
 -11  13   3 23910.1 247.486   2
  13 -11  -3 24389.3 247.432   2
  13  -2   3 24509.3 215.211   2
 -13  11   3 24728.1 247.608   2
  11   2   3 24694.7 240.578   1
  13  -2   3 24180.4 244.704   1
  11   2   6 407.992 15.8379   2
 -11  13   6 435.919 29.7612   2
  11 -13  -6 437.499 28.3029   2
   2 -13   6 418.796 21.4198   1
  13 -11  -6 368.968 25.7637   2
  13  -2   6 429.455 28.4336   1
 -11  -2  -6 421.250 28.7648   1
 -13  11   6 367.797 26.8406   2
 -11  13   9 394.134 31.1505   2
  11   2   9 285.434 9.13050   2
  -2  13  -9 379.486 26.8026   2
 -11  -2  -9 355.664 32.9088   1
 -13  11   9 390.629 32.0126   2
 -13  11  12 410.128 38.2171   2
 -11  -2 -12 465.541 43.8649   1
 -11  13  12 463.296 37.9350   2
  12   1 -13 403.933 36.7000   1
   1 -13 -13 338.498 39.9913   1
  -1 -12 -13 261.929 37.3608   1
  13  -1 -13 346.608 34.6022   1
  -1  13  10 800.243 40.4901   2
   1  12  10 762.835 37.7961   2
 -12  13  -7 1523.99 28.6544   2
  -1  13   7 1496.07 48.0733   2
   1  12   7 1548.10 47.5611   2
  12   1  -4 4227.01 81.5879   2
 -12  13  -4 4203.51 59.8971   2
  -1  13   4 4271.23 77.5900   2
   1  12   4 4129.07 75.3192   2
  13  -1  -4 4325.12 82.1174   2
 -13  12  -4 4227.76 56.8868   2
  13 -12   1 16364.6 168.443   2
 -13  12  -1 16879.6 169.505   2
  13  -1  -1 16121.6 177.494   2
  12 -13  -2 4776.63 79.6821   2
 -12  13   2 4648.45 78.9744   2
  12   1   2 4510.87 72.4693   1
  13  -1   2 4708.97 75.8840   1
  13 -12  -2 4639.24 78.5788   2
 -13  12   2 4577.03 78.3605   2
   1 -13   5 18291.9 176.822   1
 -12  13   5 18337.8 209.614   2
 -13  12   5 18241.8 209.401   2
 -12  -1  -5 18044.3 207.052   1
  13 -12  -5 18566.6 209.923   2
  13  -1   5 17097.4 156.984   2
  13  -1   5 18642.9 210.580   1
  12 -13  -5 18897.6 210.396   2
 -13  12   8 289.355 28.2496   2
 -12  -1  -8 318.002 29.4241   1
 -12  13   8 263.391 26.4511   2
 -12  13  11 364.122 34.5817   2
 -12  -1 -11 329.868 36.7322   1
 -13  12  11 336.798 34.6179   2
  13   0 -11 222.148 24.9215   1
   0  13  11 245.381 24.4931   2
   0 -13 -11 183.716 27.4066   1
   0  13   8 875.051 38.2873   2
 -13  13  -8 761.036 14.1170   2
  13   0  -5 12016.8 161.343   2
   0  13   5 11731.3 151.039   2
 -13  13  -5 12096.4 121.158   2
 -13  13  -2 11880.4 129.900   2
  13   0  -2 11747.6 145.712   2
  13 -13  -1 4321.76 73.5678   2
  13   0   1 4110.44 66.6952   1
 -13  13   1 4327.73 74.0839   2
 -13  13   4 6728.15 107.063   2
  13 -13  -4 6889.56 107.764   2
   0 -13   4 6648.46 77.7383   1
  13   0   4 6623.73 104.465   1
 -13  13   7 1554.17 54.7108   2
 -13   0 -10 900.739 50.7896   1
 -13  13  10 920.129 49.7400   2
 -13  13  13 1398.37 68.0634   2
  14  -7   0 32908.2 297.022   2
  -7  14   0 33236.6 304.776   2
 -14   7   0 33225.4 297.664   2
  -7  -7   0 32484.7 273.194   1
 -14   7   3 3699.34 71.2406   2
  14  -7   3 3716.36 49.7507   2
  -7  14   3 3719.14 71.4827   2
  14  -7  -3 3909.46 72.8071   2
  -7  -7  -3 3712.23 65.3294   1
   7 -14  -6 2527.22 63.0487   2
 -14   7   6 2365.74 64.2406   2
  14  -7   6 2419.46 67.0909   1
  14  -7  -6 2500.36 66.2217   2
   7   7  -6 2465.43 42.9350   1
  -7  14   6 2404.15 63.9515   2
   7   7   6 2370.06 50.3813   2
   7 -14   6 2500.09 58.7153   1
  -7  -7  -6 2488.14 64.2006   1
  -7  14   9 22.3562 16.5976   2
   7   7  -9 12.3170 11.4815   1
   7   7   9 6.30551 9.50735   2
 -14   7   9 4.24187 17.5750   2
  -7  14  -9 0.39842 10.4475   2
  -7  -7  -9 1.06332 18.1622   1
   7   7 -12 170.016 24.3362   1
  -7  14  12 138.150 25.3333   2
  -7  -7 -12 122.209 30.8102   1
  14  -7 -15 10.9388 24.1861   1
   8   6 -13 709.802 43.4984   1
  -6  14  13 615.597 41.9939   2
  -6  -8 -13 695.321 56.2565   1
   6   8  10 262.368 19.6945   2
  -6  14  10 275.493 28.3640   2
  -8  14 -10 268.835 19.1408   2
   8   6 -10 329.986 24.8842   1
  -6  -8 -10 253.686 31.3987   1
   8 -14   7 1584.56 49.6638   1
  -6  14   7 1558.37 51.4264   2
 -14   6   7 1536.76 54.5883   2
   8   6  -7 1531.17 52.1264   2
   6   8   7 1559.61 42.4077   2
  -6  -8  -7 1532.84 54.5025   1
   8   6  -7 1621.94 38.7282   1
  14  -6  -4 435.664 24.8292   2
   8   6  -4 367.954 10.5944   1
  -6  14   4 445.486 25.9668   2
  14  -8   4 429.037 25.7729   1
 -14   6   4 361.049 23.5714   2
  -6  -8  -4 376.065 22.2313   1
  14  -6  -1 8784.02 111.164   2
  14  -8   1 8693.62 102.478   2
  -6  14   1 9054.31 115.478   2
 -14   8  -1 8862.38 102.558   2
  -6  -8  -1 8698.56 96.3673   1
 -14   6   1 8518.89 110.838   2
  14  -8  -2 29640.7 281.685   2
  -8  14   2 29055.9 282.474   2
  -8  -6  -2 29618.9 267.174   1
  14  -6   2 28752.6 256.525   2
  14  -8  -5 31196.5 312.202   2
   8 -14  -5 31462.2 308.004   2
  -8  -6  -5 30583.9 304.564   1
   6 -14   5 29864.2 290.885   1
  14  -6   5 31101.3 314.142   1
  -8  14   5 30630.0 307.668   2
 -14   8   5 29990.5 308.925   2
  -8  14   8 11413.4 164.817   2
  -8  -6  -8 11416.7 171.093   1
 -14   8   8 11392.9 170.478   2
   8   6   8 11289.2 130.928   2
   6   8  -8 11543.1 137.854   1
   6   8 -11 2656.46 69.9614   1
  -8  -6 -11 2486.25 86.9470   1
  -8  14  11 2464.50 78.1163   2
  14  -5 -14 1475.39 69.8434   1
  -5  -9 -11 2322.29 85.5123   1
   5   9  11 2355.70 58.1189   2
  -5  14  11 2427.01 74.6421   2
   9   5 -11 2556.32 69.5995   1
   9   5  -8 9550.96 122.384   1
  -5  14   8 9360.16 144.588   2
   5   9   8 9336.58 126.364   2
  -5  -9  -8 9709.67 155.495   1
   9   5  -5 7995.33 121.169   2
   9 -14   5 7547.06 111.617   1
   5   9   5 7532.31 103.907   2
  14  -9   5 7985.79 122.642   1
 -14   5   5 7507.24 119.225   2
  14  -5  -5 7875.01 120.068   2
  -5  14   5 7540.46 115.275   2
 -14   9  -2 2561.13 43.2750   2
  14  -5  -2 2651.21 55.6489   2
 -14   5   2 2446.45 53.9363   2
  14  -9   2 2569.36 43.1103   2
  -5  14   2 2627.43 56.7475   2
  -5  -9   1 95.1050 5.15595   1
  14  -5   1 127.510 11.4564   2
 -14   9   1 119.849 13.7062   2
  -9  14   1 106.046 14.8198   2
  14  -9  -1 123.821 13.0468   2
  -9  14   4 48.9485 13.4112   2
  14  -9  -4 57.5579 13.1066   2
  14  -5   4 51.1329 5.53923   2
   9 -14  -4 65.4635 14.1855   2
  -9  -5  -4 57.5719 14.6006   1
 -14   9   4 62.3835 15.0522   2
  14  -5   4 59.7914 13.2923   1
 -14   9   7 3.15291 15.5158   2
  -9  14   7 22.1765 15.5607   2
   9   5   7 1.51743 9.00464   2
  -9  -5  -7-3.18951 15.7935   1
   9 -14  -7 25.6403 13.5427   2
   5 -14   7 38.4223 11.3406   1
  -9  14  10 864.157 45.4914   2
  -9  -5 -10 764.342 47.0920   1
  -5  14 -10 820.297 35.2940   2
 -14   9  10 848.367 47.4307   2
   9   5  10 818.906 25.5458   2
  -9  14  13 31.7327 21.0809   2
  -9  -5 -13 4.00618 24.7728   1
  10   4 -12 35.2006 17.1313   1
  -4 -10 -12-13.2824 27.1965   1
  -4  14  12 22.1592 17.1009   2
  10   4  -9 550.421 28.6767   1
 -10  14  -9 529.485 21.5857   2
  -4  14   9 572.971 34.8836   2
   4  10   9 550.830 29.2301   2
  -4 -10  -9 571.298 39.4725   1
  10 -14   6 4457.41 86.7686   1
  14  -4  -6 4653.25 91.6394   2
   4  10   6 4609.28 79.8839   2
  -4  14   6 4563.99 87.2073   2
  10   4  -6 4472.41 90.2944   2
  14 -10   6 4572.37 92.7441   1
 -14  10  -3 14883.3 142.414   2
  -4  14   3 15096.3 171.937   2
  14  -4  -3 14757.7 172.289   2
 -14   4   3 14388.2 172.456   2
  14 -10   3 14890.9 143.436   2
 -14  10   0 17749.7 178.014   2
  14 -10   0 17444.9 177.266   2
  10   4   0 16739.8 158.240   1
  14  -4   0 17079.6 176.755   2
 -10  14   0 17284.9 180.759   2
  14  -4   3 4180.49 55.6429   2
 -14  10   3 4192.19 77.0367   2
  10 -14  -3 4353.02 77.4970   2
  14 -10  -3 4245.80 77.5341   2
 -10  14   3 4097.88 76.4222   2
 -10  -4  -3 4222.26 72.5719   1
  14  -4   3 4297.54 78.0230   1
  10   4   6 1360.98 32.4953   2
  10 -14  -6 1359.51 47.0898   2
 -10  14   6 1329.16 48.1501   2
   4 -14   6 1377.49 40.0028   1
  14 -10  -6 1402.43 48.6713   2
 -10  -4  -6 1363.55 47.4189   1
 -14  10   6 1293.28 47.3177   2
 -10  14   9 19.2389 16.0668   2
  10   4   9 16.5440 6.32506   2
  -4  14  -9 4.78972 10.6483   2
 -10  -4  -9 30.0966 19.5518   1
 -14  10   9-0.70676 19.1094   2
 -10  -4 -12 190.430 34.2190   1
 -10  14  12 163.859 28.0734   2
  -3 -11 -13 404.793 44.7003   1
  14  -3 -13 421.016 37.0696   1
  11   3 -13 471.605 37.1885   1
   3 -14 -13 352.691 40.1892   1
  -3 -11 -10-21.4582 25.2393   1
  -3  14  10 14.1007 15.6397   2
   3  11  10 24.3135 14.8252   2
  11   3 -10 9.73468 13.5333   1
   3  11   7 1426.37 44.2783   2
  -3  14   7 1406.94 49.0267   2
  11 -14   7 1351.59 48.9661   1
  -3  14   4 9586.70 131.574   2
 -11  14  -4 10094.4 113.655   2
  11   3  -4 10015.9 137.847   2
  14  -3  -4 9889.58 137.269   2
 -14  11  -4 10122.0 101.708   2
  14  -3  -1 7681.93 104.867   2
 -14  11  -1 8000.13 98.2179   2
 -11  14  -1 7707.56 100.253   2
  14 -11   1 7575.15 96.7478   2
  11 -14  -2 43824.6 395.531   2
  14 -11  -2 43820.3 393.978   2
 -11  14   2 43226.2 394.497   2
  14  -3   2 43526.7 371.161   2
 -14  11   2 43641.4 394.188   2
  11 -14  -5 6612.78 109.000   2
  14  -3   5 6752.21 110.682   1
 -11  14   5 6551.47 108.331   2
  14 -11  -5 6686.80 110.011   2
 -11  -3  -5 6600.16 106.789   1
   3 -14   5 6568.03 89.7990   1
 -14  11   5 6810.37 110.755   2
 -11  14   8-12.0952 17.0933   2
   3  11  -8-23.7972 16.0800   2
 -11  -3  -8 3.29473 18.0180   1
  11   3   8 5.44967 5.31380   2
 -14  11   8-18.7773 17.7467   2
 -11  -3 -11 381.724 39.0961   1
 -14  11  11 390.149 36.2286   2
 -11  14  11 429.707 37.6431   2
 -11  14  14 676.973 50.8919   2
  14  -2 -14 372.477 36.8275   1
  -2  14  11 333.404 28.8347   2
  -2 -12 -11 289.765 34.1835   1
  12   2 -11 340.733 28.7117   1
   2  12  11 320.850 26.4292   2
 -12  14  -8 159.970 11.0045   2
  -2  14   8 136.563 20.7947   2
   2  12   8 119.553 17.1678   2
  14  -2  -5 244.214 21.8638   2
  -2  14   5 231.214 20.4279   2
 -12  14  -5 251.081 14.4072   2
 -14  12  -5 232.693 11.1777   2
   2  12   5 204.073 18.7066   2
  14 -12   5 249.241 21.7158   1
  12   2  -5 263.708 22.0731   2
 -12  14  -2 2243.14 46.4704   2
 -14  12  -2 2251.87 44.1212   2
  14 -12   2 2249.59 44.3143   2
  14  -2  -2 2264.33 53.2975   2
 -14  12   1 1207.45 36.9988   2
  12 -14  -1 1212.68 37.3708   2
  12   2   1 1102.87 30.6578   1
 -12  14   1 1146.62 36.2826   2
  14  -2   1 1166.18 32.2973   2
  14 -12  -1 1192.37 36.2449   2
  12 -14  -4 1872.05 52.3957   2
 -14  12   4 1892.38 53.1008   2
  14  -2   4 1835.31 32.7044   2
 -12  14   4 1763.51 51.8198   2
   2 -14   4 1811.83 37.6500   1
  14 -12  -4 1822.40 52.1818   2
  14  -2   4 1813.64 51.5711   1
 -14  12   7 111.663 20.1610   2
 -12  -2  -7 199.526 24.4598   1
 -12  14   7 139.657 22.1841   2
  12   2   7 137.144 9.45448   2
 -12  14  10 36.2655 21.1694   2
 -12  -2 -10 54.5613 24.3617   1
 -14  12  10 34.6753 21.8854   2
  -2  14 -10 21.8063 12.4313   2
 -12  14  13 917.255 54.9369   2
 -14  12  13 897.158 56.8016   2
 -12  -2 -13 891.763 60.6889   1
  -1  14  12 883.926 44.1309   2
   1 -14 -12 843.023 55.7286   1
  -1 -13 -12 859.441 56.1416   1
   1  13   9 1409.87 49.9567   2
  -1  14   9 1408.64 52.2905   2
   1  13   6 18464.2 208.563   2
 -13  14  -6 18452.6 171.409   2
  14 -13   6 17430.5 219.017   1
  13 -14   6 17892.7 217.548   1
  -1  14   6 18457.7 211.876   2
 -14  13  -6 18206.5 162.624   2
 -13  14  -3 2994.72 53.2716   2
  13   1  -3 2991.10 66.7413   2
 -14  13  -3 3081.28 51.5144   2
  14  -1  -3 3014.68 65.9070   2
  14 -13   0 4487.91 73.3892   2
  13 -14   0 4395.12 73.3984   2
 -14  13   0 4407.02 72.8835   2
 -13  14   0 4348.65 73.0151   2
  14  -1   0 4443.43 72.7441   2
  13 -14  -3 2604.08 60.7473   2
 -14  13   3 2635.29 60.8891   2
 -13  14   3 2567.72 60.5574   2
  14  -1   3 2515.72 45.2524   2
  13   1   3 2507.11 56.2228   1
  14  -1   3 2563.48 58.1211   1
  14 -13  -3 2569.06 59.7365   2
  13 -14  -6 26.1378 13.2841   2
 -14  13   6 31.1106 16.3622   2
 -13  -1  -6 80.1136 20.3169   1
  14  -1   6 16.1296 3.80887   2
  13   1   6 27.3250 6.42269   2
 -13  14   6 16.6891 15.0418   2
  14  -1   6 9.99332 3.22375   2
 -14  13   9 217.439 27.6125   2
 -13  14   9 203.502 26.0955   2
 -13  -1  -9 216.548 28.9455   1
 -14  13  12 659.957 47.7352   2
 -13  14  12 646.906 46.6631   2
   0 -14 -13 170.019 33.2846   1
  14   0 -13 116.683 23.2736   1
   0  14  10 346.329 28.5899   2
 -14  14  -7 7355.89 78.3147   2
   0  14   7 7541.57 120.543   2
  14   0  -4 3493.02 75.3655   2
   0  14   4 3354.17 71.1181   2
 -14  14  -4 3591.53 56.0555   2
 -14  14  -1 2816.88 55.0531   2
  14   0  -1 2737.94 59.5137   2
  14 -14   1 2850.26 55.6942   2
  14 -14  -2 8.68739 10.1554   2
 -14  14   2-5.81258 13.5816   2
  14   0   2 22.6259 9.80257   1
 -14  14   5 16904.6 205.609   2
  14 -14  -5 17385.5 207.265   2
  14   0   5 17296.3 205.473   1
   0 -14   5 17281.7 167.160   1
 -14  14   8 5767.43 115.609   2
 -14  14  11 4772.00 116.842   2
 -14  14  14 1288.83 69.6061   2
   8   7 -11 95.8065 18.8013   1
  -7  15  11 47.5256 19.2989   2
  -7  -8 -11 61.5875 24.4108   1
 -15   7   8 186.714 23.4576   2
   7   8   8 238.197 18.2323   2
  -7  15   8 244.389 26.3635   2
   8 -15   8 237.958 22.9595   1
   8   7  -8 227.931 17.9851   1
  -7  -8  -8 203.175 26.1405   1
   8   7  -5 51.5797 6.36848   1
  15  -7  -5 41.1739 13.0910   2
  -7  -8  -5 41.2023 13.3046   1
   8 -15   5 46.7108 10.9129   1
  -7  15   5 79.1265 17.2465   2
 -15   7   5 33.8436 14.6607   2
  15  -8   5 58.6681 14.2273   1
  -7  -8  -2 1829.05 40.8626   1
  -7  15   2 1989.64 50.0298   2
  15  -8   2 1910.64 38.1905   2
 -15   8  -2 1877.71 38.0926   2
 -15   7   2 1890.69 47.9392   2
  15  -7  -2 1953.53 48.6809   2
  15  -7   1 15401.0 160.020   2
 -15   8   1 15778.0 172.233   2
  15  -8  -1 15972.5 171.770   2
 -15   7  -1 15782.4 160.701   2
  -8  -7  -1 15223.3 152.406   1
  -8  15   1 15734.0 174.159   2
  15  -8  -4 545.309 27.8801   2
  15  -7   4 512.096 14.5144   2
  15  -7   4 594.880 29.8445   1
  -8  -7  -4 530.436 26.3841   1
  -8  15   4 577.346 29.9460   2
 -15   8   4 540.143 28.8555   2
   7 -15   7 10329.7 143.121   1
  -8  -7  -7 10142.5 154.085   1
   7   8  -7 10240.4 152.344   2
   8   7   7 10343.3 126.040   2
   7   8  -7 10569.1 118.398   1
   8 -15  -7 10607.4 152.730   2
  -8  15   7 10390.2 152.463   2
 -15   8   7 10033.1 154.329   2
  -8  -7 -10 843.834 49.0223   1
   8   7  10 813.656 29.5733   2
   7   8 -10 829.544 36.5819   1
  -8  15  10 798.063 43.7285   2
  -8  15  13 353.051 36.3450   2
   9   6 -12 1300.74 52.1304   1
  -6  -9 -12 1212.91 65.7570   1
  -6  15  12 1269.53 57.0005   2
   6   9   9 2352.26 56.3041   2
   9   6  -9 2445.92 57.2097   1
  -9  15  -9 2236.65 50.6300   2
  -6  15   9 2419.64 70.8488   2
  -6  -9  -9 2293.38 75.4535   1
   9   6  -6 4585.67 61.6739   1
   9 -15   6 4274.79 83.3300   1
  15  -6  -6 4377.48 90.7005   2
   9   6  -6 4369.36 90.7407   2
  -6  15   6 4370.74 87.5376   2
 -15   6   6 4366.42 91.5306   2
   6   9   6 4325.39 75.5079   2
  -6  -9  -6 4406.28 89.7942   1
  -6  15   3 1052.65 37.6821   2
  15  -6  -3 1113.18 38.3641   2
  15  -9   3 1041.50 25.5575   2
  -6  -9  -3 1042.60 33.2735   1
 -15   6   3 994.413 37.9121   2
 -15   9  -3 1036.59 25.5070   2
 -15   9   0 336.191 18.9493   2
  -9  15   0 340.716 20.9640   2
  15  -6   0 313.219 18.0844   2
 -15   6   0 297.822 19.0555   2
  -6  -9   0 334.914 12.8029   1
  15  -9   0 341.533 18.8854   2
  -9  15   3 1.69744 11.5280   2
 -15   9   3-14.8065 13.6919   2
  15  -6   3 3.53962 5.61164   2
  15  -9  -3 0.33432 9.91006   2
  -9  -6  -3 18.7026 11.3518   1
  15  -9  -6 1434.68 50.4679   2
  -9  15   6 1479.07 50.3390   2
   9   6   6 1496.93 37.8202   2
   9 -15  -6 1477.16 49.4708   2
   6 -15   6 1432.71 43.2126   1
  -9  -6  -6 1404.19 49.2027   1
 -15   9   6 1395.06 50.4298   2
  -9  15   9 142.238 24.7315   2
   9   6   9 149.789 13.7078   2
  -9  -6  -9 141.555 25.2980   1
 -15   9   9 138.645 24.3602   2
  -9  15  12 53.7717 22.8043   2
  -9  -6 -12 90.8026 28.7206   1
  -5  15  13 277.310 30.3979   2
  -5 -10 -13 244.078 38.4300   1
  -5 -10 -10 1036.17 54.7736   1
   5  10  10 964.794 37.8444   2
  10   5 -10 983.812 40.2253   1
  -5  15  10 980.320 47.9461   2
  -5 -10  -7 1104.00 47.3270   1
  10 -15   7 1200.03 45.3791   1
  -5  15   7 1194.36 46.7934   2
  10   5  -7 1199.30 33.3282   1
   5  10   7 1164.57 39.0166   2
  -5  15   4 1931.10 53.0229   2
  15  -5  -4 1899.99 53.8587   2
 -15   5   4 1843.17 53.6688   2
 -15  10  -4 1883.71 31.9321   2
  15  -5  -1 10229.3 126.554   2
 -15   5   1 10169.2 127.428   2
 -10  15  -1 10448.0 124.893   2
  10   5  -1 9782.89 95.6036   1
  15 -10   1 10391.8 117.919   2
 -15  10  -1 10468.7 118.808   2
 -10  15   2 140.056 16.6042   2
 -15  10   2 109.965 14.6538   2
  15  -5   2 96.3680 9.63808   2
  15 -10  -2 120.091 14.7966   2
 -10  -5  -2 128.910 14.1280   1
  15 -10  -5 6676.00 110.702   2
  10 -15  -5 6496.40 108.579   2
  15  -5   5 6668.30 112.195   1
 -10  15   5 6470.52 108.909   2
   5 -15   5 6580.19 94.3525   1
 -10  -5  -5 6649.50 106.142   1
 -15  10   5 6312.30 108.758   2
 -15  10   8 1630.48 58.7460   2
 -10  15   8 1622.79 57.5519   2
  10   5   8 1723.86 38.6368   2
 -10  -5  -8 1619.21 60.1017   1
 -15  10  11 864.995 50.7186   2
 -10  -5 -11 862.591 53.3152   1
 -10  15  11 848.597 49.5641   2
  15  -4 -14-13.4544 23.7900   1
  -4 -11 -11 558.858 44.9466   1
  11   4 -11 589.056 34.5601   1
  -4  15  11 538.182 37.2591   2
   4  11  11 514.950 30.2961   2
  -4  15   8 771.032 39.6703   2
   4  11   8 731.269 33.1975   2
  -4 -11  -8 741.054 41.5040   1
  11   4  -8 769.720 29.7925   1
  11   4  -5 1100.00 43.1701   2
 -15  11  -5 1094.70 20.7394   2
   4  11   5 1160.86 38.5370   2
  15  -4  -5 1159.41 43.9210   2
  -4  15   5 1150.28 42.2270   2
  15 -11   5 1103.08 43.2656   1
  15 -11   2 27371.7 252.755   2
 -15  11  -2 27944.4 251.848   2
 -11  15  -2 27907.1 261.542   2
  15  -4  -2 27600.3 274.829   2
 -15  11   1 11473.5 137.825   2
  15  -4   1 11193.7 128.320   2
 -11  15   1 11518.2 139.475   2
  11   4   1 11161.2 122.096   1
  15 -11  -1 11518.5 138.409   2
  15  -4   4 10727.3 146.318   1
  11 -15  -4 10817.1 144.222   2
 -11  15   4 10423.1 143.645   2
  15 -11  -4 11071.4 146.643   2
 -11  -4  -4 10874.6 140.544   1
  15  -4   4 10601.2 105.218   2
 -15  11   4 10677.5 145.118   2
 -11  15   7 5407.43 105.693   2
   4 -15   7 5604.76 91.8079   1
 -15  11   7 5717.46 110.576   2
  11   4   7 5673.91 75.1433   2
 -11  -4  -7 5455.48 106.975   1
 -11  15  10 1259.71 56.3143   2
  -4  15 -10 1153.07 44.9771   2
 -15  11  10 1272.75 58.7311   2
 -11  -4 -10 1347.14 61.5559   1
 -11  15  13 451.955 40.6891   2
 -11  -4 -13 485.458 48.0209   1
  -3 -12 -12 81.8508 23.2454   1
  12   3 -12 163.182 22.7919   1
  -3  15  12 147.694 23.2476   2
  -3 -12  -9 287.082 31.1822   1
  -3  15   9 357.851 29.4965   2
   3  12   9 306.964 24.0304   2
 -12  15  -9 300.346 15.2289   2
  12   3  -9 347.741 24.3052   1
   3  12   6 1163.96 39.9304   2
  -3  15   6 1122.85 43.2864   2
  12 -15   6 1272.27 49.1024   1
 -12  15  -3 884.281 28.6550   2
  -3  15   3 871.621 35.7325   2
 -15  12  -3 916.050 25.9715   2
  15  -3  -3 894.001 35.3338   2
 -12  15   0 693.406 28.3911   2
  12   3   0 665.141 21.1096   1
 -15  12   0 635.964 26.8588   2
  15  -3   0 641.706 26.0185   2
  15 -12   0 684.236 26.9967   2
  15  -3   3 16.3808 6.62539   2
  15  -3   3 19.4249 9.76324   1
 -15  12   3 15.6891 12.5136   2
  12 -15  -3-4.30928 10.3316   2
 -12  15   3-10.5023 14.9236   2
  15 -12  -3 17.8991 10.5020   2
  12   3   3 4.89091 9.42155   1
 -15  12   6 143.119 20.7619   2
 -12  15   6 167.053 22.8048   2
   3 -15   6 195.586 15.8256   1
 -12  -3  -6 214.389 24.1619   1
  12   3   9 44.1043 5.70881   2
 -12  -3  -9 27.0914 18.4791   1
 -12  15   9 52.2864 19.3721   2
 -15  12   9 40.0965 17.8110   2
 -15  12  12 896.665 54.0305   2
 -12  15  12 844.449 51.4777   2
 -12  -3 -12 934.347 58.8987   1
   2 -15 -13 188.916 33.9127   1
  15  -2 -13 170.469 27.6403   1
  -2 -13 -13 211.458 34.4145   1
  -2 -13 -10 76.8206 20.2547   1
  -2  15  10 81.5338 19.4126   2
  13   2 -10 84.2152 16.8796   1
   2  13  10 109.583 19.6029   2
 -13  15  -7 420.068 17.5183   2
  -2  15   7 397.749 27.8929   2
   2  13   7 420.438 27.6654   2
 -13  15  -4 1381.55 34.6004   2
  -2  15   4 1391.84 45.4930   2
  15  -2  -4 1388.03 46.6646   2
 -15  13  -4 1441.07 31.5618   2
  13   2  -4 1376.03 47.2904   2
 -15  13  -1 5661.36 82.6448   2
  15 -13   1 5542.89 82.1899   2
 -13  15  -1 5627.41 84.0071   2
  15  -2  -1 5534.04 88.1226   2
  13   2   2 1766.92 43.1777   1
  13 -15  -2 1834.40 49.1278   2
 -15  13   2 1851.41 49.2754   2
 -13  15   2 1811.65 49.9303   2
  15  -2   2 1767.38 39.9051   2
  15 -13  -2 1805.84 48.8111   2
  15  -2   2 1855.98 47.9755   1
  13 -15  -5 713.747 35.0446   2
 -13  15   5 789.210 37.7400   2
   2 -15   5 769.245 25.9448   1
  15 -13  -5 739.257 36.3252   2
 -15  13   5 776.022 37.7942   2
  15  -2   5 805.682 37.0862   1
  15  -2   5 671.650 18.3488   2
 -13  15   8 382.355 32.5290   2
  13   2   8 327.210 11.7868   2
 -15  13   8 324.879 29.8648   2
 -13  -2  -8 405.141 33.9687   1
 -13  15  11 26.5577 20.5997   2
 -15  13  11-4.80585 21.9388   2
 -13  -2 -11 14.4856 23.2389   1
 -13  15  14 133.274 30.1739   2
  -1 -14 -11 119.622 24.3849   1
   1  14  11 189.600 22.8970   2
  -1  15  11 166.615 23.6023   2
  -1  15   8 1997.22 61.1933   2
   1  14   8 1967.86 58.9616   2
 -14  15  -8 1903.12 31.9946   2
  -1  15   5 1328.43 46.0643   2
   1  14   5 1298.01 44.4790   2
  14   1  -5 1297.83 47.5504   2
 -15  14  -5 1382.05 30.6682   2
 -14  15  -5 1349.99 32.6920   2
  15  -1  -5 1376.04 49.3166   2
  15  -1  -2 880.654 34.8310   2
 -14  15  -2 907.492 30.0389   2
 -15  14  -2 921.040 29.9636   2
  14   1  -2 964.307 36.5685   2
 -15  14   1 1648.96 45.9238   2
  14 -15  -1 1620.54 44.8576   2
  15  -1   1 1589.58 40.2460   2
  14   1   1 1500.79 38.8039   1
 -14  15   1 1639.22 46.1900   2
  15 -14  -1 1576.19 44.7932   2
  14 -15  -4 2320.47 60.5683   2
  -1 -14   4 2250.22 35.4489   1
 -14  15   4 2231.57 60.6589   2
 -15  14   4 2141.85 59.2870   2
  15  -1   4 2052.82 39.3310   2
   1 -15   4 2226.88 40.5181   1
  15  -1   4 2187.08 57.8012   1
  15 -14  -4 2214.30 58.8709   2
  14   1   4 2181.96 56.4898   1
 -15  14   7 232.174 26.8622   2
 -14  15   7 185.489 24.3470   2
  14   1   7 170.746 9.21554   2
 -15  14  10 476.577 38.4452   2
 -14  15  10 410.760 36.2510   2
 -14  15  13 319.976 38.6202   2
 -15  14  13 340.341 39.3078   2
   0  15  12 35.3130 18.6046   2
  15   0 -12 20.1545 17.9417   1
   0  15   9 62.3744 17.9891   2
   0  15   6 941.102 40.4009   2
 -15  15  -6 1004.29 25.6596   2
  15   0  -3 13739.3 173.763   2
 -15  15  -3 13849.6 148.874   2
  15 -15   0 15548.6 174.060   2
 -15  15   0 15553.7 173.645   2
  15   0   0 15299.0 173.375   2
 -15  15   3 19635.6 221.464   2
  15   0   3 19599.2 214.868   1
  15 -15  -3 20288.5 222.779   2
 -15  15   6 22844.8 262.690   2
 -15  15   9 3259.32 90.5278   2
 -15  15  12 1534.40 70.9854   2
  -8  16   0 199.055 18.4502   2
 -16   8   0 187.445 15.5838   2
  16  -8   0 180.246 14.8080   2
  -8  -8  -3 1051.76 34.4927   1
  -8  16   3 1024.46 39.0570   2
  16  -8  -3 1044.93 38.1868   2
  16  -8   3 1028.31 25.7999   2
 -16   8   3 984.687 37.3940   2
  -8  -8  -6-31.7799 17.5159   1
   8 -16   6 1.57602 11.4448   1
   8   8   6 7.10157 10.1454   2
  -8  16   6-28.7908 16.6229   2
 -16   8   6-23.5377 19.9353   2
   8   8  -6 10.3043 6.70370   1
  -8  -8  -9 326.245 32.6231   1
  -8  16   9 337.784 30.5663   2
   8   8   9 342.218 21.5550   2
   8   8  -9 377.833 23.3021   1
 -16   8   9 265.464 28.4557   2
  -8  -8 -12 1721.76 77.8493   1
  -8  16  12 1744.19 69.2025   2
  -7  -9 -13-36.3390 27.9356   1
  -7  16  13-17.4219 20.5659   2
  -7  -9 -10 692.908 47.0762   1
   9   7 -10 730.234 33.7839   1
  -7  16  10 723.663 42.3491   2
   7   9  10 686.666 30.7188   2
   7   9   7 6994.63 103.644   2
  -7  -9  -7 7049.43 124.714   1
   9 -16   7 6938.67 115.843   1
  -7  16   7 7009.74 122.144   2
   9   7  -7 7280.44 90.2999   1
 -16   7   7 6923.71 125.467   2
  16  -7  -4 9165.50 130.965   2
  -7  -9  -4 8952.37 121.599   1
  16  -9   4 8516.63 89.4559   2
 -16   7   4 8516.65 127.970   2
  -7  16   4 8703.80 127.029   2
  16  -7  -1 8573.54 114.003   2
  16  -9   1 8316.66 105.040   2
  -7  -9  -1 8330.09 96.3119   1
 -16   7   1 8422.89 113.097   2
 -16   9  -1 8589.66 105.773   2
  -9  16  -1 8568.47 113.228   2
  -7  16   1 8405.05 117.734   2
  -9  16   2 13855.0 166.902   2
  16  -9  -2 13969.4 164.704   2
 -16   9   2 13910.2 164.880   2
  -9  -7  -2 13756.1 149.599   1
  16  -7   2 13702.3 144.095   2
  16  -9  -5 3051.11 73.3290   2
  -9  -7  -5 3016.71 68.7688   1
  16  -7   5 3090.08 74.4184   1
  -9  16   5 2997.13 71.5645   2
   9 -16  -5 3041.51 70.5915   2
 -16   9   5 2981.81 72.0923   2
   7 -16   5 3015.08 62.5178   1
  -9  -7  -8 261.905 28.4960   1
  -9  16   8 243.123 26.4610   2
   7 -16   8 259.882 23.5102   1
   9   7   8 255.534 17.6817   2
 -16   9   8 259.230 28.0211   2
  -9  -7 -11 75.0714 26.1844   1
  -9  16  11 66.6412 21.5706   2
  16  -6 -14-8.38175 22.2955   1
  -6  16  11 9.89156 17.3758   2
   6  10  11-5.25540 12.4117   2
  10   6 -11 31.5436 15.2323   1
  -6 -10 -11-19.6688 25.0721   1
  10   6  -8-6.17935 10.4705   1
   6  10   8-2.82728 12.4147   2
  -6 -10  -8-12.3909 18.5483   1
  -6  16   8 7.48216 16.5417   2
  -6  16   5 157.227 20.0811   2
  -6 -10  -5 189.942 20.6444   1
  16  -6  -5 174.329 19.6049   2
  10   6  -5 185.456 9.71435   1
 -16   6   5 157.785 20.3896   2
  16 -10   5 200.424 21.8119   1
  16  -6  -2 786.837 32.0025   2
  16 -10   2 803.211 25.5261   2
  -6  16   2 811.492 34.9039   2
 -16   6   2 798.796 33.5690   2
 -16  10  -2 843.307 26.1805   2
  -6 -10  -2 791.694 26.8782   1
 -10  16  -2 820.439 30.1894   2
 -16  10   1 1356.46 39.7374   2
 -10  16   1 1378.35 41.5987   2
  16  -6   1 1377.76 35.2545   2
  -6 -10   1 1157.35 19.1155   1
  16 -10  -1 1362.23 39.7191   2
 -10  -6  -4 5983.54 95.5974   1
  16 -10  -4 6116.25 102.944   2
  16  -6   4 5679.76 66.9956   2
  16  -6   4 5890.98 103.263   1
  10 -16  -4 6171.14 101.906   2
 -16  10   4 5852.05 100.747   2
 -10  16   4 5802.83 100.434   2
   6 -16   7 3536.19 73.2265   1
  10   6   7 3541.70 61.6655   2
 -10  16   7 3569.02 84.5685   2
 -10  -6  -7 3492.23 84.3676   1
 -16  10   7 3492.43 85.6387   2
 -10  16  10 2981.40 85.9813   2
 -16  10  10 2989.42 89.8012   2
  10   6  10 2746.51 50.8535   2
 -10  -6 -10 2881.81 89.8366   1
 -10  -6 -13 663.259 53.6457   1
 -10  16  13 562.489 43.9806   2
  -5 -11 -12-25.7718 30.3543   1
  11   5 -12 27.6577 16.9740   1
  -5  16  12 48.5689 19.7073   2
 -11  16  -9 522.301 22.8460   2
  11   5  -9 570.098 28.1651   1
  -5  16   9 535.455 35.8621   2
   5  11   9 582.432 30.9827   2
  -5 -11  -9 557.165 39.9107   1
  11 -16   6 1009.50 40.7296   1
   5  11   6 1007.25 37.3811   2
  -5  16   6 963.523 41.3273   2
 -16  11  -3 598.635 21.3218   2
  -5  16   3 562.514 30.5350   2
 -11  16  -3 553.828 24.6371   2
 -16   5   3 525.340 29.5825   2
  16  -5  -3 542.608 28.7202   2
  16 -11   3 592.212 20.7250   2
  16  -5   0 10340.0 126.574   2
 -16  11   0 10547.2 127.610   2
  16 -11   0 10500.5 127.502   2
  11   5   0 10293.1 107.488   1
 -11  16   0 10347.6 131.575   2
 -16  11   3 15009.8 180.039   2
 -11  -5  -3 15377.2 171.811   1
  16  -5   3 15370.0 149.968   2
  16  -5   3 15080.1 182.510   1
  16 -11  -3 15483.1 181.851   2
  11 -16  -3 15659.4 183.304   2
 -11  16   3 14666.7 179.640   2
 -16  11   6 24571.2 277.264   2
 -11  16   6 24885.2 275.542   2
   5 -16   6 24590.9 248.951   1
 -11  -5  -6 24841.1 272.184   1
 -11  -5  -9 7000.64 136.949   1
  11   5   9 6850.88 86.6334   2
 -16  11   9 6959.14 135.570   2
 -11  16   9 7156.56 133.073   2
 -11  -5 -12 5401.13 138.226   1
 -11  16  12 5364.10 127.413   2
  -4 -12 -13 15.3783 25.7491   1
  -4 -12 -10 72.3882 22.4092   1
   4  12  10 135.728 18.9767   2
  -4  16  10 130.780 22.3377   2
  12   4 -10 119.646 17.4037   1
   4  12   7 1703.72 50.8632   2
  -4  16   7 1689.86 56.1959   2
 -16  12  -4 880.961 23.2369   2
  -4  16   4 813.269 36.4663   2
 -12  16  -4 861.214 29.0686   2
  12   4  -4 863.162 38.0133   2
  16  -4  -4 788.115 35.7783   2
 -16  12  -1 571.850 24.1411   2
  12   4  -1 527.827 16.7257   1
  16 -12   1 572.337 24.2900   2
  16  -4  -1 541.068 25.9934   2
 -12  16  -1 567.241 25.7290   2
 -16  12   2 860.282 34.6170   2
  12 -16  -2 869.498 34.3920   2
  16 -12  -2 838.773 33.6221   2
 -12  16   2 837.917 34.7260   2
  12   4   2 804.069 28.1204   1
  16  -4   2 806.601 26.3696   2
 -16  12   5 340.245 26.5686   2
  16  -4   5 229.970 22.0234   1
 -12  16   5 217.091 23.4739   2
  12 -16  -5 239.226 21.9207   2
  16 -12  -5 253.197 22.5985   2
   4 -16   5 197.566 15.1376   1
 -12  -4  -5 239.779 23.2708   1
  16  -4   5 208.524 9.24881   2
 -12  -4  -8 1130.52 51.4508   1
  12   4   8 1137.74 29.3119   2
 -12  16   8 1119.66 50.0171   2
 -16  12   8 1144.41 51.3519   2
 -12  16  11 247.603 30.5011   2
 -12  -4 -11 291.766 36.1681   1
 -16  12  11 283.551 34.6673   2
 -12  16  14 159.941 30.7312   2
  -3  16  11 307.985 30.3996   2
  -3 -13 -11 233.757 32.5137   1
   3  13  11 356.770 28.0044   2
  13   3 -11 279.390 26.0397   1
  -3  16   8 607.441 36.8789   2
   3  13   8 636.887 33.9809   2
 -13  16  -8 637.025 21.9666   2
  16  -3  -5 120.947 17.3318   2
 -16  13  -5 106.976 8.78331   2
 -13  16  -5 119.530 12.3516   2
   3  13   5 109.727 15.4517   2
  13   3  -5 128.523 18.6395   2
  -3  16   5 88.8257 16.0721   2
 -16  13  -2 10904.9 125.901   2
  16 -13   2 10895.8 125.696   2
 -13  16  -2 10817.5 130.396   2
  16  -3  -2 10891.9 142.919   2
  16  -3   1 6717.12 93.4344   2
  13   3   1 6574.28 87.9538   1
 -13  16   1 6563.02 101.023   2
  16 -13  -1 6773.16 100.796   2
  13 -16  -1 6836.60 102.536   2
 -16  13   1 6953.17 100.986   2
  13 -16  -4 9066.44 131.926   2
 -13  16   4 8445.44 129.953   2
  16  -3   4 8620.90 96.4063   2
  16  -3   4 9019.41 130.819   1
  16 -13  -4 8969.06 131.354   2
 -16  13   4 8771.95 129.512   2
 -13  16   7 3239.09 81.8913   2
 -16  13   7 3252.33 82.6861   2
  13   3   7 3201.30 50.8695   2
 -13  -3  -7 3088.24 81.5884   1
 -16  13  10 2560.53 84.0753   2
 -13  -3 -10 2674.35 87.1881   1
 -13  16  10 2633.53 83.4379   2
 -13  16  13 401.932 40.1283   2
 -16  13  13 388.095 42.6531   2
  14   2 -12 2109.75 68.7984   1
  -2 -14 -12 2075.08 85.0599   1
  -2  16  12 1991.90 69.7461   2
 -14  16  -9 1461.32 28.2397   2
  -2  16   9 1629.99 58.6576   2
   2  14   9 1657.20 55.4614   2
   2  14   6 9010.76 132.359   2
 -16  14  -6 8930.07 92.0466   2
 -14  16  -6 9222.53 105.854   2
  -2  16   6 9120.48 138.915   2
  16  -2  -3 12.3238 12.2584   2
 -14  16  -3 0.58663 9.33533   2
 -16  14  -3-5.57489 9.03931   2
  14   2  -3-3.79322 11.1772   2
  16 -14   0 189.189 16.6982   2
 -14  16   0 197.503 17.5639   2
 -16  14   0 192.974 17.4164   2
  14 -16   0 188.857 16.9847   2
  14   2   0 194.175 14.3183   1
  16  -2   0 194.149 16.4206   2
  16  -2   3 3882.28 75.9123   1
  14 -16  -3 3727.83 77.2656   2
 -16  14   3 3764.72 77.5225   2
  14   2   3 3725.32 70.9035   1
 -14  16   3 3712.26 76.8001   2
  16  -2   3 3688.41 59.0776   2
  16 -14  -3 3775.30 77.3714   2
  -2 -14   3 3651.28 43.7452   1
 -16  14   6 2439.28 69.2391   2
   2 -16   6 2289.55 49.2495   1
 -14  16   6 2383.48 67.8388   2
 -14  -2  -9 1293.45 58.9903   1
 -14  16   9 1175.05 53.9314   2
 -16  14   9 1228.04 56.7496   2
 -16  14  12 403.626 40.5725   2
 -14  16  12 368.100 38.2300   2
  -1  16  10 327.041 30.0505   2
   1  15  10 325.939 28.8778   2
 -15  16  -7 2081.49 38.1915   2
 -16  15  -7 1900.12 30.8728   2
  -1  16   7 1922.47 60.5962   2
   1  15   7 1965.84 58.6545   2
  16  -1  -4 12440.9 169.692   2
 -16  15  -4 12818.9 137.103   2
  -1  16   4 12605.3 165.290   2
  15   1  -4 12452.0 168.681   2
 -15  16  -4 12779.2 140.241   2
  16 -15   1 13718.9 156.433   2
 -16  15  -1 13687.6 155.871   2
 -15  16  -1 13632.7 156.088   2
  15   1  -1 13503.7 165.044   2
  16  -1  -1 13249.0 162.096   2
  15 -16  -2 10539.6 140.515   2
 -16  15   2 10382.1 140.402   2
  16  -1   2 10356.9 133.577   1
 -15  16   2 10363.7 140.384   2
  15   1   2 10429.0 130.275   1
  16  -1   2 10386.8 124.099   2
  16 -15  -2 10400.7 140.627   2
 -16  15   5 3337.02 79.0551   2
 -15  16   5 3284.20 78.3653   2
   1 -16   5 3479.30 55.4500   1
  16  -1   5 3233.97 49.8191   2
  16  -1   5 3384.93 78.0236   1
 -15  16   8 425.593 35.3328   2
 -16  15   8 391.042 33.5632   2
 -15  16  11 13.5293 22.2857   2
 -16  15  11 32.8150 22.6256   2
 -16  15  14-17.7378 24.2794   2
 -15  16  14 23.1608 25.9720   2
   0  16  11 1397.17 56.9224   2
 -16  16  -8 6335.56 65.4860   2
   0  16   8 7038.75 121.658   2
   0  16   5 30203.6 315.377   2
 -16  16  -5 31150.4 277.730   2
 -16  16  -2 49478.8 434.659   2
  16   0  -2 49607.3 456.660   2
  16 -16  -1 94640.0 783.646   2
 -16  16   1 93359.3 783.340   2
  16   0   1 92059.3 769.539   1
  16   0   1 93271.7 772.431   2
   0 -16   4 46068.4 383.685   1
  16   0   4 46838.9 433.733   1
 -16  16   4 45971.6 439.621   2
  16 -16  -4 46541.5 441.541   2
 -16  16   7 15830.3 201.622   2
  16   0   7 12018.3 113.719   2
 -16  16  10 580.565 43.5173   2
 -16  16  13 44.0108 24.7404   2
  -8  17  11 717.783 45.8633   2
  -8  -9 -11 775.710 53.7030   1
   9   8 -11 873.533 39.4572   1
   9   8  -8 245.788 16.9514   1
  -8  17   8 231.067 27.1862   2
 -17   8   8 154.252 24.4388   2
   8   9   8 184.741 17.8061   2
  -8  -9  -8 178.762 23.2044   1
  17  -9   5 167.970 20.1322   1
  17  -8  -5 146.148 18.7666   2
  -8  -9  -5 168.000 19.8058   1
 -17   8   5 173.362 21.4502   2
  -8  17   5 143.410 20.1029   2
  -8  17   2 910.144 36.4873   2
  -8  -9  -2 871.550 29.0502   1
 -17   8   2 874.753 35.1489   2
  17  -8  -2 945.623 35.5750   2
  17  -9   2 880.475 27.9405   2
 -17   9  -2 890.913 27.9220   2
 -17   8  -1 11460.1 133.765   2
  -9  17   1 11510.2 145.666   2
  17  -9  -1 11680.4 143.308   2
  -9  -8  -1 11512.9 124.326   1
 -17   9   1 11522.8 142.688   2
  17  -8   1 11656.5 134.216   2
  17  -8   4 770.822 20.7473   2
  17  -9  -4 857.034 36.9542   2
  -9  -8  -4 820.980 33.7888   1
  17  -8   4 880.737 38.4497   1
 -17   9   4 778.718 35.7719   2
  -9  17   4 784.536 35.8524   2
  -9  -8  -7-9.94539 17.3634   1
   8 -17   7 1.42916 10.6200   1
   9   8   7 30.1964 11.8242   2
  -9  17   7 18.3348 16.7897   2
 -17   9   7-1.68393 16.9839   2
   9   8  10 1385.47 40.1438   2
  -9  17  10 1453.52 60.7959   2
  -9  -8 -10 1448.31 64.3777   1
  -9  -8 -13 608.584 52.1677   1
  -9  17  13 586.463 45.3329   2
  -7 -10 -12 123.346 31.1634   1
  -7  17  12 77.4528 21.9591   2
  -7 -10  -9 1847.74 70.0073   1
   7  10   9 1964.05 53.2690   2
  -7  17   9 2007.37 68.2840   2
  10   7  -9 1950.39 49.5471   1
  -7  17   6 15.1690 15.0947   2
  10   7  -6 20.8171 5.96879   1
  -7 -10  -6-27.0212 17.4495   1
  10 -17   6 10.6044 11.1360   1
   7  10   6 8.12158 10.3845   2
 -17   7   6 30.9103 17.0934   2
  -7  17   3 934.725 37.6809   2
  17  -7  -3 945.988 37.4290   2
 -17   7   3 930.980 37.7847   2
 -17  10  -3 963.995 26.6093   2
  -7 -10  -3 953.602 32.8286   1
  17 -10   3 944.852 26.6116   2
 -17  10   0 129.767 14.6316   2
  17  -7   0 146.635 13.8969   2
  -7 -10   0 133.260 9.18617   1
 -10  17   0 152.688 17.4901   2
  17 -10   0 137.424 14.1732   2
 -17   7   0 141.211 14.6050   2
  17  -7   3 2202.28 41.3728   2
  17 -10  -3 2253.12 58.1819   2
 -10  17   3 2098.06 56.7318   2
 -17  10   3 2236.94 58.1798   2
 -10  -7  -3 2167.50 51.1569   1
 -10  -7  -6 37.4774 16.2176   1
 -10  17   6 54.5326 18.6525   2
   7 -17   6 53.4836 12.4353   1
 -17  10   6-0.62990 17.1747   2
 -10  17   9-7.39766 17.9023   2
  10   7   9 13.4725 10.3414   2
 -17  10   9-8.07678 18.3371   2
 -10  -7  -9 11.2347 19.1675   1
 -10  17  12 32.4086 21.2138   2
  -6  17  13 33.1123 19.0744   2
  -6 -11 -13 60.8334 27.7791   1
  -6 -11 -10 1626.36 69.3596   1
  -6  17  10 1587.30 61.4099   2
   6  11  10 1650.36 50.6598   2
  11   6 -10 1689.03 49.8231   1
  11   6  -7 10513.5 116.557   1
   6  11   7 10186.9 138.015   2
  11 -17   7 9692.88 148.599   1
  -6  17   7 10043.3 154.204   2
  -6 -11  -7 10324.1 159.103   1
  17  -6  -4 5841.50 103.145   2
 -17   6   4 5656.21 102.527   2
  -6  17   4 5923.49 103.787   2
 -17  11  -4 5903.92 71.7804   2
 -17  11  -1 867.739 29.7006   2
  17  -6  -1 903.131 33.7299   2
  -6 -11  -1 838.675 24.6009   1
 -11  17  -1 900.062 33.6575   2
  17 -11   1 853.767 29.0895   2
 -17   6   1 793.791 32.2966   2
 -17  11   2 358.446 23.3035   2
  17  -6   2 323.429 16.9126   2
  17 -11  -2 347.609 22.2774   2
 -11  -6  -2 335.563 19.6943   1
 -11  17   2 353.035 24.7170   2
 -17  11   5 277.869 23.7589   2
  11 -17  -5 342.715 25.4444   2
 -11  -6  -5 311.674 24.1159   1
   6 -17   5 301.197 19.4654   1
 -11  17   5 292.136 25.4919   2
  17  -6   5 263.224 9.61380   2
  17  -6   5 343.846 26.0029   1
 -11  17   8 1297.55 53.9802   2
  11   6   8 1397.19 36.4947   2
 -17  11   8 1309.14 55.6295   2
   6 -17   8 1313.90 46.6656   1
 -11  -6  -8 1317.89 55.6558   1
 -11  17  11 2919.58 91.3491   2
 -11  -6 -11 3077.03 98.9988   1
 -17  11  11 3164.88 97.8197   2
  17  -5 -14 137.174 28.4486   1
  -5  17  11 1544.29 62.4197   2
   5  12  11 1607.69 52.1753   2
  12   5 -11 1836.44 56.9757   1
  -5 -12 -11 1695.31 74.2586   1
  -5  17   8 4421.80 98.2059   2
  -5 -12  -8 4517.99 104.890   1
   5  12   8 4368.72 85.8390   2
  12   5  -8 4661.42 75.4292   1
  -5  17   5 12988.6 172.754   2
 -17  12  -5 13055.5 123.503   2
  12   5  -5 13285.4 177.536   2
  17 -12   2 7891.51 100.008   2
 -17  12  -2 8031.16 99.0561   2
 -12  17  -2 7896.37 107.199   2
  12   5  -2 7173.90 74.7167   1
  -5  17   2 7867.59 116.602   2
  17  -5  -2 7840.39 114.109   2
  17  -5   1 2913.39 56.8590   2
  12   5   1 2970.67 51.6323   1
  17 -12  -1 2954.29 62.7105   2
 -12  17   1 2891.28 63.6079   2
 -17  12   1 2967.16 62.9018   2
 -12  -5  -4 171.959 18.9944   1
 -17  12   4 144.136 18.4457   2
  17  -5   4 156.483 10.4556   2
  17 -12  -4 171.606 19.5298   2
  12 -17  -4 125.104 15.8652   2
  17  -5   4 186.929 19.3775   1
 -12  17   4 144.651 18.7080   2
  12   5   7 534.615 22.4581   2
 -12  -5  -7 506.310 34.0435   1
 -12  17   7 482.023 33.2779   2
 -17  12   7 509.744 34.7652   2
   5 -17   7 541.062 28.0217   1
 -12  -5 -10 1781.78 72.1774   1
 -12  17  10 1942.72 71.3700   2
 -17  12  10 1866.69 72.8516   2
 -12  17  13 319.604 36.9946   2
  -4  17  12 75.4776 22.1708   2
  -4 -13 -12 20.8110 23.7162   1
  -4 -13  -9-10.4326 22.4914   1
 -13  17  -9 25.9497 8.22347   2
  13   4  -9 44.4863 13.2301   1
  -4  17   9 23.1795 17.4532   2
   4  13   9 56.7637 15.6964   2
  13 -17   6 1348.86 48.9732   1
   4  13   6 1419.33 46.2141   2
 -13  17  -6 1480.57 37.6827   2
 -17  13  -6 1188.94 20.6608   2
  -4  17   6 1395.80 50.1362   2
 -17  13  -3 9499.15 109.531   2
 -13  17  -3 9206.42 117.423   2
  -4  17   3 9306.46 133.982   2
  17 -13   3 9172.53 108.868   2
  17  -4  -3 9046.96 132.454   2
  17 -13   0 4873.45 80.9941   2
 -17  13   0 5032.93 81.6509   2
  13   4   0 4798.97 66.1625   1
 -13  17   0 4819.55 82.9770   2
  17  -4   0 4845.54 80.5758   2
  17  -4   3 14846.5 154.188   2
 -17  13   3 14925.2 182.649   2
  13 -17  -3 15318.6 184.698   2
 -13  17   3 14631.3 182.869   2
  17 -13  -3 15089.2 183.026   2
  17  -4   3 15386.1 184.614   1
 -13  17   6 7677.18 130.411   2
   4 -17   6 7738.48 107.357   1
 -13  -4  -6 7904.08 129.360   1
 -17  13   6 7578.88 130.176   2
 -13  -4  -9 2400.40 79.5924   1
  13   4   9 2143.90 37.8693   2
 -13  17   9 2342.27 76.5104   2
 -17  13   9 2357.70 77.0054   2
 -13  -4 -12 268.097 38.2903   1
 -13  17  12 192.104 32.1786   2
 -17  13  12 164.257 31.9319   2
  17  -3 -13 494.257 39.0789   1
  -3 -14 -10 285.794 34.1138   1
   3  14  10 321.157 27.7538   2
  -3  17  10 315.826 30.3112   2
  14   3 -10 338.847 25.9907   1
 -14  17  -7 137.493 12.9778   2
   3  14   7 118.845 19.0845   2
  -3  17   7 127.445 20.5684   2
 -14  17  -4 3037.32 57.9949   2
  -3  17   4 3069.49 71.1595   2
 -17  14  -4 3115.08 52.1967   2
  14   3  -4 3101.10 74.1896   2
  17  -3  -4 3056.86 73.2584   2
 -17  14  -1 16222.5 174.471   2
  17 -14   1 15885.4 173.862   2
 -14  17  -1 15605.9 176.359   2
  17  -3  -1 15452.4 181.594   2
  14   3   2 33359.2 313.629   1
 -17  14   2 34302.6 331.249   2
  14 -17  -2 35154.1 334.828   2
 -14  17   2 33551.4 332.443   2
  17  -3   2 33861.8 327.436   1
  17  -3   2 33650.8 309.099   2
  17  -3   5 28133.7 244.914   2
 -17  14   5 28927.8 306.443   2
   3 -17   5 28504.9 265.596   1
 -14  17   5 28448.7 304.834   2
 -14  17   8 11335.5 173.370   2
 -14  -3  -8 11079.3 174.223   1
  14   3   8 10256.9 109.489   2
 -17  14   8 11345.9 175.805   2
 -14  -3 -11 3281.47 101.831   1
 -17  14  11 3279.67 100.276   2
 -14  17  11 3299.25 99.3403   2
 -14  17  14 257.258 36.7317   2
  -2 -15 -11 264.962 35.0937   1
  -2  17  11 242.321 27.5085   2
   2  15  11 240.822 25.3841   2
  15   2 -11 254.657 25.0952   1
   2  15   8 394.379 30.1768   2
  -2  17   8 334.345 30.3205   2
 -15  17  -8 360.095 16.0086   2
  -2  17   5 1158.02 45.7121   2
 -17  15  -5 1203.01 29.6714   2
   2  15   5 1108.21 43.3848   2
 -15  17  -5 1187.86 33.9623   2
 -17  15  -2 422.044 22.0597   2
  17 -15   2 447.464 22.5391   2
  15   2  -2 446.807 26.9495   2
 -15  17  -2 451.314 24.0029   2
  17  -2  -2 421.803 26.2719   2
 -17  15   1 5378.21 90.8515   2
  15 -17  -1 5393.61 91.5311   2
 -15  17   1 5214.09 90.5144   2
  15   2   1 4984.22 78.3483   1
  17  -2   1 5153.46 83.4072   2
  17 -15  -1 5381.76 90.8020   2
  17  -2   4 13278.6 138.919   2
 -17  15   4 13438.0 175.542   2
 -15  17   4 13166.8 175.158   2
  17  -2   4 13636.2 173.368   1
  15 -17  -4 13730.4 175.619   2
  17 -15  -4 13518.0 176.249   2
  15   2   4 13153.8 166.820   1
  -2 -15   4 12949.7 120.466   1
 -17  15   7 3105.07 82.1295   2
 -15  17   7 2978.23 81.9521   2
  15   2   7 2933.37 46.5825   2
 -15  17  10 781.850 49.6237   2
 -17  15  10 859.688 51.2853   2
 -17  15  13 293.996 39.1459   2
 -15  17  13 253.707 35.2549   2
  17  -1 -12 181.249 25.4780   1
   1 -17 -12 164.929 31.1527   1
  -1 -16 -12 193.605 32.8125   1
  -1  17  12 169.497 25.0395   2
  -1  17   9 82.5313 21.4354   2
   1  16   9 34.4255 17.0158   2
   1  16   6 2279.23 64.1611   2
 -16  17  -6 2526.54 47.0544   2
 -17  16  -6 2396.19 42.5781   2
  -1  17   6 2405.09 67.4150   2
  17  -1  -3 8285.66 128.328   2
 -17  16  -3 8527.11 109.012   2
 -16  17  -3 8500.96 110.745   2
  16   1  -3 8363.44 129.453   2
  17 -16   0 11033.5 140.474   2
 -17  16   0 10748.4 139.547   2
  16 -17   0 11104.3 142.139   2
 -16  17   0 10907.8 141.141   2
  17  -1   0 10670.9 139.281   2
  16   1   3 7708.46 114.319   1
  16 -17  -3 7780.92 122.077   2
 -17  16   3 7512.57 120.453   2
 -16  17   3 7700.31 121.576   2
  17  -1   3 7597.10 116.094   1
  17  -1   3 7522.80 99.1680   2
  17 -16  -3 7883.39 122.349   2
   1 -17   6 6.52157 7.57315   1
 -17  16   6 1.48374 16.2864   2
 -16  17   6-8.40539 16.9450   2
  17  -1   6 22.5416 5.85061   2
 -16  17   9 17.6230 19.2326   2
 -17  16   9 41.8628 21.4761   2
 -17  16  12 298.600 37.7569   2
 -16  17  12 298.161 37.3149   2
   0  17  10 179.291 24.6140   2
   0  17   7 263.411 25.8428   2
 -17  17  -7 257.384 13.7137   2
 -17  17  -4 7102.62 95.9952   2
  17   0  -1 9732.36 135.729   2
 -17  17  -1 9837.79 129.657   2
  17 -17   1 9765.21 128.901   2
 -17  17   2 7446.51 117.644   2
  17   0   2 7393.96 103.473   2
  17 -17  -2 7606.56 118.243   2
  17   0   2 7200.50 107.677   1
 -17  17   5 4052.90 90.1433   2
  17   0   5 4064.77 62.0406   2
   0 -17   5 3965.92 57.8306   1
 -17  17   8 2472.34 77.9209   2
 -17  17  11 500.423 44.0297   2
 -17  17  14 554.394 51.3127   2
 -18   9   0 11830.3 144.169   2
  18  -9   0 11918.6 144.708   2
  -9  18   0 12490.3 154.301   2
  -9  -9  -3 2265.61 52.6986   1
  18  -9   3 2297.06 43.8610   2
 -18   9   3 2256.29 60.1523   2
  18  -9  -3 2326.90 60.6700   2
  -9  18   3 2284.79 60.8715   2
  -9  -9  -6 839.081 39.6247   1
 -18   9   6 710.636 39.2532   2
  -9  18   6 826.200 40.5958   2
   9 -18   6 754.692 34.6372   1
  -9  18   9 421.577 35.6333   2
  -9  -9  -9 369.330 35.0010   1
   9   9   9 455.533 25.5534   2
 -18   9   9 415.127 37.0988   2
  -9  -9 -12 213.583 35.4070   1
  -9  18  12 151.494 27.2832   2
  -8  18  13 42.2373 22.7305   2
  -8  18  10 254.894 30.3981   2
   8  10  10 269.493 21.5476   2
  -8 -10 -10 233.799 30.1758   1
  10   8 -10 282.559 21.5956   1
 -18   8   7 112.691 22.0341   2
   8  10   7 133.587 17.0473   2
  10   8  -7 149.455 11.5766   1
  -8  18   7 122.071 22.7653   2
  10 -18   7 132.238 18.7219   1
  -8 -10  -7 155.026 23.0763   1
  -8  18   4 68.0381 16.7583   2
 -18   8   4 67.7679 16.4137   2
  18  -8  -4 91.4569 16.5002   2
  18 -10   4 65.0711 7.72700   2
  -8 -10  -4 40.6807 12.0251   1
  -8 -10  -1 548.786 20.8570   1
  -8  18   1 588.553 30.0577   2
  18 -10   1 519.360 23.9311   2
 -10  18  -1 556.849 28.5471   2
  18  -8  -1 536.952 26.8194   2
 -18   8   1 546.387 27.7333   2
 -18  10  -1 510.961 23.9522   2
 -10  -8  -2 5372.06 81.0034   1
  18 -10  -2 5466.13 94.6451   2
  18  -8   2 5395.99 79.1221   2
 -18  10   2 5517.07 93.6176   2
 -10  18   2 5575.96 96.2899   2
 -10  -8  -5 5525.59 96.4197   1
 -10  18   5 5515.74 101.500   2
 -18  10   5 5439.20 101.680   2
 -10  18   8 1370.77 56.0081   2
 -10  -8  -8 1271.38 55.0066   1
 -18  10   8 1319.00 56.7101   2
  10   8   8 1337.55 39.9849   2
   8 -18   8 1166.08 46.4062   1
 -10  18  11 2112.97 77.6049   2
 -10  -8 -11 2151.77 84.6617   1
  -7  18  11 544.175 41.2856   2
  11   7 -11 641.195 33.2952   1
  -7 -11 -11 544.267 45.5711   1
   7  11   8 4.97774 12.3623   2
  11   7  -8 17.7011 9.92068   1
  -7  18   8-0.96688 16.3436   2
  -7 -11  -8-29.3408 22.0925   1
  -7 -11  -5 1366.49 47.0570   1
  -7  18   5 1372.32 49.6726   2
 -18   7   5 1345.09 50.1699   2
 -18  11  -2 164.996 14.7785   2
 -11  18  -2 145.600 16.2032   2
  18  -7  -2 141.017 16.5579   2
  -7 -11  -2 131.139 12.9069   1
  18 -11   2 171.188 13.6368   2
  -7  18   2 124.914 17.5156   2
 -18   7   2 120.990 16.3569   2
 -11  18   1 3197.51 68.4685   2
  18  -7   1 3070.02 59.3148   2
  18 -11  -1 3112.08 65.9327   2
 -18  11   1 3057.34 65.4219   2
 -11  -7  -4 2415.74 59.4419   1
  18  -7   4 2554.74 66.7774   1
  18 -11  -4 2415.90 64.1615   2
  18  -7   4 2373.17 41.3347   2
 -11  18   4 2329.68 63.0902   2
 -18  11   4 2473.80 65.6875   2
 -11  -7  -7 82.0838 19.1279   1
 -11  18   7 58.5897 19.6263   2
  11   7   7 38.6146 10.8854   2
   7 -18   7 126.776 16.2476   1
 -18  11   7 9.59201 18.9230   2
 -11  -7 -10-3.39474 21.1525   1
 -18  11  10 18.7817 21.2727   2
 -11  18  10-13.9566 19.6077   2
 -11  18  13 10.4751 21.8745   2
  -6 -12 -12 545.487 47.1360   1
  -6  18  12 448.683 38.1077   2
  -6 -12  -9 2136.97 75.8411   1
  12   6  -9 2385.00 53.9961   1
   6  12   9 2157.31 59.7168   2
  -6  18   9 2122.75 72.2228   2
  -6 -12  -6 2840.71 73.1467   1
  12 -18   6 2686.71 69.0984   1
  -6  18   6 2797.83 73.2038   2
   6  12   6 2709.13 65.0038   2
  12   6  -6 2822.99 43.6936   1
  18  -6  -3 4600.55 88.8755   2
  18 -12   3 4514.61 68.4964   2
  -6  18   3 4647.22 89.1100   2
 -18  12  -3 4748.42 68.8866   2
 -12  18  -3 4716.66 80.0341   2
 -18  12   0 6369.65 96.4772   2
  -6 -12   0 6304.14 73.7447   1
  18  -6   0 6349.19 96.1803   2
 -12  18   0 6471.74 100.624   2
  18 -12   0 6402.91 96.3725   2
  18  -6   3 24.0383 7.87757   2
 -18  12   3 10.5705 13.3196   2
  18 -12  -3-1.54575 11.8754   2
 -12  -6  -3 14.7245 12.5978   1
 -12  18   3-22.6847 16.8428   2
 -18  12   6 197.898 24.5910   2
   6 -18   6 177.280 17.2486   1
 -12  18   6 178.643 23.6128   2
 -12  -6  -6 219.644 23.9775   1
 -12  18   9 1078.70 52.8014   2
 -12  -6  -9 1044.89 53.1686   1
  12   6   9 1045.68 30.9585   2
 -18  12   9 1002.51 52.6763   2
 -12  18  12 31.2100 22.9100   2
 -12  -6 -12 61.9584 28.6713   1
  13   5 -10 281.245 22.7125   1
  -5  18  10 290.363 31.0508   2
  -5 -13 -10 247.194 31.9104   1
   5  13  10 263.121 24.0402   2
  -5 -13  -7 420.597 31.0053   1
   5  13   7 443.912 28.2311   2
  -5  18   7 431.329 31.7255   2
  18  -5  -4 457.563 28.1923   2
  -5  18   4 468.036 29.5667   2
 -18  13  -4 490.227 19.1779   2
 -13  18  -4 490.492 24.4184   2
  13   5  -1 8.47178 5.25901   1
  18  -5  -1-14.3467 11.7649   2
 -18  13  -1 7.01430 9.59528   2
 -13  18  -1-1.64959 12.2520   2
  18 -13   1-4.87647 9.92275   2
  18  -5   2 860.666 28.8816   2
 -13  18   2 851.246 36.5029   2
 -18  13   2 961.036 38.1479   2
  18 -13  -2 930.933 37.2965   2
   5 -18   5 515.549 24.0720   1
  18  -5   5 479.118 15.4147   2
 -13  18   5 428.255 30.4362   2
 -13  -5  -5 509.131 30.8532   1
 -18  13   5 455.099 29.9340   2
 -13  18   8 573.072 37.7956   2
 -13  -5  -8 564.724 39.3020   1
 -18  13   8 597.474 40.0583   2
  13   5   8 600.558 23.2570   2
 -13  18  11 0.72017 22.1057   2
 -13  -5 -11 15.0222 23.0293   1
 -18  13  11 9.53374 22.1732   2
 -13  18  14 24.0453 23.7642   2
  -4  18  11 469.814 37.0523   2
  14   4 -11 529.954 31.9987   1
   4  14  11 497.532 32.7479   2
  -4 -14 -11 414.305 40.7776   1
 -14  18  -8 547.864 22.7512   2
  -4  18   8 493.386 35.2993   2
   4  14   8 490.575 31.5651   2
 -18  14  -5 2566.07 42.7039   2
  -4  18   5 2385.67 66.2246   2
 -14  18  -5 2522.04 52.8024   2
  18  -4  -2 18.9341 10.6646   2
 -14  18  -2 57.1634 14.0811   2
  18 -14   2 41.1808 9.85886   2
 -18  14  -2 65.3547 12.1859   2
  18 -14  -1 99.9258 13.8530   2
  18  -4   1 99.2404 12.2889   2
  14   4   1 102.133 11.5123   1
 -18  14   1 88.3387 12.5594   2
 -14  18   1 81.9820 15.1394   2
  18  -4   4 386.003 17.0735   2
 -18  14   4 420.250 28.8337   2
  14 -18  -4 374.808 26.5435   2
  18  -4   4 386.207 27.2879   1
 -14  18   4 407.041 28.1673   2
  18 -14  -4 408.881 27.7621   2
 -14  -4  -7 940.258 47.0164   1
 -14  18   7 929.906 46.2292   2
  14   4   7 958.913 28.4657   2
   4 -18   7 988.361 35.8242   1
 -18  14   7 938.201 46.6772   2
 -14  18  10 577.351 43.1196   2
 -14  -4 -10 611.519 45.9175   1
 -18  14  10 590.508 44.3499   2
 -14  18  13 1.98459 22.7130   2
  -3  18  12 221.366 27.7865   2
  -3 -15 -12 210.010 34.1520   1
 -15  18  -9 1.79588 6.98126   2
  -3  18   9-12.9700 17.9713   2
   3  15   9 7.04588 14.4007   2
 -18  15  -6 484.553 16.3057   2
 -15  18  -6 540.050 23.5967   2
   3  15   6 477.520 29.9483   2
  -3  18   6 503.648 32.5042   2
 -18  15  -3 4140.62 68.1387   2
  18  -3  -3 4021.27 83.8756   2
  -3  18   3 3922.54 84.6247   2
  15   3  -3 4064.02 85.5300   2
 -15  18  -3 4058.82 72.1864   2
  18 -15   0 12938.2 156.370   2
 -18  15   0 12860.7 155.343   2
 -15  18   0 12714.1 156.712   2
  18  -3   0 12663.2 154.692   2
  15   3   0 12284.8 136.174   1
 -18  15   3 7649.70 119.152   2
  15 -18  -3 7785.58 120.323   2
 -15  18   3 7603.79 119.776   2
  18 -15  -3 7765.83 119.591   2
  15   3   3 7568.15 109.504   1
  18  -3   3 7485.97 96.2726   2
  18  -3   3 7748.23 117.210   1
 -18  15   6 2173.17 67.2326   2
   3 -18   6 2169.74 48.7654   1
  18  -3   6 1933.14 29.8994   2
 -15  18   6 2208.82 67.6303   2
 -18  15   9 415.157 36.7804   2
 -15  18   9 370.547 34.7780   2
 -15  18  12 38.4168 25.2141   2
 -18  15  12 16.4941 22.8455   2
  -2 -16 -10-26.3915 25.8096   1
  -2  18  10 22.7059 19.2568   2
   2  16  10 33.3670 17.6807   2
   2  16   7 37.1913 16.6611   2
 -18  16  -7 22.9696 4.77359   2
  -2  18   7 32.4058 16.8964   2
 -16  18  -7 8.79790 8.05815   2
 -18  16  -4 1329.56 35.3203   2
  -2  18   4 1263.82 48.1924   2
 -16  18  -4 1301.87 37.6729   2
  18 -16   1 1055.64 36.1450   2
 -18  16  -1 1109.70 37.0575   2
 -16  18  -1 1041.40 36.6309   2
  18  -2  -1 1031.22 38.5956   2
  18  -2   2 265.299 18.0297   2
  16   2   2 316.512 21.1716   1
 -18  16   2 288.303 23.6857   2
  18 -16  -2 287.569 23.4245   2
 -16  18   2 303.379 24.5863   2
  18  -2   2 296.522 21.5524   1
  16 -18  -2 322.396 24.2517   2
  18  -2   5 148.796 11.4980   2
   2 -18   5 145.669 12.9033   1
 -18  16   5 171.410 22.7160   2
 -16  18   5 146.566 20.9582   2
 -18  16   8 44.6206 20.6426   2
 -16  18   8 11.8429 18.2008   2
  16   2   8 33.8416 5.78339   2
 -16  18  11 683.765 49.1435   2
 -18  16  11 657.592 48.5207   2
 -16  18  14 101.049 31.4006   2
  -1  18  11 905.844 49.1474   2
   1  17  11 954.219 48.6467   2
  17   1 -11 953.851 44.8856   1
  -1 -17 -11 902.851 57.3617   1
 -17  18  -8 1351.05 28.9031   2
   1  17   8 1313.94 53.0698   2
  -1  18   8 1394.50 55.3733   2
  -1  18   5 1948.42 60.7134   2
 -18  17  -5 1947.91 42.4732   2
   1  17   5 1866.95 60.0188   2
 -17  18  -5 1982.42 44.7661   2
 -18  17  -2 441.239 23.7500   2
 -17  18  -2 451.916 24.6003   2
  18  -1  -2 450.231 28.6715   2
  17   1  -2 441.489 28.2192   2
  17   1   1 205.274 16.9148   1
  18  -1   1 219.079 18.1816   1
  18 -17  -1 200.803 18.7779   2
 -18  17   1 186.038 19.8827   2
 -17  18   1 166.280 18.6309   2
  17 -18  -1 213.977 19.3079   2
  18  -1   1 181.325 16.5914   2
 -18  17   4 58.1366 17.7465   2
  17   1   4 84.5069 15.8276   1
 -17  18   4 91.4916 20.6455   2
  18  -1   4 87.9205 16.2537   1
  -1 -17   4 85.1426 8.01703   1
  18  -1   4 75.9813 11.0724   2
 -18  17   7 71.6392 20.0173   2
 -17  18   7 63.2610 20.7846   2
  18  -1   7 50.3742 5.08315   2
  17   1   7 69.9712 8.13775   2
  17   1   7 68.5272 8.10173   2
 -18  17  10 36.2109 22.4944   2
 -17  18  10-12.5222 20.8638   2
 -18  17  13 161.856 32.0433   2
 -17  18  13 124.033 30.8488   2
   0 -18 -12 164.224 32.6969   1
   0  18   9 678.026 41.4299   2
   0  18   6 894.034 43.7416   2
 -18  18  -6 913.404 28.7398   2
 -18  18  -3 626.992 28.3485   2
 -18  18   0 247.976 20.8718   2
  18 -18   0 225.405 19.3662   2
  18   0   0 242.630 19.4269   2
 -18  18   3 1071.26 44.0517   2
  18   0   3 1148.40 41.8171   1
  18   0   3 1073.99 34.1449   2
 -18  18   6 4480.46 101.266   2
  18   0   6 4427.76 63.5874   2
 -18  18   9 100.589 24.5994   2
 -18  18  12 12.8359 23.6063   2
  -9  19  11 834.011 50.0355   2
  -9 -10 -11 973.614 58.2562   1
  -9 -10  -8 936.778 48.6343   1
  -9  19   8 963.766 48.0572   2
 -19   9   8 1036.08 51.6672   2
   9  10   8 973.996 37.3340   2
  -9 -10  -5 1351.10 47.7297   1
  -9  19   5 1307.11 49.2700   2
 -19   9   5 1394.38 51.4367   2
  -9  19   2 1435.40 47.8912   2
  19  -9  -2 1481.77 46.8651   2
  -9 -10  -2 1444.70 38.5615   1
  19 -10   2 1430.39 38.2689   2
 -19  10  -2 1424.83 38.1954   2
 -19   9   2 1368.40 45.4499   2
 -10  19   1 2055.37 56.3804   2
  19  -9   1 2053.65 49.0009   2
  19 -10  -1 2116.86 54.5567   2
 -19   9  -1 2106.66 49.5680   2
 -10  -9  -1 2116.57 43.1188   1
 -19  10   1 2153.98 54.5550   2
  19 -10  -4 2087.72 60.5440   2
 -10  -9  -4 2060.51 54.5589   1
 -10  19   4 2046.68 60.0237   2
 -19  10   4 1950.87 59.4011   2
  19  -9   4 2076.08 39.2137   2
  10   9   7 694.297 30.6995   2
 -10  19   7 645.653 39.0770   2
 -10  -9  -7 613.175 37.8930   1
   9 -19   7 649.060 33.8127   1
 -19  10   7 628.060 40.0612   2
 -10  19  10 1464.71 63.9994   2
  10   9  10 1355.89 41.9155   2
 -10  -9 -10 1347.32 65.5273   1
 -10  19  13-6.16989 22.6912   2
  -8  19  12 889.557 52.4184   2
  -8 -11 -12 887.403 59.8100   1
  -8 -11  -9 1230.48 58.1855   1
  -8  19   9 1282.90 57.4148   2
   8  11   9 1249.35 43.9019   2
  11   8  -9 1279.47 36.9133   1
  11 -19   6 131.069 16.9915   1
  -8 -11  -6 142.197 19.8160   1
 -19   8   6 115.987 20.0797   2
  -8  19   6 154.393 21.7830   2
 -19  11  -3 11.4770 9.43546   2
  19 -11   3 17.1579 7.43810   2
  -8  19   3 35.2895 13.8509   2
  19  -8  -3 5.70504 15.0234   2
  -8 -11  -3 11.6547 12.3959   1
 -19   8   3-33.6109 19.0800   2
  -8 -11   0 10604.6 109.674   1
  19  -8   0 10855.4 137.559   2
 -11  19   0 11009.9 143.616   2
  19 -11   0 10954.1 138.669   2
 -19   8   0 10746.2 138.084   2
 -19  11   0 11008.9 138.939   2
 -11  -8  -3 17262.5 190.555   1
 -11  19   3 17014.3 207.282   2
  19 -11  -3 17985.9 209.123   2
  19  -8   3 17196.0 174.861   2
 -19  11   3 17138.3 206.234   2
 -11  19   6 10550.7 160.581   2
   8 -19   6 10439.6 142.900   1
 -11  -8  -6 10503.7 155.389   1
 -19  11   6 10557.0 162.318   2
 -11  19   9 8637.06 154.879   2
  11   8   9 8509.53 114.533   2
 -11  -8  -9 8524.65 158.257   1
 -19  11   9 8757.64 160.434   2
 -11  -8 -12 1473.14 73.3101   1
 -11  19  12 1459.39 68.5836   2
  -7  19  13 76.4349 25.4396   2
  -7  19  10 217.464 30.0587   2
   7  12  10 193.847 21.2088   2
  12   7 -10 209.268 19.1491   1
  -7 -12 -10 202.001 31.4665   1
  -7 -12  -7 2.06393 19.0847   1
   7  12   7 34.8724 14.2079   2
  12   7  -7 20.8715 7.26741   1
  -7  19   7 11.6186 17.3214   2
  -7 -12  -4 150.594 17.9423   1
  -7  19   4 151.127 21.1101   2
  19 -12   4 167.283 11.8550   2
 -19   7   4 210.750 22.6662   2
 -19  12  -4 157.365 11.8164   2
  19  -7  -1 5733.79 95.3051   2
  -7 -12  -1 5640.70 76.9990   1
 -12  19  -1 5868.53 95.2391   2
  19 -12   1 5707.87 88.4769   2
 -19   7   1 5659.05 95.7849   2
  -7  19   1 5973.63 100.520   2
 -19  12  -1 5738.68 88.2507   2
  19  -7   2 7643.26 101.455   2
  19 -12  -2 7821.68 118.714   2
 -12  19   2 7629.30 119.103   2
 -19  12   2 7473.83 116.854   2
 -12  -7  -5 7659.73 121.029   1
 -12  19   5 7639.15 128.782   2
  19  -7   5 6966.23 77.0739   2
 -19  12   5 7683.69 128.488   2
 -12  -7  -8 4096.49 100.194   1
 -12  19   8 4129.67 100.171   2
 -19  12   8 4210.91 102.885   2
  12   7   8 4236.65 72.3966   2
   7 -19   8 4073.76 86.0827   1
 -12  19  11 1367.78 65.4046   2
 -12  -7 -11 1436.42 69.4661   1
 -19  12  11 1369.07 66.6171   2
  -6 -13 -11 1223.21 64.6789   1
  -6  19  11 1217.64 58.5891   2
  -6 -13  -8 246.486 28.5028   1
  13   6  -8 294.882 17.9886   1
   6  13   8 275.801 24.0329   2
  -6  19   8 321.255 31.0852   2
 -13  19  -5 349.655 20.9891   2
 -19  13  -5 372.820 15.0735   2
  -6  19   5 383.991 29.8901   2
 -19  13  -2 2045.23 46.7226   2
  13   6  -2 1877.84 28.2320   1
  19  -6  -2 2039.15 55.8096   2
 -13  19  -2 2098.80 52.4979   2
  -6  19   2 2139.63 59.0070   2
  19 -13   2 2023.75 47.0253   2
 -19  13   1 5300.63 90.8638   2
  19  -6   1 5161.99 83.7162   2
  -6 -13   1 4979.61 54.9128   1
  19 -13  -1 5324.58 91.3313   2
 -13  19   1 5098.55 91.9783   2
 -13  -6  -4 912.426 38.0601   1
  19  -6   4 918.357 25.8552   2
  19  -6   4 921.249 40.6536   1
 -13  19   4 838.327 39.5980   2
 -19  13   4 897.311 40.7212   2
   6 -19   7 1023.59 38.9271   1
 -13  19   7 1031.89 48.7630   2
  13   6   7 1047.27 33.5275   2
 -13  -6  -7 1056.73 48.7968   1
 -19  13   7 1039.83 50.0726   2
 -13  19  10 17.7157 20.4996   2
 -13  -6 -10 48.3583 23.5047   1
 -19  13  10 55.5763 22.9112   2
 -13  19  13 619.288 48.5393   2
  -5  19  12 268.641 31.5650   2
  -5 -14 -12 224.538 36.6106   1
   5  14   9 37.1904 16.0677   2
  -5 -14  -9-7.53795 22.1988   1
  -5  19   9 45.8538 19.5130   2
  14   5  -9 51.0991 12.5602   1
 -14  19  -9 51.1771 10.7810   2
  -5  19   6 4742.67 99.3482   2
 -14  19  -6 4991.58 79.3318   2
   5  14   6 4570.88 90.4373   2
 -19  14  -6 4456.73 53.2663   2
  19  -5  -3 14415.6 183.277   2
 -19  14  -3 14509.1 154.541   2
 -14  19  -3 14158.5 165.663   2
  -5  19   3 14573.5 184.944   2
  19 -14   3 13822.2 154.593   2
  19  -5   0 11536.8 145.641   2
 -19  14   0 11674.1 145.686   2
  14   5   0 11396.6 123.568   1
  19 -14   0 11719.7 146.984   2
 -14  19   0 11535.7 149.225   2
  19  -5   3 14355.4 156.614   2
 -19  14   3 14872.1 186.644   2
 -14  19   3 14571.9 185.807   2
  14 -19  -3 14946.1 187.211   2
  19 -14  -3 14872.8 186.296   2
  19  -5   3 15152.2 188.545   1
 -14  -5  -6 4345.02 95.0799   1
 -14  19   6 4310.68 97.4466   2
   5 -19   6 4391.06 78.1006   1
 -19  14   6 4382.05 97.8255   2
 -14  19   9 20.3163 19.1735   2
 -14  -5  -9-11.0255 22.4419   1
  14   5   9 32.3905 8.05626   2
 -19  14   9 60.1952 21.1283   2
 -14  19  12 191.411 31.9991   2
 -14  -5 -12 229.371 35.9171   1
 -19  14  12 184.166 31.5886   2
  -4 -15 -10-44.8674 26.5120   1
  -4  19  10 4.30340 18.0770   2
   4  15  10 7.87675 15.2652   2
  15   4 -10-2.51816 13.3866   1
   4  15   7 132.343 20.0474   2
 -15  19  -7 134.482 14.5874   2
  -4  19   7 132.442 23.6278   2
 -15  19  -4 2189.65 52.0158   2
 -19  15  -4 2208.72 44.9610   2
  -4  19   4 2193.56 64.0209   2
  19 -15   1 551.031 26.8778   2
 -19  15  -1 555.985 27.2441   2
 -15  19  -1 533.868 28.3348   2
  19  -4  -1 534.405 28.4766   2
  15   4  -1 549.389 19.4265   1
  19 -15  -2 26.6493 14.0749   2
  19  -4   2 20.4569 8.75135   2
 -15  19   2 57.0838 16.9838   2
  15   4   2 45.1044 11.2259   1
 -19  15   2 47.3388 16.4088   2
  15 -19  -2 42.0074 14.1110   2
 -19  15   5 3466.73 83.3090   2
  19  -4   5 3413.21 51.1748   2
 -15  19   5 3458.43 83.6339   2
   4 -19   5 3485.36 63.7388   1
 -19  15   8 40.8961 19.7383   2
  15   4   8 37.4604 9.09239   2
 -15  19   8 32.8980 18.4616   2
 -15  -4  -8 58.5427 22.4240   1
 -19  15  11 76.2218 26.3499   2
 -15  19  11 40.5931 22.5051   2
 -15  19  14 59.9850 27.2992   2
  -3  19  11 830.053 47.6652   2
   3  16  11 882.537 44.8153   2
  -3 -16 -11 806.182 54.7091   1
  -3  19   8 2832.09 81.0333   2
 -16  19  -8 3084.13 53.3350   2
   3  16   8 2832.84 75.9544   2
  -3  19   5 9832.27 150.785   2
 -19  16  -5 10486.7 116.014   2
   3  16   5 9885.11 145.975   2
 -16  19  -5 10128.0 127.269   2
 -19  16  -2 6320.38 94.6412   2
  19 -16   2 6264.51 94.2346   2
 -16  19  -2 6214.50 97.6091   2
  19  -3  -2 6232.09 107.164   2
 -19  16   1 9506.11 132.313   2
  16   3   1 9041.04 115.646   1
 -16  19   1 9227.84 132.414   2
  16 -19  -1 9153.53 132.199   2
  19  -3   1 9049.04 122.953   2
  19 -16  -1 9281.07 133.127   2
  19  -3   4 65.9944 9.95820   2
 -19  16   4 60.0690 17.0424   2
 -16  19   4 61.6658 18.9510   2
  19  -3   4 58.3674 14.7902   1
 -16  19   7 179.827 25.8145   2
 -19  16   7 131.152 23.4341   2
  16   3   7 157.887 12.7594   2
   3 -19   7 140.746 14.6578   1
 -16  19  10 789.251 49.8467   2
 -19  16  10 784.900 50.4173   2
 -19  16  13 224.641 36.5110   2
 -16  19  13 219.212 35.3828   2
  -2  19  12 1677.03 67.4554   2
  -2 -17 -12 1671.18 78.3198   1
  -2  19   9 3567.00 93.7157   2
   2  17   9 3518.18 88.3280   2
  -2  19   6 9476.97 149.789   2
 -19  17  -6 9432.28 106.658   2
   2  17   6 9425.34 145.389   2
 -17  19  -6 9930.35 118.702   2
 -19  17  -3 20505.8 211.647   2
 -17  19  -3 20420.2 215.290   2
  19 -17   0 17947.4 202.672   2
 -19  17   0 18406.5 204.077   2
  17   2   0 17255.8 182.705   1
 -17  19   0 17617.8 202.514   2
  19  -2   0 17518.1 201.604   2
 -19  17   3 4994.20 97.2213   2
 -17  19   3 4802.16 96.3846   2
  19  -2   3 4865.76 78.1318   2
  19  -2   3 4958.30 94.1015   1
  17   2   3 5007.14 89.4381   1
  19  -2   6 1848.22 34.8056   2
 -19  17   6 1960.02 66.5126   2
 -17  19   6 1910.46 65.2984   2
   2 -19   6 2023.44 45.2382   1
 -19  17   9 35.4032 21.7747   2
 -17  19   9 28.8296 21.7883   2
 -19  17  12 71.1540 27.0152   2
 -17  19  12 9.94157 24.8321   2
  -1  19  10 76.1222 21.3074   2
   1  18  10 97.5239 22.4645   2
  -1  19   7 204.351 27.3017   2
   1  18   7 205.171 25.9426   2
 -18  19  -7 225.005 15.5602   2
 -19  18  -7 181.779 11.7190   2
 -19  18  -4 7909.27 106.961   2
  -1  19   4 7883.50 130.822   2
 -18  19  -4 8078.05 109.806   2
 -19  18  -1 2321.29 57.4622   2
  19 -18   1 2330.08 57.5895   2
 -18  19  -1 2374.28 58.7408   2
  18   1  -1 2270.99 60.6789   2
  19  -1  -1 2256.40 60.1321   2
  19 -18  -2 7615.54 121.783   2
  19  -1   2 7593.62 115.025   1
  18 -19  -2 7620.64 121.950   2
 -19  18   2 7467.62 121.049   2
 -18  19   2 7399.30 121.028   2
  18   1   2 7409.86 110.829   1
  19  -1   2 7272.49 106.882   2
 -19  18   5 2400.94 70.7095   2
 -18  19   5 2370.47 70.8460   2
   1 -19   5 2467.90 45.5584   1
  19  -1   5 2448.95 47.6576   2
 -19  18   8 1458.65 62.3300   2
 -18  19   8 1438.48 62.1468   2
 -18  19  11 139.713 32.5897   2
 -19  18  11 139.017 32.6842   2
   0  19  11 1763.40 67.1817   2
   0  19   8 767.596 43.4069   2
 -19  19  -8 696.185 19.2762   2
 -19  19  -5 299.178 19.5191   2
   0  19   5 274.359 26.6175   2
 -19  19  -2 108.158 15.1080   2
  19   0  -2 123.289 17.4363   2
  19   0   1 3046.49 66.6912   2
  19 -19  -1 3192.57 72.9184   2
 -19  19   1 3155.37 73.3035   2
  19   0   1 3043.23 64.9228   1
  19   0   4 9975.24 146.749   1
   0 -19   4 10210.9 106.743   1
  19   0   4 9536.38 122.367   2
 -19  19   4 9767.64 151.699   2
  19   0   7 2804.75 44.7665   2
 -19  19   7 3080.92 87.1787   2
 -19  19  10 1547.75 70.0430   2
 -19  19  13 52.2664 26.5567   2
 -20  10   0 377.924 23.0535   2
  20 -10   0 390.869 23.1726   2
 -10  20   0 405.366 26.5419   2
  20 -10  -3 5108.50 97.3162   2
 -10 -10  -3 5112.83 86.2970   1
  20 -10   3 5139.64 75.7090   2
 -20  10   3 4944.42 96.1411   2
 -10  20   3 5048.98 98.4601   2
  10 -20   6 2278.50 61.6098   1
 -10 -10  -6 2333.52 67.1958   1
 -10  20   6 2136.89 67.8985   2
 -20  10   6 2203.40 70.1419   2
 -10  20   9 1149.07 56.1127   2
 -10 -10  -9 1251.38 59.0382   1
  10  10   9 1110.83 39.8055   2
 -20  10   9 1217.15 59.0622   2
 -10  20  12 273.125 34.0684   2
 -10 -10 -12 340.070 41.0301   1
  -9  20  13 1596.48 72.0300   2
  -9  20  10 9833.99 172.326   2
   9  11  10 9424.20 134.512   2
  -9 -11 -10 9640.04 178.952   1
  -9 -11  -7 6194.98 120.720   1
   9  11   7 6020.03 101.790   2
  -9  20   7 6456.02 123.968   2
 -20   9   7 5915.71 123.475   2
  20 -11   4 9154.47 104.944   2
  -9 -11  -4 9059.16 130.078   1
 -20   9   4 8982.32 142.059   2
  -9  20   4 9326.84 141.629   2
  20  -9  -1 4269.76 82.0732   2
 -20  11  -1 4396.81 76.5266   2
  -9  20   1 4398.78 87.5105   2
 -11  20  -1 4434.37 83.3423   2
  20 -11   1 4274.16 76.5379   2
 -20   9   1 4233.55 82.0389   2
  -9 -11  -1 4316.78 65.3776   1
 -11  20   2-3.12699 14.7816   2
  20  -9   2-8.23916 10.0335   2
  20 -11  -2-10.7807 13.7953   2
 -11  -9  -2-11.0370 10.6290   1
 -20  11   2-13.7880 15.4913   2
 -20  11   5 297.797 27.8094   2
  20  -9   5 305.533 12.6956   2
 -11  20   5 314.260 27.6046   2
 -11  -9  -5 323.771 26.2355   1
 -11  20   8 830.812 46.8745   2
  11   9   8 796.627 33.3025   2
 -11  -9  -8 761.397 45.3905   1
 -20  11   8 765.018 46.3959   2
 -11  20  11 0.81661 21.1312   2
 -11  -9 -11 9.26332 23.3010   1
  -8  20  11 412.084 38.3024   2
  -8 -12 -11 359.128 40.4918   1
   8  12   8 196.403 20.7375   2
  -8  20   8 199.516 27.6442   2
  12   8  -8 202.396 13.9504   1
  -8 -12  -8 167.346 25.9319   1
  -8 -12  -5 1844.63 55.6999   1
 -20   8   5 1752.52 59.7452   2
  -8  20   5 1727.72 58.1837   2
  -8 -12  -2 2131.83 48.0615   1
  20  -8  -2 2215.23 59.4996   2
  -8  20   2 2143.91 60.4728   2
 -12  20  -2 2162.11 55.0074   2
 -20   8   2 2122.81 58.5433   2
  20 -12   2 2082.16 48.6092   2
 -20  12  -2 2127.84 48.6063   2
 -12  20   1 12681.8 164.391   2
  20  -8   1 12378.6 149.612   2
  20 -12  -1 12738.4 160.598   2
 -20  12   1 12355.0 159.006   2
 -12  -8  -4 5704.04 98.7799   1
  20  -8   4 5879.49 77.6319   2
 -12  20   4 5730.96 107.898   2
 -20  12   4 5819.68 109.221   2
 -12  20   7 2186.52 71.0276   2
  12   8   7 2184.23 52.7278   2
   8 -20   7 2141.54 59.5509   1
 -20  12   7 2157.74 72.3723   2
 -12  -8  -7 2053.87 66.6905   1
 -12  20  10 1643.98 68.8745   2
 -12  -8 -10 1747.49 73.3850   1
 -20  12  10 1796.05 74.6013   2
 -12  20  13 153.296 30.3109   2
  -7  20  12-6.66479 22.3144   2
  -7 -13 -12 35.1071 24.5479   1
  13   7  -9 166.903 14.9562   1
  -7  20   9 142.869 25.9198   2
  -7 -13  -9 161.902 27.4540   1
   7  13   9 165.405 20.5828   2
  -7 -13  -6 120.467 20.9173   1
  13   7  -6 122.667 7.83187   1
   7  13   6 130.865 19.7618   2
  -7  20   6 183.363 24.5001   2
 -20  13  -3 14.4008 9.19858   2
  -7 -13  -3 1.45202 12.5429   1
  20  -7  -3-4.21755 14.1037   2
  20 -13   3 5.61547 9.39668   2
  -7  20   3 20.5221 15.2153   2
 -13  20  -3 6.52873 13.5380   2
  20  -7   0 4353.76 79.9949   2
  -7 -13   0 4364.60 58.7589   1
 -13  20   0 4404.93 84.6861   2
  20 -13   0 4399.58 80.6834   2
 -20  13   0 4417.42 80.8583   2
 -20  13   3 140.769 18.6528   2
  20  -7   3 155.598 13.2788   2
  20 -13  -3 133.171 17.3931   2
 -13  20   3 153.289 20.2397   2
   7 -20   6 20.1089 12.4866   1
 -20  13   6-31.1198 20.0488   2
 -13  -7  -6-1.67362 15.9440   1
 -13  20   6-3.38338 17.2159   2
 -13  20   9 10.8865 19.6533   2
 -13  -7  -9 2.93149 20.9993   1
 -20  13   9-21.4400 21.7241   2
  13   7   9-11.0614 11.5037   2
 -13  20  12-6.37946 23.3041   2
  -6  20  10 52.0333 21.5282   2
  -6 -14 -10 26.6010 21.4438   1
   6  14  10 45.6202 15.3729   2
  14   6 -10 69.5597 13.2823   1
  -6 -14  -7 1884.33 65.4658   1
   6  14   7 1924.33 58.0040   2
 -14  20  -7 2018.28 49.6265   2
  -6  20   7 1915.10 65.5426   2
  14   6  -7 1995.53 38.7826   1
  -6  20   4 12480.5 173.769   2
 -14  20  -4 12737.0 155.786   2
 -20  14  -4 12805.3 138.254   2
  14   6  -1 31327.1 272.470   1
 -20  14  -1 32515.0 308.520   2
  20  -6  -1 31722.0 318.614   2
 -14  20  -1 32194.1 316.181   2
  20 -14   1 32761.9 309.139   2
 -20  14   2 33916.4 340.307   2
  20  -6   2 33899.9 317.376   2
  20 -14  -2 34877.9 343.094   2
 -14  -6  -5 4160.64 87.7297   1
  20  -6   5 3883.49 55.4770   2
 -14  20   5 4086.29 92.5881   2
 -20  14   5 3987.64 91.1307   2
  14   6   8 1182.13 34.9856   2
 -14  20   8 1112.35 53.0023   2
   6 -20   8 1145.71 43.7353   1
 -14  -6  -8 1217.53 55.2084   1
 -20  14   8 1123.55 53.9263   2
 -14  20  11 46.3354 23.1127   2
 -14  -6 -11 36.5411 25.2680   1
 -20  14  11 39.9873 22.8333   2
 -14  20  14-13.6433 25.1563   2
  -5  20  11 264.539 31.8252   2
  -5 -15 -11 339.184 38.5230   1
 -15  20  -8 1603.10 42.0437   2
  15   5  -8 1693.40 40.8291   1
  -5  20   8 1488.61 59.9724   2
  -5 -15  -8 1603.83 63.4903   1
   5  15   8 1495.87 54.0391   2
  -5  20   5 20142.2 245.697   2
 -15  20  -5 20317.2 216.062   2
 -20  15  -5 20929.7 194.942   2
  20  -5  -2 25934.1 273.408   2
 -15  20  -2 26156.4 263.067   2
  20 -15   2 25899.1 253.665   2
  15   5  -2 24284.9 218.440   1
 -20  15  -2 26414.3 252.929   2
  20  -5   1 21254.8 224.567   2
 -20  15   1 21362.4 234.502   2
  20 -15  -1 21958.3 236.991   2
  15   5   1 21156.6 211.472   1
 -15  20   1 21402.1 237.611   2
 -20  15   4 19542.7 235.435   2
  20  -5   4 19845.9 193.185   2
 -15  20   4 19205.5 235.224   2
   5 -20   7 8503.17 121.743   1
 -15  20   7 8636.88 151.085   2
 -15  -5  -7 8537.06 148.249   1
  15   5   7 8611.45 109.096   2
 -20  15   7 8790.89 154.099   2
 -15  20  10 702.471 47.1141   2
 -15  -5 -10 766.930 50.0853   1
 -20  15  10 786.092 51.3993   2
 -15  20  13-13.9022 26.9459   2
  -4  20  12 146.099 26.3457   2
  -4 -16 -12 113.316 28.7097   1
  -4 -16  -9 146.515 24.9554   1
 -16  20  -9 160.791 13.7698   2
  16   4  -9 180.343 17.5168   1
  -4  20   9 194.112 27.2913   2
   4  16   9 180.162 23.9473   2
 -16  20  -6 1110.69 35.9949   2
   4  16   6 1088.51 45.0363   2
 -20  16  -6 1077.38 25.8156   2
  -4  20   6 1096.85 48.7702   2
 -20  16  -3 2762.92 56.7500   2
  -4  20   3 2773.79 72.6734   2
 -16  20  -3 2760.22 61.5282   2
  20 -16   0 3561.21 73.6413   2
 -20  16   0 3591.32 73.5390   2
  16   4   0 3420.12 58.0052   1
 -16  20   0 3377.00 73.3380   2
  20  -4   0 3260.96 70.8996   2
 -20  16   3 4245.06 87.7636   2
 -16  20   3 4106.55 88.4068   2
  20  -4   3 4341.17 89.9160   1
  20  -4   3 4102.26 70.2781   2
 -16  20   6 4360.34 100.282   2
  20  -4   6 3964.68 52.1083   2
   4 -20   6 4407.88 75.0896   1
 -20  16   6 4553.09 101.493   2
 -16  20   9 2607.43 84.4819   2
 -20  16   9 2706.11 88.2987   2
 -20  16  12 1327.51 69.9116   2
 -16  20  12 1347.87 69.2457   2
  -3  20  10 2317.70 78.5876   2
   3  17  10 2318.37 72.3351   2
  -3 -17 -10 2275.08 84.5605   1
  17   3 -10 2539.33 63.0031   1
   3  17   7 2652.06 73.7069   2
  -3  20   7 2768.34 79.3038   2
 -17  20  -7 2871.33 55.3166   2
 -20  17  -7 2551.98 37.3046   2
 -20  17  -4 14277.5 157.596   2
  -3  20   4 14275.3 190.258   2
 -17  20  -4 14208.4 166.314   2
  20 -17   1 15656.4 182.448   2
 -20  17  -1 15960.9 183.650   2
  17   3  -1 15465.4 160.289   1
 -17  20  -1 15733.6 185.545   2
  20  -3  -1 15605.2 191.519   2
  17   3   2 2290.01 56.0758   1
  20  -3   2 2396.59 62.4777   1
 -20  17   2 2284.79 63.0161   2
  17 -20  -2 2408.34 64.9512   2
 -17  20   2 2298.98 63.9401   2
  20  -3   2 2312.49 54.0394   2
  20 -17  -2 2308.62 62.9112   2
  20  -3   5 85.9932 10.3580   2
 -20  17   5 37.0847 16.9926   2
   3 -20   5 90.4548 11.3024   1
 -17  20   5 79.9431 19.1727   2
 -17  20   8 1122.06 54.9709   2
  17   3   8 1021.68 26.7621   2
 -20  17   8 1102.07 54.8428   2
 -20  17  11 618.222 49.2497   2
 -17  20  11 568.042 47.4581   2
  -2 -18 -11-11.7498 25.2968   1
  -2  20  11-5.86505 19.0003   2
   2  18  11 1.45619 16.9700   2
   2  18   8 39.8871 17.4527   2
  -2  20   8 23.4275 16.9006   2
 -18  20  -8 55.9596 10.5447   2
  -2  20   5 3153.34 81.8196   2
 -20  18  -5 3413.91 59.7227   2
   2  18   5 2972.32 78.9971   2
 -18  20  -5 3345.07 64.3307   2
 -20  18  -2 3621.87 71.9486   2
  18   2  -2 3562.28 81.4458   2
  20  -2  -2 3600.97 81.5317   2
 -18  20  -2 3683.45 73.8941   2
  20 -18  -1 296.096 23.2257   2
 -20  18   1 309.891 24.7719   2
  18 -20  -1 299.092 23.3963   2
  18   2   1 263.480 18.7540   1
 -18  20   1 279.030 24.4934   2
  20  -2   1 306.066 21.7271   2
  18   2   4 18.4747 12.0337   1
 -20  18   4 44.5271 16.4795   2
  -2 -18   4 29.0143 4.41020   1
 -18  20   4 40.6844 16.4116   2
  20  -2   4 36.2345 9.06077   2
 -20  18   7 446.421 36.2542   2
 -18  20   7 439.605 36.0225   2
 -20  18  10 554.786 44.6953   2
 -18  20  10 591.823 46.8937   2
 -18  20  13 495.121 46.9009   2
 -20  18  13 544.902 49.8705   2
   1 -20 -12 737.548 55.1463   1
  -1 -19 -12 811.501 57.7600   1
  -1  20   9 749.654 44.7796   2
   1  19   9 799.158 44.8942   2
 -20  19  -6 250.274 16.6557   2
  -1  20   6 227.913 26.4687   2
 -19  20  -6 260.357 17.9819   2
   1  19   6 234.196 25.7633   2
 -20  19  -3 437.693 24.8661   2
 -19  20  -3 460.901 26.3488   2
  19   1   0 69.6449 11.9024   1
 -20  19   0 51.6963 14.8048   2
 -19  20   0 48.4969 15.9128   2
  20 -19   0 64.5685 13.4848   2
  19 -20   0 73.3745 14.1221   2
  19   1   0 49.4827 13.8734   2
  20  -1   0 105.770 15.5709   2
  19   1   3 1849.60 54.2534   1
 -20  19   3 1797.83 58.5988   2
 -19  20   3 1781.52 58.4159   2
  20  -1   3 1764.70 54.2412   1
  20  -1   3 1786.47 46.5767   2
  20  -1   6 1963.49 40.3787   2
 -20  19   6 1929.91 66.7396   2
 -19  20   6 1995.76 67.8072   2
   1 -20   6 1976.00 42.1355   1
  19   1   6 1958.78 42.9657   2
 -19  20   9 955.263 55.1747   2
 -20  19   9 949.788 54.4069   2
 -20  19  12 62.3430 26.4964   2
 -19  20  12 60.6995 28.4494   2
   0  20  10 5530.07 122.147   2
   0  20   7 7334.41 135.385   2
 -20  20  -7 7562.37 94.9007   2
 -20  20  -4 14527.9 168.860   2
 -20  20  -1 8849.41 129.589   2
  20   0  -1 8866.50 135.437   2
 -20  20   2 6785.41 117.478   2
  20   0   2 6541.69 104.108   2
  20   0   2 6850.09 109.443   1
 -20  20   5 392.886 31.8116   2
   0 -20   5 435.672 17.0478   1
  20   0   5 411.327 21.3008   2
 -20  20   8 598.692 42.8415   2
 -20  20  11 658.753 53.6892   2
 -10 -11 -11 196.689 34.9925   1
 -10  21  11 193.980 30.8526   2
  10  11   8 4220.15 83.3046   2
 -10  21   8 4210.46 103.940   2
 -10 -11  -8 4285.25 104.471   1
 -21  10   8 4287.93 107.841   2
 -10 -11  -5 6014.88 107.628   1
 -10  21   5 5942.18 114.470   2
 -21  10   5 6042.08 117.902   2
 -21  11  -2 11284.1 137.881   2
 -10  21   2 11322.3 158.309   2
  21 -10  -2 11398.6 155.676   2
 -10 -11  -2 11035.6 133.696   1
  21 -11   2 11211.7 137.337   2
 -21  10   2 11028.7 153.850   2
 -11  21   1 7210.64 117.974   2
  21 -10   1 7206.19 106.208   2
  21 -11  -1 7159.91 113.590   2
 -21  10  -1 7080.39 105.295   2
 -21  11   1 6906.03 111.317   2
 -21  11   4 7456.54 127.840   2
  21 -10   4 7535.09 93.3680   2
 -11 -10  -4 7610.05 116.978   1
 -11  21   4 7437.12 127.442   2
 -21  11   7 1643.36 63.2715   2
  10 -21   7 1558.12 53.6337   1
  11  10   7 1585.93 48.2708   2
 -11  21   7 1578.92 61.5068   2
 -11 -10  -7 1575.86 59.1927   1
 -11  21  10 187.682 30.6625   2
 -11 -10 -10 205.267 33.6048   1
 -11  21  13 33.8994 25.0170   2
  -9 -12 -12 56.3555 28.7604   1
  -9  21  12 25.2083 23.0327   2
  -9 -12  -9 97.5265 25.6363   1
  -9  21   9 50.1284 22.0613   2
   9  12   9 102.796 18.0817   2
 -21   9   6 4.93944 18.3614   2
  -9 -12  -6 5.24522 16.4821   1
  -9  21   6 33.8027 21.4076   2
  -9 -12  -3 1454.91 43.6397   1
  -9  21   3 1476.90 53.0129   2
 -21   9   3 1342.79 50.3509   2
 -21  12  -3 1436.65 38.9868   2
  21 -12   3 1472.47 39.0149   2
 -12  21   0 1449.87 48.9593   2
  21  -9   0 1322.84 43.0471   2
  21 -12   0 1399.22 44.1024   2
  -9  21   0 1446.13 50.0435   2
 -21   9   0 1370.67 44.3602   2
 -21  12   0 1307.12 43.3401   2
  -9 -12   0 1303.43 28.8946   1
 -12  21   3 248.370 24.0787   2
 -12  -9  -3 216.166 19.0253   1
  21  -9   3 218.873 15.5208   2
 -21  12   3 191.128 21.4068   2
   9 -21   6 632.708 32.4168   1
 -21  12   6 591.876 38.5692   2
 -12  21   6 597.719 38.5377   2
 -12  -9  -6 642.819 37.3257   1
  12   9   9 35.5004 12.0051   2
 -12  -9  -9-4.12566 19.9756   1
 -12  21   9 41.4328 20.6246   2
 -21  12   9-0.95643 22.0997   2
 -12  21  12-12.0574 21.6789   2
 -12  -9 -12 27.2352 24.6960   1
  -8  21  13 122.302 27.1699   2
  -8 -13 -10 1372.15 66.1201   1
  -8  21  10 1334.93 62.6012   2
   8  13  10 1316.31 48.5042   2
  -8 -13  -7 5563.20 114.410   1
   8  13   7 5481.02 100.810   2
  -8  21   7 5496.25 115.829   2
  -8  21   4 16854.1 215.928   2
  21 -13   4 16809.2 172.594   2
 -13  21  -4 17299.6 197.116   2
 -21   8   4 16773.4 214.785   2
 -21  13  -4 17416.6 174.142   2
  -8 -13  -4 16976.2 199.444   1
  21  -8  -1 14974.1 184.213   2
  -8 -13  -1 14862.8 156.618   1
 -13  21  -1 15240.4 184.800   2
  -8  21   1 15422.9 193.075   2
  21 -13   1 15281.0 175.680   2
 -21  13  -1 15217.4 175.754   2
  21  -8   2 5527.35 87.2407   2
  21 -13  -2 5767.34 103.131   2
 -13  21   2 5602.70 103.404   2
 -21  13   2 5521.15 101.523   2
 -13  -8  -5 1898.16 57.9298   1
 -13  21   5 1833.01 62.0790   2
  21  -8   5 1845.11 34.9025   2
 -21  13   5 1892.52 63.1455   2
 -13  -8  -8-6.82506 20.0498   1
  13   8   8 7.73510 10.8054   2
 -13  21   8-25.0806 21.5519   2
   8 -21   8-0.89302 12.6661   1
 -21  13   8 30.4251 20.0820   2
 -21  13  11 38.6144 25.4067   2
 -13  -8 -11 24.3731 24.8606   1
 -13  21  11 58.3095 24.5063   2
  -7  21  11 133.504 27.9561   2
   7  14   8-3.99034 15.7135   2
  -7 -14  -8-37.4929 22.7580   1
  -7  21   8-19.5711 22.3125   2
  -7  21   5 305.865 28.5278   2
  -7 -14  -5 300.406 25.2133   1
 -21  14  -5 308.266 15.1436   2
 -14  21  -5 347.376 23.3311   2
 -21  14  -2 63.5047 12.0789   2
  21 -14   2 76.5243 11.6010   2
  21  -7  -2 88.0868 14.7637   2
  -7 -14  -2 60.2458 11.1883   1
 -14  21  -2 93.3510 16.4035   2
  -7  21   2 85.3314 20.1367   2
 -21  14   1 3500.46 74.9442   2
  21  -7   1 3353.70 67.6996   2
  -7 -14   1 2983.16 39.4388   1
  21 -14  -1 3484.42 74.3379   2
 -14  21   1 3419.49 76.2447   2
 -21  14   4-32.7336 18.2993   2
 -14  21   4-13.8116 16.3469   2
  21  -7   4-5.67905 8.09984   2
 -14  21   7 1580.16 62.8026   2
   7 -21   7 1588.60 50.0263   1
  14   7   7 1617.48 43.7705   2
 -21  14   7 1588.44 62.5138   2
 -14  -7  -7 1534.16 60.1487   1
 -14  -7 -10 35.3087 22.6991   1
 -14  21  10 59.1200 23.1226   2
 -21  14  10 56.5047 24.0861   2
 -14  21  13 29.9167 24.6452   2
  -6 -15 -12 9.22140 24.5280   1
  -6  21  12-9.66353 21.3081   2
 -15  21  -9 1123.56 35.7289   2
  -6  21   9 1039.52 52.5231   2
   6  15   9 1017.32 45.4346   2
  -6 -15  -9 1075.01 56.8405   1
 -15  21  -6 2710.13 59.7848   2
  15   6  -6 2431.00 37.7285   1
   6  15   6 2626.36 68.9457   2
 -21  15  -6 2485.30 38.7579   2
  -6 -15  -6 2446.57 70.2707   1
  -6  21   6 2606.17 76.0717   2
 -15  21  -3 3480.53 71.3602   2
 -21  15  -3 3485.57 63.1154   2
  21 -15   3 3506.43 64.5692   2
  -6  21   3 3517.42 81.9266   2
  21  -6   0 6452.11 103.803   2
 -21  15   0 6459.82 104.209   2
  -6 -15   0 6278.29 77.2932   1
  21 -15   0 6477.40 104.463   2
 -15  21   0 6217.92 106.181   2
 -21  15   3 6007.87 109.121   2
  21  -6   3 5901.93 87.7565   2
  21  -6   3 5983.62 110.768   1
 -15  21   3 5915.29 110.217   2
   6 -21   6 812.661 33.2475   1
 -15  21   6 834.167 45.0025   2
 -15  -6  -6 819.372 42.3027   1
 -21  15   6 797.906 43.6826   2
 -15  21   9-33.4260 24.0215   2
 -21  15   9-9.59494 23.5395   2
 -15  -6  -9 15.8506 21.1225   1
 -15  21  12 45.9268 24.5259   2
 -21  15  12 132.652 30.2911   2
  -5  21  10 3034.66 92.1135   2
   5  16  10 3007.01 80.1559   2
  -5 -16 -10 2992.09 96.6844   1
 -16  21  -7 5451.57 86.3008   2
   5  16   7 5168.84 103.762   2
  -5  21   7 5261.08 113.700   2
 -21  16  -4 6725.82 91.7784   2
 -16  21  -4 6484.77 102.400   2
  -5  21   4 6407.12 118.169   2
  21  -5  -1 5972.09 103.154   2
  21 -16   1 5992.59 98.0206   2
 -21  16  -1 6018.41 96.9935   2
  16   5  -1 5792.23 75.2540   1
 -16  21  -1 5986.28 101.255   2
  21  -5   2 2940.90 61.3933   2
 -21  16   2 3044.86 73.8463   2
 -16  21   2 2995.80 72.9969   2
  21 -16  -2 2974.76 72.7142   2
  21  -5   5 1675.46 36.0370   2
 -16  21   5 1630.49 59.5774   2
 -21  16   5 1591.37 58.4728   2
  16   5   8 118.068 13.2385   2
 -16  21   8 49.8035 19.4756   2
 -21  16   8 78.4586 22.9329   2
 -16  21  11-47.2484 26.0470   2
 -21  16  11 43.8964 26.4977   2
  -4  21  11 4.86103 19.5117   2
  -4 -17 -11-32.7983 25.5245   1
   4  17  11 10.4608 17.4059   2
 -17  21  -8 12.7720 10.1522   2
   4  17   8 29.7536 17.6556   2
  -4  21   8 5.33984 19.5011   2
 -21  17  -5 700.247 25.5532   2
  -4  21   5 628.936 38.4791   2
 -17  21  -5 632.822 28.8824   2
 -21  17  -2 2250.38 53.9582   2
  21 -17   2 2259.52 54.7066   2
  17   4  -2 2115.44 39.9010   1
 -17  21  -2 2192.49 56.9836   2
  21  -4  -2 2198.12 61.4831   2
  17   4   1 207.035 16.6694   1
  21  -4   1 198.564 17.7404   2
  21 -17  -1 229.636 21.6487   2
 -21  17   1 223.397 22.0501   2
 -17  21   1 193.399 21.5336   2
  21  -4   4 1241.16 34.8341   2
 -21  17   4 1228.10 49.7925   2
 -17  21   4 1188.15 49.8351   2
 -21  17   7 26.6368 18.9837   2
 -17  21   7 14.4972 19.2045   2
   4 -21   7 10.1716 9.72998   1
 -17  21  10 48.5079 22.5037   2
 -21  17  10 48.7475 24.5079   2
 -21  17  13-7.01402 27.8367   2
 -17  21  13 7.00514 23.7319   2
  -3  21  12 228.934 30.8446   2
  -3 -18 -12 157.783 32.0997   1
  -3  21   9 564.138 40.3914   2
   3  18   9 540.297 37.0508   2
  -3  21   6 797.317 44.1581   2
 -21  18  -6 775.064 24.9640   2
   3  18   6 817.777 42.2160   2
 -18  21  -6 798.743 31.0752   2
 -18  21  -3 5080.41 89.0552   2
 -21  18  -3 5175.99 86.0889   2
  21  -3   0 239.184 21.1807   2
 -21  18   0 260.338 23.2636   2
  21 -18   0 235.891 21.6956   2
  18   3   0 211.590 16.1376   1
 -18  21   0 250.264 23.2325   2
  21  -3   3 19.3392 9.54151   2
  21  -3   3 23.1034 12.5467   1
  18   3   3 22.9897 11.4100   1
 -21  18   3 26.9786 16.0708   2
 -18  21   3 22.3120 17.2902   2
  -3 -18   3 29.0818 3.80689   1
 -21  18   6 105.543 24.2594   2
  21  -3   6 118.106 10.2376   2
 -18  21   6 119.357 24.4664   2
   3 -21   6 128.638 13.9304   1
 -21  18   9-12.2516 21.8060   2
 -18  21   9 17.6715 23.1825   2
 -18  21  12 76.0850 28.3345   2
 -21  18  12 60.6568 29.0135   2
  -2 -19 -10 97.8217 27.3870   1
  -2  21  10 83.2388 24.6133   2
   2  19  10 110.905 22.3470   2
  -2  21   7-7.86080 18.2952   2
 -21  19  -7 10.4849 6.99769   2
   2  19   7-7.46175 17.1370   2
 -19  21  -7-5.85436 9.88735   2
 -21  19  -4 1775.33 46.4533   2
  -2  21   4 1706.39 61.2909   2
 -19  21  -4 1702.33 47.7387   2
 -19  21  -1 120.875 18.1441   2
 -21  19  -1 112.056 16.6633   2
  19   2  -1 113.962 12.9892   1
  21 -19   1 107.153 15.2993   2
  19   2  -1 84.4711 15.7265   2
  21  -2  -1 81.2929 15.2113   2
  19   2   2 1945.44 52.5394   1
 -21  19   2 2006.23 61.0100   2
  21  -2   2 1978.08 57.2120   1
 -19  21   2 2104.33 62.1640   2
  21  -2   2 1928.97 51.5060   2
  21  -2   5 37.8921 9.60588   2
 -21  19   5 27.3797 18.4814   2
 -19  21   5-16.1688 19.4276   2
   2 -21   5 9.02164 7.45875   1
 -21  19   8 86.4587 23.3656   2
 -19  21   8 119.578 26.2370   2
 -21  19  11 751.339 54.1745   2
 -19  21  11 793.225 54.3527   2
  -1 -20 -11 279.067 35.4537   1
  -1  21  11 354.115 36.2031   2
   1  20  11 328.630 33.3308   2
 -20  21  -8 1090.05 28.7301   2
  -1  21   8 1024.64 51.1354   2
   1  20   8 1050.01 51.3363   2
 -21  20  -5 1202.09 37.0826   2
  -1  21   5 1179.82 51.2417   2
   1  20   5 1133.83 49.8877   2
 -20  21  -5 1146.44 38.0389   2
 -21  20  -2 5999.38 100.540   2
 -20  21  -2 6026.80 102.388   2
 -21  20   1 7854.25 127.752   2
 -20  21   1 7809.48 127.739   2
  20   1   1 7705.01 119.616   2
  20   1   1 7634.92 113.266   1
  21  -1   1 7594.97 117.654   2
  21  -1   1 8004.98 119.340   1
 -21  20   4 1011.03 46.8157   2
  -1 -20   4 923.922 22.1978   1
 -20  21   4 935.652 45.4890   2
  20   1   4 926.480 33.7756   2
  21  -1   4 950.994 33.2309   2
 -21  20   7 36.0454 21.6250   2
 -20  21   7 56.7277 20.7517   2
 -21  20  10 79.0225 27.6369   2
 -20  21  10 100.993 29.9119   2
   0  21   9 359.425 34.5057   2
   0  21   6 153.668 25.1154   2
 -21  21  -6 203.572 17.0127   2
 -21  21  -3 1343.78 44.6983   2
 -21  21   0 4479.86 90.6513   2
  21   0   0 4326.87 79.8719   1
  21 -21   0 4644.52 92.0443   2
  21   0   0 4380.64 89.0150   2
  21   0   3 7510.89 122.197   1
 -21  21   3 7451.66 130.024   2
  21   0   3 7191.84 109.340   2
 -21  21   6 651.788 41.3957   2
  21   0   6 630.042 24.3133   2
 -21  21   9 1825.94 76.1736   2
 -21  21  12 397.481 44.0009   2
  22 -11   0 44890.4 418.209   2
 -11  22   0 45552.2 431.086   2
 -22  11   0 43869.8 416.216   2
  22 -11   3 18739.0 195.047   2
 -22  11   3 18453.7 225.570   2
 -11 -11  -3 18694.4 206.403   1
 -11  22   3 18965.2 230.405   2
 -11 -11  -6 3158.35 81.3754   1
 -22  11   6 3181.82 87.4756   2
 -11  22   6 3259.41 86.2970   2
 -11  22   9 597.490 43.4881   2
 -22  11   9 618.063 44.5023   2
  11  11   9 616.797 31.5563   2
 -11 -11  -9 529.811 41.0986   1
 -11  22  12 3.51779 22.8063   2
 -11 -11 -12 7.90929 26.3178   1
 -10  22  13 395.917 41.6977   2
 -10  22  10 1571.82 69.4506   2
 -10 -12 -10 1542.96 71.0140   1
 -10 -12  -7 58.8162 19.2423   1
 -22  10   7 42.8273 20.1359   2
 -10  22   7 81.2866 22.8226   2
  10  12   7 37.5182 14.3383   2
 -10  22   4 1.53375 16.2362   2
 -10 -12  -4 1.27261 12.6715   1
  22 -12   4 7.37309 8.33992   2
 -22  10   4 0.90867 16.3155   2
  22 -10  -1 1752.87 52.9600   2
 -10  22   1 1802.95 57.3976   2
 -10 -12  -1 1631.66 38.8610   1
 -12  22  -1 1791.18 54.8667   2
  22 -12   1 1747.27 49.1139   2
 -22  10   1 1581.42 51.4102   2
 -22  12  -1 1768.68 48.8897   2
 -12  22   2 2978.45 74.7039   2
 -12 -10  -2 2783.56 58.4986   1
  22 -12  -2 2972.58 72.2374   2
  22 -10   2 2887.78 60.8283   2
 -22  12   2 2866.45 71.4934   2
  22 -10   5 669.074 20.9087   2
 -12 -10  -5 649.000 35.4322   1
 -12  22   5 681.095 39.5256   2
 -22  12   5 654.848 39.5995   2
  12  10   8 392.777 25.0110   2
 -12 -10  -8 406.751 35.1352   1
 -12  22   8 420.583 37.1019   2
 -22  12   8 480.396 40.4022   2
 -12 -10 -11-15.4806 24.5898   1
 -12  22  11 9.67039 21.8668   2
  -9  22  11 998.528 57.0233   2
  -9 -13 -11 1017.46 61.6289   1
   9  13   8 5557.40 103.209   2
  -9 -13  -8 5775.01 123.695   1
  -9  22   8 5512.35 121.887   2
 -22   9   5 4000.59 95.6533   2
  -9 -13  -5 3958.74 86.7662   1
  -9  22   5 3896.84 93.7853   2
  22  -9  -2 5618.49 103.149   2
  -9  22   2 5681.17 106.593   2
  -9 -13  -2 5438.37 84.7696   1
 -13  22  -2 5641.58 100.440   2
 -22  13  -2 5622.83 89.4874   2
 -22   9   2 5553.09 103.285   2
  22 -13   2 5481.89 88.9380   2
 -13  22   1 1480.94 51.9504   2
  22  -9   1 1503.16 45.2020   2
  22 -13  -1 1553.92 50.0870   2
 -22  13   1 1481.14 49.0032   2
 -13  22   4 167.595 23.3328   2
 -13  -9  -4 182.224 20.4958   1
  22  -9   4 156.764 12.9800   2
 -22  13   4 153.215 22.1525   2
 -13  -9  -7 739.180 43.0219   1
 -13  22   7 786.395 46.2177   2
  13   9   7 781.937 33.6844   2
 -22  13   7 799.657 47.0470   2
   9 -22   7 766.408 36.8997   1
 -22  13  10 1711.43 75.7485   2
 -13  22  10 1813.74 74.5721   2
 -13  -9 -10 1708.90 73.9507   1
 -13  22  13 308.007 39.7388   2
  -8  22  12 652.867 48.8947   2
  -8 -14 -12 647.912 55.4154   1
  -8 -14  -9 5495.86 128.400   1
  -8  22   9 5482.82 125.816   2
   8  14   9 5377.39 103.957   2
  -8 -14  -6 12171.0 176.311   1
 -14  22  -6 12424.9 157.300   2
  -8  22   6 12141.9 183.033   2
  22 -14   3 18102.8 195.297   2
  -8  22   3 18606.3 228.874   2
 -14  22  -3 18970.4 214.582   2
 -22  14  -3 18627.8 195.647   2
  -8 -14  -3 18185.2 203.114   1
  22  -8   0 10807.8 146.216   2
 -14  22   0 10866.7 152.562   2
  22 -14   0 10760.0 145.959   2
  -8 -14   0 10906.5 114.105   1
 -22  14   0 11036.9 147.422   2
  22  -8   3 5173.76 81.7339   2
 -14  22   3 5170.74 103.521   2
 -22  14   3 5280.95 103.204   2
   8 -22   6 37.1737 12.7437   1
 -14  22   6 34.5930 19.0816   2
 -14  -8  -6-3.53745 19.0834   1
 -22  14   6 15.1617 18.6918   2
 -14  22   9 745.684 47.7899   2
 -14  -8  -9 642.664 45.3458   1
  14   8   9 663.690 28.1109   2
 -22  14   9 738.727 49.8578   2
 -14  22  12 539.111 47.0037   2
  -7  22  10 10.0760 21.4450   2
   7  15  10 5.63873 15.7926   2
  -7 -15 -10-20.1036 25.5693   1
  -7 -15  -7-6.20747 19.3610   1
   7  15   7 8.29281 14.2203   2
 -15  22  -7 6.54857 11.9582   2
  -7  22   7 4.89992 17.9899   2
  -7  22   4 686.430 40.0010   2
 -15  22  -4 735.240 33.9449   2
  -7 -15  -4 676.149 33.4073   1
 -22  15  -4 680.803 26.4170   2
 -15  22  -1 809.114 37.5173   2
  22  -7  -1 817.433 36.9932   2
  22 -15   1 841.726 34.3803   2
  -7 -15  -1 845.279 27.7476   1
 -22  15  -1 822.171 34.3619   2
  22  -7   2 672.727 29.4370   2
  22 -15  -2 683.480 35.2530   2
 -15  22   2 697.801 36.7960   2
 -22  15   2 698.427 36.6633   2
 -22  15   5 204.544 26.2862   2
  22  -7   5 216.531 13.6120   2
 -15  22   5 229.850 27.2843   2
 -15  22   8-37.3713 25.9745   2
   7 -22   8-18.9430 12.7083   1
  15   7   8-0.91835 10.3735   2
 -15  -7  -8-45.5714 22.6853   1
 -22  15   8 14.6111 19.1012   2
 -15  22  11-24.4971 25.3932   2
 -15  -7 -11 49.4860 28.4759   1
 -22  15  11-25.9311 24.1200   2
  -6 -16 -11 1390.83 70.5644   1
  -6  22  11 1424.60 66.2493   2
   6  16   8 3938.08 91.8429   2
  16   6  -8 4086.64 62.2584   1
 -16  22  -8 4126.64 75.1038   2
  -6  22   8 3994.80 101.579   2
  -6 -16  -8 3979.62 102.623   1
  -6  22   5 567.043 38.3014   2
 -16  22  -5 613.259 30.4822   2
 -22  16  -5 600.555 23.1142   2
  16   6  -2 1308.70 26.2462   1
 -16  22  -2 1344.61 46.1789   2
 -22  16  -2 1422.62 42.9716   2
  22 -16   2 1362.77 42.1679   2
  -6  22   2 1372.23 51.0280   2
  22 -16  -1 20.3267 12.7279   2
 -22  16   1 20.3324 14.0959   2
  22  -6   1 27.1444 11.6979   2
  -6 -16   1 27.0728 5.04830   1
 -16  22   1 15.6660 14.9091   2
 -22  16   4 160.080 22.2209   2
  22  -6   4 178.301 13.9844   2
 -16  22   4 142.856 22.2673   2
   6 -22   7 3233.29 70.8982   1
 -16  22   7 3260.50 90.6672   2
 -22  16   7 3243.54 90.9830   2
 -16  22  10 481.969 42.3041   2
 -22  16  10 486.090 42.0972   2
 -16  22  13 35.9674 28.9729   2
  -5  22  12 627.002 46.6433   2
  -5  22   9 591.049 42.4155   2
  -5 -17  -9 517.427 42.1650   1
   5  17   9 520.728 35.7014   2
 -17  22  -6 601.455 28.5493   2
  -5  22   6 555.030 38.2000   2
   5  17   6 570.633 35.0034   2
 -22  17  -6 556.532 19.9044   2
 -17  22  -3 10.8688 11.7585   2
 -22  17  -3 18.4268 10.8567   2
  17   5  -3 24.0031 5.94807   1
  -5  22   3 2.51387 16.0593   2
  22 -17   3 22.0603 9.33933   2
  22  -5   0 1145.26 42.0300   2
 -22  17   0 1184.02 43.0080   2
 -17  22   0 1111.25 43.2965   2
  17   5   0 1140.09 32.4581   1
  22 -17   0 1216.18 43.8474   2
  22  -5   3 3760.97 69.9926   2
 -22  17   3 3962.05 89.0524   2
 -17  22   3 3886.44 90.0979   2
 -17  22   6 3105.52 86.0170   2
  22  -5   6 2774.09 44.1622   2
   5 -22   6 3037.81 63.7485   1
 -22  17   6 3016.64 85.5488   2
 -17  22   9 763.070 48.6786   2
 -22  17   9 830.140 51.8454   2
 -17  22  12 194.232 33.3710   2
 -22  17  12 192.373 34.2570   2
  -4 -18 -10 4.31780 22.9315   1
  -4  22  10-2.15018 19.1919   2
   4  18  10-29.0334 18.8518   2
  -4  22   7 13.0184 18.9945   2
 -18  22  -7 15.3412 11.1618   2
   4  18   7 30.3759 16.8582   2
 -22  18  -7 9.05850 4.67623   2
 -18  22  -4 139.423 17.9000   2
 -22  18  -4 121.314 14.8729   2
  -4  22   4 104.145 21.2188   2
 -22  18  -1 1716.09 50.4592   2
  22 -18   1 1687.35 50.6149   2
  18   4  -1 1640.22 37.9596   1
 -18  22  -1 1678.35 52.1207   2
  22  -4  -1 1657.31 53.2154   2
  22  -4   2 99.2107 14.3442   2
  22  -4   2 114.970 17.9926   1
 -22  18   2 131.279 20.3322   2
  18   4   2 100.926 14.1018   1
 -18  22   2 129.315 20.4336   2
   4 -22   5 120.854 13.9853   1
 -22  18   5 111.600 23.0079   2
  22  -4   5 126.056 12.6981   2
 -18  22   5 121.826 23.6783   2
 -22  18   8 86.9496 24.2472   2
 -18  22   8 97.4490 24.3784   2
  18   4   8 90.1808 11.1908   2
 -18  22  11 52.0967 26.6208   2
 -22  18  11 63.2316 26.2317   2
  -3 -19 -11 380.429 42.7793   1
   3  19  11 466.537 36.7985   2
  -3  22  11 428.461 39.6311   2
 -19  22  -8 936.476 30.4925   2
  -3  22   8 923.577 50.8618   2
   3  19   8 908.979 47.3211   2
 -22  19  -5 437.310 22.1624   2
  -3  22   5 441.954 33.7469   2
 -19  22  -5 450.904 24.8893   2
 -22  19  -2 2743.96 64.1861   2
  22 -19   2 2742.83 64.3063   2
 -19  22  -2 2803.80 67.0231   2
  19   3   1 319.937 20.7012   1
 -22  19   1 302.710 24.6822   2
 -19  22   1 310.403 25.6332   2
  22  -3   1 286.088 21.7484   2
  22  -3   4 17.6021 9.58763   2
 -22  19   4 31.5059 18.5000   2
 -19  22   4 38.4506 18.7115   2
   3 -22   7 120.986 12.8299   1
 -22  19   7 170.056 27.9919   2
 -19  22   7 208.460 28.7074   2
 -19  22  10 1096.19 62.9214   2
 -22  19  10 1122.89 62.3459   2
  -2  22   9 171.416 26.3995   2
   2  20   9 218.013 27.7640   2
  -2  22   6 1917.53 67.0264   2
 -22  20  -6 2049.62 45.0319   2
   2  20   6 1940.56 66.3881   2
 -20  22  -6 2078.07 51.3224   2
 -22  20  -3 16345.2 188.015   2
 -20  22  -3 15719.6 189.933   2
  20   2   0 4832.56 80.7537   1
 -22  20   0 4935.86 95.3068   2
  22 -20   0 5005.33 95.9902   2
 -20  22   0 4990.06 97.0829   2
  22  -2   0 4875.88 93.7613   2
  20   2   0 4973.70 96.4181   2
 -22  20   3 2433.69 70.7668   2
 -20  22   3 2308.91 70.2396   2
  22  -2   3 2386.00 56.8491   2
  20   2   3 2412.05 63.1872   1
  22  -2   6 810.088 26.1667   2
 -22  20   6 819.434 46.4876   2
 -20  22   6 811.747 46.5814   2
  20   2   6 781.841 29.2942   2
   2 -22   6 820.174 27.7234   1
 -22  20   9 230.525 33.4252   2
 -20  22   9 192.829 30.7358   2
 -20  22  12 153.862 33.1936   2
 -22  20  12 151.151 33.6787   2
  -1  22  10 489.930 40.3419   2
   1  21  10 484.923 38.0496   2
  -1  22   7 216.297 28.1378   2
 -22  21  -7 175.804 13.6322   2
   1  21   7 180.578 26.2316   2
 -21  22  -7 191.563 16.0883   2
 -22  21  -4 86.2351 15.1280   2
 -21  22  -4 53.5617 14.1614   2
  -1  22   4 68.8602 20.3275   2
 -22  21  -1 137.506 19.7189   2
 -21  22  -1 112.489 19.1556   2
 -22  21   2 1757.80 58.9807   2
 -21  22   2 1734.62 59.0605   2
  21   1   2 1720.05 51.8880   1
  21   1   2 1714.75 51.3860   2
  22  -1   2 1688.64 50.1818   2
  22  -1   2 1717.74 54.3388   1
 -22  21   5 620.854 40.3714   2
 -21  22   5 624.708 40.8613   2
   1 -22   5 608.493 21.9294   1
  21   1   5 621.070 27.6648   2
  22  -1   5 618.768 26.5987   2
 -22  21   8 215.886 30.5382   2
 -21  22   8 221.363 31.3714   2
 -21  22  11 239.189 36.8095   2
 -22  21  11 277.755 39.4644   2
   0  22  11 1010.32 54.9968   2
   0  22   8 1020.75 52.6558   2
 -22  22  -5 1030.09 37.3860   2
   0  22   5 966.970 48.7724   2
 -22  22  -2 2095.13 59.0445   2
 -22  22   1 12.1989 15.4401   2
  22   0   1 9.03578 11.8643   2
  22   0   1 44.2820 12.6140   1
 -22  22   4 948.035 47.7879   2
   0 -22   4 999.450 25.8428   1
  22   0   4 965.059 35.6191   2
 -22  22   7 5986.60 132.386   2
 -22  22  10 2793.74 97.7802   2
 -11  23  11 238.806 35.0919   2
 -11 -12 -11 196.222 33.5994   1
 -23  11   8 9.84330 21.4552   2
  11  12   8 13.7103 13.6312   2
 -11  23   8 44.6724 24.6836   2
 -11 -12  -8-17.5557 23.3715   1
  23 -12   5 316.671 15.6666   2
 -11 -12  -5 272.275 24.8305   1
 -23  11   5 292.345 31.3989   2
 -11  23   5 310.933 29.6162   2
 -11  23   2 831.188 41.7992   2
 -11 -12  -2 852.186 31.2601   1
  23 -12   2 871.817 33.7765   2
 -12  23  -2 898.303 40.4240   2
 -23  11   2 894.900 41.1643   2
 -23  12  -2 903.146 34.1062   2
 -23  11  -1 4212.83 81.0392   2
 -12  23   1 4348.08 91.5824   2
  23 -12  -1 4305.95 87.7323   2
  23 -11   1 4262.73 81.2252   2
 -11  23  -1 4338.71 90.6512   2
 -23  12   1 4183.30 86.3911   2
 -12 -11  -4 1016.36 40.9664   1
 -23  12   4 1025.21 47.3269   2
 -12  23   4 1084.13 48.3100   2
  23 -11   4 1019.91 31.5989   2
 -12 -11  -7 74.0933 20.7127   1
 -12  23   7 116.967 26.7503   2
  12  11   7 53.8612 14.3785   2
 -23  12   7 75.7199 23.3316   2
 -12  23  10 63.1599 27.0520   2
 -12 -11 -10 68.7991 26.2802   1
 -12  23  13 115.693 30.6536   2
 -10 -13 -12 562.275 51.7991   1
 -10  23  12 493.562 45.0923   2
 -10  23   9 1277.65 63.8636   2
 -10 -13  -9 1425.61 64.9610   1
  10  13   9 1266.19 47.8635   2
 -10 -13  -6 1535.10 56.8883   1
 -10  23   6 1493.82 59.8824   2
 -23  10   6 1506.99 62.1717   2
 -10  23   3 1350.03 54.0753   2
 -10 -13  -3 1292.49 42.4733   1
 -23  10   3 1305.11 51.2257   2
 -13  23  -3 1413.60 48.9082   2
 -23  13  -3 1332.01 40.0381   2
  23 -13   3 1302.57 39.2385   2
 -13  23   0 5645.53 105.514   2
  23 -10   0 5632.12 99.4842   2
  23 -13   0 5771.57 101.332   2
 -10  23   0 5976.77 109.721   2
 -23  10   0 5609.25 99.4697   2
 -23  13   0 5667.14 99.6478   2
 -13  23   3 294.742 27.1610   2
  23 -10   3 288.185 19.2648   2
 -13 -10  -3 288.474 21.6565   1
 -23  13   3 307.203 26.7540   2
 -13 -10  -6 182.366 23.4109   1
  10 -23   6 202.918 20.8635   1
 -13  23   6 211.673 27.7794   2
 -23  13   6 176.513 25.6576   2
  13  10   9 213.905 20.2166   2
 -13 -10  -9 139.877 26.9133   1
 -13  23   9 211.457 30.5645   2
 -23  13   9 207.594 32.3312   2
 -13  23  12-10.0476 25.4269   2
  -9  23  13-5.21891 23.7245   2
  -9 -14 -10 303.733 38.5745   1
  -9  23  10 334.779 37.3038   2
   9  14  10 288.776 25.6000   2
  -9 -14  -7 4897.89 109.442   1
   9  14   7 4828.14 97.7467   2
  -9  23   7 4982.27 114.216   2
  -9  23   4 1920.92 64.3045   2
  -9 -14  -4 1777.30 54.2020   1
  23 -14   4 1826.05 43.7871   2
 -14  23  -4 1889.37 55.8626   2
 -23  14  -4 1906.58 44.8691   2
  23  -9  -1 9028.48 135.058   2
  -9  23   1 9005.11 142.261   2
 -14  23  -1 8844.31 135.219   2
  -9 -14  -1 8591.58 107.446   1
  23 -14   1 8891.67 126.881   2
 -23  14  -1 9033.12 127.616   2
  23  -9   2 2457.52 57.7400   2
 -14  23   2 2424.80 69.2936   2
 -23  14   2 2458.99 68.1128   2
 -14  -9  -5 163.763 21.6350   1
 -14  23   5 175.286 23.8349   2
  23  -9   5 186.282 12.5518   2
 -23  14   5 158.310 23.4025   2
  14   9   8 1349.09 43.7439   2
 -14  23   8 1386.84 62.1344   2
 -14  -9  -8 1373.75 60.7703   1
 -23  14   8 1342.09 62.0656   2
 -14  23  11 764.119 53.2885   2
 -14  -9 -11 709.045 53.2328   1
 -23  14  11 713.153 53.4855   2
  -8 -15 -11 216.811 33.9530   1
  -8  23  11 202.590 32.0720   2
  -8 -15  -8 1507.94 63.6817   1
   8  15   8 1620.57 56.4270   2
 -15  23  -8 1694.94 49.9397   2
  -8  23   8 1654.74 66.8600   2
 -15  23  -5 5033.61 93.1060   2
 -23  15  -5 5189.96 73.4698   2
  -8  23   5 4756.80 107.235   2
  -8 -15  -5 4929.29 99.0578   1
  -8 -15  -2 7362.94 104.170   1
 -15  23  -2 7472.15 120.332   2
  -8  23   2 7569.89 131.611   2
 -23  15  -2 7786.21 112.420   2
  23 -15   2 7335.76 110.619   2
  23  -8   1 8427.86 123.387   2
  23 -15  -1 8659.19 132.951   2
 -15  23   1 8795.14 137.216   2
 -23  15   1 8625.50 132.390   2
  23  -8   4 1141.27 33.6982   2
 -15  23   4 1036.97 48.6453   2
 -23  15   4 1096.81 49.2238   2
 -15  23   7 19.4523 20.9835   2
 -15  -8  -7 10.1369 19.1541   1
   8 -23   7 74.3257 16.0006   1
 -23  15   7 57.6009 21.8968   2
 -15  23  10-13.3942 23.8840   2
 -15  -8 -10-17.4438 23.4529   1
 -23  15  10-33.6068 27.3855   2
 -15  23  13 30.4680 27.4762   2
  -7  23  12 232.605 33.6042   2
  -7 -16  -9 977.273 55.2709   1
 -16  23  -9 1035.21 36.6818   2
  -7  23   9 899.453 53.0022   2
   7  16   9 989.553 45.8596   2
 -16  23  -6 619.831 31.4686   2
  -7  23   6 586.873 39.9708   2
  -7 -16  -6 517.222 35.1064   1
  -7 -16  -3-9.90840 13.7035   1
 -23  16  -3-9.65091 11.0676   2
 -16  23  -3 0.52576 12.0918   2
  23 -16   3-7.16241 10.2310   2
  -7  23   3 42.3847 19.0249   2
 -23  16   0 776.013 35.9718   2
  -7 -16   0 758.143 23.3524   1
  23  -7   0 810.988 35.8940   2
  23 -16   0 808.136 36.4109   2
 -16  23   0 789.076 38.1591   2
 -23  16   3-11.8580 18.3239   2
  23  -7   3 14.3926 9.40471   2
 -16  23   3 19.7869 17.4561   2
 -16  23   6 1493.34 61.2967   2
   7 -23   6 1468.39 46.4906   1
 -23  16   6 1531.80 61.7706   2
 -16  -7  -9 467.197 39.5958   1
 -16  23   9 496.775 40.8269   2
 -23  16   9 552.146 44.7723   2
 -16  23  12 11.8742 25.0469   2
 -23  16  12-38.3162 28.4061   2
  -6  23  10 120.569 26.5414   2
  -6 -17 -10 59.5317 23.2661   1
   6  17  10 112.027 20.0136   2
  -6 -17  -7-47.7775 23.1619   1
 -17  23  -7 20.4060 11.3472   2
  17   6  -7 8.80498 5.02458   1
   6  17   7 4.74298 15.8509   2
  -6  23   7 37.4132 20.0721   2
 -17  23  -4 2605.72 63.5751   2
  -6  23   4 2540.96 75.0792   2
 -23  17  -4 2762.32 55.4075   2
  23 -17   1 6704.96 109.550   2
  23  -6  -1 6674.38 114.658   2
 -23  17  -1 6885.26 109.743   2
  17   6  -1 6707.11 83.2271   1
 -17  23  -1 6799.35 114.253   2
 -23  17   2 6938.86 120.167   2
  23  -6   2 6790.27 106.105   2
 -17  23   2 6840.98 119.618   2
  23  -6   5 4179.16 65.4280   2
 -17  23   5 4117.72 98.9718   2
 -23  17   5 4205.78 99.8735   2
 -17  23   8 3411.95 97.7359   2
  17   6   8 3209.63 61.5264   2
 -23  17   8 3350.57 98.5766   2
 -17  23  11 547.276 46.5259   2
 -23  17  11 550.947 48.5966   2
  -5  23  11 188.042 31.8675   2
  -5 -18 -11 184.593 32.7607   1
 -18  23  -8 204.596 17.9919   2
  -5 -18  -8 155.047 26.1638   1
   5  18   8 194.389 26.6020   2
  -5  23   8 190.980 27.7231   2
  -5  23   5 393.385 33.0943   2
 -18  23  -5 425.377 25.9937   2
 -23  18  -5 440.621 21.4962   2
 -23  18  -2 1423.95 44.9516   2
 -18  23  -2 1373.87 47.8446   2
  23 -18   2 1359.61 44.3131   2
  18   5  -2 1316.92 29.9801   1
  23  -5   1 808.060 34.9761   2
 -23  18   1 800.261 38.2979   2
 -18  23   1 779.159 38.3634   2
  18   5   1 802.708 30.4231   1
 -23  18   4 229.915 26.8850   2
  23  -5   4 195.292 15.9977   2
 -18  23   4 208.941 25.8994   2
 -23  18   7 16.3402 21.2395   2
 -18  23   7 59.0771 22.8203   2
   5 -23   7 21.9768 10.9056   1
 -18  23  10-26.7609 24.3036   2
 -23  18  10-6.17344 25.3856   2
  -4  23  12 98.8042 28.1309   2
  -4  23   9 624.386 44.5673   2
   4  19   9 653.795 41.4289   2
  -4 -19  -9 627.610 45.4008   1
  -4  23   6 655.144 42.7692   2
   4  19   6 562.277 36.1331   2
 -19  23  -6 625.810 30.4216   2
 -23  19  -6 646.854 23.3996   2
 -19  23  -3 187.261 20.5383   2
 -23  19  -3 91.6577 12.8629   2
  -4  23   3 155.694 23.8835   2
  23  -4   0 141.639 17.8240   2
 -23  19   0 106.127 17.6711   2
  23 -19   0 147.501 18.2620   2
 -19  23   0 127.993 19.2827   2
  19   4   0 145.161 13.7950   1
 -23  19   3 247.817 26.1801   2
 -19  23   3 257.289 27.2774   2
  23  -4   3 264.596 19.9253   2
 -23  19   6 520.780 39.5340   2
  23  -4   6 581.744 20.9913   2
 -19  23   6 661.340 43.0936   2
   4 -23   6 601.342 26.9297   1
 -19  23   9 706.255 50.2507   2
 -23  19   9 721.227 50.6730   2
 -19  23  12 63.5361 26.2027   2
 -23  19  12 20.0483 25.1938   2
   3  20  10 17.1583 18.4000   2
  -3 -20 -10-0.17158 24.1568   1
  -3  23  10-4.74650 20.6617   2
 -23  20  -7 55.2119 8.61723   2
  -3  23   7 68.8287 22.8290   2
   3  20   7 73.7961 19.1727   2
 -20  23  -7 59.2957 13.0412   2
 -23  20  -4 2716.80 60.4786   2
  -3  23   4 2467.31 77.3870   2
 -20  23  -4 2607.50 63.0384   2
  20   3  -1 1945.77 45.4757   1
 -23  20  -1 2196.08 59.9504   2
  23 -20   1 2075.98 58.9706   2
 -20  23  -1 2100.81 60.4842   2
  23  -3   2 119.925 15.7516   2
 -23  20   2 142.213 22.4369   2
  20   3   2 147.092 17.6345   1
  23  -3   2 129.880 18.9688   1
 -20  23   2 112.768 20.8493   2
  23  -3   5 1658.81 41.6349   2
 -23  20   5 1670.28 63.8654   2
 -20  23   5 1523.60 62.1063   2
   3 -23   5 1587.68 40.5052   1
 -23  20   8 138.284 27.6666   2
 -20  23   8 160.241 29.9263   2
 -20  23  11 58.4414 24.6319   2
 -23  20  11 107.157 29.1139   2
  -2 -21 -11 27.4591 23.6916   1
  -2  23  11 7.50589 20.7860   2
   2  21  11-3.37414 19.9832   2
  -2  23   8-15.6025 19.7740   2
   2  21   8-15.7037 18.6974   2
 -23  21  -5-4.98891 10.3156   2
   2  21   5 4.20203 19.2293   2
  -2  23   5 11.7441 18.9630   2
 -21  23  -5-17.9130 12.8775   2
 -23  21  -2 18.1655 13.9626   2
 -21  23  -2 34.7930 14.3309   2
  21   2   1 130.592 16.3051   1
 -23  21   1 135.419 21.8207   2
 -21  23   1 164.212 24.2784   2
  23  -2   1 150.520 18.9347   1
  21   2   1 120.344 17.5275   2
  23  -2   1 123.750 17.3360   2
  23  -2   4 155.743 16.1267   2
 -23  21   4 189.666 26.2422   2
 -21  23   4 152.226 25.9423   2
  -2 -21   4 140.988 6.78391   1
 -23  21   7 831.656 50.0215   2
 -21  23   7 810.045 48.8978   2
 -23  21  10 8.07353 23.0925   2
 -21  23  10-5.46210 26.0240   2
  -1  23   9 1943.20 75.2627   2
   1  22   9 1977.85 73.8352   2
  -1  23   6 2359.12 78.4275   2
 -23  22  -6 2399.22 54.1558   2
   1  22   6 2419.79 77.5547   2
 -22  23  -6 2570.53 58.3306   2
 -23  22  -3 8700.38 129.472   2
 -22  23  -3 8710.60 130.547   2
  22   1   0 3122.09 66.4792   1
 -23  22   0 3142.51 77.8386   2
 -22  23   0 3105.94 78.3112   2
 -23  22   3 742.130 41.7367   2
 -22  23   3 762.512 42.7093   2
  22   1   3 755.513 33.5049   2
  23  -1   3 737.877 32.8003   2
 -23  22   6 135.292 24.9573   2
 -22  23   6 91.0615 20.2804   2
  22   1   6 165.180 15.3034   2
 -23  22   9-15.6167 25.5141   2
 -22  23   9 14.1400 22.7671   2
   0  23  10 1173.61 59.2351   2
   0  23   7 1915.89 71.4675   2
 -23  23  -7 2046.20 46.9718   2
 -23  23  -4 8648.22 127.458   2
 -23  23  -1 2076.52 61.8578   2
 -23  23   2 145.784 22.5425   2
  23   0   2 196.016 20.3280   1
  23   0   2 167.192 18.6429   2
   0 -23   5 3931.78 54.8961   1
 -23  23   5 4278.60 104.325   2
  23   0   5 3912.08 73.5879   2
 -23  23   8 2451.44 87.2644   2
 -23  23  11 882.379 60.8123   2
 -12  24   0 470.170 31.2156   2
  24 -12   0 402.965 26.3272   2
 -24  12   0 419.215 26.9980   2
 -12 -12  -3 3463.00 72.1020   1
  24 -12   3 3453.81 67.3056   2
 -24  12   3 3546.52 85.9203   2
 -12  24   3 3584.14 88.1806   2
 -12 -12  -6 364.088 30.5342   1
 -12  24   6 352.507 33.1124   2
 -24  12   6 370.683 35.0374   2
 -12  24   9 1740.14 73.1160   2
  12  12   9 1720.41 53.6889   2
 -12 -12  -9 1798.43 74.6123   1
 -12  24  12 478.105 46.1402   2
 -11  24  13 83.3461 27.9126   2
 -11 -13 -10 199.692 34.9158   1
 -11  24  10 204.702 33.6803   2
 -11 -13  -7 133.433 24.5267   1
 -11  24   7 197.670 29.6227   2
  11  13   7 155.557 21.2581   2
 -24  11   7 188.909 28.8493   2
 -11  24   4 195.361 26.5728   2
  24 -13   4 180.573 15.2604   2
 -11 -13  -4 163.498 19.4720   1
 -24  11   4 130.957 23.3355   2
 -11 -13  -1 628.466 24.8642   1
 -11  24   1 679.488 38.9295   2
  24 -11  -1 626.989 33.3017   2
 -13  24  -1 721.031 37.9077   2
  24 -13   1 660.408 31.4381   2
 -24  13  -1 691.140 32.9614   2
 -24  11   1 662.984 34.9022   2
 -13  24   2 679.773 39.0677   2
  24 -11   2 713.198 31.7754   2
 -24  13   2 702.233 37.0690   2
  24 -11   5 876.078 26.8546   2
 -13 -11  -5 934.748 42.4336   1
 -13  24   5 893.428 46.1723   2
 -24  13   5 886.612 46.8144   2
 -13 -11  -8 2942.86 89.2934   1
  13  11   8 2819.28 68.1738   2
 -13  24   8 2902.21 91.6695   2
 -24  13   8 2968.66 93.4551   2
 -13  24  11 269.079 36.8871   2
 -13 -11 -11 277.647 38.8749   1
 -10  24  11 183.177 32.9546   2
 -10 -14 -11 130.883 30.0386   1
 -10 -14  -8-6.56435 21.8454   1
  10  14   8 47.1612 16.0650   2
 -10  24   8 41.9642 22.7377   2
 -10  24   5 80.2628 21.8242   2
 -10 -14  -5 72.1513 17.8501   1
 -14  24  -5 58.2854 15.4086   2
 -24  10   5 35.0046 18.9203   2
  24 -14   2 197.633 18.3228   2
 -10  24   2 198.096 26.6241   2
 -14  24  -2 164.273 20.2388   2
 -24  10   2 166.330 21.0593   2
 -10 -14  -2 154.238 15.9699   1
 -24  14  -2 177.419 18.3212   2
 -14  24   1 2787.67 74.8113   2
  24 -10   1 2726.43 65.6974   2
  24 -14  -1 2806.00 71.5288   2
 -24  14   1 2812.68 71.4516   2
 -14 -10  -4 1064.97 43.7531   1
  24 -10   4 1169.57 34.8171   2
 -14  24   4 1136.63 50.7871   2
 -24  14   4 1154.19 51.2658   2
 -14  24   7 1520.10 64.5687   2
 -14 -10  -7 1453.62 59.5750   1
 -24  14   7 1454.22 64.0651   2
 -14  24  10 86.7421 26.0542   2
 -14 -10 -10 98.0824 26.5072   1
 -24  14  10 147.714 29.6879   2
 -14  24  13-11.3905 23.7441   2
  -9  24  12 114.073 28.0576   2
   9  15   9 238.471 26.0837   2
  -9 -15  -9 271.460 35.4401   1
 -15  24  -9 265.578 23.6922   2
  -9  24   9 228.252 34.0464   2
 -15  24  -6 8.92094 13.0646   2
  -9 -15  -6 4.98342 18.3147   1
  -9  24   6 19.1328 18.9856   2
  24 -15   3 1335.83 41.3486   2
  -9 -15  -3 1357.52 44.5645   1
  -9  24   3 1402.78 55.4800   2
 -15  24  -3 1447.53 50.4903   2
 -24  15  -3 1348.88 41.6531   2
 -15  24   0 1342.61 50.5228   2
  24  -9   0 1359.21 46.9406   2
  -9 -15   0 1329.60 30.6998   1
  24 -15   0 1314.50 46.7303   2
 -24  15   0 1342.12 47.7456   2
 -24  15   3 59.1185 18.5310   2
  24  -9   3 86.0655 13.1565   2
 -15  24   3 53.4947 17.6108   2
 -24  15   6-2.66679 19.1788   2
   9 -24   6 7.97099 11.3340   1
 -15  24   6 50.2961 20.4989   2
 -15  -9  -6 23.9469 17.5756   1
 -15  -9  -9 18.1670 23.1420   1
 -15  24   9-16.4875 26.1608   2
 -24  15   9 19.6880 22.0761   2
 -15  24  12 22.4006 23.8264   2
  -8 -16 -10 44.1447 23.3148   1
  -8  24  10 132.966 30.0423   2
   8  16  10 68.5460 18.7033   2
  -8 -16  -7 106.497 20.9752   1
 -16  24  -7 178.987 20.2695   2
   8  16   7 172.975 23.0071   2
  -8  24   7 113.108 23.1135   2
  -8  24   4 55.3841 19.4299   2
  -8 -16  -4 32.5095 13.8544   1
 -16  24  -4 55.7974 15.8590   2
 -24  16  -4 49.2256 11.3996   2
 -16  24  -1 4076.35 88.7284   2
  -8 -16  -1 4123.36 67.5528   1
  24  -8  -1 3935.40 86.4241   2
  -8  24   1 4246.02 94.5057   2
  24 -16   1 4083.86 82.6979   2
 -24  16  -1 4093.96 82.2853   2
 -24  16   2 69.5187 18.6777   2
  24  -8   2 103.363 14.8534   2
 -16  24   2 69.5490 19.4396   2
 -24  16   5 107.355 22.4033   2
 -16  24   5 109.989 22.0312   2
  24  -8   5 99.5089 11.4755   2
 -16  -8  -8 461.129 38.8731   1
 -16  24   8 546.160 43.6675   2
  16   8   8 478.115 26.2777   2
 -24  16   8 468.501 40.8676   2
 -16  24  11 94.0512 27.8908   2
 -24  16  11 127.005 31.3042   2
  -7 -17 -11 335.659 40.8531   1
  -7  24  11 398.850 41.1333   2
   7  17   8 76.2682 19.6423   2
 -17  24  -8 67.7913 15.0586   2
  -7 -17  -8 68.0119 21.9018   1
  -7  24   8 77.2525 24.7326   2
 -24  17  -5 51.0652 11.4263   2
  -7 -17  -5 42.2963 17.8128   1
  -7  24   5 56.9719 22.3692   2
 -17  24  -5 40.0088 15.0803   2
 -24  17  -2-8.49051 13.1799   2
  -7 -17  -2-25.0796 12.5465   1
 -17  24  -2 8.34271 14.5937   2
  24 -17   2 7.86023 10.2860   2
  -7  24   2 9.06501 17.3142   2
 -24  17   1 1272.17 48.2941   2
  24  -7   1 1208.74 43.7481   2
 -17  24   1 1243.54 50.5226   2
  -7 -17   1 1100.79 23.0685   1
  24  -7   4 556.492 25.3046   2
 -17  24   4 528.304 37.0328   2
 -24  17   4 521.499 36.1495   2
 -17  24   7 1835.71 70.9309   2
   7 -24   7 1788.06 53.4065   1
 -24  17   7 1829.04 71.3092   2
 -17  24  10 513.583 45.3394   2
 -24  17  10 592.930 49.0431   2
  -6  24  12 86.1531 26.6916   2
   6  18   9 891.464 46.3689   2
  -6  24   9 879.821 53.3388   2
  -6 -18  -9 811.702 51.4845   1
 -18  24  -6 3893.36 79.7098   2
   6  18   6 3639.92 89.6558   2
 -24  18  -6 3872.51 59.3265   2
  -6 -18  -6 3659.65 90.8332   1
  -6  24   6 3771.06 98.2089   2
 -24  18  -3 1684.52 47.5556   2
  18   6  -3 1497.29 27.2054   1
  -6  24   3 1704.53 61.7327   2
  24 -18   3 1656.04 47.6361   2
 -18  24  -3 1728.61 53.9107   2
  24  -6   0 2578.17 66.2275   2
 -24  18   0 2601.59 68.1182   2
 -18  24   0 2432.68 67.6591   2
  -6 -18   0 2479.34 45.6871   1
  24 -18   0 2598.95 67.6267   2
 -24  18   3 48.6158 17.9804   2
 -18  24   3 70.9067 21.0020   2
  24  -6   3 84.3624 13.6482   2
   6 -24   6 92.0118 14.7937   1
 -24  18   6 111.693 25.1353   2
 -18  24   6 108.835 25.3616   2
  24  -6   6 68.1128 10.1873   2
 -18  24   9 310.993 35.4841   2
 -24  18   9 433.074 41.2766   2
 -18  24  12 45.0610 32.0083   2
 -24  18  12 64.5581 30.1555   2
  -5  24  10 897.290 55.4988   2
   5  19  10 970.355 49.0266   2
  -5 -19 -10 998.272 58.1391   1
   5  19   7 2426.05 74.6143   2
  -5  24   7 2532.03 82.0578   2
 -19  24  -7 2649.34 61.6833   2
 -24  19  -4 2206.99 53.4065   2
  -5  24   4 2135.60 70.9931   2
 -19  24  -4 2079.44 58.3003   2
  19   5  -1 2258.07 45.6316   1
 -24  19  -1 2481.53 63.9887   2
  24 -19   1 2342.44 62.7463   2
 -19  24  -1 2356.51 65.5835   2
  24  -5   2 1089.29 39.8844   2
 -24  19   2 1171.03 49.4276   2
 -19  24   2 1066.93 48.0310   2
 -24  19   5 323.538 32.7419   2
  24  -5   5 305.342 18.4808   2
 -19  24   5 355.080 33.8955   2
 -19  24   8 1377.51 64.4811   2
 -24  19   8 1405.44 65.8701   2
 -19  24  11 331.073 40.4195   2
 -24  19  11 309.955 39.2376   2
  -4 -20 -11 0.40047 25.7095   1
  -4  24  11 21.4901 23.0641   2
   4  20   8 22.8714 18.4224   2
 -20  24  -8 44.5372 11.9296   2
  -4  24   8 19.1124 20.4423   2
 -24  20  -5 34.5493 10.6505   2
  -4  24   5 30.0809 18.7090   2
 -20  24  -5 52.1656 12.9268   2
 -24  20  -2 448.617 27.8632   2
  24 -20   2 442.084 27.9828   2
 -20  24  -2 475.449 30.4659   2
  20   4  -2 472.344 19.9554   1
  24  -4   1 166.548 20.1170   2
 -24  20   1 148.242 20.9238   2
  20   4   1 172.105 16.6390   1
 -20  24   1 190.569 23.9749   2
  24  -4   4 1479.07 43.3978   2
 -24  20   4 1539.52 59.8649   2
 -20  24   4 1511.56 60.1688   2
 -20  24   7 634.515 45.6701   2
 -24  20   7 674.053 45.1593   2
 -24  20  10 88.7045 28.2578   2
 -20  24  10 85.0113 27.4368   2
   3  21   9 247.281 30.8299   2
  -3  24   9 245.128 33.2393   2
 -24  21  -6 10.7358 9.39089   2
  -3  24   6 11.9229 19.3928   2
   3  21   6 5.70242 17.1414   2
 -21  24  -6 6.40676 11.6342   2
 -24  21  -3 91.3588 15.8268   2
 -21  24  -3 71.9837 15.7339   2
 -24  21   0 2775.47 72.6475   2
  21   3   0 2728.26 58.6762   1
 -21  24   0 2912.83 75.1285   2
  -3 -21   3 3989.65 44.3756   1
 -24  21   3 4595.68 101.839   2
 -21  24   3 4604.03 103.125   2
  21   3   3 4491.33 89.5626   1
  24  -3   3 4392.95 82.5825   2
 -24  21   6 5080.47 117.406   2
 -21  24   6 5163.80 118.748   2
 -21  24   9 1818.14 78.6091   2
 -24  21   9 1813.40 80.0751   2
  -2 -22 -10 173.198 32.0893   1
  -2  24  10 178.414 28.6104   2
   2  22  10 208.999 30.7738   2
 -24  22  -7 71.3857 10.9427   2
  -2  24   7 52.7094 21.7691   2
   2  22   7 28.2295 18.4917   2
 -22  24  -7 76.7209 13.2609   2
 -24  22  -4 39.6441 13.8401   2
 -22  24  -4 52.3215 16.1789   2
  -2  24   4 30.5179 19.5518   2
 -24  22  -1 6104.10 109.817   2
  22   2  -1 5993.95 92.0583   1
 -22  24  -1 6112.67 111.679   2
  22   2   2 3212.27 73.3267   1
 -24  22   2 3224.22 83.4757   2
 -22  24   2 3226.73 84.4376   2
  22   2   2 3095.63 73.5652   2
  24  -2   2 3180.16 72.7922   2
 -24  22   5 11295.9 181.177   2
 -22  24   5 11417.9 182.179   2
  22   2   5 10751.7 142.190   2
   2 -24   5 11531.4 127.436   1
  24  -2   5 10906.3 138.028   2
 -22  24   8 2034.97 79.4947   2
 -24  22   8 1943.64 79.1942   2
 -22  24  11 573.897 49.6995   2
 -24  22  11 573.467 50.6024   2
  -1 -23 -11 11.6894 23.9809   1
  -1  24  11 22.2813 22.3134   2
   1  23  11 62.1050 23.0740   2
  -1  24   8 958.462 54.2487   2
   1  23   8 1033.73 54.3329   2
 -24  23  -5 1756.12 50.0797   2
  -1  24   5 1596.81 64.2604   2
 -23  24  -5 1715.68 51.3245   2
   1  23   5 1768.87 66.3367   2
 -24  23  -2 3793.07 83.5334   2
 -23  24  -2 3745.94 84.0934   2
 -24  23   1 1339.94 52.9659   2
  24  -1   1 1380.59 48.2214   1
 -23  24   1 1352.70 54.2820   2
  23   1   1 1344.81 46.0455   1
  23   1   4 251.319 21.6452   2
 -24  23   4 275.015 31.3385   2
 -23  24   4 254.701 30.7612   2
  -1 -23   4 210.068 10.8285   1
  24  -1   4 254.317 20.5170   2
 -24  23   7 112.430 26.3228   2
 -23  24   7 168.462 27.2909   2
 -24  23  10 253.267 36.9214   2
 -23  24  10 311.815 40.5023   2
   0  24   9 30.8779 20.1795   2
 -24  24  -6 19.5980 12.2381   2
   0  24   6 0.80168 19.0266   2
 -24  24  -3 1119.30 44.2256   2
 -24  24   0 389.990 30.1347   2
  24   0   0 397.789 25.7344   1
 -24  24   3 1732.62 63.8508   2
  24   0   3 1712.10 52.0514   2
 -24  24   6 3226.59 94.6069   2
 -24  24   9 69.6002 25.7943   2
 -12  25  11 196.478 33.9912   2
 -12 -13 -11 153.722 33.7183   1
 -12 -13  -8 47.0505 20.9448   1
  12  13   8 91.5813 17.7819   2
 -12  25   8 117.676 26.3854   2
 -12 -13  -5 360.494 28.6722   1
  25 -13   5 339.936 17.7940   2
 -25  12   5 339.650 32.3547   2
 -12  25   5 317.612 31.4124   2
 -12  25   2 623.166 38.6011   2
 -13  25  -2 627.374 36.6715   2
  25 -13   2 588.353 29.5629   2
 -25  13  -2 557.140 29.2864   2
 -25  12   2 536.363 35.0214   2
 -12 -13  -2 508.322 25.7221   1
 -13  25   1 1801.49 60.7848   2
  25 -12   1 1706.54 52.3365   2
 -12  25  -1 1898.58 61.0021   2
 -25  12  -1 1727.38 53.2806   2
 -25  13   1 1703.19 56.4996   2
  25 -12   4 1616.34 42.8371   2
 -13 -12  -4 1661.66 53.8619   1
 -13  25   4 1719.96 63.5046   2
 -25  13   4 1650.75 62.0367   2
 -13 -12  -7 2422.85 76.9373   1
 -25  13   7 2481.85 83.7575   2
 -13  25   7 2594.04 84.7746   2
 -13  25  10 628.657 48.4846   2
 -13 -12 -10 650.975 49.6742   1
 -13  25  13 21.0090 25.8303   2
 -11  25  12 1607.64 76.5363   2
  11  14   9 5651.89 107.972   2
 -11  25   9 5762.51 135.335   2
 -11 -14  -9 5877.45 135.181   1
 -11 -14  -6 3786.48 92.1376   1
 -11  25   6 3697.40 98.5266   2
 -25  11   6 3848.80 100.825   2
 -11  25   3 2815.84 79.5584   2
 -14  25  -3 2723.34 71.9599   2
 -25  11   3 2729.48 76.8801   2
 -25  14  -3 2743.57 61.8227   2
 -11 -14  -3 2799.82 64.8101   1
  25 -14   3 2788.93 61.4914   2
 -14  25   0 93.9959 19.0394   2
  25 -11   0 96.1437 16.2601   2
 -11  25   0 86.9165 19.7187   2
  25 -14   0 37.5805 13.4638   2
 -25  14   0 99.3312 17.3076   2
 -14  25   3-7.73588 20.2537   2
  25 -11   3 26.7395 10.1521   2
 -25  14   3 30.6155 16.8612   2
 -14 -11  -6 1392.79 56.2120   1
 -14  25   6 1494.15 62.0923   2
 -25  14   6 1307.32 58.5738   2
 -14  25   9 580.020 45.2059   2
 -14 -11  -9 621.060 45.6786   1
 -25  14   9 684.411 51.5700   2
 -14  25  12 21.8082 25.2529   2
 -10  25  13 131.495 30.7328   2
 -10  25  10 2243.93 86.3423   2
 -10 -15 -10 2233.04 86.2228   1
 -10 -15  -7 3338.77 90.6986   1
  10  15   7 3147.54 80.2383   2
 -15  25  -7 3415.72 78.0100   2
 -10  25   7 3318.74 95.5693   2
 -10  25   4 4974.17 111.930   2
 -10 -15  -4 4949.07 95.3647   1
  25 -15   4 4867.13 80.9771   2
 -15  25  -4 5232.43 100.486   2
 -25  15  -4 5225.27 83.3070   2
 -10 -15  -1 5000.69 76.4275   1
 -15  25  -1 5070.52 101.798   2
 -10  25   1 5151.37 107.740   2
  25 -15   1 5105.42 94.5656   2
 -25  15  -1 5024.79 94.1867   2
  25 -10   2 1960.59 54.2573   2
 -15  25   2 2122.34 67.5576   2
 -25  15   2 2007.27 63.4447   2
  25 -10   5 3.24570 8.09082   2
 -15 -10  -5 18.5492 18.0400   1
 -15  25   5 25.6882 18.9700   2
 -25  15   5-8.81648 19.8199   2
 -15 -10  -8 194.623 29.0695   1
 -15  25   8 183.130 30.6387   2
  15  10   8 172.004 19.1441   2
 -25  15   8 175.208 29.7280   2
 -15  25  11-25.5908 25.1273   2
  -9  25  11 703.264 52.1299   2
  -9 -16 -11 702.775 54.5747   1
   9  16   8 3970.95 92.2845   2
  -9 -16  -8 3950.42 105.732   1
 -16  25  -8 4315.41 86.4064   2
  -9  25   8 4098.59 110.421   2
  -9 -16  -5 8001.97 133.501   1
 -16  25  -5 8367.00 130.412   2
  -9  25   5 7964.42 148.260   2
 -16  25  -2 22324.6 256.159   2
  -9 -16  -2 21921.9 229.397   1
  -9  25   2 22577.3 270.520   2
 -25  16  -2 22747.5 242.741   2
  25 -16   2 22187.2 242.262   2
  25  -9   1 31040.0 316.887   2
 -16  25   1 30900.1 334.953   2
 -25  16   1 31365.0 330.978   2
  25  -9   4 3353.86 64.5466   2
 -16  25   4 3264.77 87.6092   2
 -25  16   4 3318.30 87.9140   2
 -16  25   7 2431.32 82.7895   2
   9 -25   7 2349.16 65.8346   1
 -16  -9  -7 2336.01 77.2703   1
 -25  16   7 2395.55 81.9311   2
 -16  -9 -10 136.022 30.4047   1
 -16  25  10 158.593 31.1398   2
 -25  16  10 193.741 33.3204   2
  -8  25  12 240.162 34.4941   2
   8  17   9 187.400 24.0293   2
  -8  25   9 187.155 30.3112   2
  -8 -17  -9 169.576 29.0805   1
 -17  25  -6 1087.21 42.6767   2
  -8  25   6 1052.09 53.7881   2
  -8 -17  -6 1076.79 49.7519   1
 -17  25  -3 1050.53 43.9557   2
  -8  25   3 1036.20 50.0055   2
  25 -17   3 973.964 37.0476   2
 -25  17  -3 1041.03 37.9775   2
  -8 -17  -3 974.623 38.3343   1
  25  -8   0 6446.45 113.217   2
  -8 -17   0 6591.08 82.6285   1
 -25  17   0 6804.26 115.767   2
  25 -17   0 6718.37 116.109   2
 -17  25   0 6585.73 119.608   2
  25  -8   3 642.217 29.4246   2
 -17  25   3 646.313 39.9346   2
 -25  17   3 631.551 39.1640   2
   8 -25   6 177.818 19.8912   1
 -17  25   6 180.086 28.4635   2
  25  -8   6 126.970 10.9683   2
 -25  17   6 146.548 25.8889   2
 -17  25   9 416.893 39.4853   2
 -25  17   9 435.468 40.5061   2
 -17  25  12 378.825 42.7482   2
  -7  25  10 48.6956 22.9090   2
  -7 -18 -10 50.8513 24.8193   1
   7  18  10 68.3748 18.1410   2
 -18  25  -7 552.985 30.7735   2
   7  18   7 522.211 36.2340   2
  -7  25   7 553.298 41.4348   2
  -7 -18  -7 534.456 38.5786   1
 -18  25  -4 1444.32 50.1815   2
  -7 -18  -4 1392.22 49.2357   1
  -7  25   4 1415.24 58.4758   2
 -25  18  -4 1473.96 43.5851   2
  25 -18   1 299.579 24.1499   2
 -18  25  -1 248.138 24.7563   2
 -25  18  -1 292.745 24.3863   2
  -7 -18  -1 264.318 17.2081   1
  25  -7   2 1302.71 44.1769   2
 -18  25   2 1398.40 54.5001   2
 -25  18   2 1408.77 53.8929   2
 -25  18   5 364.140 34.0515   2
  25  -7   5 345.175 19.1527   2
 -18  25   5 311.063 32.4106   2
 -18  25   8 1380.73 65.6979   2
  18   7   8 1218.31 40.0795   2
 -25  18   8 1341.59 64.7455   2
 -18  25  11 152.440 31.8610   2
 -25  18  11 159.243 47.0425   2
  -6 -19 -11 206.970 34.7257   1
  -6  25  11 269.960 35.3437   2
   6  19   8 2186.43 72.9617   2
  -6  25   8 2288.90 82.2350   2
 -19  25  -8 2518.98 59.6832   2
  -6 -19  -8 2307.64 80.1563   1
  -6  25   5 1783.44 67.7204   2
 -25  19  -5 1767.21 45.3350   2
 -19  25  -5 1761.28 54.8037   2
 -25  19  -2 2861.76 68.0539   2
  25 -19   2 2815.17 68.0333   2
  -6  25   2 2766.28 80.1983   2
 -19  25  -2 2897.87 73.0985   2
  19   6  -2 2720.61 44.9992   1
 -25  19   1 75.4399 18.7728   2
  25  -6   1 79.7600 15.4743   2
  -6 -19   1 72.0897 7.72698   1
 -19  25   1 105.256 21.6740   2
 -25  19   4 288.396 28.8552   2
  25  -6   4 352.014 22.0214   2
 -19  25   4 289.460 30.3732   2
 -19  25   7 2584.26 85.9013   2
 -25  19   7 2395.81 83.5889   2
 -19  25  10 1642.30 77.7427   2
 -25  19  10 1696.88 78.8918   2
  -5  25  12-4.39346 22.7554   2
   5  20   9 6.12693 17.6200   2
  -5 -20  -9-21.0902 24.1886   1
  -5  25   9 7.23326 22.0211   2
  -5  25   6 403.629 37.0843   2
   5  20   6 397.024 33.3711   2
 -20  25  -6 426.674 26.8670   2
 -25  20  -6 462.154 22.0281   2
 -20  25  -3 40.1783 16.0332   2
 -25  20  -3 53.6041 15.5243   2
  -5  25   3 43.6045 21.5007   2
  20   5  -3 42.3413 7.40492   1
 -25  20   0 2191.44 64.0289   2
 -20  25   0 2338.56 67.4834   2
  20   5   0 2201.50 49.6103   1
 -25  20   3 4139.15 96.4870   2
  25  -5   3 3869.29 77.2086   2
 -20  25   3 3890.84 95.4873   2
   5 -25   6 9071.43 123.729   1
 -20  25   6 9102.85 164.855   2
 -25  20   6 9261.85 165.713   2
 -20  25   9 6258.71 144.738   2
 -25  20   9 6191.32 147.705   2
  -4 -21 -10 471.809 44.2223   1
  -4  25  10 375.449 38.2715   2
   4  21  10 399.400 35.7537   2
   4  21   7 2249.03 75.7221   2
 -21  25  -7 2561.04 60.2299   2
  -4  25   7 2461.95 83.5847   2
 -25  21  -4 539.635 28.0411   2
  -4  25   4 497.396 38.0231   2
 -21  25  -4 522.808 30.8242   2
 -25  21  -1 1600.03 53.3621   2
  21   4  -1 1581.05 40.3584   1
  25 -21   1 1563.48 53.9895   2
 -21  25  -1 1576.16 55.4130   2
  25  -4   2 76.3044 15.6668   2
  21   4   2 58.4118 14.0448   1
 -25  21   2 54.1721 18.4392   2
 -21  25   2 97.6146 21.4637   2
 -25  21   5 122.884 26.9681   2
   4 -25   5 82.2442 13.1838   1
  25  -4   5 90.9671 13.7549   2
 -21  25   5 91.5703 26.1350   2
 -25  21   8 7.45660 23.0001   2
 -21  25   8-9.03732 23.2357   2
 -21  25  11-8.11247 27.1866   2
 -25  21  11 15.5230 25.8533   2
  -3  25  11 1228.80 64.4642   2
  -3 -22 -11 1142.15 66.3867   1
   3  22   8 1997.52 74.3069   2
  -3  25   8 2054.86 77.8078   2
 -25  22  -5 1469.31 44.3949   2
  -3  25   5 1490.25 61.9106   2
 -22  25  -5 1547.45 49.9653   2
 -25  22  -2 713.301 36.2806   2
  22   3  -2 728.004 26.9031   1
 -22  25  -2 718.665 37.3578   2
  22   3   1 2589.62 61.4721   1
 -25  22   1 2603.53 73.7906   2
  25  -3   1 2727.37 71.8387   1
 -22  25   1 2567.49 74.4287   2
 -25  22   4 10353.3 169.302   2
 -22  25   4 10017.6 168.775   2
  25  -3   4 10065.4 135.533   2
 -22  25   7 5341.00 127.047   2
 -25  22   7 5351.70 128.282   2
 -22  25  10 938.587 59.0481   2
 -25  22  10 1008.76 63.3188   2
  -2  25   9 726.370 49.0966   2
   2  23   9 618.866 44.8082   2
 -25  23  -6 381.324 22.9392   2
  -2  25   6 394.232 36.3200   2
 -23  25  -6 404.209 25.8067   2
   2  23   6 427.774 36.4053   2
 -25  23  -3 59.9435 16.1045   2
 -23  25  -3 58.0777 15.2404   2
 -25  23   0 1003.77 46.0832   2
 -23  25   0 1023.10 46.7301   2
  23   2   0 986.595 36.9896   1
 -25  23   3 723.997 42.3999   2
 -23  25   3 750.449 43.8304   2
  23   2   3 730.282 34.9887   2
  25  -2   3 718.413 34.0165   2
 -25  23   6 4310.39 111.235   2
 -23  25   6 4416.49 111.740   2
 -25  23   9 521.994 47.4065   2
 -23  25   9 520.885 45.5153   2
  -1  25  10-20.6583 22.1691   2
   1  24  10-25.3936 21.9790   2
  -1  25   7 268.168 32.7137   2
 -24  25  -7 319.560 21.8645   2
   1  24   7 329.387 34.1064   2
 -25  24  -4 1311.16 46.4035   2
 -24  25  -4 1234.88 46.6084   2
  -1  25   4 1266.61 58.0506   2
 -25  24  -1 1959.71 62.5067   2
 -24  25  -1 2090.77 64.9786   2
  24   1  -1 2095.02 53.6147   1
  24   1   2 1648.86 53.5155   1
 -25  24   2 1627.06 61.1292   2
 -24  25   2 1700.44 63.5873   2
 -25  24   5 1560.96 64.6642   2
 -24  25   5 1550.75 65.1079   2
  24   1   5 1413.21 44.8426   2
  25  -1   5 1432.86 44.4661   2
 -25  24   8-38.6801 25.2001   2
 -24  25   8 6.28803 23.1168   2
   0  25  11 32.9738 24.8377   2
   0  25   8 4438.89 116.908   2
 -25  25  -5 6621.43 109.134   2
   0  25   5 6189.13 133.814   2
 -25  25  -2 31615.2 335.352   2
 -25  25   1 10892.5 169.963   2
  25   0   1 10710.4 152.475   1
 -25  25   4 20811.6 267.607   2
  25   0   4 19861.7 226.747   2
 -25  25   7 4747.76 122.500   2
 -25  25  10 2395.69 95.2417   2
 -13  26   0 221.372 25.5790   2
  26 -13   0 217.830 20.2191   2
 -26  13   0 195.767 21.7831   2
 -13  26  -3 2256.47 67.2657   2
  26 -13   3 2226.56 55.3500   2
 -13 -13  -3 2162.02 57.9632   1
 -26  13   3 2239.53 71.4757   2
 -13  26   3 2183.74 72.1560   2
 -13  26   6 153.673 27.3460   2
 -26  13   6 77.8052 20.9815   2
 -13 -13  -6 103.760 20.5324   1
 -13  26   9 342.773 37.9530   2
 -13 -13  -9 349.992 37.0337   1
  13  13   9 379.211 28.2454   2
 -13  26  12 48.2953 26.3288   2
 -12  26  10 373.392 39.2673   2
 -12 -14 -10 359.873 40.5459   1
 -12  26   7 462.739 40.7467   2
 -12 -14  -7 486.317 37.8832   1
 -12  26   4 72.6632 21.6606   2
 -26  12   4 85.5017 21.2907   2
  26 -14   4 73.6187 12.3366   2
 -12 -14  -4 72.0879 16.6930   1
 -14  26  -4 72.8818 19.0854   2
 -12  26   1 105.515 22.0303   2
 -14  26  -1 137.553 21.7387   2
  26 -14   1 107.993 15.2042   2
 -26  12   1 100.722 18.7891   2
 -26  14  -1 131.673 18.8880   2
  26 -12   2 4394.10 85.7702   2
 -26  14   2 4452.47 97.4267   2
 -12  26  -2 4510.52 98.4045   2
 -14  26   2 4310.51 99.5341   2
  26 -12   5 795.612 27.4461   2
 -14  26   5 784.076 46.5195   2
 -14 -12  -5 772.482 40.0687   1
 -26  14   5 838.355 47.9753   2
  14  12   8 1495.17 51.1323   2
 -14 -12  -8 1570.55 66.1307   1
 -14  26   8 1656.59 72.0490   2
 -26  14   8 1607.09 70.6434   2
 -14  26  11 309.622 39.6896   2
 -14 -12 -11 328.344 41.4200   1
 -11  26  11 887.460 58.7562   2
 -11 -15 -11 810.745 57.9106   1
  11  15   8 1578.95 56.3110   2
 -11  26   8 1635.77 71.7363   2
 -11 -15  -8 1631.15 67.6529   1
 -15  26  -8 1760.23 57.1010   2
 -11 -15  -5 625.703 37.2182   1
 -15  26  -5 664.994 36.7674   2
 -11  26   5 595.759 41.6031   2
 -11  26   2 284.288 29.6522   2
 -15  26  -2 289.918 27.7690   2
  26 -15   2 294.962 22.9050   2
 -26  15  -2 265.858 23.0296   2
 -11 -15  -2 261.945 19.6425   1
 -15  26   1 112.302 23.3571   2
  26 -11   1 47.8179 14.1239   2
 -11  26  -1 82.8077 21.3168   2
 -26  15   1 70.2287 18.9923   2
  26 -11   4 269.339 19.0440   2
 -15  26   4 235.266 27.5215   2
 -26  15   4 242.598 28.4024   2
 -15  26   7 68.3507 23.9343   2
 -26  15   7 78.5202 23.8792   2
 -15 -11  -7 100.448 23.6683   1
 -15 -11 -10 93.7483 29.5961   1
 -15  26  10 11.4975 22.7649   2
 -26  15  10 71.8148 26.9069   2
 -10  26  12 6.12062 23.3258   2
  10  16   9 71.3276 18.9631   2
 -10 -16  -9 44.8745 23.4234   1
 -10  26   9 66.7115 25.8536   2
 -10 -16  -6 1613.23 60.8186   1
 -16  26  -6 1759.30 56.3202   2
 -10  26   6 1658.03 67.7025   2
  26 -16   3 883.829 35.7889   2
 -10  26   3 865.005 47.2488   2
 -16  26  -3 894.847 42.2864   2
 -10 -16  -3 855.121 36.2734   1
 -26  16  -3 904.959 36.2317   2
 -16  26   0 3769.94 89.2885   2
  26 -10   0 3695.41 83.2303   2
 -10  26   0 3735.05 92.3412   2
 -26  16   0 3850.87 85.3612   2
  26 -10   3 1526.78 46.3977   2
 -16  26   3 1457.18 58.2710   2
 -26  16   3 1424.21 56.8717   2
 -16  26   6 1077.56 54.7035   2
 -16 -10  -6 961.893 48.1071   1
 -26  16   6 989.561 52.8136   2
 -16  26   9 1249.80 65.4597   2
 -16 -10  -9 1348.21 67.2258   1
 -26  16   9 1244.48 65.4209   2
 -16  26  12 146.388 33.7142   2
  -9  26  10 167.286 30.9193   2
  -9 -17  -7 1204.75 56.2860   1
 -17  26  -7 1302.05 47.6559   2
   9  17   7 1133.04 50.6384   2
  -9  26   7 1188.43 59.9351   2
  -9  26   4 20.8518 19.9997   2
 -17  26  -4 12.5010 14.1277   2
  26 -17   4 19.0489 10.1155   2
  -9 -17  -4-0.40085 14.4839   1
 -26  17  -4 19.2486 11.2642   2
 -17  26  -1 1478.94 55.1905   2
  -9 -17  -1 1400.17 38.2872   1
  -9  26   1 1533.10 60.1929   2
  26 -17   1 1458.16 50.2427   2
 -26  17  -1 1561.77 51.7373   2
  26  -9   2 1906.95 54.8546   2
 -17  26   2 1931.57 66.0401   2
 -26  17   2 1955.08 65.1099   2
 -17  26   5 808.032 47.6288   2
  26  -9   5 787.684 27.9232   2
 -26  17   5 698.856 43.2964   2
 -17  26   8 24.1355 23.2452   2
  17   9   8 3.18443 12.3345   2
 -26  17   8 1.04926 21.4576   2
 -17  26  11 236.482 37.2924   2
 -26  17  11 169.414 33.5366   2
  -8 -18 -11 70.1570 28.7359   1
  -8  26  11 91.8618 29.4057   2
 -18  26  -8 66.6682 16.2772   2
   8  18   8 18.6393 16.4155   2
  -8 -18  -8-8.40774 23.2256   1
  -8  26   8 26.3982 21.8523   2
  -8  26   5 603.351 42.8521   2
 -18  26  -5 592.304 34.1573   2
 -26  18  -5 587.459 26.4168   2
  -8 -18  -5 586.976 35.6531   1
 -26  18  -2 239.601 22.0870   2
 -18  26  -2 294.546 27.8108   2
  26 -18   2 258.035 21.9185   2
  -8 -18  -2 224.020 18.4935   1
  -8  26   2 258.130 30.3207   2
  26  -8   1 852.726 38.9028   2
 -18  26   1 872.163 44.3992   2
 -26  18   1 944.118 43.7173   2
 -26  18   4 31.0548 18.6085   2
  26  -8   4 39.1920 11.8389   2
 -18  26   4 26.9122 19.1661   2
 -18  26   7 742.298 49.7693   2
 -26  18   7 750.936 48.5137   2
 -18  26  10 639.289 51.3026   2
 -26  18  10 715.814 53.8793   2
  -7  26  12 13.6917 23.6029   2
   7  19   9 101.898 22.4412   2
  -7 -19  -9 68.2057 25.3672   1
  -7  26   9 61.0205 24.6220   2
 -19  26  -6 1273.94 47.6263   2
 -26  19  -6 1331.14 34.2970   2
  -7 -19  -6 1233.96 53.2746   1
  -7  26   6 1220.89 58.7509   2
  -7  26   3 1111.10 53.7463   2
  26 -19   3 1125.51 41.7218   2
  -7 -19  -3 1123.88 41.5258   1
 -19  26  -3 1153.97 46.9166   2
 -26  19  -3 1138.55 41.8889   2
 -26  19   0 2015.37 61.7758   2
  -7 -19   0 1946.55 40.3848   1
 -19  26   0 1995.72 64.6550   2
 -26  19   3 233.557 27.5169   2
  26  -7   3 254.689 21.0853   2
 -19  26   3 218.964 27.1661   2
 -19  26   6 783.028 48.6916   2
   7 -26   6 752.417 34.1832   1
 -26  19   6 733.644 47.1323   2
 -19  26   9 54.9407 26.8862   2
 -26  19   9 31.1106 23.7958   2
  -6  26  10-12.9637 23.8312   2
  -6 -20 -10-22.4801 25.2244   1
   6  20  10-8.67518 17.8704   2
  -6  26   7 151.721 28.7074   2
 -20  26  -7 127.541 18.8826   2
  -6 -20  -7 102.586 25.9599   1
   6  20   7 127.559 24.0179   2
  20   6  -4 328.958 10.8185   1
  -6  26   4 370.772 33.2896   2
 -20  26  -4 436.669 30.5477   2
 -26  20  -4 454.223 26.5022   2
  20   6  -1 41.1837 9.29600   1
 -26  20  -1 47.8816 18.0220   2
  26 -20   1 8.42617 12.4245   2
 -20  26  -1 59.2050 18.5118   2
 -26  20   2 2642.71 75.4695   2
  26  -6   2 2584.95 65.3542   2
 -20  26   2 2568.12 76.8308   2
  26  -6   5 2637.42 55.8362   2
 -20  26   5 2543.38 82.4368   2
 -26  20   5 2535.97 81.5776   2
 -20  26   8 2736.07 92.4938   2
 -26  20   8 2598.19 91.6804   2
 -20  26  11 899.155 62.0289   2
 -26  20  11 888.581 61.9321   2
  -5  26  11 25.0833 25.1314   2
  -5 -21 -11-28.8866 25.6521   1
  -5 -21  -8 234.743 31.0337   1
   5  21   8 275.984 31.5371   2
  -5  26   8 321.470 37.0658   2
 -26  21  -5 238.469 19.3999   2
  -5  26   5 231.793 29.3176   2
 -21  26  -5 222.747 22.8743   2
 -26  21  -2 1491.71 50.4669   2
  21   5  -2 1478.70 34.8356   1
  26 -21   2 1512.51 51.6948   2
 -21  26  -2 1440.64 53.2463   2
 -26  21   1 2685.12 75.0777   2
 -21  26   1 2588.02 75.3691   2
  21   5   1 2456.65 57.7790   1
 -26  21   4 1919.84 68.3473   2
  26  -5   4 1742.54 48.9987   2
 -21  26   4 1753.38 67.1255   2
 -21  26   7 2280.20 82.0234   2
 -26  21   7 2209.02 81.0239   2
 -21  26  10 443.530 45.9787   2
 -26  21  10 410.884 44.3405   2
  -4  26   9 669.344 48.6384   2
   4  22   9 657.030 44.7788   2
  -4 -22  -9 695.511 50.1320   1
  -4  26   6 650.836 45.7671   2
   4  22   6 692.857 43.5142   2
 -22  26  -6 661.242 33.5695   2
 -26  22  -6 761.619 29.6373   2
 -26  22  -3 500.171 29.9651   2
  22   4  -3 441.634 19.2437   1
  -4  26   3 474.833 38.0489   2
 -22  26  -3 370.992 28.2288   2
 -26  22   0 133.318 21.7118   2
  22   4   0 138.629 15.6506   1
 -22  26   0 140.380 24.3982   2
  26  -4   3 809.247 35.3413   2
 -26  22   3 896.601 47.9926   2
 -22  26   3 875.404 47.5274   2
 -26  22   6 192.632 28.7071   2
 -22  26   6 281.984 33.9002   2
 -26  22   9 463.572 44.8696   2
 -22  26   9 495.462 46.6325   2
  -3 -23 -10 149.799 29.1087   1
   3  23  10 135.595 26.2801   2
  -3  26  10 164.675 31.5935   2
  -3  26   7 401.291 38.4507   2
 -23  26  -7 439.364 26.3424   2
   3  23   7 428.005 37.1997   2
 -26  23  -4 979.157 39.3675   2
  -3  26   4 889.969 49.8467   2
 -23  26  -4 916.270 41.5123   2
 -26  23  -1 4547.23 95.5413   2
 -23  26  -1 4342.57 96.7136   2
  23   3  -1 4419.35 76.0174   1
 -26  23   2 2676.19 78.4619   2
 -23  26   2 2608.74 78.1245   2
  23   3   2 2424.27 64.0476   1
  26  -3   2 2409.36 65.9597   2
 -26  23   5 6862.45 140.161   2
 -23  26   5 6913.00 139.332   2
  23   3   5 6419.12 106.260   2
 -23  26   8 1874.11 77.8704   2
 -26  23   8 1836.56 77.4613   2
  -2  26  11 22.2097 23.6940   2
  -2  26   8 127.960 30.3941   2
   2  24   8 87.9120 25.3817   2
 -26  24  -5 128.059 18.7327   2
 -24  26  -5 144.366 19.9566   2
  -2  26   5 157.748 29.0809   2
   2  24   5 99.7889 23.9313   2
 -26  24  -2 2042.67 62.3699   2
 -24  26  -2 1968.70 62.5092   2
  24   2  -2 1969.85 48.6066   1
 -26  24   1 98.1843 21.0061   2
 -24  26   1 93.0431 21.1938   2
  24   2   1 80.5804 14.7409   1
 -26  24   4 548.611 40.9238   2
 -24  26   4 531.559 41.1784   2
  24   2   4 414.891 27.4535   2
  26  -2   4 406.591 26.7458   2
 -26  24   7 250.457 33.1619   2
 -24  26   7 243.218 30.8805   2
 -26  24  10 160.788 33.8810   2
 -24  26  10 177.776 33.9464   2
   1  25   9 117.797 27.6902   2
  -1  26   9 98.9828 26.5373   2
 -26  25  -6 535.484 28.9236   2
  -1  26   6 534.329 42.3185   2
   1  25   6 545.355 42.2344   2
 -25  26  -6 554.576 29.8586   2
 -26  25  -3 1303.22 48.8747   2
 -25  26  -3 1176.52 48.3610   2
 -26  25   0 3666.62 90.5813   2
 -25  26   0 3684.97 91.0982   2
  26  -1   0 3765.62 81.6454   1
  25   1   0 3653.62 76.8793   1
 -26  25   3 5947.67 125.098   2
 -25  26   3 5743.29 125.239   2
  26  -1   3 5861.15 104.884   2
 -26  25   6 1622.98 69.4832   2
 -25  26   6 1561.38 68.0490   2
 -26  25   9 360.958 40.4677   2
 -25  26   9 371.792 42.2440   2
   0  26  10 245.462 34.5132   2
   0  26   7 823.702 52.4026   2
 -26  26  -4 1636.39 54.9507   2
 -26  26  -1 7583.87 134.629   2
  26   0  -1 7655.56 117.961   1
 -26  26   2 3855.70 98.5627   2
 -26  26   5 2642.10 85.5808   2
 -26  26   8 269.575 36.5743   2
 -13 -14 -11-3.88705 25.1906   1
 -13  27  11-0.54140 25.1851   2
 -13  27   8 169.339 31.2910   2
  13  14   8 177.016 22.0470   2
 -13 -14  -8 147.763 27.3442   1
  27 -14   5 5.72129 8.92006   2
 -27  13   5-42.0835 23.2346   2
 -13 -14  -5-26.8147 19.0792   1
 -13  27   5 34.0084 20.5738   2
 -13  27   2 3793.32 95.4275   2
 -14  27  -2 3781.77 91.1004   2
  27 -14   2 3641.41 78.6958   2
 -27  13   2 3607.44 90.4566   2
 -14  27   1 2008.78 67.8711   2
 -13  27  -1 2083.14 67.5600   2
  27 -13   1 2004.03 59.1454   2
 -27  14   1 1973.83 62.7435   2
 -14  27   4 245.407 28.5031   2
 -14 -13  -4 259.556 24.2307   1
 -27  14   4 250.919 29.2159   2
  27 -13   4 247.098 18.8848   2
 -14 -13  -7-27.5657 20.6026   1
 -14  27   7-16.0582 23.0462   2
 -27  14   7-61.7927 26.5223   2
 -14  27  10 33.0754 24.3081   2
 -14 -13 -10 46.5346 24.4740   1
 -12  27  12 24.8491 26.2837   2
  12  15   9 18.5927 14.5769   2
 -12 -15  -9-7.85870 21.3548   1
 -12  27   9 8.78848 22.5184   2
 -15  27  -9 28.1528 14.6733   2
 -12 -15  -6 155.680 23.6409   1
 -15  27  -6 183.878 23.9277   2
 -12  27   6 193.857 29.6936   2
 -12 -15  -3 355.585 25.1695   1
 -12  27   3 387.213 36.3430   2
 -15  27  -3 425.238 33.2795   2
 -27  12   3 390.064 32.8638   2
  27 -15   3 350.780 23.6127   2
 -15  27   0 57.2000 20.3685   2
 -12  27   0 49.7436 19.4528   2
 -27  15   0 22.7754 15.5556   2
 -15  27   3 33.1980 19.0551   2
  27 -12   3 76.8609 13.9670   2
 -27  15   3 57.5140 19.1910   2
 -15  27   6 516.068 41.6879   2
 -27  15   6 501.914 40.2003   2
 -15 -12  -6 491.183 36.3446   1
 -15  27   9 92.5728 27.5313   2
 -27  15   9 142.361 29.9604   2
 -15 -12  -9 197.363 32.1643   1
 -15  27  12-12.2691 28.9462   2
 -11 -16 -10 54.0277 25.8834   1
 -11  27  10 40.6074 23.6533   2
 -16  27  -7 749.330 39.1094   2
 -11 -16  -7 726.506 45.0298   1
  11  16   7 630.130 37.9933   2
 -11  27   7 703.060 47.8678   2
 -11  27   4 87.1148 23.5005   2
  27 -16   4 48.5197 11.5812   2
 -16  27  -4 60.0777 18.2898   2
 -11 -16  -4 42.4930 15.5612   1
 -11 -16  -1 2.04098 9.53038   1
 -16  27  -1 31.1082 17.0756   2
 -11  27   1 36.1949 20.2475   2
 -27  16  -1-1.47229 15.0216   2
  27 -16   1 1.38525 12.7615   2
  27 -11   2 1742.71 53.5630   2
 -27  16   2 1828.90 62.4950   2
 -16  27   2 1883.57 66.0915   2
 -16  27   5 2974.40 89.3227   2
 -27  16   5 2849.45 86.2490   2
  27 -11   5 2856.92 56.3430   2
 -16 -11  -8 3764.64 104.747   1
 -16  27   8 4012.94 113.164   2
  16  11   8 3600.40 80.4473   2
 -27  16   8 3933.24 112.861   2
 -16  27  11 2199.10 91.3208   2
 -16 -11 -11 2104.76 90.5259   1
 -10  27  11 736.444 54.9938   2
  10  17   8 1449.84 57.3764   2
 -17  27  -8 1587.81 53.9444   2
 -10 -17  -8 1435.91 64.9341   1
 -10  27   8 1441.01 68.0136   2
 -10 -17  -5 306.635 28.1552   1
 -10  27   5 341.150 33.3826   2
 -17  27  -5 383.985 28.8649   2
 -17  27  -2 1654.61 58.7099   2
 -10  27   2 1660.51 63.6961   2
 -10 -17  -2 1560.31 45.0473   1
 -27  17  -2 1598.84 51.8327   2
  27 -17   2 1553.48 50.6864   2
 -17  27   1 8.32934 18.4499   2
  27 -10   1-9.28850 14.7095   2
 -27  17   1-18.0677 19.7511   2
 -17  27   4 349.714 33.4359   2
  27 -10   4 369.037 23.1816   2
 -27  17   4 329.156 31.7750   2
 -17  27   7 446.798 40.4088   2
 -27  17   7 380.566 36.5777   2
 -17  27  10 505.876 46.8026   2
 -27  17  10 528.603 48.3320   2
  -9  27  12 60.3688 25.5281   2
  -9 -18  -9 50.3451 24.3478   1
   9  18   9 123.321 23.4611   2
  -9  27   9 124.347 29.6232   2
  -9  27   6 231.458 32.2039   2
 -18  27  -6 283.949 26.4438   2
  -9 -18  -6 184.933 25.4838   1
 -18  27  -3 534.287 34.3047   2
  -9 -18  -3 443.867 27.5578   1
  -9  27   3 530.133 40.3375   2
  27 -18   3 453.544 27.2491   2
 -27  18  -3 487.834 28.4955   2
 -27  18   0-1.70715 16.3066   2
 -18  27   0 11.4830 18.1937   2
  -9 -18   0-4.13333 8.38523   1
 -27  18   3 232.632 27.6099   2
  27  -9   3 226.488 19.8376   2
 -18  27   3 229.528 27.8232   2
 -18  27   6 168.099 27.7989   2
   9 -27   6 193.631 21.8749   1
 -27  18   6 147.281 27.3955   2
 -18  27   9 177.579 31.5938   2
 -27  18   9 156.606 31.9907   2
  -8  27  10 179.825 32.0533   2
 -19  27  -7 29.4541 15.7118   2
  -8 -19  -7-1.52574 18.3581   1
   8  19   7 36.6822 20.4198   2
  -8  27   7-20.1861 22.8964   2
 -19  27  -4 124.331 20.5716   2
  -8  27   4 92.6207 23.6249   2
  -8 -19  -4 121.512 19.3006   1
 -27  19  -4 130.554 16.0093   2
  -8 -19  -1 2097.31 48.0664   1
  -8  27   1 2144.74 72.4518   2
 -19  27  -1 2063.37 66.1704   2
 -27  19  -1 2193.21 63.0858   2
  27  -8   2 8108.41 127.708   2
 -19  27   2 8279.88 145.695   2
 -27  19   2 8300.06 143.398   2
 -19  27   5 6195.14 132.298   2
  27  -8   5 6099.28 92.3254   2
 -27  19   5 6595.47 135.192   2
 -19  27   8 5218.70 130.208   2
 -27  19   8 5123.50 130.408   2
 -19  27  11 726.873 57.3239   2
  -7  27  11 604.563 50.4188   2
  -7 -20  -8 1030.03 55.5462   1
   7  20   8 970.883 50.5883   2
  -7  27   8 1020.69 58.6077   2
  -7  27   5 1014.14 53.7889   2
 -27  20  -5 1089.87 37.0695   2
  -7 -20  -5 1033.54 47.5298   1
 -20  27  -5 1074.63 45.3478   2
  27 -20   2 498.827 30.3455   2
  -7  27   2 553.712 39.7002   2
 -20  27  -2 494.943 33.1977   2
  -7 -20  -2 527.390 27.4012   1
 -27  20  -2 539.579 31.9347   2
 -27  20   1 355.055 30.0088   2
 -20  27   1 379.322 32.7973   2
  -7 -20   1 324.829 12.8344   1
 -27  20   4 42.4498 20.8170   2
  27  -7   4 36.6261 12.4717   2
 -20  27   4-3.77110 20.1908   2
 -27  20   7 129.655 28.0770   2
 -20  27   7 119.596 27.5726   2
 -20  27  10 7.60776 25.0760   2
 -27  20  10 30.4160 26.2878   2
  -6  27  12 14.5931 24.8955   2
   6  21   9-1.42684 18.0966   2
  -6 -21  -9-14.5047 25.1120   1
  -6  27   9-19.3002 22.9545   2
  -6  27   6 1306.21 62.0971   2
   6  21   6 1222.34 55.9274   2
 -21  27  -6 1374.92 49.3693   2
 -27  21  -6 1338.44 37.2836   2
  -6 -21  -6 1200.08 54.8917   1
 -27  21  -3 1542.26 50.4310   2
  -6  27   3 1478.21 63.7112   2
 -21  27  -3 1554.86 55.6920   2
  21   6  -3 1357.63 28.2412   1
 -27  21   0 8075.90 136.448   2
 -21  27   0 7893.58 137.850   2
  -6 -21   0 7903.78 99.2058   1
 -27  21   3 3210.46 87.3244   2
  27  -6   3 2986.18 70.3407   2
 -21  27   3 3138.88 88.6268   2
 -21  27   6 1304.62 62.4864   2
 -27  21   6 1356.89 62.9960   2
 -21  27   9 177.291 33.6499   2
 -27  21   9 208.812 34.3619   2
  -5 -22 -10-46.8245 28.0913   1
  -5  27  10-33.8098 26.5559   2
   5  22  10-48.9303 22.0579   2
   5  22   7 911.443 51.0359   2
 -22  27  -7 1075.30 41.1440   2
  -5 -22  -7 820.816 49.1837   1
  -5  27   7 992.433 57.0411   2
 -27  22  -4 6281.85 105.212   2
  -5  27   4 6264.62 133.545   2
 -22  27  -4 6308.69 114.272   2
 -27  22  -1 10726.6 158.473   2
 -22  27  -1 10811.0 163.632   2
  22   5  -1 10258.9 125.014   1
  27  -5   2 1722.03 54.9075   2
 -27  22   2 1824.95 64.7724   2
 -22  27   2 1780.80 65.5224   2
 -22  27   5 4572.85 113.910   2
 -27  22   5 4586.06 112.270   2
 -22  27   8 814.303 54.1161   2
 -27  22   8 901.700 56.0455   2
  -4  27  11 41.5678 25.2754   2
  -4  27   8 40.3197 22.5632   2
  -4 -23  -8 81.7461 25.8395   1
   4  23   8 23.9303 19.9170   2
 -27  23  -5 19.0591 13.3577   2
  -4  27   5 35.2581 23.1370   2
 -23  27  -5 13.3107 14.5552   2
 -27  23  -2 2011.82 61.0994   2
  23   4  -2 1863.46 42.9975   1
 -23  27  -2 1859.45 61.9307   2
 -27  23   1 102.409 20.2375   2
  23   4   1 79.2554 14.0043   1
 -23  27   1 98.6510 21.9029   2
 -27  23   4 217.538 29.1718   2
  27  -4   4 135.647 17.6018   2
 -23  27   4 158.043 25.2669   2
 -27  23   7 66.5914 22.7798   2
 -23  27   7 43.7487 22.2436   2
 -23  27  10-29.1657 26.9861   2
 -27  23  10 20.6265 24.7716   2
  -3  27   9 1125.90 62.9164   2
  -3 -24  -9 1115.53 62.6421   1
   3  24   9 1057.74 57.3971   2
 -27  24  -6 1533.88 44.8363   2
  -3  27   6 1572.04 69.7784   2
   3  24   6 1512.40 65.8778   2
 -24  27  -6 1643.92 52.5884   2
 -27  24  -3 3816.80 84.3403   2
 -24  27  -3 3674.19 86.8007   2
  24   3  -3 3661.04 63.3971   1
 -27  24   0 1270.45 53.0347   2
  24   3   0 1319.99 42.3499   1
 -24  27   0 1281.73 53.9079   2
 -27  24   3 1560.72 62.8148   2
 -24  27   3 1501.70 62.6823   2
  27  -3   3 1524.68 50.7236   2
 -27  24   6 20.9285 20.8621   2
 -24  27   6 43.8486 22.9027   2
 -27  24   9 22.8980 24.2297   2
 -24  27   9 1.35675 23.1668   2
  -2 -25 -10 217.237 34.3481   1
  -2  27  10 209.883 34.1186   2
   2  25  10 195.287 30.8791   2
  -2  27   7-15.5295 22.9906   2
   2  25   7-41.8985 23.9768   2
 -27  25  -4 289.700 24.8240   2
 -25  27  -4 279.315 26.3940   2
  -2  27   4 314.792 34.5721   2
  25   2  -1 33.3277 12.4805   1
 -27  25  -1 4.79767 20.1594   2
 -25  27  -1 72.3719 19.3443   2
 -27  25   2 172.899 25.7011   2
 -25  27   2 170.562 26.2586   2
 -27  25   5 371.544 36.5968   2
 -25  27   5 404.545 37.7194   2
 -25  27   8 1281.24 66.8995   2
 -27  25   8 1197.53 66.6698   2
  -1  27  11 27.8554 23.3330   2
  -1  27   8 36.1060 23.2023   2
   1  26   8-4.14319 22.9385   2
 -27  26  -5 115.472 18.7137   2
 -26  27  -5 97.1385 17.7696   2
  -1  27   5 90.1110 25.3473   2
   1  26   5 95.9338 23.8815   2
  26   1  -2 148.809 17.5990   1
 -27  26  -2 111.091 21.2371   2
 -26  27  -2 171.728 25.3502   2
  26   1   1 70.2005 15.9689   1
 -27  26   1 43.4147 19.3028   2
 -26  27   1 42.1804 19.4462   2
 -27  26   4 29.1258 22.0019   2
 -26  27   4-19.1210 22.7593   2
 -27  26   7 114.837 28.1966   2
 -26  27   7 72.1547 26.3456   2
   0  27   9 1922.98 79.7679   2
 -27  27  -6 2622.22 64.8631   2
   0  27   6 2497.73 86.1951   2
 -27  27  -3 4270.08 94.8932   2
 -27  27   0 36.7196 19.2689   2
  27   0   0 67.9434 15.5435   1
 -27  27   3 108.808 26.0891   2
 -27  27   6 101.380 26.5522   2
 -27  27   9 2.86736 24.9183   2
 -14  28   0 1483.68 58.7813   2
 -28  14   0 1375.23 52.3339   2
 -14  28   3 290.505 31.2883   2
 -14  28  -3 295.873 28.8068   2
 -28  14   3 288.408 30.7375   2
  28 -14   3 251.343 20.8790   2
 -14 -14  -6 104.870 23.3642   1
 -14  28   6 130.487 28.4002   2
 -28  14   6 107.932 26.1957   2
 -14 -14  -9 43.5194 23.8624   1
 -14  28   9 44.8326 25.2045   2
 -13 -15 -10 164.113 32.5243   1
 -13  28  10 152.930 32.1935   2
 -13 -15  -7 70.5391 21.1059   1
 -13  28   7 38.5316 23.0861   2
 -15  28  -7 51.7713 15.6006   2
  28 -15   4 574.652 28.5950   2
 -28  13   4 574.933 42.7968   2
 -13 -15  -4 577.628 33.7307   1
 -15  28  -4 564.851 36.4629   2
 -13  28   4 546.502 40.6115   2
 -13  28   1 171.897 26.4578   2
 -15  28  -1 227.611 27.5762   2
 -28  13   1 171.891 22.9607   2
 -28  15  -1 166.709 22.3362   2
  28 -15   1 157.181 18.1853   2
 -15  28   2 137.537 24.6881   2
  28 -13   2 147.476 18.2713   2
 -28  15   2 127.091 23.2177   2
 -13  28  -2 185.562 26.4323   2
 -15 -13  -5 236.831 26.3101   1
 -28  15   5 220.591 27.8148   2
 -15  28   5 244.511 31.1670   2
 -15  28   8 147.257 28.7782   2
  15  13   8 106.270 19.0854   2
 -15 -13  -8 134.028 28.0932   1
 -28  15   8 148.319 30.0888   2
 -15  28  11 621.898 52.5075   2
 -12  28  11 414.750 44.0206   2
  12  16   8 2938.84 80.8482   2
 -16  28  -8 3153.02 79.7968   2
 -12  28   8 3210.25 102.275   2
 -12 -16  -8 2979.56 94.1851   1
 -16  28  -5 3026.91 80.2123   2
 -12 -16  -5 2856.57 77.4400   1
 -12  28   5 2922.94 89.7321   2
 -12  28   2 4273.31 103.841   2
 -16  28  -2 4328.19 98.7411   2
 -28  16  -2 4294.25 88.2359   2
 -12 -16  -2 4187.39 77.9668   1
  28 -16   2 4209.52 87.6738   2
  28 -12   1 3517.72 82.1187   2
 -12  28  -1 3722.30 94.1641   2
 -28  16   1 3484.61 86.8266   2
 -16  28   1 3626.56 93.0195   2
 -16  28   4 146.358 24.9106   2
 -28  16   4 72.3096 20.3441   2
  28 -12   4 126.542 14.9609   2
 -16 -12  -7 166.971 27.0085   1
 -16  28   7 175.689 29.0864   2
 -28  16   7 177.614 28.9353   2
 -16 -12 -10 279.588 38.4916   1
 -16  28  10 315.772 39.1755   2
 -11  28  12 379.420 43.1585   2
  11  17   9 2920.68 81.8036   2
 -11  28   9 3146.97 104.233   2
 -11 -17  -9 3241.53 101.601   1
 -11  28   6 7304.92 150.049   2
 -17  28  -6 7707.89 131.634   2
 -11 -17  -6 7347.99 137.581   1
 -11  28   3 10622.5 176.747   2
  28 -17   3 10262.5 144.196   2
 -17  28  -3 10568.8 162.093   2
 -11 -17  -3 10134.1 142.617   1
 -28  17  -3 10504.4 144.899   2
 -11  28   0 6414.79 127.036   2
 -28  17   0 6109.35 115.672   2
 -17  28   0 6086.03 122.826   2
  28 -11   3 61.4817 13.4450   2
 -17  28   3 44.3090 19.2049   2
 -28  17   3 80.1771 22.0860   2
 -17  28   6 47.1873 21.3784   2
 -28  17   6 76.9422 22.5352   2
 -17  28   9 676.784 50.9841   2
 -28  17   9 584.384 50.0835   2
 -10  28  10 814.631 57.5147   2
 -10 -18 -10 745.354 54.9216   1
 -18  28  -7 2239.09 65.9716   2
 -10 -18  -7 2013.32 73.7634   1
  10  18   7 1957.10 68.4682   2
 -10  28   7 2197.97 81.9665   2
 -10  28   4 2489.38 83.2595   2
 -18  28  -4 2650.12 74.3852   2
 -10 -18  -4 2474.89 68.2149   1
  28 -18   4 2433.24 59.9138   2
 -28  18  -4 2655.08 62.3274   2
 -10 -18  -1 3357.88 62.1119   1
 -10  28   1 3537.40 95.7813   2
 -28  18  -1 3486.33 81.7254   2
 -18  28  -1 3336.30 86.7314   2
  28 -10   2 616.234 32.8650   2
 -18  28   2 638.493 41.2993   2
 -28  18   2 622.654 39.7673   2
 -18  28   5 317.137 34.1248   2
 -28  18   5 266.672 31.0333   2
 -18  28   8-19.4067 24.5836   2
 -28  18   8 10.6167 24.3765   2
 -18  28  11-7.32587 24.6567   2
  -9  28  11 122.108 29.6745   2
  -9 -19  -8 347.368 35.2051   1
 -19  28  -8 452.924 30.6391   2
   9  19   8 405.267 34.1932   2
  -9  28   8 409.767 41.1166   2
  -9  28   5 285.136 32.9899   2
 -19  28  -5 276.770 26.7063   2
 -28  19  -5 284.561 20.4402   2
  -9 -19  -5 276.761 28.1188   1
  28 -19   2 600.786 33.2006   2
  -9 -19  -2 644.044 29.7947   1
  -9  28   2 628.755 42.8152   2
 -28  19  -2 663.443 35.5421   2
 -19  28  -2 630.678 38.6835   2
 -19  28   1 9119.71 156.157   2
 -28  19   1 9313.79 152.631   2
  28  -9   4 3628.36 73.8769   2
 -19  28   4 3588.19 98.0893   2
 -28  19   4 3651.29 98.6922   2
 -19  28   7 5146.79 129.126   2
 -28  19   7 5156.90 128.894   2
 -19  28  10 2342.76 94.0735   2
 -28  19  10 2338.42 96.0998   2
  -8  28  12 348.582 42.0782   2
  -8 -20  -9 696.337 50.1396   1
  -8  28   9 708.666 51.9408   2
   8  20   9 613.391 41.5443   2
  -8  28   6-6.26448 20.6440   2
 -20  28  -6 9.42169 14.7309   2
  -8 -20  -6-19.8997 19.3222   1
  -8 -20  -3 766.540 35.7627   1
  -8  28   3 725.273 46.8583   2
  28 -20   3 737.057 35.2739   2
 -28  20  -3 730.872 36.0907   2
 -20  28  -3 770.300 40.8322   2
  -8 -20   0 6034.19 80.0264   1
 -20  28   0 6199.60 121.720   2
 -28  20   0 6469.59 119.199   2
  28  -8   3 6660.94 111.036   2
 -20  28   3 6928.31 136.718   2
 -28  20   3 6670.80 134.387   2
 -20  28   6 4577.79 117.732   2
 -28  20   6 4735.50 118.623   2
 -20  28   9 3013.39 101.463   2
 -28  20   9 2933.92 102.065   2
  -7  28  10-12.9218 23.4060   2
  -7  28   7 138.922 30.5201   2
 -21  28  -7 91.5779 17.4246   2
  -7 -21  -7 32.7299 20.2412   1
   7  21   7 111.934 24.6079   2
 -28  21  -4 28.8831 12.8444   2
 -21  28  -4 57.2374 17.7210   2
  -7 -21  -4-4.67810 17.3872   1
  -7  28   4 33.1273 23.9651   2
 -21  28  -1 516.520 36.7755   2
  -7 -21  -1 578.473 26.4896   1
 -28  21  -1 554.142 34.6853   2
 -28  21   2 28.2750 19.6770   2
  28  -7   2-3.40057 13.6574   2
 -21  28   2-15.2527 21.5841   2
 -21  28   5 1112.43 57.3855   2
 -28  21   5 1243.59 60.1082   2
 -21  28   8 895.234 56.3321   2
 -28  21   8 811.695 54.7962   2
  -6  28  11 276.880 37.7988   2
   6  22   8-3.17762 19.8133   2
  -6 -22  -8-11.2333 21.1367   1
  -6  28   8-6.58416 23.6863   2
  -6 -22  -5 259.932 27.3894   1
  -6  28   5 295.325 35.0217   2
 -28  22  -5 324.969 23.0715   2
 -22  28  -5 278.586 25.5879   2
 -28  22  -2 34.5653 15.9783   2
  22   6  -2 10.4961 6.90206   1
  -6  28   2 38.9590 21.4327   2
 -22  28  -2 22.3285 16.4136   2
 -28  22   1 1466.84 57.1561   2
  -6 -22   1 1323.25 28.6471   1
 -22  28   1 1395.78 58.2278   2
  28  -6   4 1049.22 39.8198   2
 -22  28   4 1059.74 54.3911   2
 -28  22   4 1078.33 54.1671   2
 -28  22   7 35.1704 23.9220   2
 -22  28   7 54.7327 23.7356   2
 -22  28  10 71.0375 28.1396   2
 -28  22  10 73.4396 30.6917   2
   5  23   9 209.149 31.1641   2
  -5 -23  -9 169.388 30.8736   1
  -5  28   9 188.372 32.6742   2
  -5  28   6 1034.38 57.9907   2
   5  23   6 1028.66 54.0542   2
 -23  28  -6 1051.71 44.1040   2
 -28  23  -3 940.737 42.0827   2
  -5  28   3 907.263 51.1217   2
 -23  28  -3 887.176 43.5153   2
 -28  23   0 1359.95 54.6096   2
 -23  28   0 1354.38 56.2214   2
  23   5   0 1227.82 39.3368   1
 -28  23   3 1296.11 57.3351   2
  28  -5   3 1117.59 43.4773   2
 -23  28   3 1181.63 56.4329   2
 -28  23   6 430.877 39.1664   2
 -23  28   6 400.555 39.1944   2
 -23  28   9-37.2910 26.6357   2
 -28  23   9 17.3259 24.2012   2
  -4 -24 -10 517.292 47.6236   1
  -4  28  10 572.778 49.6213   2
   4  24  10 558.385 43.6959   2
   4  24   7 2404.43 83.5887   2
  -4  28   7 2683.75 93.3284   2
 -28  24  -4 4129.24 86.0496   2
  -4  28   4 4022.48 108.504   2
 -24  28  -4 4125.37 92.8563   2
  24   4  -1 250.035 18.2737   1
 -28  24  -1 215.846 25.2211   2
 -24  28  -1 270.001 28.3998   2
 -28  24   2 414.651 34.3584   2
 -24  28   2 345.632 32.8535   2
 -28  24   5 60.7243 23.7161   2
 -24  28   5-16.7045 24.5953   2
 -28  24   8 106.766 30.7054   2
 -24  28   8 97.2476 29.2816   2
  -3  28  11 632.987 51.6179   2
   3  25   8 1836.57 75.7138   2
  -3  28   8 2066.24 83.5546   2
 -28  25  -5 5134.67 94.6588   2
  -3  28   5 5062.24 123.548   2
 -25  28  -5 5205.14 103.234   2
 -28  25  -2 4058.83 91.2995   2
 -25  28  -2 4001.18 94.8867   2
  25   3  -2 3911.56 69.6851   1
 -28  25   1 1171.71 53.6448   2
 -25  28   1 1239.32 55.9213   2
  25   3   1 1078.73 41.9232   1
 -28  25   4 234.704 31.4217   2
 -25  28   4 241.975 30.5412   2
 -28  25   7 62.6550 27.1346   2
 -25  28   7 75.9865 25.8483   2
  -2  28   9 1120.04 63.6433   2
   2  26   9 1090.19 60.6237   2
  -2  28   6 1797.70 74.7234   2
 -26  28  -6 1937.70 57.4766   2
   2  26   6 1863.39 74.5117   2
 -28  26  -3 3477.78 83.6528   2
 -26  28  -3 3516.63 86.5690   2
 -28  26   0 1134.85 51.7821   2
  26   2   0 1133.92 41.5128   1
 -26  28   0 1206.92 53.7052   2
 -28  26   3 1614.92 66.3518   2
 -26  28   3 1710.15 67.6450   2
 -28  26   6 257.940 35.6126   2
 -26  28   6 268.425 34.3258   2
 -28  26   9 177.974 36.7097   2
 -26  28   9 181.565 34.4271   2
  -1  28  10 188.058 33.5780   2
   1  27  10 170.791 32.4181   2
  -1  28   7 71.9040 27.0426   2
   1  27   7 35.1096 22.7821   2
 -28  27  -4-2.94683 15.6545   2
 -27  28  -4-5.55517 15.4766   2
  -1  28   4-9.07048 22.0470   2
 -28  27  -1 2270.55 71.3862   2
 -27  28  -1 2277.22 72.1680   2
  27   1  -1 2040.63 55.3641   1
  28  -1  -1 2281.50 62.7131   1
 -28  27   2 2766.15 85.9156   2
 -27  28   2 2839.92 86.8431   2
 -28  27   5 2639.07 88.7293   2
 -27  28   5 2669.09 89.4170   2
 -27  28   8 688.302 53.9582   2
 -28  27   8 738.008 55.2718   2
   0  28   8-12.9872 24.9896   2
 -28  28  -5-13.8342 16.2918   2
   0  28   5-14.3085 22.6249   2
 -28  28  -2 1029.33 48.0913   2
 -28  28   1 5986.36 126.898   2
 -28  28   4 4552.57 116.129   2
 -28  28   7 3352.59 108.790   2
 -14  29  11 156.462 34.0712   2
 -14 -15  -8 634.309 45.3387   1
  14  15   8 576.296 35.9659   2
 -14  29   8 675.351 50.1854   2
 -15  29  -8 635.267 38.6116   2
 -15  29  -5 683.617 40.6743   2
 -14 -15  -5 611.158 38.3515   1
 -14  29   5 674.426 46.3617   2
 -29  14   5 640.274 45.9816   2
 -14  29   2 1060.89 52.8781   2
 -15  29  -2 1083.36 50.7117   2
  29 -15   2 1033.72 43.0426   2
 -29  14   2 1058.61 49.9551   2
 -15  29   1 1426.15 60.5404   2
 -14  29  -1 1549.62 60.9239   2
 -29  15   1 1374.87 55.8450   2
 -14  29  -4 590.220 38.5489   2
 -29  15   4 546.221 40.7161   2
 -15  29   4 523.988 41.1115   2
  29 -14   4 461.620 26.6287   2
 -15  29   7-8.81660 22.3575   2
 -29  15   7-24.6481 25.5709   2
 -15 -14  -7-29.3929 22.2634   1
 -15 -14 -10 142.666 33.0027   1
 -15  29  10 155.477 33.3263   2
 -13  29   9 288.619 39.3466   2
 -13 -16  -9 228.559 33.5974   1
 -16  29  -6 93.3545 19.8420   2
 -13 -16  -6 82.8414 21.2636   1
 -13  29   6 125.648 28.8515   2
  29 -16   3 32.3981 13.0983   2
 -13  29   3 52.4563 21.7218   2
 -16  29  -3 23.1037 18.5588   2
 -13 -16  -3 43.7191 15.6877   1
 -16  29   0 324.500 31.8595   2
 -13  29   0 307.763 31.7600   2
 -29  16   0 313.981 28.0200   2
  29 -13   3 790.733 35.4983   2
 -29  16   3 777.385 47.9077   2
 -13  29  -3 851.102 44.4494   2
 -16  29   3 869.011 48.6359   2
 -16 -13  -6 93.9787 22.1497   1
 -16  29   6 121.363 27.3866   2
 -29  16   6 112.598 27.0597   2
 -16  29   9 245.809 36.7008   2
 -16 -13  -9 226.717 34.2021   1
 -12  29  10 330.026 41.2464   2
 -12 -17 -10 412.036 43.8791   1
 -17  29  -7 1837.43 63.0354   2
 -12  29   7 1816.32 78.4213   2
 -12 -17  -7 1723.79 68.3817   1
 -17  29  -4 4017.59 94.5982   2
  29 -17   4 3802.00 76.7836   2
 -12 -17  -4 3780.11 85.8991   1
 -12  29   4 4115.81 108.127   2
 -17  29  -1 3896.11 96.1914   2
 -12  29   1 3849.40 100.265   2
 -29  17  -1 3733.46 87.3579   2
  29 -12   2 2405.36 66.3524   2
 -12  29  -2 2562.30 77.4383   2
 -29  17   2 2418.17 75.4447   2
 -17  29   2 2525.60 79.2572   2
 -17  29   5 980.555 55.0496   2
 -29  17   5 989.613 53.7055   2
 -17  29   8-12.5078 23.7737   2
 -29  17   8 36.1912 25.0576   2
 -17  29  11 41.2696 27.6669   2
 -11  29  11 4.48391 25.2323   2
 -18  29  -8 146.712 22.2181   2
  11  18   8 170.245 25.3484   2
 -11 -18  -8 109.873 25.1248   1
 -11  29   8 179.255 32.7619   2
 -18  29  -5 617.926 38.2547   2
 -11 -18  -5 577.331 37.6938   1
 -11  29   5 621.578 45.6301   2
  29 -18   2-1.28379 13.2337   2
 -18  29  -2 15.0173 18.8947   2
 -11  29   2 29.0894 21.7771   2
 -29  18  -2 11.3940 14.2524   2
 -11 -18  -2 6.21957 11.6132   1
 -11  29  -1 1752.65 66.1166   2
 -29  18   1 1667.76 61.7255   2
 -18  29   1 1771.10 66.3595   2
  29 -11   4 252.081 20.2146   2
 -18  29   4 273.360 31.7249   2
 -29  18   4 277.097 31.3023   2
 -18  29   7 1315.12 65.5852   2
 -29  18   7 1302.10 66.0523   2
 -18  29  10 910.214 59.9830   2
 -29  18  10 997.406 64.8135   2
  10  19   9 76.7485 22.2706   2
 -10 -19  -9 47.3956 23.2419   1
 -10  29   9 61.8593 28.4416   2
 -10  29   6 79.0825 27.8573   2
 -10 -19  -6 50.6288 20.0813   1
 -19  29  -6 41.5461 18.3282   2
 -19  29  -3 1077.05 50.1429   2
 -10  29   3 1033.42 54.8257   2
  29 -19   3 1047.68 42.1155   2
 -10 -19  -3 1066.53 42.2519   1
 -29  19  -3 1128.90 43.7008   2
 -19  29   0 429.979 35.2709   2
 -10  29   0 382.113 36.4932   2
 -29  19   0 381.530 31.2344   2
  29 -10   3-11.6802 13.7534   2
 -19  29   3-25.1079 21.6118   2
 -29  19   3 22.0838 19.0966   2
 -19  29   6 11.6619 23.1857   2
 -29  19   6 3.69757 21.6689   2
 -19  29   9-24.1374 25.5446   2
 -29  19   9 4.07758 24.7115   2
  -9 -20 -10 839.095 57.3443   1
  -9  29  10 913.040 60.4197   2
 -20  29  -7 1716.21 57.8365   2
  -9 -20  -7 1580.41 66.0499   1
   9  20   7 1558.02 63.3312   2
  -9  29   7 1686.76 73.7214   2
  -9 -20  -4 1639.32 56.7440   1
  -9  29   4 1706.75 71.3661   2
 -29  20  -4 1820.81 53.1643   2
 -20  29  -4 1772.66 61.6959   2
  -9  29   1 983.857 53.5709   2
  -9 -20  -1 915.121 31.7591   1
 -20  29  -1 903.358 47.1249   2
 -29  20  -1 957.082 44.4253   2
 -29  20   2 46.1951 21.5490   2
  29  -9   2 9.66984 13.1339   2
 -20  29   2 13.3935 19.0142   2
 -20  29   5 154.649 27.9341   2
 -29  20   5 169.955 28.3418   2
 -20  29   8 38.5055 26.4836   2
 -29  20   8-2.84072 25.0206   2
  -8  29  11-19.0980 25.1370   2
   8  21   8 69.3025 21.3080   2
  -8 -21  -8 72.6741 22.3860   1
  -8  29   8 116.022 27.9804   2
 -21  29  -5 338.275 29.3446   2
  -8  29   5 287.228 35.2761   2
  -8 -21  -5 287.439 28.0988   1
 -29  21  -5 344.680 23.0518   2
  -8 -21  -2 2463.38 59.1723   1
  -8  29   2 2600.82 83.6029   2
 -21  29  -2 2464.80 74.6687   2
 -29  21  -2 2534.70 70.0644   2
 -21  29   1 1781.56 65.4064   2
 -29  21   1 1806.93 64.9805   2
 -21  29   4 1264.56 60.0793   2
 -29  21   4 1220.19 59.5009   2
 -21  29   7 306.860 37.7425   2
 -29  21   7 331.970 38.1025   2
 -21  29  10 84.3625 29.5319   2
   7  22   9 90.2600 25.1725   2
  -7 -22  -9 3.76541 23.6906   1
  -7  29   9 53.2629 26.0584   2
 -22  29  -6 0.53092 15.0905   2
  -7  29   6-9.06867 22.8406   2
  -7 -22  -6-14.6010 19.6958   1
 -22  29  -3 530.230 36.1002   2
  -7  29   3 513.602 40.4397   2
  -7 -22  -3 492.521 29.8635   1
 -29  22  -3 538.479 32.4986   2
 -29  22   0 393.527 31.1875   2
  -7 -22   0 376.202 18.4822   1
 -22  29   0 398.346 33.8722   2
 -29  22   3 157.988 26.0180   2
  29  -7   3 109.648 16.8381   2
 -22  29   3 123.469 25.4672   2
 -29  22   6 1.28585 22.4872   2
 -22  29   6 40.7328 24.4286   2
 -22  29   9 117.373 31.1004   2
 -29  22   9 63.7394 29.0950   2
  -6  29  10 17.4671 25.4741   2
  -6 -23 -10 29.8475 25.4198   1
  -6  29   7 248.831 36.8372   2
  -6 -23  -7 158.879 29.4678   1
   6  23   7 175.868 29.8211   2
 -23  29  -7 234.132 24.6597   2
 -29  23  -4 16.2978 13.9026   2
  -6 -23  -4 3.24514 15.2459   1
  -6  29   4 13.9502 22.7597   2
 -23  29  -4 25.8678 18.8778   2
 -29  23  -1 47.0480 16.4678   2
  -6 -23  -1 18.2021 10.4377   1
 -23  29  -1 29.5346 19.4503   2
 -29  23   2 942.091 48.7710   2
 -23  29   2 979.182 51.1875   2
 -29  23   5 15.8027 20.4988   2
 -23  29   5 20.1133 21.3642   2
 -23  29   8 201.058 33.2194   2
 -29  23   8 193.160 34.5605   2
  -5  29  11 33.2277 26.8104   2
  -5  29   8 116.252 31.3109   2
  -5 -24  -8 31.7180 24.0373   1
   5  24   8 63.3793 24.6191   2
 -29  24  -5 39.1760 14.9796   2
  -5  29   5 17.3729 23.9190   2
 -24  29  -5 36.0494 17.2701   2
 -29  24  -2 455.806 32.0125   2
 -24  29  -2 469.860 34.6126   2
 -29  24   1-4.70303 19.5542   2
  -5 -24   1 48.3076 7.92534   1
 -24  29   1 15.9690 18.0341   2
 -29  24   4-26.0819 21.6846   2
 -24  29   4-20.4518 23.7835   2
 -29  24   7 14.5745 24.8070   2
 -24  29   7 11.6157 23.9952   2
   4  25   9 121.359 26.8599   2
  -4 -25  -9 123.402 28.2486   1
  -4  29   9 144.689 31.3487   2
  -4  29   6 45.1607 26.2370   2
 -25  29  -6 45.2797 17.4383   2
   4  25   6 23.9279 21.2712   2
 -29  25  -3 35.7647 17.6437   2
 -25  29  -3 62.5375 20.2001   2
  -4  29   3 32.0861 21.1377   2
 -29  25   0 33.4976 17.4377   2
  25   4   0 67.2774 12.8892   1
 -25  29   0 97.0776 22.5521   2
 -29  25   3 505.322 39.2533   2
 -25  29   3 469.982 39.7089   2
 -29  25   6 195.249 31.0813   2
 -25  29   6 211.135 31.7374   2
 -29  25   9 353.472 42.9463   2
 -25  29   9 336.322 42.6508   2
  -3  29  10 318.911 39.3251   2
   3  26  10 298.654 37.7342   2
  -3  29   7 633.579 50.3540   2
   3  26   7 630.719 48.2834   2
 -29  26  -4 793.147 38.9128   2
 -26  29  -4 757.312 41.3838   2
  -3  29   4 645.190 47.2033   2
 -29  26  -1 217.176 26.5795   2
 -26  29  -1 219.556 27.9979   2
 -29  26   2 8.56405 19.5228   2
 -26  29   2 15.3057 20.2675   2
 -29  26   5 27.4785 23.7495   2
 -26  29   5 11.3444 23.9140   2
 -29  26   8 13.5637 23.3088   2
 -26  29   8 56.3278 28.6693   2
  -2  29   8 35.2315 25.7365   2
   2  27   8-7.30008 22.6766   2
 -29  27  -5 457.407 29.7082   2
 -27  29  -5 472.294 32.8891   2
  -2  29   5 415.321 40.4180   2
   2  27   5 408.214 38.0718   2
 -29  27  -2 100.109 19.8331   2
 -27  29  -2 139.382 23.7705   2
 -29  27   1-11.6774 19.9374   2
 -27  29   1-12.0572 19.8660   2
 -29  27   4 31.2806 25.3274   2
 -27  29   4 5.69306 22.1504   2
 -29  27   7 127.438 31.4234   2
 -27  29   7 111.627 29.5320   2
   1  28   9 37.8052 26.0919   2
  -1  29   9 33.8516 25.7908   2
  -1  29   6 56.8349 24.2297   2
   1  28   6 73.3009 25.8609   2
 -29  28  -3 219.929 25.2292   2
 -28  29  -3 246.791 27.3182   2
 -29  28   0 1442.92 61.5380   2
 -28  29   0 1450.25 61.8097   2
 -29  28   3 983.218 54.0721   2
 -28  29   3 968.409 54.3603   2
 -29  28   6 660.413 49.7591   2
 -28  29   6 645.279 49.8589   2
   0  29  10 35.3346 25.0684   2
   0  29   7 96.6790 26.9219   2
 -29  29  -4-46.7423 19.2008   2
   0  29   4-55.6988 28.0599   2
 -29  29  -1 90.7537 22.6867   2
 -29  29   2 11.0976 20.0837   2
 -29  29   5 338.028 37.8773   2
 -29  29   8 187.899 35.5100   2
 -15  30   0 1282.48 57.7308   2
 -15  30  -3 1261.48 55.2492   2
 -30  15   3 1233.73 56.6526   2
  30 -15   3 1193.80 45.1825   2
 -15  30   3 1174.75 57.7596   2
 -15 -15  -6 10.0609 19.8199   1
 -15  30  -6-7.99360 18.9401   2
 -30  15   6-13.5575 25.3614   2
 -15  30   6-4.35476 24.3362   2
 -15  30   9 33.1775 26.8066   2
 -15 -15  -9 34.5048 22.8569   1
 -14  30  10 1473.49 76.6699   2
 -14 -16 -10 1367.82 72.9110   1
 -14 -16  -7 1674.48 68.7509   1
 -16  30  -7 1771.28 63.5339   2
 -14  30   7 1790.21 77.6392   2
 -16  30  -4 1430.37 58.6290   2
 -14  30   4 1419.00 64.6156   2
 -14 -16  -4 1322.18 51.1548   1
 -14  30   1 325.049 32.5772   2
 -16  30  -1 315.262 31.2253   2
 -30  16  -1 340.550 28.7106   2
 -16  30   2 1.85979 19.7965   2
 -14  30  -2 4.67122 20.1997   2
  30 -14   2-0.41631 13.5010   2
 -30  16   2 24.8714 19.9012   2
 -16  30   5 1392.58 65.9887   2
 -30  16   5 1450.49 66.7978   2
 -16 -14  -8 863.077 53.1941   1
 -16  30   8 882.036 57.5416   2
  16  14   8 786.399 40.6504   2
 -30  16   8 870.937 57.0238   2
 -13  30  11 79.4925 29.6913   2
 -17  30  -8 272.027 27.7699   2
  13  17   8 207.402 26.6593   2
 -13  30   8 294.562 37.8676   2
 -13 -17  -8 256.475 32.4394   1
 -13  30   5 56.7154 24.7353   2
 -17  30  -5 49.6874 20.2304   2
 -13 -17  -5 36.3164 17.3976   1
 -13  30   2 748.282 47.2424   2
 -17  30  -2 726.163 42.7796   2
 -30  17  -2 702.490 37.2922   2
 -13  30  -1 4014.23 102.051   2
 -30  17   1 3915.99 96.5474   2
 -17  30   1 3737.81 100.183   2
 -17  30   4 5721.54 128.700   2
 -30  17   4 5552.47 128.036   2
 -17  30   7 3220.81 104.519   2
 -30  17   7 3376.08 105.402   2
 -17  30  10 1469.26 77.2433   2
 -12 -18  -9 51.9902 25.5966   1
 -12  30   9 76.0820 30.3986   2
 -12 -18  -6-10.4992 19.7095   1
 -18  30  -6-6.84458 17.1872   2
 -12  30   6-2.39472 23.2752   2
  30 -18   3 406.435 28.0372   2
 -18  30  -3 438.976 35.6644   2
 -12 -18  -3 467.704 28.7074   1
 -12  30   3 423.114 38.5431   2
 -30  18  -3 452.262 30.3303   2
 -18  30   0 367.621 36.7539   2
 -12  30   0 389.628 36.3518   2
 -30  18   0 350.698 31.6516   2
  30 -12   3 287.976 24.8749   2
 -30  18   3 368.057 36.0535   2
 -18  30   3 377.595 37.2184   2
 -18  30   6 80.6559 25.4790   2
 -30  18   6 97.3719 26.4487   2
 -18  30   9 77.5383 29.4284   2
 -30  18   9 31.6182 24.9526   2
 -11 -19 -10 21.5367 25.2246   1
 -11  30  10-26.4277 26.9598   2
 -19  30  -7 674.666 39.8375   2
 -11 -19  -7 675.372 45.3121   1
  11  19   7 633.017 41.4917   2
 -11  30   7 725.717 52.9719   2
 -11  30   4 2970.54 93.8897   2
 -19  30  -4 2878.12 81.3495   2
 -11 -19  -4 2811.96 74.0006   1
 -30  19  -4 2864.97 68.1589   2
 -11  30   1 5473.76 125.207   2
 -30  19  -1 5491.07 109.492   2
 -19  30  -1 5475.80 118.180   2
 -11 -19  -1 5305.76 82.4686   1
 -19  30   2 5640.98 123.715   2
 -30  19   2 5488.61 120.360   2
 -19  30   5 1531.71 68.0761   2
 -30  19   5 1482.41 66.6672   2
 -19  30   8 255.109 36.0074   2
 -30  19   8 237.438 35.8839   2
 -10  30  11 15.6628 25.7690   2
 -10 -20  -8 390.916 38.8295   1
  10  20   8 393.577 34.3124   2
 -10  30   8 422.728 42.4765   2
 -20  30  -5 4333.86 100.067   2
 -10 -20  -5 4194.20 97.8822   1
 -10  30   5 4259.94 115.520   2
 -10  30   2 5433.30 124.522   2
 -10 -20  -2 5157.74 89.9253   1
 -30  20  -2 5269.95 104.536   2
 -20  30  -2 5365.43 114.269   2
 -20  30   1 9046.36 160.240   2
 -30  20   1 9073.58 155.807   2
 -20  30   4 3280.95 97.2095   2
 -30  20   4 3058.54 92.7886   2
 -20  30   7 1860.19 78.8526   2
 -30  20   7 1743.06 77.8678   2
 -20  30  10 47.5184 27.1340   2
  -9 -21  -9 51.9686 25.9813   1
   9  21   9 39.6271 20.1121   2
  -9  30   9 29.1476 23.7285   2
  -9  30   6 44.6831 27.1955   2
 -21  30  -6-14.4452 17.6661   2
  -9 -21  -6 3.74522 18.8198   1
 -21  30  -3 8.75620 16.8046   2
  -9  30   3 12.9671 22.9791   2
  -9 -21  -3-1.20352 13.3126   1
 -30  21  -3 1.64032 15.6667   2
 -21  30   0 726.105 44.4156   2
 -30  21   0 671.990 41.6556   2
 -30  21   3 340.667 34.4532   2
  30  -9   3 291.872 24.1679   2
 -21  30   3 381.793 37.0793   2
 -21  30   6 746.278 52.4357   2
 -30  21   6 697.219 49.6072   2
 -21  30   9 208.460 35.3070   2
 -30  21   9 175.965 33.8284   2
  -8 -22 -10 738.976 54.6876   1
  -8  30  10 728.878 55.6001   2
  -8 -22  -7 2056.77 76.4212   1
   8  22   7 1872.63 73.2101   2
 -22  30  -7 2199.00 65.5865   2
  -8  30   7 1975.38 82.3224   2
  -8 -22  -4 4885.62 100.737   1
  -8  30   4 4910.65 122.776   2
 -22  30  -4 4895.79 106.802   2
 -30  22  -4 5015.91 94.6352   2
  -8 -22  -1 4190.22 74.0051   1
  -8  30   1 4587.05 113.064   2
 -22  30  -1 4430.07 104.338   2
 -30  22  -1 4522.26 100.064   2
 -22  30   2 1933.88 72.0764   2
 -30  22   2 1723.78 67.6345   2
 -30  22   5 95.2611 26.3015   2
 -22  30   5 101.753 26.2927   2
 -22  30   8 45.7789 24.8390   2
 -30  22   8 26.0536 24.3621   2
  -7  30  11 174.535 35.7048   2
  -7 -23  -8 529.084 42.9824   1
   7  23   8 502.057 40.6478   2
  -7  30   8 606.804 49.4937   2
  -7  30   5 1033.70 59.9744   2
 -23  30  -5 1115.07 49.5154   2
 -30  23  -5 1008.89 39.2376   2
  -7 -23  -5 946.659 47.3750   1
  -7  30   2 1009.22 55.4446   2
 -23  30  -2 1067.25 50.5711   2
  -7 -23  -2 1028.62 39.2451   1
 -30  23  -2 1093.79 47.6494   2
 -23  30   1 814.436 46.9511   2
 -30  23   1 764.300 44.5792   2
 -23  30   4 732.427 49.4956   2
 -30  23   4 665.714 46.4401   2
 -30  23   7 52.2071 26.7355   2
 -23  30   7 67.1735 26.2898   2
   6  24   9 147.789 27.8702   2
  -6 -24  -9 105.414 27.5795   1
  -6  30   9 128.738 28.9693   2
  -6  30   6 305.094 38.5016   2
  -6 -24  -6 252.111 29.9782   1
   6  24   6 277.665 33.9577   2
 -24  30  -6 323.800 28.5757   2
 -30  24  -3 26.9863 15.4874   2
  -6 -24  -3 12.8363 14.8578   1
  -6  30   3 14.9225 21.7945   2
 -24  30  -3 40.0592 19.2795   2
 -30  24   0 277.646 28.3512   2
 -24  30   0 326.188 32.7918   2
  -6 -24   0 290.184 17.4002   1
 -30  24   3 1515.40 65.2588   2
 -24  30   3 1618.70 67.4700   2
 -24  30   6 1526.75 70.7305   2
 -30  24   6 1479.85 70.5327   2
 -24  30   9 385.524 44.0241   2
  -5  30  10 1421.76 75.5653   2
   5  25   7 2110.05 80.6769   2
  -5 -25  -7 2010.01 76.9179   1
  -5  30   7 2206.98 87.1348   2
 -30  25  -4 2605.35 69.5007   2
  -5  30   4 2684.15 90.8275   2
 -25  30  -4 2725.34 78.1159   2
 -30  25  -1 471.772 35.5913   2
 -25  30  -1 512.820 38.0822   2
 -30  25   2 26.1268 21.0216   2
 -25  30   2 33.8056 22.2815   2
 -30  25   5 357.337 37.3601   2
 -25  30   5 419.254 40.0044   2
 -30  25   8 56.7176 26.9151   2
 -25  30   8 50.8977 28.4540   2
  -4  30   8 347.477 40.5743   2
  -4 -26  -8 276.167 36.3947   1
   4  26   8 250.409 34.2132   2
 -30  26  -5 701.156 35.7563   2
  -4  30   5 779.910 51.9573   2
 -26  30  -5 806.197 42.1586   2
 -30  26  -2 548.432 36.3154   2
 -26  30  -2 595.358 39.5631   2
 -30  26   1 475.214 37.7272   2
 -26  30   1 438.580 36.7891   2
 -30  26   4 137.720 27.3037   2
 -26  30   4 159.727 28.5108   2
 -30  26   7 115.159 28.9352   2
 -26  30   7 64.0085 24.1855   2
   3  27   9 22.4063 24.8625   2
  -3 -27  -9 30.4302 24.9724   1
  -3  30   9 52.5461 26.5099   2
 -27  30  -6 467.004 31.4869   2
  -3  30   6 387.991 40.2240   2
   3  27   6 386.745 40.0523   2
 -30  27  -3 1388.70 53.6049   2
 -27  30  -3 1270.99 54.9875   2
  -3  30   3 1289.28 63.7841   2
 -30  27   0 955.844 50.6372   2
 -27  30   0 894.393 49.9745   2
 -30  27   3 721.602 47.2398   2
 -27  30   3 802.799 50.6520   2
 -30  27   6 97.3897 26.7880   2
 -27  30   6 144.114 29.6569   2
  -2  30  10 119.240 31.4879   2
   2  28  10 76.4452 26.8696   2
  -2  30   7-27.1151 26.5179   2
   2  28   7-16.2522 22.9886   2
 -30  28  -4 3.04472 15.8510   2
 -28  30  -4-13.8591 16.5921   2
  -2  30   4-46.9701 29.4172   2
 -30  28  -1 837.560 46.6634   2
 -28  30  -1 808.270 46.4034   2
 -30  28   2 71.9597 24.5049   2
 -28  30   2 90.7815 25.6440   2
 -30  28   5 32.2223 25.1968   2
 -28  30   5-10.4805 24.9765   2
 -28  30   8 154.816 35.6630   2
  -1  30   8 24.4566 24.2371   2
   1  29   8-6.13569 23.3210   2
 -30  29  -5 56.8989 15.2442   2
 -29  30  -5 66.2047 17.7021   2
  -1  30   5 59.3961 23.0719   2
   1  29   5 21.9313 23.7184   2
 -30  29  -2 7.67235 17.2559   2
 -29  30  -2-38.6254 21.2185   2
 -30  29   1 5.80421 20.1815   2
 -29  30   1 60.3112 22.1757   2
 -30  29   4 330.597 36.7490   2
 -29  30   4 362.289 38.6211   2
 -30  29   7 236.130 37.3544   2
 -29  30   7 287.459 38.7274   2
   0  30   9 252.664 37.1689   2
   0  30   6 28.5702 23.0401   2
 -30  30  -3 12.8145 18.8960   2
 -30  30   0 40.1679 21.8956   2
 -30  30   3 514.430 42.8726   2
 -30  30   6 1031.07 63.5774   2
  15  16   8 1065.65 50.0648   2
 -15  31   8 1333.80 69.8705   2
 -16  31  -8 1322.03 56.7234   2
 -15 -16  -8 1143.92 61.8318   1
 -15 -16  -5 2499.03 76.3265   1
 -16  31  -5 2598.26 81.2837   2
 -15  31   5 2681.35 91.0000   2
 -15  31   2 2294.72 81.3366   2
 -16  31  -2 2252.19 75.0996   2
 -16  31   1 1185.95 57.6373   2
 -15  31  -1 1226.14 56.7428   2
 -31  16   1 1181.29 53.5556   2
 -15  31  -4-1.82957 19.0468   2
 -31  16   4-2.23575 20.6710   2
 -16  31   4 24.6296 22.5727   2
 -16 -15  -7-44.8840 24.6657   1
 -16  31   7 36.8798 25.7676   2
 -15  31  -7 3.50133 17.8608   2
 -16 -15 -10 275.108 39.7792   1
 -16  31  10 303.756 42.3854   2
 -14  31   9 875.253 59.9636   2
 -14 -17  -9 873.281 57.1875   1
 -17  31  -6 779.294 44.9631   2
 -14 -17  -6 687.108 42.6864   1
 -14  31   6 778.716 52.7550   2
 -14  31   3 42.5962 24.2933   2
 -17  31  -3 16.2448 19.2812   2
 -17  31   0 1616.05 65.8955   2
 -14  31   0 1520.64 65.4654   2
 -31  17   0 1553.86 59.5636   2
 -14  31  -3 2777.12 84.9375   2
 -31  17   3 2773.48 87.0322   2
 -17  31   3 2734.78 88.6601   2
 -17  31   6 1763.86 77.0074   2
 -31  17   6 1671.66 74.0400   2
 -17  31   9 761.611 57.1452   2
 -13 -18 -10-19.1149 27.0847   1
 -13  31  10 36.8714 27.2300   2
 -18  31  -7 230.678 26.7416   2
 -13  31   7 225.329 35.1199   2
 -13 -18  -7 171.632 28.0316   1
 -13  31   4 32.0286 24.4684   2
 -13 -18  -4-19.2488 17.3238   1
 -18  31  -4 14.5640 18.2065   2
 -18  31  -1 26.5939 20.6347   2
 -13  31   1 41.0925 24.0118   2
 -31  18  -1 37.7475 18.4201   2
 -13  31  -2 2278.31 77.2545   2
 -31  18   2 2059.85 72.9385   2
 -18  31   2 2148.61 77.1304   2
 -18  31   5 275.823 34.9476   2
 -31  18   5 310.894 37.4580   2
 -18  31   8 224.369 36.9792   2
 -31  18   8 235.747 35.9882   2
 -12 -19  -8 95.4597 27.4471   1
  12  19   8 75.0393 21.0497   2
 -12  31   8 64.2606 28.1803   2
 -12  31   5 228.979 33.9592   2
 -12 -19  -5 169.551 22.8912   1
 -19  31  -5 286.279 29.7657   2
 -19  31  -2 1858.28 68.0411   2
 -12  31   2 1790.29 72.3406   2
 -31  19  -2 1891.96 61.9437   2
 -12 -19  -2 1767.22 49.9729   1
 -19  31   1 181.088 28.4961   2
 -12  31  -1 211.667 30.3227   2
 -31  19   1 162.738 25.3962   2
 -19  31   4 650.732 46.6545   2
 -31  19   4 563.817 42.3408   2
 -19  31   7 8.30375 23.7494   2
 -31  19   7 5.26033 23.1964   2
 -11  31   9 1159.29 67.6665   2
 -20  31  -6 5992.75 120.796   2
 -11 -20  -6 5652.47 123.995   1
 -11  31   6 5910.17 141.405   2
 -11  31   3 5612.11 130.968   2
 -31  20  -3 5413.34 104.990   2
 -11 -20  -3 5331.92 98.6452   1
 -20  31  -3 5375.88 117.100   2
 -11  31   0 9380.95 168.407   2
 -20  31   0 8965.29 160.566   2
 -31  20   0 9210.86 155.210   2
 -20  31   3 12263.5 199.092   2
 -31  20   3 11713.7 192.823   2
 -20  31   6 4146.21 118.054   2
 -31  20   6 4266.24 117.018   2
 -20  31   9 540.345 48.6941   2
 -31  20   9 441.454 46.2268   2
 -10  31  10 18.0903 25.6033   2
 -10 -21 -10-82.8453 30.0327   1
 -21  31  -7 213.224 25.6297   2
 -10 -21  -7 128.466 26.3775   1
  10  21   7 159.918 27.8740   2
 -10  31   7 194.029 32.5982   2
 -10  31   4 1077.61 59.4499   2
 -10 -21  -4 1053.02 45.9411   1
 -31  21  -4 1133.52 44.1896   2
 -21  31  -4 1133.75 52.8358   2
 -10 -21  -1 1518.52 41.3724   1
 -10  31   1 1559.97 68.0836   2
 -21  31  -1 1641.28 63.9014   2
 -31  21  -1 1611.92 59.5552   2
 -21  31   2 3081.05 91.9916   2
 -31  21   2 3096.57 90.3096   2
 -21  31   5 1849.98 77.0409   2
 -31  21   5 1819.97 75.7011   2
 -21  31   8 659.976 51.5044   2
 -31  21   8 624.160 50.9941   2
  -9 -22  -8 156.699 30.4419   1
   9  22   8 170.607 27.5188   2
  -9  31   8 189.870 32.8034   2
  -9  31   5 1887.97 78.0942   2
  -9 -22  -5 1786.92 64.1360   1
 -31  22  -5 1815.63 52.1963   2
 -22  31  -5 1867.65 65.4623   2
 -31  22  -2 324.302 28.3589   2
 -22  31  -2 324.051 31.2208   2
  -9 -22  -2 313.889 23.2730   1
  -9  31   2 368.815 37.8960   2
 -31  22   1 147.610 25.7598   2
 -22  31   1 168.938 28.6923   2
 -22  31   4 1229.03 61.7453   2
 -31  22   4 1196.24 61.0516   2
 -22  31   7 720.706 53.0090   2
 -31  22   7 751.988 56.6093   2
   8  23   9 635.955 45.1099   2
  -8 -23  -9 622.019 48.8089   1
  -8  31   9 656.610 53.6154   2
  -8 -23  -6 4223.37 105.471   1
 -23  31  -6 4697.02 101.864   2
  -8  31   6 4576.56 125.467   2
  -8 -23  -3 2697.67 69.2799   1
  -8  31   3 2686.23 91.7165   2
 -23  31  -3 2729.36 80.5950   2
 -31  23  -3 2851.21 74.4755   2
 -23  31   0 3101.87 90.6305   2
 -31  23   0 3065.90 85.9621   2
 -31  23   3 480.798 39.4702   2
 -23  31   3 610.056 44.5491   2
 -23  31   6-6.51833 24.0579   2
 -31  23   6 13.1281 25.0151   2
  -7  31  10 42.8097 27.0402   2
  -7  31   7 26.2118 24.8308   2
  -7 -24  -7 28.4241 20.7186   1
   7  24   7 46.0656 22.9151   2
 -31  24  -4 34.6973 16.6306   2
  -7 -24  -4-8.32312 16.3950   1
  -7  31   4 44.0988 23.1989   2
 -24  31  -4 59.3559 20.2478   2
 -31  24  -1 109.737 21.8420   2
  -7 -24  -1 102.974 14.2886   1
 -24  31  -1 86.6755 21.7355   2
 -24  31   2 1261.87 60.2257   2
 -31  24   2 1199.23 58.3964   2
 -31  24   5 406.108 39.2815   2
 -24  31   5 375.956 38.2300   2
 -24  31   8 140.978 30.4305   2
 -31  24   8 172.919 33.6097   2
   6  25   8 1537.24 69.4819   2
  -6  31   8 1718.90 79.3088   2
  -6 -25  -8 1606.03 72.6517   1
  -6  31   5 2452.33 90.1520   2
 -25  31  -5 2681.75 76.9859   2
  -6 -25  -5 2396.88 76.1926   1
 -31  25  -5 2506.93 64.7421   2
 -31  25  -2 133.783 22.5935   2
  -6 -25  -2 133.459 17.5650   1
 -25  31  -2 100.978 22.5693   2
  -6  31   2 109.970 25.2321   2
 -31  25   1 25.3628 19.4389   2
 -25  31   1 39.4372 20.2155   2
 -31  25   4 341.182 36.5858   2
 -25  31   4 342.239 36.2750   2
 -31  25   7 9.69784 23.7636   2
 -25  31   7-75.1547 28.6249   2
  -5  31   9 691.925 54.2650   2
   5  26   9 629.077 47.8267   2
  -5 -26  -9 667.201 52.3142   1
  -5  31   6 1136.70 64.6379   2
 -26  31  -6 1356.73 53.1345   2
   5  26   6 1134.69 62.0289   2
  -5 -26  -6 1123.97 56.4738   1
 -31  26  -3 754.357 41.6133   2
  -5  31   3 781.308 51.9695   2
 -26  31  -3 804.331 45.7437   2
 -31  26   0 300.694 32.0541   2
 -26  31   0 330.048 33.8940   2
  -5 -26   0 347.463 20.1588   1
 -31  26   3 196.314 29.4180   2
 -26  31   3 201.064 31.3788   2
 -31  26   6 9.09303 22.4046   2
 -26  31   6-20.2816 26.2732   2
  -4  31  10 361.111 45.0484   2
  -4 -27  -7 282.567 33.7470   1
  -4  31   7 354.463 43.2728   2
   4  27   7 336.005 38.0635   2
 -31  27  -4 2094.06 64.7410   2
  -4  31   4 2013.77 82.0206   2
 -27  31  -4 2008.77 68.7905   2
 -31  27  -1 734.879 44.5217   2
 -27  31  -1 733.853 46.3949   2
 -31  27   2 2820.93 89.0698   2
 -27  31   2 2800.98 90.9556   2
 -31  27   5 1710.62 75.0172   2
 -27  31   5 1663.75 74.2244   2
  -3  31   8 57.2919 24.6777   2
  -3 -28  -8 66.5050 24.3856   1
   3  28   8 93.5175 27.2236   2
 -28  31  -5 13.0916 16.1293   2
  -3  31   5 8.63422 23.3053   2
   3  28   5-31.6038 24.4163   2
 -31  28  -2 317.849 30.9831   2
 -28  31  -2 285.418 30.5391   2
 -31  28   1 1196.36 57.4238   2
 -28  31   1 1080.72 57.1143   2
 -31  28   4 165.729 30.5122   2
 -28  31   4 171.542 29.6371   2
 -31  28   7 20.5500 26.5701   2
 -28  31   7 29.4879 26.8819   2
   2  29   9 13.1377 25.0302   2
  -2  31   9-7.81284 24.7621   2
  -2  31   6 183.565 33.7970   2
   2  29   6 163.323 30.4788   2
 -31  29  -3-20.9392 19.0520   2
 -29  31  -3 10.4204 18.4788   2
 -31  29   0 1943.62 72.1268   2
 -29  31   0 1969.02 74.3275   2
 -31  29   3 347.208 37.2596   2
 -29  31   3 308.660 35.6218   2
 -31  29   6 225.383 36.5401   2
 -29  31   6 224.315 36.5075   2
  -1  31   7 153.449 32.4792   2
   1  30   7 177.717 33.4818   2
 -31  30  -4 136.671 23.0559   2
 -30  31  -4 107.590 20.5969   2
  -1  31   4 131.013 29.5332   2
 -31  30  -1-7.58986 18.5070   2
 -30  31  -1-2.90786 18.9089   2
 -31  30   2 239.117 32.2078   2
 -30  31   2 282.439 34.5563   2
 -31  30   5 266.350 37.1777   2
 -30  31   5 293.752 36.9630   2
   0  31   8 417.137 44.2996   2
   0  31   5-55.8258 28.8604   2
 -31  31  -2 183.362 26.9641   2
 -31  31   1 1490.72 66.6182   2
 -31  31   4 1820.37 78.1259   2
 -16  32   0 4180.89 109.470   2
 -16  32  -3 4519.31 109.548   2
 -32  16   3 4535.86 113.747   2
 -16  32   3 4656.65 119.685   2
 -16 -16  -6 828.528 47.4448   1
 -16  32  -6 1004.53 51.6853   2
 -16  32   6 1025.93 60.0993   2
 -16  32   9 479.593 47.7150   2
 -16 -16  -9 465.392 44.2982   1
 -17  32  -7 43.3260 19.6528   2
 -15  32   7 66.5242 27.9278   2
 -15 -17  -7 23.1840 21.1352   1
 -17  32  -4 482.959 39.1348   2
 -15  32   4 537.174 45.4828   2
 -15  32   1 1.25378 22.5607   2
 -17  32  -1 1.12726 20.6605   2
 -15  32  -2 617.865 42.6931   2
 -32  17   2 576.838 41.7505   2
 -17  32   2 550.005 43.0375   2
 -15  32  -5 356.748 34.4322   2
 -32  17   5 352.870 38.6341   2
 -17  32   5 323.332 38.4032   2
 -17  32   8-5.92755 24.9831   2
 -15  32  -8 21.2073 18.5656   2
 -14 -18  -8 243.872 34.2177   1
 -18  32  -8 294.191 29.4660   2
 -14  32   8 227.386 35.6754   2
  14  18   8 192.723 26.6690   2
 -14  32   5 280.740 38.1913   2
 -18  32  -5 272.595 31.6286   2
 -14 -18  -5 262.711 27.9529   1
 -14  32   2 610.920 45.2518   2
 -18  32  -2 628.077 42.6140   2
 -14  32  -1 575.223 42.6217   2
 -32  18   1 495.751 38.7997   2
 -18  32   1 551.801 42.1442   2
 -14  32  -4 526.959 39.9895   2
 -18  32   4 527.593 43.7947   2
 -32  18   4 485.744 42.3932   2
 -18  32   7-0.95808 25.7475   2
 -32  18   7 7.06228 25.0332   2
 -13  32   9 506.201 49.3360   2
 -13 -19  -9 449.363 44.2085   1
 -13 -19  -6 1414.46 60.7668   1
 -19  32  -6 1644.53 63.3309   2
 -13  32   6 1693.55 76.2491   2
 -13  32   3 771.117 51.6809   2
 -19  32  -3 758.115 46.4117   2
 -13 -19  -3 757.912 36.7017   1
 -13  32   0 1347.99 63.0308   2
 -32  19   0 1330.71 57.3369   2
 -19  32   0 1351.09 61.2510   2
 -13  32  -3 1253.53 58.7007   2
 -19  32   3 1348.23 63.9471   2
 -32  19   3 1157.66 58.6788   2
 -19  32   6 214.327 36.1008   2
 -32  19   6 99.6485 28.2187   2
 -19  32   9-11.8108 26.1655   2
 -12 -20 -10-6.54249 24.8465   1
 -12 -20  -7-23.5193 22.2862   1
 -20  32  -7 11.4439 17.8675   2
  12  20   7 0.24775 18.2087   2
 -12  32   7-15.7993 25.7484   2
 -20  32  -4 488.397 37.4308   2
 -12 -20  -4 469.231 32.6433   1
 -12  32   4 602.806 47.6203   2
 -20  32  -1 429.613 36.9478   2
 -12  32   1 433.434 39.0634   2
 -32  20  -1 464.555 34.8243   2
 -12  32  -2 900.940 50.6540   2
 -20  32   2 913.141 51.9915   2
 -32  20   2 787.037 48.3451   2
 -20  32   5 269.755 36.4396   2
 -32  20   5 240.902 34.2455   2
 -20  32   8 39.3542 28.7963   2
 -32  20   8-51.8750 29.6269   2
  11  21   8 280.751 32.5081   2
 -11  32   8 358.981 41.6878   2
 -11 -21  -8 278.183 35.2765   1
 -11  32   5 1845.33 79.0071   2
 -21  32  -5 1855.05 67.3172   2
 -21  32  -2 401.822 36.6907   2
 -11 -21  -2 396.675 25.2265   1
 -11  32   2 352.048 37.3602   2
 -32  21  -2 410.922 31.8993   2
 -11  32  -1 1378.99 62.9139   2
 -21  32   1 1274.41 59.7094   2
 -32  21   1 1236.53 57.0981   2
 -21  32   4 38.2880 23.4980   2
 -32  21   4 10.9981 20.5708   2
 -21  32   7-2.94086 24.4449   2
 -32  21   7-12.3938 23.7336   2
 -10 -22  -9-10.2758 24.7661   1
 -10  32   9-19.3707 27.1635   2
 -10  32   6 77.7748 28.2904   2
 -22  32  -6 57.7822 20.5611   2
 -22  32  -3-36.6340 20.6156   2
 -10  32   3 11.3302 21.1167   2
 -10 -22  -3 2.92484 13.8733   1
 -32  22  -3-2.29744 15.0182   2
 -10  32   0 42.9174 22.8359   2
 -22  32   0 42.8089 22.3824   2
 -32  22   0 19.3634 17.9095   2
 -22  32   3 262.107 33.3935   2
 -32  22   3 258.936 33.1614   2
 -22  32   6 59.2524 26.8308   2
 -32  22   6 57.9592 26.7514   2
  -9 -23  -7 599.824 43.3925   1
   9  23   7 587.997 43.1163   2
  -9  32   7 654.186 52.3870   2
 -23  32  -4 61.8314 20.6951   2
  -9 -23  -4 138.034 22.1497   1
  -9  32   4 114.998 27.9699   2
 -32  23  -4 93.9677 17.1411   2
 -32  23  -1-1.06537 17.1110   2
  -9 -23  -1 34.1958 11.6888   1
  -9  32   1-19.7057 26.6988   2
 -23  32  -1 1.11473 20.6973   2
 -32  23   2 78.6993 25.0402   2
 -23  32   2 113.374 26.7806   2
 -23  32   5 243.573 35.0621   2
 -32  23   5 239.042 33.6100   2
 -23  32   8 21.4391 25.4709   2
 -32  23   8-23.4219 27.9453   2
   8  24   8 265.132 33.7774   2
  -8  32   8 275.593 38.5488   2
  -8 -24  -8 248.292 32.6291   1
  -8  32   5 49.0868 24.9490   2
  -8 -24  -5 63.9333 19.0362   1
 -24  32  -5 128.436 23.7564   2
 -32  24  -2 21.5307 17.3293   2
  -8  32   2 2.66272 24.0607   2
 -24  32  -2-2.13653 18.1308   2
  -8 -24  -2 29.3090 13.1255   1
 -24  32   1 788.323 49.4946   2
 -32  24   1 699.897 45.2138   2
 -32  24   4 23.9997 22.1935   2
 -24  32   4 33.3396 22.4628   2
 -24  32   7 91.4794 27.6149   2
 -32  24   7 96.2966 29.2239   2
   7  25   9 51.4847 22.1291   2
  -7  32   9 73.0789 28.7763   2
  -7 -25  -9 85.3110 27.9304   1
  -7 -25  -6 2244.43 77.0535   1
 -25  32  -6 2395.61 72.4614   2
   7  25   6 2089.55 80.4385   2
  -7  32   6 2288.66 91.3012   2
  -7  32   3 1097.76 60.7252   2
 -25  32  -3 1178.64 55.0251   2
 -32  25  -3 1116.08 49.1267   2
  -7 -25  -3 1102.41 45.2025   1
 -25  32   0 1219.26 59.5157   2
 -32  25   0 1222.88 56.7881   2
 -32  25   3-6.33691 23.7186   2
 -25  32   3-27.2324 23.2135   2
 -32  25   6 20.9691 23.4451   2
 -25  32   6-3.76005 25.1278   2
  -6  32   7 130.210 31.1990   2
  -6 -26  -7 103.856 25.9282   1
   6  26   7 109.292 27.4938   2
 -32  26  -4 47.8263 18.1929   2
  -6 -26  -4 40.9830 18.1775   1
  -6  32   4 14.3926 22.1671   2
 -26  32  -4-6.25383 18.2139   2
 -32  26  -1 26.0552 19.6273   2
  -6 -26  -1 20.7241 11.8485   1
 -26  32  -1 31.2927 20.3391   2
 -32  26   2 131.728 27.6845   2
 -26  32   2 182.891 28.9566   2
 -32  26   5-11.9007 24.3607   2
 -26  32   5-16.0585 24.1410   2
  -5  32   8 42.0474 26.5117   2
   5  27   8-33.6852 23.5494   2
  -5 -27  -8 0.29246 22.6480   1
  -5  32   5 23.4827 26.0146   2
 -27  32  -5 26.7509 18.9052   2
  -5 -27  -2-2.51642 12.7662   1
 -32  27  -2 8.31831 16.7398   2
 -27  32  -2 6.20682 18.9963   2
  -5  32   2 20.3339 23.8471   2
 -32  27   1-25.6893 21.6255   2
 -27  32   1 28.2420 23.0173   2
 -27  32   4 660.712 49.0630   2
 -32  27   4 620.508 47.0609   2
 -27  32   7 761.091 56.1069   2
 -32  27   7 766.224 56.1321   2
   4  28   9 313.075 39.0579   2
  -4 -28  -9 337.503 39.5334   1
  -4  32   9 398.518 45.2632   2
  -4 -28  -6 396.877 36.6858   1
  -4  32   6 470.046 46.1239   2
   4  28   6 398.082 41.9174   2
 -32  28  -3 71.4549 21.5290   2
 -28  32  -3 15.7946 19.2371   2
  -4  32   3 0.42065 25.9332   2
 -32  28   0 244.486 29.6237   2
 -28  32   0 275.926 32.4818   2
 -32  28   3 50.5675 22.8383   2
 -28  32   3-5.93705 23.4122   2
 -32  28   6 65.3774 27.5882   2
 -28  32   6 27.9133 24.8684   2
  -3  32   7 62.6871 29.1808   2
   3  29   7 44.0406 24.9438   2
 -32  29  -4 9.67245 16.6106   2
 -29  32  -4 43.6433 20.8283   2
  -3  32   4 0.32450 22.7949   2
 -32  29  -1 45.1021 20.4749   2
 -29  32  -1 68.4929 23.6462   2
 -32  29   2 124.745 27.0419   2
 -29  32   2 81.3799 24.5388   2
 -32  29   5 212.089 32.9774   2
 -29  32   5 208.388 33.6451   2
  -2  32   8 212.591 34.6849   2
   2  30   8 211.990 34.9183   2
 -30  32  -5 49.8485 18.5197   2
  -2  32   5 11.8804 23.2171   2
   2  30   5 43.8291 23.2231   2
 -32  30  -2 86.6233 23.0280   2
 -30  32  -2 51.2862 21.3924   2
 -32  30   1 101.382 24.6920   2
 -30  32   1 119.993 25.6508   2
 -32  30   4 887.300 56.5704   2
 -30  32   4 837.962 55.7339   2
  -1  32   6-26.1282 29.1632   2
   1  31   6-48.6797 26.6608   2
 -32  31  -3 98.0515 22.9840   2
 -31  32  -3 86.1769 22.0868   2
 -32  31   0 19.7334 22.5741   2
 -31  32   0 30.2212 23.8456   2
 -32  31   3 56.3436 26.4371   2
 -31  32   3 84.7472 27.4440   2
 -32  31   6 155.104 34.5398   2
 -31  32   6 158.330 33.2173   2
   0  32   7 2.56009 25.0348   2
 -32  32  -4 937.912 47.6126   2
   0  32   4 909.498 59.6614   2
 -32  32  -1 729.657 46.8544   2
 -32  32   2 873.284 54.9332   2
 -32  32   5 1271.03 69.0504   2
 -16  33   8-6.68972 26.8965   2
 -17  33  -8 16.4767 18.6143   2
 -17  33  -5 489.917 39.7340   2
 -16  33   5 460.308 42.8520   2
 -16  33   2 148.998 28.3785   2
 -17  33  -2 90.4880 23.1785   2
 -16  33  -1 1438.55 64.1784   2
 -17  33   1 1526.36 67.4821   2
 -16  33  -4 1236.74 58.0022   2
 -33  17   4 1199.35 61.5186   2
 -17  33   4 1237.52 63.0699   2
 -17  33   7 95.0091 29.9893   2
 -16  33  -7 67.4279 21.1471   2
 -15  33   9 935.390 64.5514   2
 -15 -18  -9 912.525 60.5962   1
 -15 -18  -6 141.796 25.9544   1
 -18  33  -6 118.375 24.5650   2
 -15  33   6 129.007 31.1500   2
 -18  33  -3 1118.34 56.2226   2
 -15  33   3 1266.01 64.2088   2
 -18  33   0 66.4667 25.8240   2
 -15  33   0 42.0494 23.0745   2
 -33  18   0 66.3433 20.8910   2
 -15  33  -3 42.5157 22.4677   2
 -33  18   3 36.6483 22.5591   2
 -18  33   3 40.3868 25.0371   2
 -18  33   6 93.2629 31.1337   2
 -15  33  -6 92.0198 24.5519   2
 -33  18   6 139.314 32.5519   2
 -19  33  -7 2826.09 83.9820   2
 -14 -19  -7 2710.48 90.0436   1
 -14  33   7 2891.58 102.029   2
 -14 -19  -4 5488.41 110.201   1
 -19  33  -4 5843.39 126.927   2
 -14  33   4 5952.66 140.472   2
 -19  33  -1 4361.73 111.286   2
 -14  33   1 4351.85 114.967   2
 -33  19  -1 4288.51 101.313   2
 -14  33  -2 1913.79 72.8809   2
 -33  19   2 1820.60 71.1378   2
 -19  33   2 1746.67 72.3582   2
 -19  33   5 34.9078 23.8201   2
 -33  19   5 57.2248 25.2006   2
 -19  33   8 31.6225 25.4961   2
 -33  19   8-28.7790 26.5300   2
  13  20   8 729.028 46.8139   2
 -13  33   8 933.307 62.4144   2
 -20  33  -5 2557.75 81.4071   2
 -13 -20  -5 2424.21 74.8820   1
 -13  33   5 2581.51 92.9113   2
 -13  33   2 2580.34 89.5754   2
 -33  20  -2 2661.91 76.4819   2
 -20  33  -2 2552.74 82.7999   2
 -13  33  -1 1110.26 57.7404   2
 -33  20   1 1125.33 54.9601   2
 -20  33   1 1158.86 59.8323   2
 -20  33   4 44.1160 24.5857   2
 -33  20   4 29.5252 24.1993   2
 -20  33   7 48.7379 27.0592   2
 -33  20   7 38.4826 28.1611   2
 -12 -21  -9 20.8859 25.6188   1
 -12  33   9-20.1561 27.3585   2
 -12  33   6 195.078 33.6536   2
 -21  33  -6 190.470 27.8747   2
 -12 -21  -6 185.395 27.2639   1
 -12  33   3 849.459 54.0164   2
 -12 -21  -3 763.671 36.6015   1
 -33  21  -3 865.643 42.9702   2
 -21  33  -3 851.007 48.8903   2
 -12  33   0 1340.78 63.9790   2
 -21  33   0 1288.78 60.7347   2
 -33  21   0 1353.71 58.3397   2
 -21  33   3 2743.79 91.2084   2
 -33  21   3 2626.68 87.7385   2
 -21  33   6 1792.36 81.1022   2
 -33  21   6 1814.39 80.5292   2
  11  22   7 355.088 36.3710   2
 -11 -22  -7 356.533 36.6834   1
 -22  33  -7 467.353 36.0630   2
 -11  33   7 437.185 44.9330   2
 -11 -22  -4 178.226 22.4735   1
 -22  33  -4 171.118 25.8437   2
 -11  33   4 177.226 31.7259   2
 -33  22  -4 196.983 22.6370   2
 -11  33   1 951.046 55.8982   2
 -22  33  -1 879.538 51.3985   2
 -33  22  -1 981.186 48.8187   2
 -22  33   2 1686.60 71.3740   2
 -33  22   2 1839.42 72.6505   2
 -22  33   5 2487.00 91.7235   2
 -33  22   5 2404.52 88.7461   2
 -22  33   8 437.157 45.5973   2
 -10 -23  -8 21.1338 23.0169   1
  10  23   8 86.5979 25.3109   2
 -10  33   8 55.5902 26.1556   2
 -23  33  -5 276.376 29.6413   2
 -10  33   5 322.509 38.9476   2
 -10 -23  -5 298.876 29.9834   1
 -10 -23  -2 87.2903 15.4257   1
 -10  33   2 76.9640 25.4244   2
 -33  23  -2 67.4301 19.4651   2
 -23  33  -2 47.0820 22.6646   2
 -23  33   1 539.342 42.4445   2
 -33  23   1 483.442 39.1710   2
 -23  33   4 979.261 58.3851   2
 -33  23   4 891.719 54.8860   2
 -23  33   7 545.611 48.9494   2
 -33  23   7 444.566 44.6909   2
  -9 -24  -9 37.2063 25.6158   1
  -9 -24  -6-17.4248 20.8460   1
  -9  33   6-35.3672 25.3416   2
 -24  33  -6 8.98897 17.9433   2
  -9 -24  -3 453.775 30.1011   1
  -9  33   3 534.999 45.5717   2
 -24  33  -3 540.253 40.0073   2
 -33  24  -3 485.866 34.3250   2
 -33  24   0 35.9494 18.6642   2
  -9  33   0 29.1116 21.7919   2
 -24  33   0 45.1059 21.4636   2
 -24  33   3 859.767 54.0077   2
 -33  24   3 910.346 53.3094   2
 -24  33   6-10.1544 27.6178   2
 -33  24   6-37.6883 25.6870   2
  -8  33   7 181.439 34.1875   2
   8  25   7 131.849 26.3153   2
  -8 -25  -7 135.696 26.0094   1
  -8  33   4 1226.08 65.1269   2
 -25  33  -4 1215.56 55.7571   2
 -33  25  -4 1112.83 46.7011   2
  -8  33   1 500.376 44.1799   2
 -25  33  -1 454.785 38.0918   2
 -33  25  -1 498.671 37.6356   2
 -25  33   2 1498.55 69.0470   2
 -33  25   2 1557.82 67.7460   2
 -33  25   5 41.2964 22.9398   2
 -25  33   5 40.4681 25.5728   2
   7  26   8 89.3819 25.5143   2
  -7 -26  -8 51.4199 24.9769   1
  -7  33   8 107.198 31.6265   2
  -7  33   5 43.8661 27.2548   2
  -7 -26  -5 30.5050 19.7883   1
 -26  33  -5 29.3050 20.1928   2
 -33  26  -2 54.7059 19.7383   2
  -7 -26  -2 50.3503 13.9890   1
  -7  33   2 50.7502 23.5849   2
 -26  33  -2 55.7131 22.7872   2
 -33  26   1 80.6350 23.2878   2
 -26  33   1 94.0159 26.0903   2
 -33  26   4-7.22136 23.0070   2
 -26  33   4-10.0626 23.4581   2
 -26  33   7 257.691 37.3557   2
 -33  26   7 232.872 35.2107   2
   6  27   9 224.352 34.2186   2
  -6 -27  -9 226.076 34.6990   1
  -6  33   6 1607.04 77.4259   2
   6  27   6 1457.02 70.6406   2
  -6 -27  -6 1571.09 65.9612   1
  -6  33   3 1955.01 82.4592   2
 -27  33  -3 2026.25 73.0802   2
  -6 -27  -3 2010.74 62.0386   1
 -33  27  -3 2032.11 67.8880   2
 -33  27   0 870.202 49.3115   2
 -27  33   0 848.988 51.0620   2
 -33  27   3 59.0286 24.6660   2
 -27  33   3 37.1198 22.8461   2
 -33  27   6 6.53283 24.9566   2
 -27  33   6 29.9563 23.1173   2
   5  28   7 2405.93 90.6323   2
  -5 -28  -7 2490.59 87.1590   1
  -5  33   7 2698.65 101.181   2
  -5  33   4 3456.45 110.095   2
 -28  33  -4 3457.01 94.4091   2
  -5 -28  -4 3488.96 89.2232   1
 -33  28  -4 3596.14 88.0895   2
 -33  28  -1 2061.49 73.1339   2
 -28  33  -1 1973.96 75.2181   2
 -33  28   2 543.920 43.8657   2
 -28  33   2 467.130 41.6851   2
 -33  28   5-30.8034 26.2504   2
 -28  33   5 30.4046 22.1203   2
  -4  33   8 175.800 35.5207   2
   4  29   8 183.950 33.6752   2
  -4 -29  -8 182.260 32.4836   1
 -29  33  -5 397.291 34.1687   2
  -4  33   5 342.190 41.6787   2
   4  29   5 349.681 39.8067   2
 -33  29  -2 1045.50 52.4759   2
 -29  33  -2 1050.22 54.7644   2
 -33  29   1 426.148 38.9575   2
 -29  33   1 412.324 38.6681   2
 -33  29   4 217.060 33.0995   2
 -29  33   4 204.667 32.2431   2
   3  30   9 249.465 37.7780   2
  -3  33   6 20.7634 24.1664   2
   3  30   6 11.0176 24.4470   2
 -33  30  -3 518.368 38.1112   2
 -30  33  -3 522.819 46.1966   2
  -3  33   3 503.386 46.0985   2
 -33  30   0 1567.06 67.6544   2
 -30  33   0 1694.91 71.5054   2
 -33  30   3 3819.15 112.608   2
 -30  33   3 3929.61 112.968   2
 -30  33   6 3227.80 108.750   2
 -33  30   6 3256.45 110.929   2
  -2  33   7 235.142 37.7797   2
   2  31   7 235.770 36.4352   2
 -33  31  -4 35.5826 19.8997   2
 -31  33  -4 4.62919 18.1615   2
  -2  33   4 18.5911 25.8775   2
 -33  31  -1 85.5042 23.6376   2
 -31  33  -1 105.838 25.2164   2
 -33  31   2 1020.79 58.4382   2
 -31  33   2 1023.73 59.5560   2
 -33  31   5 1502.38 73.5735   2
 -31  33   5 1523.29 75.2936   2
  -1  33   5-2.90608 23.9000   2
   1  32   5 7.19019 25.2722   2
 -33  32  -2 83.9345 23.8568   2
 -32  33  -2 47.4775 21.1786   2
 -33  32   1-18.4194 25.9064   2
 -32  33   1 6.53108 35.3083   2
 -33  32   4-27.3115 25.3879   2
 -32  33   4-43.4434 26.7519   2
   0  33   6 15.7379 24.2697   2
 -33  33  -3 581.661 41.2766   2
 -33  33   0 1547.10 69.7215   2
 -33  33   3 230.605 34.0044   2
 -17  34   0 17.5676 21.4602   2
 -17  34   3 154.872 29.9857   2
 -17  34  -3 126.958 26.5099   2
 -17  34  -6-12.8842 19.8261   2
 -17  34   6 27.0367 27.8605   2
 -18  34  -7 259.026 31.6349   2
 -16 -18  -7 245.998 34.2640   1
 -16  34   7 221.318 38.0818   2
 -16  34   4 90.7887 30.0417   2
 -18  34  -4 105.898 26.4254   2
 -16  34   1 128.705 28.7129   2
 -18  34  -1 156.359 28.5933   2
 -16  34  -2 979.774 54.3374   2
 -34  18   2 912.188 53.2119   2
 -18  34   2 955.395 56.9834   2
 -16  34  -5 604.044 44.2564   2
 -18  34   5 644.805 50.7065   2
 -34  18   5 626.585 49.5075   2
 -18  34   8 254.523 39.0012   2
 -16  34  -8 215.568 29.4582   2
 -15 -19  -8 322.201 37.4241   1
 -15  34   8 370.907 46.2399   2
 -19  34  -5 816.922 48.9466   2
 -15 -19  -5 807.295 44.9495   1
 -15  34   5 920.700 59.5604   2
 -15  34   2 937.729 58.6175   2
 -19  34  -2 906.566 52.0169   2
 -19  34   1 65.6381 25.0948   2
 -15  34  -1 37.3942 22.9821   2
 -34  19   1 48.5584 22.4108   2
 -15  34  -4 51.0133 24.4334   2
 -34  19   4 14.3432 22.7908   2
 -19  34   4 38.5425 24.5760   2
 -19  34   7 171.081 34.8955   2
 -15  34  -7 154.192 28.1550   2
 -34  19   7 112.351 28.3082   2
 -14 -20  -9 12.3351 24.3360   1
 -20  34  -6 838.832 49.0050   2
 -14 -20  -6 759.132 46.5032   1
 -14  34   6 785.724 56.9437   2
 -14  34   3 559.314 46.4736   2
 -20  34  -3 553.837 42.3205   2
 -20  34   0-7.38342 21.5784   2
 -14  34   0 3.19512 21.1665   2
 -34  20   0 18.7264 18.7194   2
 -14  34  -3 337.426 36.4637   2
 -34  20   3 232.125 32.7182   2
 -20  34   3 338.867 38.0349   2
 -20  34   6 635.058 51.3652   2
 -34  20   6 653.742 50.9636   2
 -21  34  -7 286.063 31.3465   2
 -13  34   7 278.601 40.6901   2
 -13 -21  -7 289.101 34.9974   1
 -13  34   4 161.897 30.8013   2
 -21  34  -4 125.465 25.8011   2
 -21  34  -1 249.064 31.8838   2
 -13  34   1 285.649 36.7172   2
 -34  21  -1 297.663 31.1325   2
 -13  34  -2 237.573 34.2087   2
 -34  21   2 196.010 29.1723   2
 -21  34   2 267.940 36.6983   2
 -21  34   5 225.156 36.4815   2
 -34  21   5 188.173 34.8877   2
 -12 -22  -8 95.5527 29.0228   1
  12  22   8 83.7327 24.7886   2
 -12  34   8 116.573 30.6068   2
 -12  34   5 28.6935 24.9520   2
 -22  34  -5 33.4838 28.4956   2
 -12 -22  -5 13.6531 16.9171   1
 -12  34   2 700.704 50.9771   2
 -34  22  -2 627.946 39.8092   2
 -22  34  -2 635.659 45.6726   2
 -12  34  -1 1270.47 63.2795   2
 -22  34   1 1284.21 62.6102   2
 -34  22   1 1214.08 58.1714   2
 -22  34   4 2920.09 99.5593   2
 -34  22   4 2849.23 96.1791   2
 -22  34   7 625.760 53.1107   2
 -34  22   7 629.549 52.3740   2
 -11 -23  -9 37.1411 23.9637   1
 -11  34   6 77.8343 26.5879   2
 -23  34  -6 113.647 22.6762   2
 -11 -23  -6 97.5963 22.2967   1
 -23  34  -3 305.155 32.8880   2
 -11  34   3 314.972 37.1808   2
 -11 -23  -3 311.070 25.1843   1
 -34  23  -3 318.778 29.2966   2
 -11  34   0 96.0890 27.9970   2
 -23  34   0 123.564 28.4957   2
 -34  23   0 99.9617 22.7387   2
 -23  34   3 1736.71 75.1002   2
 -34  23   3 1505.36 69.9919   2
 -23  34   6 119.763 30.0327   2
 -34  23   6 144.639 32.9790   2
 -10 -24  -7-15.2755 22.3429   1
  10  24   7-26.8690 23.6073   2
 -10  34   7-39.9906 43.0379   2
 -10  34   4 7.28800 23.9121   2
 -10 -24  -4-27.5794 18.3179   1
 -34  24  -4 13.2550 17.3299   2
 -24  34  -4-21.0280 21.6249   2
 -10  34   1 192.402 30.9835   2
 -24  34  -1 209.589 30.8130   2
 -34  24  -1 165.287 25.9014   2
 -24  34   2 201.145 33.0225   2
 -34  24   2 119.754 27.8430   2
 -24  34   5 45.3692 29.1813   2
 -34  24   5 36.5693 24.1780   2
   9  25   8 268.632 33.3350   2
  -9  34   8 230.469 36.4422   2
  -9  34   5 2417.77 94.2490   2
  -9 -25  -5 2464.93 77.0893   1
 -25  34  -5 2538.41 79.6612   2
  -9  34   2 2385.30 88.7431   2
 -25  34  -2 2380.30 81.4318   2
 -34  25  -2 2192.23 73.0748   2
 -25  34   1 4321.16 116.414   2
 -34  25   1 4229.28 110.775   2
 -25  34   4 2981.23 100.831   2
 -34  25   4 2825.18 96.6362   2
 -34  25   7 925.913 60.6752   2
  -8 -26  -9 23.5415 24.9415   1
  -8  34   6 7.84248 25.7670   2
   8  26   6 59.6601 24.8263   2
  -8 -26  -6 39.6742 20.1655   1
  -8 -26  -3 403.751 28.7452   1
 -26  34  -3 465.064 38.7861   2
  -8  34   3 443.163 42.8551   2
 -34  26  -3 500.763 35.9879   2
 -34  26   0 81.8645 23.8978   2
 -26  34   0 66.8901 24.7562   2
 -34  26   3 251.636 34.6581   2
 -26  34   3 261.802 34.9868   2
 -26  34   6 75.3964 27.6115   2
 -34  26   6 90.5670 29.5799   2
  -7  34   7 28.1734 25.9798   2
   7  27   7 23.9401 23.5948   2
  -7 -27  -7 34.5147 22.8977   1
  -7  34   4 400.921 43.5697   2
  -7 -27  -4 351.661 30.3107   1
 -27  34  -4 430.731 38.0027   2
 -34  27  -4 413.093 31.1773   2
 -34  27  -1 90.5776 23.7313   2
 -27  34  -1 56.9406 22.1933   2
  -7  34   1 51.7927 23.7615   2
 -34  27   2 78.5491 23.0937   2
 -27  34   2 129.590 27.6311   2
 -34  27   5-28.9102 26.3200   2
 -27  34   5-15.2724 24.7619   2
  -6 -28  -8 836.332 55.3719   1
   6  28   8 867.294 57.1334   2
  -6  34   5 2796.43 102.475   2
 -28  34  -5 2768.86 83.2572   2
  -6 -28  -5 2639.60 81.7189   1
 -28  34  -2 1910.42 74.1163   2
  -6  34   2 2024.45 85.3436   2
 -34  28  -2 1945.76 70.4161   2
 -28  34   1 1110.65 60.7972   2
 -34  28   1 1078.13 59.1858   2
 -34  28   4 40.4063 23.4707   2
 -28  34   4 33.1858 23.7377   2
  -5  34   6 86.7324 29.2816   2
  -5 -29  -6 10.6474 20.2952   1
   5  29   6 108.538 29.8749   2
 -34  29  -3 157.797 24.4469   2
 -29  34  -3 170.799 28.8759   2
  -5  34   3 127.375 32.0298   2
 -34  29   0 58.9089 23.8908   2
 -29  34   0 72.2660 28.0724   2
 -34  29   3 295.740 37.1262   2
 -29  34   3 319.673 38.2471   2
 -34  29   6 816.917 59.1784   2
  -4 -30  -7 328.936 36.9800   1
   4  30   7 280.854 37.6932   2
 -30  34  -4 210.497 29.6209   2
  -4  34   4 181.293 34.9553   2
 -34  30  -1 22.6602 22.0521   2
 -30  34  -1 54.2129 27.8302   2
 -34  30   2 55.2865 26.2506   2
 -30  34   2 17.3288 25.4097   2
 -34  30   5 13.3132 25.5126   2
 -30  34   5 14.7120 24.8876   2
  -3 -31  -8 513.920 46.2569   1
  -3  34   5 53.2758 41.9734   2
   3  31   5 33.1783 26.5402   2
 -34  31  -2 15.7615 19.5347   2
 -31  34  -2 62.8673 25.5056   2
 -34  31   1 688.976 51.2274   2
 -31  34   1 730.095 50.4647   2
 -34  31   4 636.607 49.4532   2
 -31  34   4 627.540 50.2145   2
  -2  34   6 6.98649 25.2896   2
   2  32   6 35.1555 26.8833   2
 -34  32  -3 20.3849 21.1221   2
 -32  34  -3 53.8686 23.8098   2
  -2  34   3 7.94541 27.6306   2
 -34  32   0 309.648 34.7892   2
 -32  34   0 314.856 36.2844   2
 -34  32   3 18.7202 24.1044   2
 -32  34   3-11.9947 26.5839   2
 -33  34  -4 50.7329 23.3038   2
  -1  34   4 74.6661 29.5802   2
   1  33   4 66.2117 31.0110   2
 -34  33  -1 135.901 27.4130   2
 -33  34  -1 179.149 30.2139   2
 -34  33   2 69.1462 25.2323   2
 -33  34   2 19.1960 26.5359   2
 -34  34  -2 1257.00 61.5910   2
 -34  34   1 2425.38 89.3114   2
 -34  34   4 929.961 60.6920   2
 -18  35  -5 279.041 34.6329   2
 -17  35   5 282.761 39.4346   2
 -17  35   2 259.685 35.0785   2
 -18  35  -2 226.949 32.0398   2
 -17  35  -1 1311.58 64.1618   2
 -18  35   1 1366.59 68.2341   2
 -17  35  -4 597.446 44.7340   2
 -18  35   4 560.398 47.7997   2
 -17  35  -7 785.920 49.7387   2
 -18  35   7 820.178 59.9908   2
 -16 -19  -9 234.516 36.3002   1
 -19  35  -6 134.939 26.8128   2
 -16  35   6 133.499 32.6829   2
 -16  35   3 68.5639 29.4698   2
 -19  35  -3 34.9227 21.7722   2
 -19  35   0 230.057 32.2152   2
 -16  35   0 229.828 32.6042   2
 -16  35  -3 380.347 37.0353   2
 -35  19   3 357.246 38.8538   2
 -19  35   3 432.592 42.9198   2
 -19  35   6 353.975 41.6389   2
 -16  35  -6 355.691 36.5319   2
 -20  35  -7 134.017 26.2121   2
 -15  35   7 108.567 31.2608   2
 -15  35   4 154.123 31.3904   2
 -20  35  -4 184.092 31.0077   2
 -15  35   1 1184.72 64.8845   2
 -20  35  -1 1132.66 59.5123   2
 -15  35  -2 516.455 43.8421   2
 -20  35   2 558.139 47.0068   2
 -35  20   2 484.754 42.6844   2
 -15  35  -5 348.199 38.6138   2
 -20  35   5 302.149 40.9326   2
 -35  20   5 313.137 40.4439   2
 -15  35  -8 79.5962 24.1167   2
 -14 -21  -8 41.0516 24.9022   1
 -14  35   5 306.029 39.0765   2
 -14 -21  -5 254.090 27.8923   1
 -21  35  -5 243.081 31.8867   2
 -14  35   2 838.741 56.1475   2
 -35  21  -2 798.068 44.2637   2
 -21  35  -2 828.681 52.7299   2
 -14  35  -1 1010.94 58.4360   2
 -35  21   1 1012.02 55.0433   2
 -21  35   1 973.460 57.1775   2
 -21  35   4 899.143 58.2426   2
 -14  35  -4 890.777 54.1434   2
 -35  21   4 865.654 55.6276   2
 -21  35   7-14.8421 28.3027   2
 -35  21   7 13.5087 25.6383   2
 -22  35  -6 42.9548 22.1408   2
 -13  35   6 25.1377 27.1973   2
 -22  35  -3 114.410 26.1437   2
 -13  35   3 133.533 30.7258   2
 -13  35   0-34.5638 26.8856   2
 -35  22   0 8.72421 21.7076   2
 -22  35   0-26.0582 26.2739   2
 -13  35  -3-12.7614 24.8255   2
 -22  35   3 42.4563 27.6667   2
 -35  22   3 71.3470 26.6954   2
 -22  35   6 82.1028 28.8068   2
 -35  22   6 86.7776 29.8999   2
 -12 -23  -7 85.0129 26.6136   1
  12  23   7 28.3825 21.3796   2
 -12  35   7 35.7028 28.2973   2
 -23  35  -4 269.584 32.5334   2
 -12 -23  -4 295.839 27.0535   1
 -12  35   4 303.212 40.0913   2
 -12  35   1 227.938 34.1321   2
 -35  23  -1 218.577 28.6654   2
 -23  35  -1 215.102 31.4108   2
 -23  35   2 1106.08 61.7787   2
 -12  35  -2 1041.64 60.4413   2
 -35  23   2 994.518 56.8190   2
 -23  35   5 709.905 54.1767   2
 -35  23   5 695.536 53.7110   2
 -11 -24  -8 113.456 28.1709   1
  11  24   8 79.8956 24.3058   2
 -24  35  -5 413.254 36.1528   2
 -11  35   5 386.355 42.9022   2
 -11  35   2 489.717 45.9407   2
 -35  24  -2 435.874 35.1114   2
 -24  35  -2 459.540 39.3850   2
 -11  35  -1 179.304 32.6111   2
 -24  35   1 141.519 28.3994   2
 -35  24   1 120.069 25.7955   2
 -24  35   4 102.156 30.0471   2
 -35  24   4 61.7363 26.2688   2
 -10 -25  -9 89.3351 30.1187   1
 -10  35   6 21.9237 25.6222   2
 -10 -25  -6-13.2841 19.6504   1
 -25  35  -6-33.5093 22.2158   2
 -10  35   3-9.36329 25.8565   2
 -25  35  -3-35.6903 23.8876   2
 -35  25  -3-10.8234 17.4519   2
 -25  35   0 606.915 45.3791   2
 -10  35   0 558.549 46.0586   2
 -35  25   0 530.148 41.0537   2
 -25  35   3 647.624 49.1689   2
 -35  25   3 661.512 49.4538   2
 -25  35   6 630.843 53.1642   2
 -35  25   6 582.779 51.1231   2
  -9  35   7 110.268 31.1621   2
  -9 -26  -7 119.221 26.2069   1
   9  26   7 124.353 28.3056   2
  -9 -26  -4 370.989 29.8930   1
  -9  35   4 336.248 40.7382   2
 -26  35  -4 391.591 35.9958   2
 -35  26  -1 237.416 30.8089   2
  -9  35   1 171.089 33.2058   2
 -26  35  -1 209.771 32.6041   2
 -35  26   2 179.102 31.5257   2
 -26  35   2 188.966 33.2682   2
 -26  35   5-38.5236 25.9057   2
 -35  26   5-21.5520 26.3744   2
  -8 -27  -8 49.5141 25.8516   1
   8  27   8 45.3272 23.4666   2
  -8  35   5 7.77867 25.9751   2
 -27  35  -5 26.2481 20.5223   2
  -8 -27  -5 44.3872 21.1214   1
 -35  27  -2 123.900 24.6482   2
  -8  35   2 110.578 29.0334   2
 -27  35  -2 98.1810 25.5051   2
 -27  35   1 1731.23 74.2089   2
 -35  27   1 1618.05 70.4777   2
 -27  35   4 1338.31 70.3641   2
 -35  27   4 1208.19 66.8113   2
  -7  35   6 423.009 46.2547   2
   7  28   6 398.862 41.6558   2
  -7  35   3 736.168 55.2123   2
 -28  35  -3 663.036 45.8685   2
 -35  28  -3 686.554 41.8357   2
 -28  35   0 1023.52 58.8680   2
 -35  28   0 1070.39 56.6638   2
 -28  35   3 2212.92 87.1578   2
 -35  28   3 2245.39 85.9776   2
   6  29   7 7.10560 22.7233   2
  -6  35   4 23.6930 28.1471   2
 -29  35  -4 22.7905 22.3363   2
 -35  29  -1 62.3534 25.1790   2
 -29  35  -1 64.3700 26.5341   2
  -6  35   1 82.2411 29.3757   2
 -35  29   2 258.668 36.4279   2
 -29  35   2 218.564 35.5876   2
 -35  29   5 232.289 37.9760   2
 -29  35   5 197.557 35.1233   2
   5  30   8 105.675 30.3717   2
  -5  35   5 1186.06 70.5134   2
   5  30   5 1179.46 65.9618   2
 -30  35  -2 1304.23 64.0030   2
  -5  35   2 1217.50 68.4015   2
 -35  30  -2 1199.47 58.0725   2
 -35  30   1 2216.38 83.9421   2
 -30  35   1 2359.47 87.2674   2
 -35  30   4 546.658 48.3563   2
 -30  35   4 486.915 47.1851   2
   4  31   6 238.577 39.9237   2
 -35  31  -3 740.578 45.5163   2
 -31  35  -3 707.964 48.4874   2
  -4  35   3 827.242 58.3970   2
 -35  31   0 587.386 46.0171   2
 -31  35   0 713.950 51.8896   2
 -35  31   3 121.329 31.0155   2
 -31  35   3 143.629 31.8272   2
 -32  35  -4 476.746 38.9861   2
  -3  35   4 537.573 49.7934   2
 -35  32  -1 1017.15 57.4019   2
 -32  35  -1 1114.83 61.2427   2
 -35  32   2 560.943 47.7408   2
 -32  35   2 647.422 49.7815   2
 -35  33  -2 1091.30 58.1770   2
 -33  35  -2 1026.84 57.0883   2
 -35  33   1 934.093 58.6151   2
 -33  35   1 945.822 57.8915   2
 -35  33   4 333.188 41.4330   2
 -35  34  -3 48.6142 24.2925   2
 -34  35  -3 48.2851 23.3446   2
 -35  34   0-18.7702 23.2867   2
 -34  35   0 5.55721 23.7720   2
 -35  34   3-40.8267 30.1322   2
 -34  35   3-48.6367 29.6095   2
 -35  35  -1 225.891 33.7267   2
 -35  35   2-11.9961 22.8594   2
 -18  36   0 245.108 35.1173   2
 -18  36   3 98.0334 27.5467   2
 -18  36  -3 91.0955 25.8982   2
 -18  36  -6 64.4223 24.1620   2
 -18  36   6 17.0929 28.1696   2
 -19  36  -7 276.342 33.3250   2
 -19  36  -4-23.3686 24.4823   2
 -17  36   4 28.8027 24.8898   2
 -17  36   1 189.366 32.6850   2
 -19  36  -1 187.063 31.3497   2
 -17  36  -2 2216.22 84.1798   2
 -19  36   2 2109.19 85.0704   2
 -17  36  -5 1451.75 67.0388   2
 -19  36   5 1558.43 77.7250   2
 -16 -20  -8 2720.54 97.3471   1
 -20  36  -5 2602.23 87.8823   2
 -16  36   5 2791.25 101.454   2
 -20  36  -2 2078.26 80.1438   2
 -16  36   2 2123.89 86.9685   2
 -16  36  -1 522.710 44.6082   2
 -36  20   1 528.935 44.0246   2
 -20  36   1 606.629 48.3595   2
 -16  36  -4 368.307 39.7470   2
 -36  20   4 348.892 40.4757   2
 -20  36   4 349.684 43.6535   2
 -16  36  -7 193.259 30.7799   2
 -15 -21  -9 156.674 34.9983   1
 -21  36  -6 2171.22 79.1933   2
 -15 -21  -6 2116.99 76.2001   1
 -15  36   6 2420.03 96.5175   2
 -15  36   3 3994.15 120.184   2
 -21  36  -3 3801.86 108.102   2
 -15  36   0 3782.46 112.455   2
 -36  21   0 3742.63 102.935   2
 -21  36   0 3712.67 109.707   2
 -15  36  -3 3128.72 99.9028   2
 -21  36   3 3148.59 104.606   2
 -36  21   3 3152.52 102.037   2
 -21  36   6 1028.02 66.0387   2
 -15  36  -6 943.468 56.3807   2
 -36  21   6 952.180 62.3457   2
 -14  36   4 2615.16 97.2055   2
 -22  36  -4 2513.64 86.5825   2
 -14  36   1 2903.78 100.058   2
 -36  22  -1 2872.45 87.2470   2
 -22  36  -1 2791.34 94.6500   2
 -14  36  -2 4612.90 123.057   2
 -22  36   2 4603.32 125.133   2
 -36  22   2 4332.73 117.906   2
 -22  36   5 2197.15 90.8867   2
 -14  36  -5 2113.74 82.1169   2
 -36  22   5 2216.36 89.9690   2
 -13 -23  -8 97.6598 30.2870   1
 -13  36   5 201.651 34.5853   2
 -23  36  -5 248.754 31.5588   2
 -13  36   2 644.016 51.2116   2
 -36  23  -2 637.996 40.6882   2
 -23  36  -2 594.789 45.0192   2
 -13  36  -1 354.233 39.8931   2
 -36  23   1 368.353 38.3207   2
 -23  36   1 308.841 37.8347   2
 -23  36   4 502.566 48.5364   2
 -13  36  -4 437.589 42.6582   2
 -36  23   4 491.582 45.1156   2
 -12 -24  -9 61.6141 30.3182   1
 -12  36   6 520.866 49.1197   2
 -24  36  -6 517.340 40.2143   2
 -12 -24  -6 473.184 38.7867   1
 -12  36   3 129.605 32.1022   2
 -36  24  -3 84.0491 20.6690   2
 -24  36  -3 73.1773 23.0069   2
 -12  36   0 215.490 34.3547   2
 -24  36   0 207.772 31.9797   2
 -36  24   0 234.406 32.4711   2
 -24  36   3-1.76402 23.8380   2
 -12  36  -3 18.1188 22.7644   2
 -36  24   3-39.7081 27.3315   2
 -36  24   6-9.29398 25.1125   2
  11  25   7 15.9723 24.2197   2
 -11  36   4 29.4708 25.7926   2
 -25  36  -4-3.68381 21.9045   2
 -11  36   1 52.4531 26.0908   2
 -25  36  -1 94.9863 25.7270   2
 -36  25  -1 85.8914 22.8035   2
 -25  36   2 795.141 54.2074   2
 -11  36  -2 826.847 56.6684   2
 -36  25   2 808.801 54.6131   2
 -25  36   5 2191.57 91.0278   2
 -36  25   5 1997.88 85.9826   2
  10  26   8 2.95413 21.3056   2
 -10 -26  -8-2.35731 23.3864   1
 -10  36   5-33.0887 29.0785   2
 -26  36  -5-18.1663 21.5347   2
 -10  36   2 102.116 29.7336   2
 -26  36  -2 246.535 31.4442   2
 -36  26  -2 108.871 24.4752   2
 -10  36  -1 600.916 51.7444   2
 -26  36   1 536.100 46.9178   2
 -36  26   1 526.249 42.6681   2
 -26  36   4 504.680 47.1676   2
 -36  26   4 497.959 45.6588   2
  -9 -27  -6 835.001 50.1450   1
   9  27   6 710.458 51.1273   2
  -9  36   3 192.172 34.1860   2
 -27  36  -3 195.687 30.4070   2
 -36  27  -3 190.417 24.9425   2
 -36  27   0 14.5369 21.1602   2
 -27  36   0-16.3430 23.1133   2
  -9  36   0 6.35253 24.9128   2
 -36  27   3-30.4444 25.4136   2
 -27  36   3 74.0299 28.7374   2
   8  28   7 25.4937 25.1880   2
  -8  36   4 26.0740 26.4397   2
 -28  36  -4 29.3045 20.6609   2
 -28  36  -1 847.805 54.3384   2
  -8  36   1 904.609 60.3381   2
 -36  28  -1 919.415 52.5181   2
 -28  36   2 2974.88 101.722   2
 -36  28   2 3010.84 99.9707   2
 -28  36   5 1774.66 82.9733   2
 -36  28   5 1580.28 78.6447   2
   7  29   8 312.833 40.1856   2
  -7  36   5 450.178 47.5691   2
 -29  36  -5 492.572 39.7308   2
 -36  29  -2 267.381 31.7107   2
 -29  36  -2 192.918 30.1960   2
  -7  36   2 212.518 37.7717   2
 -36  29   1 319.373 38.5306   2
 -29  36   1 386.617 42.7146   2
 -36  29   4 86.6578 30.6097   2
 -29  36   4 67.6905 29.3058   2
   6  30   6 1366.96 71.4992   2
  -6  36   3 2710.44 102.737   2
 -30  36  -3 2605.23 88.6604   2
 -36  30  -3 2694.89 82.6998   2
 -30  36   0 3853.89 113.106   2
 -36  30   0 3778.79 107.415   2
 -30  36   3 2993.62 104.196   2
 -36  30   3 2938.65 101.559   2
  -5  36   4 2930.44 108.962   2
 -31  36  -4 3038.12 93.1935   2
 -31  36  -1 6482.46 147.252   2
 -36  31  -1 6681.78 143.880   2
 -31  36   2 5531.58 141.330   2
 -36  31   2 5387.89 136.809   2
   4  32   5 20.6143 25.5014   2
 -36  32  -2 205.977 31.0044   2
 -32  36  -2 228.763 35.0055   2
  -4  36   2 338.433 43.9340   2
 -36  32   1 681.905 51.3693   2
 -32  36   1 705.350 51.9206   2
 -36  32   4 719.620 55.3469   2
 -36  33  -3 1230.37 58.5914   2
 -33  36  -3 1232.85 62.3692   2
 -36  33   0 999.965 58.6207   2
 -33  36   0 1024.65 60.8420   2
 -36  33   3 166.729 32.9887   2
 -33  36   3 156.323 33.8702   2
 -36  34  -1 330.547 38.0049   2
 -34  36  -1 320.146 37.2302   2
 -36  34   2 7.18801 24.2288   2
 -34  36   2 14.4607 24.5027   2
 -36  35  -2 74.7086 25.8701   2
 -35  36  -2 100.197 28.7657   2
 -36  35   1 38.8099 28.6403   2
 -35  36   1 35.0934 25.8235   2
 -36  36   0 789.116 55.5055   2
 -19  37  -5 81.2323 25.4366   2
 -18  37   5 84.0666 29.2621   2
 -18  37   2 325.273 40.9192   2
 -19  37  -2 330.577 38.5308   2
 -18  37  -1 995.244 59.5260   2
 -19  37   1 920.611 59.0645   2
 -18  37  -4 1515.22 69.4704   2
 -19  37   4 1582.74 78.2097   2
 -18  37  -7 928.095 54.7136   2
 -20  37  -6 51.1355 23.6773   2
 -17  37   3-31.0305 25.5589   2
 -20  37  -3-20.8689 23.8041   2
 -20  37   0 143.805 29.6933   2
 -17  37   0 79.8992 26.8186   2
 -17  37  -3 1113.51 61.0525   2
 -20  37   3 1184.71 67.1743   2
 -17  37  -6 949.044 56.1250   2
 -16  37   4 385.698 44.4792   2
 -21  37  -4 372.944 39.3379   2
 -21  37  -1 61.8445 25.7559   2
 -16  37   1 81.0061 27.4579   2
 -16  37  -2 89.7166 29.8953   2
 -37  21   2 32.0582 24.9566   2
 -21  37   2 78.4544 27.8630   2
 -16  37  -5-6.85458 23.6182   2
 -21  37   5-4.25144 25.4712   2
 -37  21   5-58.2074 29.9366   2
 -15  37   5 35.9580 28.9818   2
 -22  37  -5-12.4442 21.4577   2
 -22  37  -2 191.703 31.0247   2
 -15  37   2 244.798 37.7041   2
 -15  37  -1 1086.83 64.0745   2
 -37  22   1 1023.28 58.3992   2
 -22  37   1 1031.01 62.1663   2
 -15  37  -4 438.609 43.7071   2
 -22  37   4 527.992 48.6877   2
 -37  22   4 388.060 43.1375   2
 -15  37  -7 95.2012 25.4506   2
 -23  37  -6-13.1212 21.8594   2
 -23  37  -3-2.84126 22.2029   2
 -14  37   3 24.6782 27.4292   2
 -14  37   0 150.796 32.9405   2
 -37  23   0 71.8171 23.1281   2
 -23  37   0 138.557 29.5051   2
 -14  37  -3 8.99203 23.5636   2
 -23  37   3 1.56826 24.2591   2
 -37  23   3-57.8147 27.4157   2
 -14  37  -6-23.1902 23.3243   2
 -13 -24  -7 302.623 36.7947   1
  13  24   7 201.883 33.2721   2
 -24  37  -4 132.859 28.9339   2
 -13  37   4 137.421 31.3029   2
 -13  37   1 1042.26 62.8344   2
 -24  37  -1 1044.06 68.8273   2
 -37  24  -1 1043.45 54.5707   2
 -13  37  -2 734.374 53.1261   2
 -24  37   2 791.623 55.8065   2
 -37  24   2 807.105 53.0379   2
 -24  37   5 1151.04 67.8610   2
 -37  24   5 1116.80 66.9157   2
 -12  37   5 445.901 46.8056   2
 -25  37  -5 481.788 39.4086   2
 -12  37   2 346.226 40.4995   2
 -37  25  -2 310.908 31.4534   2
 -25  37  -2 225.024 31.2253   2
 -12  37  -1 534.453 47.0103   2
 -25  37   1 468.436 44.1808   2
 -37  25   1 429.353 40.5899   2
 -25  37   4 171.886 35.8721   2
 -37  25   4 156.436 32.6570   2
 -11  37   3-11.9438 27.6111   2
 -26  37  -3-34.1186 25.0744   2
 -37  26  -3-19.0950 20.4402   2
 -11  37   0 21.6616 23.9177   2
 -26  37   0 1.76241 26.2824   2
 -37  26   0 3.45851 23.0162   2
 -26  37   3 123.037 29.0024   2
 -37  26   3 126.793 30.2181   2
  10  27   7 39.5825 24.1036   2
 -10  37   4-12.8731 27.7619   2
 -27  37  -4-37.4985 25.2514   2
 -10  37   1 18.3619 24.9869   2
 -27  37  -1-24.4664 24.5377   2
 -37  27  -1-30.2969 23.4037   2
 -27  37   2 20.5567 23.9591   2
 -37  27   2 3.88404 23.5743   2
 -37  27   5 50.3167 27.8769   2
 -28  37  -5 65.4947 23.5522   2
  -9  37   2 402.791 44.8913   2
 -28  37  -2 418.637 41.0559   2
 -37  28  -2 405.079 35.8990   2
 -28  37   1 1276.59 67.3625   2
  -9  37  -1 1324.90 69.9298   2
 -37  28   1 1356.47 67.1997   2
 -28  37   4 1165.62 69.1487   2
 -37  28   4 1132.39 65.6518   2
   8  29   6 294.032 39.3615   2
  -8  37   3 630.402 52.9463   2
 -29  37  -3 638.988 46.8967   2
 -37  29  -3 629.249 41.8911   2
 -29  37   0 1423.49 70.7021   2
  -8  37   0 1481.52 74.2901   2
 -37  29   0 1380.76 66.8851   2
 -29  37   3 1445.81 75.2440   2
 -37  29   3 1441.14 73.6211   2
 -30  37  -4 4.33229 20.9144   2
 -37  30  -1 24.0881 24.0184   2
 -30  37  -1 49.2283 27.2175   2
  -7  37   1 121.266 34.8916   2
 -37  30   2 21.4113 26.1035   2
 -30  37   2 56.3251 28.3513   2
   6  31   5 300.294 39.6392   2
 -31  37  -2 1444.00 69.3349   2
  -6  37   2 1494.14 78.9162   2
 -37  31  -2 1509.07 66.1037   2
 -31  37   1 898.296 58.5591   2
 -37  31   1 863.189 56.0715   2
 -37  31   4 647.440 53.4563   2
 -32  37  -3 216.714 32.9547   2
 -37  32   0 390.977 39.6576   2
 -32  37   0 350.312 40.4067   2
 -37  32   3 268.757 39.1144   2
 -32  37   3 240.919 37.0695   2
 -37  33  -1 1076.85 60.5529   2
 -33  37  -1 1036.29 60.6321   2
 -37  33   2 441.862 44.9316   2
 -33  37   2 501.454 47.1111   2
 -37  34  -2 1700.39 71.6566   2
 -34  37  -2 1567.77 72.0806   2
 -37  34   1 552.538 48.0380   2
 -34  37   1 536.005 48.0613   2
 -35  37  -3 20.1431 22.9760   2
 -37  35   0 287.803 36.7615   2
 -35  37   0 194.026 31.4713   2
 -37  36  -1 253.931 35.2379   2
 -36  37  -1 211.735 33.0992   2
 -37  37  -2-15.2009 21.1696   2
 -37  37   1 54.9776 29.1250   2
 -19  38   0 247.895 36.6656   2
 -19  38  -3 10.9356 22.9401   2
 -19  38   3 11.2169 25.7480   2
 -19  38  -6 11.2694 21.7387   2
 -20  38  -4 391.850 39.4615   2
 -18  38   4 398.677 45.5913   2
 -18  38   1 385.728 43.1139   2
 -20  38  -1 394.916 42.8074   2
 -20  38   2 242.893 36.2721   2
 -18  38  -2 204.467 32.8056   2
 -18  38  -5 28.9745 22.6969   2
 -21  38  -5 114.507 29.3950   2
 -17  38   2 278.460 38.5354   2
 -21  38  -2 278.879 36.4927   2
 -21  38   1 211.335 34.6984   2
 -17  38  -1 236.537 35.7307   2
 -17  38  -4 46.7593 23.3388   2
 -21  38   4 76.1005 28.2420   2
 -17  38  -7-26.5533 23.0969   2
 -22  38  -6 400.602 39.0936   2
 -16  38   3 405.457 43.8285   2
 -22  38  -3 371.938 41.9410   2
 -22  38   0-33.2591 27.7023   2
 -16  38   0 8.54652 25.4743   2
 -16  38  -3 228.416 34.8996   2
 -38  22   3 193.256 32.6074   2
 -22  38   3 251.216 40.2040   2
 -16  38  -6 538.601 45.3012   2
 -15  38   4 355.024 43.9079   2
 -23  38  -4 283.291 35.4069   2
 -23  38  -1-0.31733 23.0631   2
 -15  38   1 3.52869 24.6118   2
 -15  38  -2-15.0717 25.5689   2
 -38  23   2-51.7878 29.2102   2
 -23  38   2-38.7831 26.4253   2
 -15  38  -5 56.3494 25.8440   2
 -38  23   5 79.7467 29.4101   2
 -24  38  -5 3.47225 22.0514   2
 -14  38   2 216.582 37.3445   2
 -38  24  -2 199.534 27.8058   2
 -24  38  -2 248.930 34.8129   2
 -14  38  -1 626.282 49.7675   2
 -38  24   1 461.862 42.0552   2
 -24  38   1 526.633 46.4811   2
 -24  38   4 1167.28 68.6768   2
 -14  38  -4 1080.61 62.9872   2
 -38  24   4 1033.44 65.1325   2
 -14  38  -7 138.075 29.9088   2
 -13  38   3-60.0664 31.8082   2
 -25  38  -3-30.0637 24.8303   2
 -13  38   0 752.912 54.8400   2
 -38  25   0 622.548 46.9318   2
 -25  38   0 599.171 47.7060   2
 -13  38  -3 703.326 53.5754   2
 -25  38   3 587.685 51.1539   2
 -38  25   3 502.620 44.3726   2
  12  26   7 29.2339 24.0451   2
 -26  38  -4-17.9930 25.9536   2
 -12  38   1 10.4201 25.7425   2
 -26  38  -1-38.2930 27.6753   2
 -38  26  -1-21.1489 35.4865   2
 -26  38   2 29.6542 27.6587   2
 -12  38  -2-6.79146 25.6854   2
 -38  26   2 14.8959 26.2179   2
 -27  38  -5 308.474 34.2803   2
 -11  38   2 653.591 53.8951   2
 -27  38  -2 649.417 48.7260   2
 -38  27  -2 598.387 42.4923   2
 -27  38   1 1987.79 85.4443   2
 -11  38  -1 2178.39 89.6422   2
 -38  27   1 2040.82 80.9829   2
 -38  27   4 1471.83 76.3732   2
  10  28   6 46.6850 28.1216   2
 -28  38  -3-36.9024 26.7711   2
 -28  38   0 324.502 38.0751   2
 -10  38   0 343.464 43.6762   2
 -38  28   0 323.636 35.1328   2
 -28  38   3 355.226 42.0622   2
 -38  28   3 282.621 38.2400   2
 -29  38  -4 105.551 26.1042   2
 -29  38  -1-39.9714 26.2968   2
  -9  38   1 64.1348 30.4050   2
 -38  29  -1-14.5968 22.8447   2
 -29  38   2-30.7255 25.8147   2
 -38  29   2-5.67341 23.8729   2
 -30  38  -2 759.268 52.6223   2
 -38  30  -2 873.379 51.0879   2
 -38  30   1 542.309 46.4064   2
 -30  38   1 599.538 49.6500   2
 -31  38  -3 54.8078 25.8537   2
 -38  31   0-5.76019 22.2609   2
 -31  38   0 0.87222 24.5754   2
 -38  31   3 23.4609 25.7494   2
 -38  32  -1-4.77417 22.5410   2
 -32  38  -1 0.21585 24.7182   2
 -38  32   2 57.3021 26.3382   2
 -32  38   2 9.16423 24.8120   2
 -38  33  -2 152.450 29.0257   2
 -33  38  -2 183.145 31.7140   2
 -38  33   1 260.670 36.1166   2
 -33  38   1 218.630 35.1806   2
 -34  38  -3 135.276 30.0855   2
 -38  34   0 110.032 29.9973   2
 -34  38   0-12.5297 24.3884   2
 -38  35  -1 14.7419 23.3999   2
 -35  38  -1 19.9818 23.8910   2
 -38  36  -2 1012.80 58.4523   2
 -36  38  -2 1041.09 60.6457   2
 -38  36   1 811.363 58.0626   2
 -38  37   0 49.2169 26.1843   2
 -37  38   0 6.10170 27.6366   2
 -38  38  -1 60.7743 26.2739   2
 -20  39  -5 186.247 32.9284   2
 -19  39   2 567.723 50.7713   2
 -20  39  -2 509.007 46.1199   2
 -19  39  -1 1063.45 65.6420   2
 -20  39   1 996.044 64.2403   2
 -19  39  -4 221.756 34.4278   2
 -21  39  -6 27.5974 24.3142   2
 -18  39   3 37.7634 29.5056   2
 -21  39  -3 47.8430 25.1190   2
 -21  39   0 81.5819 30.4350   2
 -18  39   0 60.8636 29.4160   2
 -18  39  -3-2.14984 25.5603   2
 -21  39   3-38.1871 28.6435   2
 -18  39  -6 87.1763 27.6449   2
 -22  39  -4 2418.28 91.2915   2
 -17  39   1 1878.77 85.0925   2
 -22  39  -1 1655.11 78.0515   2
 -17  39  -2 752.756 53.5263   2
 -22  39   2 766.122 56.6576   2
 -17  39  -5 4.43050 25.5235   2
 -23  39  -5 1587.29 72.7667   2
 -23  39  -2 564.629 47.7662   2
 -16  39   2 617.172 52.7924   2
 -16  39  -1 704.139 52.9313   2
 -23  39   1 719.357 55.3994   2
 -39  23   1 681.802 49.9659   2
 -16  39  -4 0.09201 24.1141   2
 -39  23   4 1.59596 27.8527   2
 -16  39  -7 283.204 35.4437   2
 -24  39  -3 348.910 38.1626   2
 -15  39   0 403.722 43.4517   2
 -39  24   0 427.567 39.8814   2
 -24  39   0 409.440 42.0939   2
 -15  39  -3 688.409 53.4640   2
 -39  24   3 671.688 52.2309   2
 -24  39   3 681.749 53.2829   2
 -15  39  -6 70.5461 26.1053   2
  14  25   7 645.836 51.5606   2
 -25  39  -4 29.9712 22.3315   2
 -14  39   1 231.532 35.0803   2
 -39  25  -1 176.013 28.0513   2
 -25  39  -1 194.138 32.0485   2
 -14  39  -2 947.223 60.5278   2
 -25  39   2 926.207 60.5045   2
 -39  25   2 885.735 57.3661   2
 -14  39  -5 982.462 60.4603   2
 -26  39  -5 78.9320 27.2308   2
 -13  39   2 115.332 33.3219   2
 -39  26  -2 77.6537 21.7003   2
 -26  39  -2 113.531 27.1025   2
 -13  39  -1 554.768 49.1749   2
 -26  39   1 568.636 49.1814   2
 -39  26   1 542.727 46.0826   2
 -13  39  -4 1200.71 66.6659   2
 -39  26   4 1339.17 72.6290   2
 -27  39  -3 5.71587 24.2372   2
 -12  39   0 341.927 40.3664   2
 -27  39   0 279.238 37.7102   2
 -39  27   0 318.562 36.7963   2
 -12  39  -3 150.929 32.4531   2
 -39  27   3 123.227 29.3271   2
 -28  39  -4 132.648 27.3319   2
 -28  39  -1 505.049 46.5802   2
 -39  28  -1 419.276 38.1346   2
 -28  39   2 647.313 52.0491   2
 -11  39  -2 580.072 50.2256   2
 -39  28   2 525.332 46.1658   2
 -29  39  -2 50.6545 26.0094   2
 -39  29  -2 5.92467 19.8301   2
 -29  39   1 196.061 34.1836   2
 -39  29   1 233.038 34.8660   2
 -30  39  -3 463.927 43.1106   2
 -30  39   0 296.803 37.9051   2
 -39  30   0 193.799 31.8517   2
 -39  30   3 59.3434 26.8830   2
 -31  39  -4 793.540 52.1065   2
 -31  39  -1 762.585 54.5892   2
 -39  31  -1 813.231 51.8895   2
 -39  31   2 733.043 54.0020   2
 -39  32  -2 353.989 36.7544   2
 -32  39  -2 394.464 42.3448   2
 -39  32   1 342.440 40.7855   2
 -32  39   1 392.053 43.6217   2
 -33  39  -3 154.878 30.1561   2
 -33  39   0 826.176 57.6020   2
 -39  33   0 876.711 56.6374   2
 -39  34  -1 162.112 30.6596   2
 -34  39  -1 106.887 28.7359   2
 -35  39  -2-6.51411 22.4452   2
 -39  35   1 13.3163 24.6970   2
 -39  36   0 589.117 50.1052   2
 -39  37  -1 4.82770 22.3953   2
 -37  39  -1 75.9908 29.4222   2
 -20  40   0 2644.33 100.468   2
 -20  40  -3 1582.78 76.9695   2
 -20  40  -6 372.163 41.0620   2
 -21  40  -4 230.968 35.6435   2
 -19  40   1 119.318 33.0997   2
 -21  40  -1 132.241 32.4912   2
 -19  40  -2 23.2345 27.6162   2
 -21  40   2 25.4820 28.5839   2
 -19  40  -5 79.2524 27.4608   2
 -22  40  -5 24.3227 23.2837   2
 -22  40  -2 250.146 36.7191   2
 -18  40  -1 543.753 51.1241   2
 -22  40   1 563.221 50.5706   2
 -18  40  -4 167.251 31.9416   2
 -23  40  -3 457.117 46.0262   2
 -17  40   0 832.839 59.1255   2
 -23  40   0 719.714 54.6739   2
 -17  40  -3 103.204 31.3811   2
 -17  40  -6 30.2364 24.4621   2
 -24  40  -4 39.6813 25.1705   2
 -16  40   1 23.6031 26.9982   2
 -24  40  -1 31.6713 25.0504   2
 -16  40  -2 90.0614 29.7797   2
 -40  24   2 66.4656 26.8444   2
 -24  40   2 98.9059 31.6725   2
 -16  40  -5 505.948 46.2653   2
 -25  40  -5 333.309 38.6403   2
 -25  40  -2 259.458 36.1553   2
 -15  40  -1 307.974 39.5001   2
 -40  25   1 340.810 39.7421   2
 -25  40   1 358.692 43.1460   2
 -15  40  -4 265.496 38.2783   2
 -26  40  -3 34.3594 25.3635   2
 -26  40   0 16.9729 27.9150   2
 -40  26   0 45.1479 25.6768   2
 -14  40  -3 136.149 32.5917   2
 -40  26   3 159.405 33.5621   2
 -27  40  -4 75.0964 26.7439   2
 -27  40  -1-22.0304 25.4731   2
 -40  27  -1-35.1532 26.5599   2
 -40  27   2 2.47251 25.3525   2
 -28  40  -2 8.67927 23.7204   2
 -28  40   1 9.27392 25.2871   2
 -40  28   1-4.03090 23.8212   2
 -29  40  -3 548.458 47.3840   2
 -29  40   0 228.306 37.0900   2
 -40  29   0 208.216 33.9747   2
 -30  40  -4 5.43852 22.5470   2
 -30  40  -1 14.8218 24.5824   2
 -40  30  -1-2.10154 23.0569   2
 -40  30   2-7.66723 24.8213   2
 -31  40  -2 0.07468 24.2692   2
 -40  31   1 5.13150 26.0374   2
 -32  40  -3 162.326 32.1481   2
 -32  40   0-5.99678 25.5872   2
 -40  32   0-1.29636 23.5296   2
 -40  33  -1-25.0964 24.8916   2
 -33  40  -1 10.0518 27.2311   2
 -34  40  -2 45.8634 26.1340   2
 -40  34   1 48.8737 27.2671   2
 -40  35   0 15.4564 23.6372   2
 -40  36  -1 359.703 41.2766   2
 -21  41  -5 867.251 57.7580   2
 -21  41  -2 618.283 53.1263   2
 -20  41  -1 386.846 44.2873   2
 -20  41  -4 74.4160 30.3508   2
 -22  41  -3 15.2868 26.9390   2
 -22  41   0 77.8949 29.7806   2
 -19  41  -3 773.320 57.8962   2
 -19  41  -6 739.649 54.5699   2
 -23  41  -4 32.8876 22.9785   2
 -23  41  -1 22.6786 26.2747   2
 -18  41  -2 256.388 38.6374   2
 -18  41  -5 175.202 34.2246   2
 -24  41  -5 78.2460 27.8192   2
 -24  41  -2 232.247 37.3640   2
 -17  41  -4 129.609 33.0355   2
 -25  41  -3 2047.78 86.9819   2
 -25  41   0 2292.33 93.6991   2
 -41  25   3 2860.68 106.428   2
 -26  41  -4 373.318 41.8837   2
 -26  41  -1 723.945 55.6702   2
 -41  26   2 778.504 56.9026   2
 -27  41  -2 30.5033 26.2786   2
 -41  27   1 0.01886 25.4725   2
 -28  41  -3 421.972 45.0929   2
 -28  41   0 316.343 42.3815   2
 -41  28   0 278.861 37.5228   2
 -29  41  -4 23.9735 23.8289   2
 -29  41  -1 56.0513 28.2068   2
 -41  29  -1 41.3989 25.6943   2
 -41  29   2-17.4768 26.2374   2
 -30  41  -2 115.069 29.4369   2
 -41  30   1-4.62886 23.0142   2
 -31  41  -3 287.771 36.9318   2
 -41  31   0 113.511 28.6015   2
 -32  41  -1 528.309 48.1268   2
 -41  32  -1 479.871 42.7841   2
 -33  41  -2 178.643 35.2656   2
 -41  33   1 152.174 32.9431   2
 -41  34   0 524.370 47.5556   2
 -22  42  -4 14.2848 26.0561   2
 -23  42  -5 31.9732 25.7009   2
 -24  42  -3-0.67006 27.1517   2
 -25  42  -4 474.426 46.0751   2
 -26  42  -2 775.656 58.6938   2
 -27  42  -3 46.3404 27.7596   2
 -42  27   0-3.92191 22.7866   2
 -28  42  -4 1329.08 71.6493   2
 -42  28  -1 893.875 56.2580   2
 -29  42  -2 629.317 53.3734   2
 -42  29   1 285.077 37.0967   2
 -30  42  -3 121.369 31.4820   2
 -42  30   0 285.758 37.6069   2
 -42  31  -1 25.9698 24.0619   2
 -42  33   0 62.4320 27.8411   2
 -43  28   1 174.966 33.5465   2
 -43  29   0 2.85863 24.2037   2
   0   0   0    0.00    0.00   0
 
TITL 57e in R-3m
REM R-3m (#166 in standard setting)
CELL 0.71073  32.058293  32.058293  11.502966  90.0000  90.0000 120.0000
ZERR    6.00   0.000797   0.000797   0.000312   0.0000   0.0000   0.0000
LATT  3
SYMM -y, x-y, z
SYMM -x+y,-x, z
SYMM  y, x,-z
SYMM  x-y,-y,-z
SYMM -x,-x+y,-z
SFAC C H N O S Zn
UNIT 216.00 72.00 36.00 144.00 36.00 72.00
TREF
HKLF 4
END
;
_shelx_hkl_checksum              3692
_shelx_fab_file
;
    0    0    3    140.29      0.00
    0    0    6    -56.14      0.00
    0    0    9    -11.42      0.00
    0    0   12     -5.83      0.00
    0    0   15     -2.44      0.00
    0    1   14     -3.13      0.00
    0    1   11     -4.01      0.00
    0    1    8    -11.85      0.00
    0    1    5    -19.60      0.00
    0    1    2    194.30      0.00
   -1    1    4     -9.57      0.00
   -1    1    7    -17.49      0.00
   -1    1   10      1.10      0.00
   -1    1   13     -2.73      0.00
   -1    2    3    -15.14      0.00
   -1    2    6      4.65      0.00
   -1    2    9      2.82      0.00
   -1    2   12      0.20      0.00
   -1    2   15      0.04      0.00
    0    2   13     -2.57      0.00
    0    2   10     -7.05      0.00
    0    2    7      4.64      0.00
    0    2    4     41.60      0.00
   -2    2    2   -121.56      0.00
   -2    2    5    -16.22      0.00
   -2    2    8     21.76      0.00
   -2    2   11      8.73      0.00
   -2    2   14      2.60      0.00
   -1    3   14      0.12      0.00
   -1    3   11     -3.65      0.00
   -1    3    8     -0.59      0.00
   -1    3    5     33.49      0.00
   -1    3    2    -96.74      0.00
   -2    3    4    -40.79      0.00
   -2    3    7     20.20      0.00
   -2    3   10     11.84      0.00
   -2    3   13      5.59      0.00
    0    3   15     -2.45      0.00
    0    3   12     -7.53      0.00
    0    3    9    -18.16      0.00
    0    3    6     23.63      0.00
    0    3    3     31.65      0.00
   -3    3    3    -94.99      0.00
   -3    3    6     11.38      0.00
   -3    3    9     18.10      0.00
   -3    3   12      8.92      0.00
   -3    3   15      1.95      0.00
   -2    4    3    -31.92      0.00
   -2    4    6     -2.84      0.00
   -2    4    9      0.78      0.00
   -2    4   12      4.15      0.00
   -2    4   15      1.22      0.00
   -1    4   13     -0.77      0.00
   -1    4   10     -9.67      0.00
   -1    4    7     -6.42      0.00
   -1    4    4     21.88      0.00
   -3    4    2    -26.65      0.00
   -3    4    5     -4.96      0.00
   -3    4    8      5.30      0.00
   -3    4   11      4.92      0.00
   -3    4   14      1.59      0.00
    0    4   14     -3.37      0.00
    0    4   11    -13.17      0.00
    0    4    8    -11.47      0.00
    0    4    5     11.99      0.00
    0    4    2     61.08      0.00
   -4    4    1    112.04      0.00
   -4    4    4     22.47      0.00
   -4    4    7      0.44      0.00
   -4    4   10     -3.55      0.00
   -4    4   13     -0.18      0.00
   -2    5   14      2.05      0.00
   -2    5   11      4.26      0.00
   -2    5    8     -8.26      0.00
   -2    5    5    -22.05      0.00
   -2    5    2      1.93      0.00
   -3    5    1     39.00      0.00
   -3    5    4      6.06      0.00
   -3    5    7    -17.52      0.00
   -3    5   10      2.07      0.00
   -3    5   13      1.18      0.00
   -1    5   15     -0.68      0.00
   -1    5   12     -3.15      0.00
   -1    5    9     -3.09      0.00
   -1    5    6    -10.49      0.00
   -1    5    3     10.04      0.00
   -1    5    0    159.63      0.00
   -4    5    3     92.83      0.00
   -4    5    6     -1.88      0.00
   -4    5    9    -11.78      0.00
   -4    5   12     -5.55      0.00
   -4    5   15     -2.06      0.00
    0    5   13     -5.59      0.00
    0    5   10     -3.24      0.00
    0    5    7      9.32      0.00
    0    5    4     -8.85      0.00
    0    5    1    163.15      0.00
   -5    5    2    171.18      0.00
   -5    5    5     31.10      0.00
   -5    5    8    -11.23      0.00
   -5    5   11    -13.43      0.00
   -5    5   14     -4.79      0.00
   -3    6    0     14.40      0.00
   -3    6    3     -0.97      0.00
   -3    6    6    -21.72      0.00
   -3    6    9      1.69      0.00
   -3    6   12      4.74      0.00
   -3    6   15      1.52      0.00
   -2    6   13      5.29      0.00
   -2    6   10      9.88      0.00
   -2    6    7     -3.19      0.00
   -2    6    4    -33.87      0.00
   -2    6    1     24.91      0.00
   -4    6    2     70.37      0.00
   -4    6    5      7.09      0.00
   -4    6    8    -10.18      0.00
   -4    6   11     -4.46      0.00
   -4    6   14     -3.44      0.00
   -1    6   14     -0.85      0.00
   -1    6   11      1.64      0.00
   -1    6    8     15.09      0.00
   -1    6    5     -7.71      0.00
   -1    6    2     31.61      0.00
   -5    6    1    107.85      0.00
   -5    6    4     31.63      0.00
   -5    6    7      3.56      0.00
   -5    6   10     -9.94      0.00
   -5    6   13     -6.85      0.00
    0    6   15     -0.88      0.00
    0    6   12     -6.40      0.00
    0    6    9     11.70      0.00
    0    6    6     18.62      0.00
    0    6    3     11.86      0.00
    0    6    0     62.75      0.00
   -6    6    3     -7.55      0.00
   -6    6    6     16.19      0.00
   -6    6    9      0.50      0.00
   -6    6   12     -4.00      0.00
   -3    7   14      4.24      0.00
   -3    7   11      9.28      0.00
   -3    7    8      4.55      0.00
   -3    7    5     -4.83      0.00
   -3    7    2    -45.07      0.00
   -4    7    1    -43.91      0.00
   -4    7    4      3.88      0.00
   -4    7    7     -3.00      0.00
   -4    7   10     -0.06      0.00
   -4    7   13     -1.56      0.00
   -2    7   15      3.14      0.00
   -2    7   12      7.94      0.00
   -2    7    9     12.61      0.00
   -2    7    6      5.46      0.00
   -2    7    3    -27.05      0.00
   -2    7    0    -31.95      0.00
   -5    7    3    -13.58      0.00
   -5    7    6      3.52      0.00
   -5    7    9     -0.25      0.00
   -5    7   12     -6.91      0.00
   -5    7   15     -1.97      0.00
   -1    7   13     -1.56      0.00
   -1    7   10      5.34      0.00
   -1    7    7     14.04      0.00
   -1    7    4      2.33      0.00
   -1    7    1    -14.48      0.00
   -6    7    2    -75.25      0.00
   -6    7    5    -13.03      0.00
   -6    7    8     13.89      0.00
   -6    7   11      2.19      0.00
   -6    7   14      1.88      0.00
    0    7   14     -4.45      0.00
    0    7   11     -4.74      0.00
    0    7    8      1.25      0.00
    0    7    5     12.03      0.00
    0    7    2     -2.06      0.00
   -7    7    1    -99.67      0.00
   -7    7    4    -62.96      0.00
   -7    7    7     15.70      0.00
   -7    7   10     15.31      0.00
   -4    8    0    -64.61      0.00
   -4    8    3     -3.15      0.00
   -4    8    6     10.10      0.00
   -4    8    9     -4.01      0.00
   -4    8   12      0.81      0.00
   -4    8   15     -1.46      0.00
   -3    8   13      6.95      0.00
   -3    8   10      3.60      0.00
   -3    8    7      6.98      0.00
   -3    8    4     10.23      0.00
   -3    8    1    -46.47      0.00
   -5    8    2    -52.19      0.00
   -5    8    5     -0.15      0.00
   -5    8    8     -1.85      0.00
   -5    8   11     -5.36      0.00
   -5    8   14     -3.50      0.00
   -2    8   14      3.01      0.00
   -2    8   11      5.26      0.00
   -2    8    8      1.48      0.00
   -2    8    5      4.65      0.00
   -2    8    2    -12.80      0.00
   -6    8    1    -84.34      0.00
   -6    8    4    -43.68      0.00
   -6    8    7      3.09      0.00
   -6    8   10      4.49      0.00
   -6    8   13     -0.71      0.00
   -1    8   15     -1.32      0.00
   -1    8   12     -2.80      0.00
   -1    8    9     -7.13      0.00
   -1    8    6     -7.76      0.00
   -1    8    3      1.16      0.00
   -1    8    0    -60.40      0.00
   -7    8    3    -65.23      0.00
   -7    8    6     -9.01      0.00
   -7    8    9     13.90      0.00
   -7    8   12      9.84      0.00
    0    8   13     -4.57      0.00
    0    8   10    -12.74      0.00
    0    8    7    -19.95      0.00
    0    8    4     -8.29      0.00
    0    8    1    -32.35      0.00
   -8    8    2    -13.89      0.00
   -8    8    5    -11.74      0.00
   -8    8    8      3.08      0.00
   -8    8   11     12.87      0.00
   -8    8   14      8.61      0.00
   -4    9   14     -0.24      0.00
   -4    9   11     -4.82      0.00
   -4    9    8     -4.51      0.00
   -4    9    5     26.22      0.00
   -4    9    2     30.96      0.00
   -5    9    1     -4.95      0.00
   -5    9    4     11.11      0.00
   -5    9    7     -2.86      0.00
   -5    9   10    -10.23      0.00
   -5    9   13     -2.77      0.00
   -3    9   15      1.04      0.00
   -3    9   12      2.57      0.00
   -3    9    9     -2.61      0.00
   -3    9    6      4.00      0.00
   -3    9    3     33.74      0.00
   -3    9    0     -9.70      0.00
   -6    9    3    -29.11      0.00
   -6    9    6    -11.60      0.00
   -6    9    9     -3.59      0.00
   -6    9   12     -2.85      0.00
   -6    9   15     -3.35      0.00
   -2    9   13      2.37      0.00
   -2    9   10     -1.82      0.00
   -2    9    7    -14.74      0.00
   -2    9    4     -1.92      0.00
   -2    9    1     -1.94      0.00
   -7    9    2    -18.32      0.00
   -7    9    5    -16.79      0.00
   -7    9    8     -1.69      0.00
   -7    9   11      2.91      0.00
   -7    9   14      0.41      0.00
   -1    9   14     -1.41      0.00
   -1    9   11     -5.69      0.00
   -1    9    8    -18.08      0.00
   -1    9    5    -18.70      0.00
   -1    9    2    -22.19      0.00
   -8    9    1     35.34      0.00
   -8    9    4     25.96      0.00
   -8    9    7     -8.22      0.00
   -8    9   10      1.39      0.00
   -8    9   13      4.81      0.00
    0    9   15     -2.41      0.00
    0    9   12     -6.06      0.00
    0    9    9    -12.43      0.00
    0    9    6    -10.67      0.00
    0    9    3    -28.80      0.00
    0    9    0     32.44      0.00
   -9    9    3     94.26      0.00
   -9    9    6      3.66      0.00
   -9    9    9    -11.65      0.00
   -9    9   12      2.90      0.00
   -5   10    0     55.04      0.00
   -5   10    3     33.18      0.00
   -5   10    6     10.09      0.00
   -5   10    9     -7.50      0.00
   -5   10   12     -5.07      0.00
   -5   10   15     -2.28      0.00
   -4   10   13     -2.71      0.00
   -4   10   10     -3.81      0.00
   -4   10    7      6.96      0.00
   -4   10    4     31.31      0.00
   -4   10    1     59.11      0.00
   -6   10    2      4.96      0.00
   -6   10    5     -4.94      0.00
   -6   10    8     -8.46      0.00
   -6   10   11     -2.80      0.00
   -6   10   14     -2.73      0.00
   -3   10   14      1.04      0.00
   -3   10   11      2.28      0.00
   -3   10    8     -1.51      0.00
   -3   10    5     -1.73      0.00
   -3   10    2     34.39      0.00
   -7   10    1     10.97      0.00
   -7   10    4     -4.32      0.00
   -7   10    7     -9.20      0.00
   -7   10   10      0.36      0.00
   -7   10   13     -2.11      0.00
   -2   10   15      1.61      0.00
   -2   10   12      3.06      0.00
   -2   10    9     -2.69      0.00
   -2   10    6    -13.95      0.00
   -2   10    3     -8.29      0.00
   -2   10    0     21.65      0.00
   -8   10    3     46.81      0.00
   -8   10    6      2.50      0.00
   -8   10    9     -4.36      0.00
   -8   10   12     -3.36      0.00
   -1   10   13     -0.53      0.00
   -1   10   10     -2.40      0.00
   -1   10    7      0.33      0.00
   -1   10    4     -9.39      0.00
   -1   10    1     -6.48      0.00
   -9   10    2     88.06      0.00
   -9   10    5     33.10      0.00
   -9   10    8    -11.26      0.00
   -9   10   11     -6.78      0.00
   -9   10   14     -2.51      0.00
    0   10   11     -3.47      0.00
    0   10    8     12.93      0.00
    0   10    5     17.55      0.00
    0   10    2    -15.97      0.00
  -10   10    1     50.96      0.00
  -10   10    4     42.63      0.00
  -10   10    7     -3.52      0.00
  -10   10   10     -9.44      0.00
   -5   11   14     -1.73      0.00
   -5   11   11     -4.71      0.00
   -5   11    8      8.07      0.00
   -5   11    5      8.94      0.00
   -5   11    2     31.67      0.00
   -6   11    1     24.67      0.00
   -6   11    4     -5.68      0.00
   -6   11    7      1.75      0.00
   -6   11   10      0.78      0.00
   -6   11   13      0.74      0.00
   -4   11   12     -2.56      0.00
   -4   11    9      7.50      0.00
   -4   11    6      6.99      0.00
   -4   11    3     16.04      0.00
   -4   11    0     15.77      0.00
   -7   11    3    -13.17      0.00
   -7   11    6     -6.01      0.00
   -7   11    9      4.92      0.00
   -7   11   12      3.80      0.00
   -7   11   15     -0.19      0.00
   -3   11   13      2.55      0.00
   -3   11   10      7.42      0.00
   -3   11    7      0.41      0.00
   -3   11    4     -4.10      0.00
   -3   11    1      0.27      0.00
   -8   11    2      4.11      0.00
   -8   11    5      9.73      0.00
   -8   11    8      3.73      0.00
   -8   11   11     -0.73      0.00
   -8   11   14     -1.89      0.00
   -2   11   14      3.17      0.00
   -2   11   11      6.11      0.00
   -2   11    8      5.10      0.00
   -2   11    5      3.42      0.00
   -2   11    2    -11.25      0.00
   -9   11    1     13.14      0.00
   -9   11    4     29.93      0.00
   -9   11    7      8.16      0.00
   -9   11   10     -7.48      0.00
   -9   11   13     -6.14      0.00
   -1   11   15     -0.01      0.00
   -1   11   12     -0.86      0.00
   -1   11    9     10.94      0.00
   -1   11    6     24.86      0.00
   -1   11    3      7.04      0.00
   -1   11    0      0.34      0.00
  -10   11    3      3.73      0.00
  -10   11    6      5.60      0.00
  -10   11    9     -4.58      0.00
  -10   11   12     -3.41      0.00
    0   11   13     -4.61      0.00
    0   11   10      5.78      0.00
    0   11    7     27.53      0.00
    0   11    4     21.30      0.00
    0   11    1      6.87      0.00
  -11   11    2    -41.83      0.00
  -11   11    5    -25.51      0.00
  -11   11    8      3.91      0.00
  -11   11   11      5.37      0.00
   -6   12    0      7.04      0.00
   -6   12    3    -17.27      0.00
   -6   12    6      1.71      0.00
   -6   12    9      4.54      0.00
   -6   12   12      0.22      0.00
   -6   12   15      1.70      0.00
   -5   12   13     -3.72      0.00
   -5   12   10      0.54      0.00
   -5   12    7      9.28      0.00
   -5   12    4    -14.15      0.00
   -5   12    1     -3.28      0.00
   -7   12    2    -19.85      0.00
   -7   12    5    -11.45      0.00
   -7   12    8      5.72      0.00
   -7   12   11      8.34      0.00
   -7   12   14      4.35      0.00
   -4   12   14     -1.36      0.00
   -4   12   11      3.19      0.00
   -4   12    8      5.23      0.00
   -4   12    5     -8.72      0.00
   -4   12    2    -16.58      0.00
   -8   12    1    -24.73      0.00
   -8   12    4     -8.54      0.00
   -8   12    7      6.18      0.00
   -8   12   10     10.25      0.00
   -8   12   13      2.48      0.00
   -3   12   12      6.57      0.00
   -3   12    9      3.77      0.00
   -3   12    6     -1.69      0.00
   -3   12    3     -4.18      0.00
   -3   12    0    -22.38      0.00
   -9   12    3     -9.25      0.00
   -9   12    6     11.47      0.00
   -9   12    9      4.35      0.00
   -9   12   12     -4.49      0.00
   -2   12   13      3.07      0.00
   -2   12   10      4.46      0.00
   -2   12    7      6.81      0.00
   -2   12    4     14.07      0.00
   -2   12    1     -1.01      0.00
  -10   12    2    -29.71      0.00
  -10   12    5     -2.20      0.00
  -10   12    8      3.05      0.00
  -10   12   11     -6.56      0.00
   -1   12   14     -1.45      0.00
   -1   12   11     -1.06      0.00
   -1   12    8     11.44      0.00
   -1   12    5     11.73      0.00
   -1   12    2     17.39      0.00
  -11   12    1    -36.53      0.00
  -11   12    4    -48.91      0.00
  -11   12    7      2.25      0.00
  -11   12   10      6.19      0.00
  -11   12   13      3.58      0.00
    0   12   12     -4.24      0.00
    0   12    9      3.66      0.00
    0   12    6     -0.62      0.00
    0   12    3      2.35      0.00
    0   12    0     -8.98      0.00
  -12   12    3    -69.37      0.00
  -12   12    6    -13.34      0.00
  -12   12    9     16.92      0.00
  -12   12   12     10.57      0.00
   -6   13   14      0.01      0.00
   -6   13   11     -4.90      0.00
   -6   13    8     -1.81      0.00
   -6   13    5    -12.46      0.00
   -6   13    2    -21.05      0.00
   -7   13    1     -7.52      0.00
   -7   13    4    -10.89      0.00
   -7   13    7     -0.36      0.00
   -7   13   10      0.93      0.00
   -7   13   13      3.77      0.00
   -5   13   12     -2.16      0.00
   -5   13    9     -2.64      0.00
   -5   13    6    -10.86      0.00
   -5   13    3    -28.00      0.00
   -5   13    0    -15.75      0.00
   -8   13    3     -7.70      0.00
   -8   13    6     -2.74      0.00
   -8   13    9      8.01      0.00
   -8   13   12      7.26      0.00
   -4   13   13      0.45      0.00
   -4   13   10      0.56      0.00
   -4   13    7    -10.76      0.00
   -4   13    4    -11.03      0.00
   -4   13    1    -15.99      0.00
   -9   13    2    -13.07      0.00
   -9   13    5     -3.40      0.00
   -9   13    8      5.20      0.00
   -9   13   11      4.17      0.00
   -3   13   14      1.85      0.00
   -3   13   11      2.39      0.00
   -3   13    8     -7.50      0.00
   -3   13    5      0.55      0.00
   -3   13    2      7.43      0.00
  -10   13    1    -13.32      0.00
  -10   13    4     -9.09      0.00
  -10   13    7     -0.08      0.00
  -10   13   10     -4.58      0.00
  -10   13   13     -1.66      0.00
   -2   13   12      0.53      0.00
   -2   13    9     -4.11      0.00
   -2   13    6     -2.12      0.00
   -2   13    3     11.57      0.00
   -2   13    0      3.53      0.00
  -11   13    3    -24.90      0.00
  -11   13    6     -6.64      0.00
  -11   13    9     -4.13      0.00
  -11   13   12     -1.14      0.00
   -1   13   13     -1.41      0.00
   -1   13   10     -4.82      0.00
   -1   13    7    -10.35      0.00
   -1   13    4    -16.96      0.00
   -1   13    1      8.06      0.00
  -12   13    2    -22.56      0.00
  -12   13    5    -15.48      0.00
  -12   13    8      6.15      0.00
  -12   13   11      6.85      0.00
    0   13   11     -4.02      0.00
    0   13    8    -12.55      0.00
    0   13    5    -33.26      0.00
    0   13    2    -14.90      0.00
  -13   13    1     -3.52      0.00
  -13   13    4     -4.88      0.00
  -13   13    7     12.27      0.00
  -13   13   10     13.30      0.00
  -13   13   13      4.59      0.00
   -7   14    0     -6.38      0.00
   -7   14    3      4.80      0.00
   -7   14    6     -1.39      0.00
   -7   14    9     -9.48      0.00
   -7   14   12     -2.79      0.00
   -7   14   15      1.44      0.00
   -6   14   13     -2.86      0.00
   -6   14   10     -7.72      0.00
   -6   14    7     -9.79      0.00
   -6   14    4    -11.85      0.00
   -6   14    1    -14.10      0.00
   -8   14    2     18.67      0.00
   -8   14    5      5.72      0.00
   -8   14    8     -4.04      0.00
   -8   14   11      1.16      0.00
   -5   14   14     -1.81      0.00
   -5   14   11     -0.65      0.00
   -5   14    8     -9.53      0.00
   -5   14    5    -13.55      0.00
   -5   14    2    -13.30      0.00
   -9   14    1     12.78      0.00
   -9   14    4      3.67      0.00
   -9   14    7     -1.60      0.00
   -9   14   10      6.18      0.00
   -9   14   13      1.69      0.00
   -4   14   12      1.14      0.00
   -4   14    9     -5.05      0.00
   -4   14    6     -6.99      0.00
   -4   14    3      6.31      0.00
   -4   14    0     10.96      0.00
  -10   14    3      0.47      0.00
  -10   14    6     -7.41      0.00
  -10   14    9     -1.41      0.00
  -10   14   12      0.40      0.00
   -3   14   13      0.45      0.00
   -3   14   10     -3.91      0.00
   -3   14    7     -6.18      0.00
   -3   14    4      8.50      0.00
   -3   14    1     18.60      0.00
  -11   14    2     10.58      0.00
  -11   14    5     -2.25      0.00
  -11   14    8    -14.41      0.00
  -11   14   11     -6.21      0.00
  -11   14   14     -0.45      0.00
   -2   14   14      0.95      0.00
   -2   14   11     -2.97      0.00
   -2   14    8     -8.61      0.00
   -2   14    5     -9.61      0.00
   -2   14    2      3.04      0.00
  -12   14    1     18.48      0.00
  -12   14    4     17.12      0.00
  -12   14    7     -9.50      0.00
  -12   14   10     -6.89      0.00
  -12   14   13      0.28      0.00
   -1   14   12      0.56      0.00
   -1   14    9     -8.10      0.00
   -1   14    6    -19.48      0.00
   -1   14    3    -20.50      0.00
   -1   14    0      1.79      0.00
  -13   14    3     26.11      0.00
  -13   14    6     11.43      0.00
  -13   14    9      4.36      0.00
  -13   14   12      1.42      0.00
    0   14   13      0.83      0.00
    0   14   10     -2.57      0.00
    0   14    7    -14.65      0.00
    0   14    4    -15.73      0.00
    0   14    1    -17.55      0.00
  -14   14    2     17.77      0.00
  -14   14    5     23.81      0.00
  -14   14    8     13.81      0.00
  -14   14   11      2.68      0.00
  -14   14   14     -2.12      0.00
   -7   15   11     -5.14      0.00
   -7   15    8     -5.57      0.00
   -7   15    5      9.08      0.00
   -7   15    2     -1.21      0.00
   -8   15    1      6.41      0.00
   -8   15    4     27.22      0.00
   -8   15    7      0.21      0.00
   -8   15   10     -6.90      0.00
   -8   15   13     -1.12      0.00
   -6   15   12      0.50      0.00
   -6   15    9     -0.24      0.00
   -6   15    6     -3.08      0.00
   -6   15    3     -3.94      0.00
   -6   15    0      6.09      0.00
   -9   15    3     26.59      0.00
   -9   15    6      4.23      0.00
   -9   15    9     -0.80      0.00
   -9   15   12      1.45      0.00
   -5   15   13      0.04      0.00
   -5   15   10      3.12      0.00
   -5   15    7     -0.70      0.00
   -5   15    4      4.96      0.00
   -5   15    1     10.43      0.00
  -10   15    2     12.86      0.00
  -10   15    5     -4.00      0.00
  -10   15    8     -0.58      0.00
  -10   15   11      4.44      0.00
   -4   15   14      0.83      0.00
   -4   15   11     -0.78      0.00
   -4   15    8      1.37      0.00
   -4   15    5     11.33      0.00
   -4   15    2     16.62      0.00
  -11   15    1      8.70      0.00
  -11   15    4     -0.37      0.00
  -11   15    7     -8.09      0.00
  -11   15   10     -1.33      0.00
  -11   15   13     -1.73      0.00
   -3   15   12     -1.04      0.00
   -3   15    9     -0.59      0.00
   -3   15    6      8.38      0.00
   -3   15    3      8.71      0.00
   -3   15    0      8.89      0.00
  -12   15    3     24.38      0.00
  -12   15    6     -5.41      0.00
  -12   15    9    -11.63      0.00
  -12   15   12     -4.27      0.00
   -2   15   13      0.91      0.00
   -2   15   10      0.46      0.00
   -2   15    7      0.19      0.00
   -2   15    4     -1.06      0.00
   -2   15    1     -3.48      0.00
  -13   15    2     33.30      0.00
  -13   15    5     16.87      0.00
  -13   15    8    -10.49      0.00
  -13   15   11     -6.00      0.00
  -13   15   14     -1.76      0.00
   -1   15   11      2.59      0.00
   -1   15    8     -1.00      0.00
   -1   15    5      2.67      0.00
   -1   15    2     -8.38      0.00
  -14   15    1      5.70      0.00
  -14   15    4     21.51      0.00
  -14   15    7      7.37      0.00
  -14   15   10     -1.14      0.00
  -14   15   13     -1.60      0.00
    0   15   12      0.71      0.00
    0   15    9      2.23      0.00
    0   15    6     10.26      0.00
    0   15    3     11.97      0.00
    0   15    0    -13.84      0.00
  -15   15    3     -3.03      0.00
  -15   15    6     10.65      0.00
  -15   15    9      5.24      0.00
  -15   15   12     -0.17      0.00
   -8   16    0    -16.31      0.00
   -8   16    3     14.72      0.00
   -8   16    6      9.71      0.00
   -8   16    9     -0.29      0.00
   -8   16   12     -1.79      0.00
   -7   16   13      0.79      0.00
   -7   16   10      4.69      0.00
   -7   16    7      7.42      0.00
   -7   16    4      6.98      0.00
   -7   16    1    -11.36      0.00
   -9   16    2     18.77      0.00
   -9   16    5     13.48      0.00
   -9   16    8     -1.94      0.00
   -9   16   11     -4.32      0.00
   -6   16   14      1.92      0.00
   -6   16   11      3.93      0.00
   -6   16    8      9.52      0.00
   -6   16    5      6.52      0.00
   -6   16    2      0.74      0.00
  -10   16    1     11.31      0.00
  -10   16    4      1.22      0.00
  -10   16    7      3.60      0.00
  -10   16   10      0.51      0.00
  -10   16   13      1.34      0.00
   -5   16   12     -0.89      0.00
   -5   16    9      6.47      0.00
   -5   16    6     12.27      0.00
   -5   16    3     10.62      0.00
   -5   16    0      0.49      0.00
  -11   16    3    -15.35      0.00
  -11   16    6      1.38      0.00
  -11   16    9      6.31      0.00
  -11   16   12      2.68      0.00
   -4   16   13     -1.99      0.00
   -4   16   10      1.21      0.00
   -4   16    7     11.32      0.00
   -4   16    4     10.63      0.00
   -4   16    1     -3.00      0.00
  -12   16    2    -13.03      0.00
  -12   16    5      0.95      0.00
  -12   16    8      1.33      0.00
  -12   16   11      0.24      0.00
  -12   16   14     -2.19      0.00
   -3   16   11      2.19      0.00
   -3   16    8      8.00      0.00
   -3   16    5      8.73      0.00
   -3   16    2     -2.68      0.00
  -13   16    1      0.47      0.00
  -13   16    4     12.57      0.00
  -13   16    7     -7.44      0.00
  -13   16   10     -5.17      0.00
  -13   16   13     -3.92      0.00
   -2   16   12      2.76      0.00
   -2   16    9      7.51      0.00
   -2   16    6     10.58      0.00
   -2   16    3      7.65      0.00
   -2   16    0      4.07      0.00
  -14   16    3     11.77      0.00
  -14   16    6     -7.65      0.00
  -14   16    9     -6.86      0.00
  -14   16   12     -3.27      0.00
   -1   16   10      3.55      0.00
   -1   16    7     11.12      0.00
   -1   16    4     19.78      0.00
   -1   16    1      2.01      0.00
  -15   16    2     -8.95      0.00
  -15   16    5     -9.77      0.00
  -15   16    8      0.54      0.00
  -15   16   11     -0.13      0.00
  -15   16   14      0.41      0.00
    0   16   11     -1.87      0.00
    0   16    8      6.89      0.00
    0   16    5     18.35      0.00
    0   16    2      4.53      0.00
  -16   16    1    -19.11      0.00
  -16   16    4    -21.67      0.00
  -16   16    7      5.94      0.00
  -16   16   10      3.30      0.00
  -16   16   13      1.69      0.00
   -8   17   11      3.80      0.00
   -8   17    8      7.53      0.00
   -8   17    5      2.95      0.00
   -8   17    2    -12.99      0.00
   -9   17    1     -5.54      0.00
   -9   17    4      2.70      0.00
   -9   17    7     -0.86      0.00
   -9   17   10     -2.57      0.00
   -9   17   13     -1.17      0.00
   -7   17   12      3.40      0.00
   -7   17    9     10.69      0.00
   -7   17    6      7.17      0.00
   -7   17    3     -6.24      0.00
   -7   17    0      5.42      0.00
  -10   17    3      1.88      0.00
  -10   17    6     -3.95      0.00
  -10   17    9     -4.49      0.00
  -10   17   12     -1.69      0.00
   -6   17   13      0.26      0.00
   -6   17   10      1.09      0.00
   -6   17    7      7.52      0.00
   -6   17    4      0.65      0.00
   -6   17    1      5.91      0.00
  -11   17    2    -10.17      0.00
  -11   17    5     -5.33      0.00
  -11   17    8      6.04      0.00
  -11   17   11      0.19      0.00
   -5   17   14      0.37      0.00
   -5   17   11     -4.46      0.00
   -5   17    8      1.00      0.00
   -5   17    5      0.96      0.00
   -5   17    2     -3.64      0.00
  -12   17    1    -27.17      0.00
  -12   17    4    -12.24      0.00
  -12   17    7     17.10      0.00
  -12   17   10      6.87      0.00
  -12   17   13     -0.31      0.00
   -4   17   12     -0.63      0.00
   -4   17    9      1.16      0.00
   -4   17    6      0.50      0.00
   -4   17    3     -8.05      0.00
   -4   17    0    -22.54      0.00
  -13   17    3    -14.21      0.00
  -13   17    6      7.30      0.00
  -13   17    9      6.60      0.00
  -13   17   12     -1.16      0.00
   -3   17   13      0.14      0.00
   -3   17   10      6.04      0.00
   -3   17    7      3.59      0.00
   -3   17    4     -1.61      0.00
   -3   17    1      1.37      0.00
  -14   17    2     -0.03      0.00
  -14   17    5     -8.76      0.00
  -14   17    8     -6.39      0.00
  -14   17   11     -2.05      0.00
  -14   17   14     -1.02      0.00
   -2   17   11      3.18      0.00
   -2   17    8      6.67      0.00
   -2   17    5      6.47      0.00
   -2   17    2     12.24      0.00
  -15   17    1     11.96      0.00
  -15   17    4    -15.53      0.00
  -15   17    7    -13.41      0.00
  -15   17   10     -2.20      0.00
  -15   17   13      0.70      0.00
   -1   17   12     -1.73      0.00
   -1   17    9      0.68      0.00
   -1   17    6      7.18      0.00
   -1   17    3      4.22      0.00
   -1   17    0     -0.78      0.00
  -16   17    3    -17.39      0.00
  -16   17    6     -5.57      0.00
  -16   17    9      1.42      0.00
  -16   17   12      1.51      0.00
    0   17   10     -6.87      0.00
    0   17    7      0.49      0.00
    0   17    4    -10.24      0.00
    0   17    1    -17.28      0.00
  -17   17    2    -15.34      0.00
  -17   17    5      2.19      0.00
  -17   17    8      6.91      0.00
  -17   17   11      1.83      0.00
  -17   17   14      2.11      0.00
   -9   18    0     -7.98      0.00
   -9   18    3    -14.04      0.00
   -9   18    6     -7.69      0.00
   -9   18    9      2.14      0.00
   -9   18   12      1.94      0.00
   -8   18   13      0.26      0.00
   -8   18   10      7.21      0.00
   -8   18    7      4.32      0.00
   -8   18    4     -9.63      0.00
   -8   18    1     -1.84      0.00
  -10   18    2      0.89      0.00
  -10   18    5    -14.00      0.00
  -10   18    8    -10.60      0.00
  -10   18   11     -4.15      0.00
   -7   18   11     -0.74      0.00
   -7   18    8      1.22      0.00
   -7   18    5     -2.98      0.00
   -7   18    2      4.57      0.00
  -11   18    1     13.82      0.00
  -11   18    4     -8.93      0.00
  -11   18    7     -6.01      0.00
  -11   18   10     -6.50      0.00
  -11   18   13     -0.63      0.00
   -6   18   12     -2.94      0.00
   -6   18    9     -9.60      0.00
   -6   18    6     -6.66      0.00
   -6   18    3     -3.28      0.00
   -6   18    0     -0.85      0.00
  -12   18    3    -10.52      0.00
  -12   18    6      8.22      0.00
  -12   18    9      5.86      0.00
  -12   18   12      1.18      0.00
   -5   18   10     -7.98      0.00
   -5   18    7    -11.54      0.00
   -5   18    4    -15.51      0.00
   -5   18    1    -18.01      0.00
  -13   18    2    -22.27      0.00
  -13   18    5      9.54      0.00
  -13   18    8     15.77      0.00
  -13   18   11      4.21      0.00
  -13   18   14      0.32      0.00
   -4   18   11      1.91      0.00
   -4   18    8     -5.07      0.00
   -4   18    5    -15.05      0.00
   -4   18    2    -14.08      0.00
  -14   18    1    -11.55      0.00
  -14   18    4     -2.11      0.00
  -14   18    7      5.88      0.00
  -14   18   10      2.73      0.00
  -14   18   13      0.14      0.00
   -3   18   12      1.88      0.00
   -3   18    9      3.28      0.00
   -3   18    6     -6.74      0.00
   -3   18    3      0.03      0.00
   -3   18    0     18.40      0.00
  -15   18    3     -1.76      0.00
  -15   18    6    -13.59      0.00
  -15   18    9     -4.55      0.00
  -15   18   12      1.34      0.00
   -2   18   10     -0.72      0.00
   -2   18    7     -2.57      0.00
   -2   18    4     -1.63      0.00
   -2   18    1     18.72      0.00
  -16   18    2      8.79      0.00
  -16   18    5    -11.70      0.00
  -16   18    8     -7.01      0.00
  -16   18   11      1.47      0.00
  -16   18   14      0.29      0.00
   -1   18   11     -4.69      0.00
   -1   18    8     -5.69      0.00
   -1   18    5    -11.84      0.00
   -1   18    2    -14.07      0.00
  -17   18    1     -4.59      0.00
  -17   18    4      5.20      0.00
  -17   18    7      6.50      0.00
  -17   18   10      1.93      0.00
  -17   18   13      1.37      0.00
    0   18   12     -0.99      0.00
    0   18    9     -7.91      0.00
    0   18    6    -14.48      0.00
    0   18    3    -29.58      0.00
    0   18    0    -25.66      0.00
  -18   18    3      7.00      0.00
  -18   18    6     20.49      0.00
  -18   18    9      3.53      0.00
  -18   18   12     -0.33      0.00
   -9   19   11      6.00      0.00
   -9   19    8      0.63      0.00
   -9   19    5     -6.67      0.00
   -9   19    2    -10.03      0.00
  -10   19    1     -4.86      0.00
  -10   19    4    -11.98      0.00
  -10   19    7    -10.75      0.00
  -10   19   10      0.01      0.00
  -10   19   13     -1.56      0.00
   -8   19   12      1.15      0.00
   -8   19    9      1.34      0.00
   -8   19    6      0.07      0.00
   -8   19    3      2.09      0.00
   -8   19    0     14.65      0.00
  -11   19    3      0.70      0.00
  -11   19    6    -14.77      0.00
  -11   19    9     -9.09      0.00
  -11   19   12     -2.41      0.00
   -7   19   13     -1.07      0.00
   -7   19   10     -7.64      0.00
   -7   19    7     -5.66      0.00
   -7   19    4      1.77      0.00
   -7   19    1     17.80      0.00
  -12   19    2     11.79      0.00
  -12   19    5     -1.75      0.00
  -12   19    8     -4.19      0.00
  -12   19   11     -2.55      0.00
   -6   19   11     -5.40      0.00
   -6   19    8    -12.63      0.00
   -6   19    5    -10.02      0.00
   -6   19    2     -2.89      0.00
  -13   19    1     -2.71      0.00
  -13   19    4      6.69      0.00
  -13   19    7     11.38      0.00
  -13   19   10      3.97      0.00
  -13   19   13      2.51      0.00
   -5   19   12      2.23      0.00
   -5   19    9     -6.21      0.00
   -5   19    6    -13.55      0.00
   -5   19    3    -15.33      0.00
   -5   19    0    -15.60      0.00
  -14   19    3      0.63      0.00
  -14   19    6     12.05      0.00
  -14   19    9      5.89      0.00
  -14   19   12      2.75      0.00
   -4   19   10      2.86      0.00
   -4   19    7     -7.19      0.00
   -4   19    4     -7.81      0.00
   -4   19    1     -0.28      0.00
  -15   19    2      3.82      0.00
  -15   19    5      0.91      0.00
  -15   19    8     -3.15      0.00
  -15   19   11      1.02      0.00
  -15   19   14      0.26      0.00
   -3   19   11      0.75      0.00
   -3   19    8     -1.83      0.00
   -3   19    5     -0.74      0.00
   -3   19    2     14.52      0.00
  -16   19    1     19.67      0.00
  -16   19    4      0.10      0.00
  -16   19    7     -9.76      0.00
  -16   19   10     -0.47      0.00
  -16   19   13      1.44      0.00
   -2   19   12     -1.73      0.00
   -2   19    9     -3.14      0.00
   -2   19    6     -4.32      0.00
   -2   19    3      4.35      0.00
   -2   19    0     12.75      0.00
  -17   19    3      6.25      0.00
  -17   19    6      0.83      0.00
  -17   19    9      1.38      0.00
  -17   19   12      1.60      0.00
   -1   19   10     -4.26      0.00
   -1   19    7     -8.23      0.00
   -1   19    4    -14.34      0.00
   -1   19    1    -13.19      0.00
  -18   19    2     -0.71      0.00
  -18   19    5     14.81      0.00
  -18   19    8      6.32      0.00
  -18   19   11     -0.94      0.00
    0   19   11      0.80      0.00
    0   19    8     -6.04      0.00
    0   19    5    -13.27      0.00
    0   19    2    -18.80      0.00
  -19   19    1    -13.81      0.00
  -19   19    4     11.96      0.00
  -19   19    7      8.66      0.00
  -19   19   10     -3.82      0.00
  -19   19   13     -0.59      0.00
  -10   20    0    -12.62      0.00
  -10   20    3     -7.44      0.00
  -10   20    6     -0.27      0.00
  -10   20    9      2.94      0.00
  -10   20   12      2.21      0.00
   -9   20   13     -0.02      0.00
   -9   20   10      4.37      0.00
   -9   20    7      4.13      0.00
   -9   20    4      2.34      0.00
   -9   20    1      0.42      0.00
  -11   20    2     -3.32      0.00
  -11   20    5     -1.42      0.00
  -11   20    8     -6.01      0.00
  -11   20   11      0.15      0.00
   -8   20   11     -1.50      0.00
   -8   20    8     -0.02      0.00
   -8   20    5      6.42      0.00
   -8   20    2     18.34      0.00
  -12   20    1     11.54      0.00
  -12   20    4      6.20      0.00
  -12   20    7     -6.41      0.00
  -12   20   10     -2.73      0.00
  -12   20   13     -0.29      0.00
   -7   20   12     -0.42      0.00
   -7   20    9     -4.95      0.00
   -7   20    6      0.59      0.00
   -7   20    3     14.71      0.00
   -7   20    0     10.26      0.00
  -13   20    3     11.80      0.00
  -13   20    6      0.45      0.00
  -13   20    9      0.81      0.00
  -13   20   12      0.87      0.00
   -6   20   10     -1.79      0.00
   -6   20    7     -2.33      0.00
   -6   20    4      1.16      0.00
   -6   20    1     -6.70      0.00
  -14   20    2      4.77      0.00
  -14   20    5      4.61      0.00
  -14   20    8      3.28      0.00
  -14   20   11      0.77      0.00
  -14   20   14      3.10      0.00
   -5   20   11      2.91      0.00
   -5   20    8      1.87      0.00
   -5   20    5     -0.03      0.00
   -5   20    2    -10.97      0.00
  -15   20    1     -3.56      0.00
  -15   20    4      4.28      0.00
  -15   20    7      0.56      0.00
  -15   20   10     -0.82      0.00
  -15   20   13      0.55      0.00
   -4   20   12     -0.20      0.00
   -4   20    9      4.29      0.00
   -4   20    6      4.60      0.00
   -4   20    3      5.78      0.00
   -4   20    0      4.89      0.00
  -16   20    3      3.88      0.00
  -16   20    6     -2.67      0.00
  -16   20    9     -3.17      0.00
  -16   20   12      0.55      0.00
   -3   20   10      0.68      0.00
   -3   20    7      2.97      0.00
   -3   20    4     14.08      0.00
   -3   20    1     17.20      0.00
  -17   20    2      6.21      0.00
  -17   20    5      0.89      0.00
  -17   20    8     -1.41      0.00
  -17   20   11      1.07      0.00
   -2   20   11     -1.22      0.00
   -2   20    8     -0.10      0.00
   -2   20    5      6.54      0.00
   -2   20    2     11.82      0.00
  -18   20    1      2.23      0.00
  -18   20    4      3.16      0.00
  -18   20    7      3.18      0.00
  -18   20   10      1.90      0.00
  -18   20   13     -0.85      0.00
   -1   20   12      1.84      0.00
   -1   20    9      0.18      0.00
   -1   20    6     -0.06      0.00
   -1   20    3      1.16      0.00
   -1   20    0     -5.11      0.00
  -19   20    3     -1.99      0.00
  -19   20    6      0.71      0.00
  -19   20    9     -1.53      0.00
  -19   20   12     -0.99      0.00
    0   20   10      3.87      0.00
    0   20    7      1.12      0.00
    0   20    4      0.68      0.00
    0   20    1     -1.26      0.00
  -20   20    2     -4.15      0.00
  -20   20    5     -9.84      0.00
  -20   20    8     -7.01      0.00
  -20   20   11     -1.61      0.00
  -10   21   11     -0.11      0.00
  -10   21    8      5.12      0.00
  -10   21    5      3.75      0.00
  -10   21    2     -5.96      0.00
  -11   21    1    -11.32      0.00
  -11   21    4      3.25      0.00
  -11   21    7      4.93      0.00
  -11   21   10      1.88      0.00
  -11   21   13     -0.64      0.00
   -9   21   12     -1.91      0.00
   -9   21    9      3.09      0.00
   -9   21    6      5.66      0.00
   -9   21    3      8.09      0.00
   -9   21    0     -1.18      0.00
  -12   21    3      5.78      0.00
  -12   21    6      5.12      0.00
  -12   21    9      0.62      0.00
  -12   21   12      1.40      0.00
   -8   21   13     -0.78      0.00
   -8   21   10      0.03      0.00
   -8   21    7      3.97      0.00
   -8   21    4     14.18      0.00
   -8   21    1     10.51      0.00
  -13   21    2      8.64      0.00
  -13   21    5      4.88      0.00
  -13   21    8     -0.84      0.00
  -13   21   11     -0.01      0.00
   -7   21   11      0.49      0.00
   -7   21    8      3.46      0.00
   -7   21    5     10.61      0.00
   -7   21    2      7.49      0.00
  -14   21    1      5.02      0.00
  -14   21    4      0.16      0.00
  -14   21    7     -1.81      0.00
  -14   21   10     -0.13      0.00
  -14   21   13      0.69      0.00
   -6   21   12      1.07      0.00
   -6   21    9      4.68      0.00
   -6   21    6      8.09      0.00
   -6   21    3     -0.44      0.00
   -6   21    0     -5.35      0.00
  -15   21    3     -2.41      0.00
  -15   21    6     -5.37      0.00
  -15   21    9     -1.51      0.00
  -15   21   12     -2.06      0.00
   -5   21   10      4.19      0.00
   -5   21    7      7.68      0.00
   -5   21    4      1.33      0.00
   -5   21    1     -8.13      0.00
  -16   21    2     -1.78      0.00
  -16   21    5     -2.50      0.00
  -16   21    8     -4.25      0.00
  -16   21   11     -2.55      0.00
   -4   21   11      0.21      0.00
   -4   21    8      5.52      0.00
   -4   21    5      8.44      0.00
   -4   21    2      3.60      0.00
  -17   21    1      0.01      0.00
  -17   21    4      3.33      0.00
  -17   21    7     -1.78      0.00
  -17   21   10     -0.75      0.00
  -17   21   13     -1.68      0.00
   -3   21   12     -1.29      0.00
   -3   21    9      2.66      0.00
   -3   21    6      9.30      0.00
   -3   21    3     15.26      0.00
   -3   21    0      5.48      0.00
  -18   21    3     -0.85      0.00
  -18   21    6      1.56      0.00
  -18   21    9      3.52      0.00
  -18   21   12     -1.22      0.00
   -2   21   10      1.44      0.00
   -2   21    7      5.91      0.00
   -2   21    4     13.49      0.00
   -2   21    1      8.98      0.00
  -19   21    2     -3.26      0.00
  -19   21    5     -5.43      0.00
  -19   21    8      1.44      0.00
  -19   21   11     -0.39      0.00
   -1   21   11      4.53      0.00
   -1   21    8      2.96      0.00
   -1   21    5      6.85      0.00
   -1   21    2      6.72      0.00
  -20   21    1      0.39      0.00
  -20   21    4    -10.15      0.00
  -20   21    7     -9.68      0.00
  -20   21   10     -2.27      0.00
    0   21    9      3.52      0.00
    0   21    6      2.53      0.00
    0   21    3      3.26      0.00
    0   21    0      4.06      0.00
  -21   21    3     -4.68      0.00
  -21   21    6    -15.90      0.00
  -21   21    9     -6.53      0.00
  -21   21   12      1.13      0.00
  -11   22    0     -3.52      0.00
  -11   22    3     -5.20      0.00
  -11   22    6      3.18      0.00
  -11   22    9      0.92      0.00
  -11   22   12     -1.68      0.00
  -10   22   13     -1.58      0.00
  -10   22   10     -1.92      0.00
  -10   22    7      1.64      0.00
  -10   22    4     -5.48      0.00
  -10   22    1     -3.09      0.00
  -12   22    2     -1.57      0.00
  -12   22    5      8.40      0.00
  -12   22    8      3.27      0.00
  -12   22   11      1.14      0.00
   -9   22   11     -2.10      0.00
   -9   22    8      0.65      0.00
   -9   22    5      0.81      0.00
   -9   22    2      1.68      0.00
  -13   22    1     -0.76      0.00
  -13   22    4      9.83      0.00
  -13   22    7      3.82      0.00
  -13   22   10      1.94      0.00
  -13   22   13      0.95      0.00
   -8   22   12      0.21      0.00
   -8   22    9      1.11      0.00
   -8   22    6      4.17      0.00
   -8   22    3      7.95      0.00
   -8   22    0      0.80      0.00
  -14   22    3      1.93      0.00
  -14   22    6     -1.44      0.00
  -14   22    9      0.56      0.00
  -14   22   12      0.53      0.00
   -7   22   10      1.65      0.00
   -7   22    7      3.49      0.00
   -7   22    4      5.79      0.00
   -7   22    1      0.19      0.00
  -15   22    2     -2.71      0.00
  -15   22    5    -10.48      0.00
  -15   22    8     -2.41      0.00
  -15   22   11     -2.93      0.00
   -6   22   11      0.51      0.00
   -6   22    8      3.36      0.00
   -6   22    5     -0.40      0.00
   -6   22    2     -6.73      0.00
  -16   22    1     -3.85      0.00
  -16   22    4     -9.12      0.00
  -16   22    7     -3.70      0.00
  -16   22   10     -3.42      0.00
  -16   22   13     -3.47      0.00
   -5   22   12     -0.79      0.00
   -5   22    9      1.41      0.00
   -5   22    6     -0.35      0.00
   -5   22    3     -9.94      0.00
   -5   22    0     -5.37      0.00
  -17   22    3     -1.26      0.00
  -17   22    6      0.15      0.00
  -17   22    9     -2.72      0.00
  -17   22   12     -1.00      0.00
   -4   22   10     -0.55      0.00
   -4   22    7      1.01      0.00
   -4   22    4     -3.04      0.00
   -4   22    1     -3.81      0.00
  -18   22    2      1.60      0.00
  -18   22    5      4.63      0.00
  -18   22    8      1.12      0.00
  -18   22   11     -0.60      0.00
   -3   22   11     -1.35      0.00
   -3   22    8      1.83      0.00
   -3   22    5      4.89      0.00
   -3   22    2      2.76      0.00
  -19   22    1      0.13      0.00
  -19   22    4      1.45      0.00
  -19   22    7      2.45      0.00
  -19   22   10      1.24      0.00
   -2   22    9      1.69      0.00
   -2   22    6      4.61      0.00
   -2   22    3      6.22      0.00
   -2   22    0      1.69      0.00
  -20   22    3     -3.16      0.00
  -20   22    6     -2.92      0.00
  -20   22    9      0.39      0.00
  -20   22   12     -1.27      0.00
   -1   22   10      2.85      0.00
   -1   22    7      0.71      0.00
   -1   22    4      0.56      0.00
   -1   22    1      1.59      0.00
  -21   22    2      2.00      0.00
  -21   22    5     -7.78      0.00
  -21   22    8     -4.31      0.00
  -21   22   11      0.60      0.00
    0   22   11      2.16      0.00
    0   22    8     -0.53      0.00
    0   22    5     -5.62      0.00
    0   22    2     -3.39      0.00
  -22   22    1      5.34      0.00
  -22   22    4     -1.43      0.00
  -22   22    7     -3.34      0.00
  -22   22   10      0.10      0.00
  -11   23   11     -3.81      0.00
  -11   23    8     -1.63      0.00
  -11   23    5     -9.73      0.00
  -11   23    2     -3.34      0.00
  -12   23    1      4.18      0.00
  -12   23    4     -3.21      0.00
  -12   23    7      1.26      0.00
  -12   23   10     -1.66      0.00
  -12   23   13     -0.93      0.00
  -10   23   12     -1.00      0.00
  -10   23    9     -2.36      0.00
  -10   23    6     -7.39      0.00
  -10   23    3     -8.97      0.00
  -10   23    0     -0.66      0.00
  -13   23    3      4.54      0.00
  -13   23    6      4.35      0.00
  -13   23    9      0.44      0.00
  -13   23   12      3.27      0.00
   -9   23   13      1.36      0.00
   -9   23   10     -0.16      0.00
   -9   23    7     -4.89      0.00
   -9   23    4     -2.85      0.00
   -9   23    1     -4.92      0.00
  -14   23    2      2.03      0.00
  -14   23    5      4.44      0.00
  -14   23    8     -0.76      0.00
  -14   23   11      1.86      0.00
   -8   23   11      0.83      0.00
   -8   23    8     -2.44      0.00
   -8   23    5      0.75      0.00
   -8   23    2      0.16      0.00
  -15   23    1     -2.40      0.00
  -15   23    4     -3.58      0.00
  -15   23    7     -2.65      0.00
  -15   23   10     -0.38      0.00
  -15   23   13     -1.45      0.00
   -7   23   12      0.02      0.00
   -7   23    9     -1.70      0.00
   -7   23    6     -2.09      0.00
   -7   23    3     -1.64      0.00
   -7   23    0      0.91      0.00
  -16   23    3     -9.98      0.00
  -16   23    6     -4.28      0.00
  -16   23    9     -0.91      0.00
  -16   23   12     -1.18      0.00
   -6   23   10     -1.06      0.00
   -6   23    7     -3.99      0.00
   -6   23    4    -12.32      0.00
   -6   23    1     -1.78      0.00
  -17   23    2     -4.01      0.00
  -17   23    5     -2.63      0.00
  -17   23    8      0.85      0.00
  -17   23   11      0.12      0.00
   -5   23   11     -1.29      0.00
   -5   23    8     -3.41      0.00
   -5   23    5    -13.52      0.00
   -5   23    2    -10.69      0.00
  -18   23    1     -0.21      0.00
  -18   23    4      4.29      0.00
  -18   23    7      3.38      0.00
  -18   23   10     -0.85      0.00
   -4   23   12     -0.77      0.00
   -4   23    9     -3.56      0.00
   -4   23    6     -6.05      0.00
   -4   23    3     -9.71      0.00
   -4   23    0     -3.80      0.00
  -19   23    3      5.69      0.00
  -19   23    6      4.73      0.00
  -19   23    9     -0.16      0.00
  -19   23   12      0.66      0.00
   -3   23   10     -3.34      0.00
   -3   23    7     -1.91      0.00
   -3   23    4     -1.65      0.00
   -3   23    1     -4.75      0.00
  -20   23    2      1.56      0.00
  -20   23    5      4.13      0.00
  -20   23    8      0.68      0.00
  -20   23   11      0.35      0.00
   -2   23   11     -1.29      0.00
   -2   23    8     -0.73      0.00
   -2   23    5     -1.45      0.00
   -2   23    2     -2.77      0.00
  -21   23    1     -0.33      0.00
  -21   23    4      3.38      0.00
  -21   23    7      2.69      0.00
  -21   23   10      1.41      0.00
   -1   23    9      0.53      0.00
   -1   23    6     -5.14      0.00
   -1   23    3     -6.43      0.00
   -1   23    0      0.24      0.00
  -22   23    3      3.13      0.00
  -22   23    6      4.77      0.00
  -22   23    9      3.77      0.00
    0   23   10     -1.04      0.00
    0   23    7     -3.14      0.00
    0   23    4     -8.91      0.00
    0   23    1     -2.01      0.00
  -23   23    2      4.12      0.00
  -23   23    5      3.42      0.00
  -23   23    8      7.31      0.00
  -23   23   11     -0.43      0.00
  -12   24    0      8.71      0.00
  -12   24    3     -3.72      0.00
  -12   24    6     -4.39      0.00
  -12   24    9     -1.52      0.00
  -12   24   12     -0.75      0.00
  -11   24   13     -0.57      0.00
  -11   24   10     -0.68      0.00
  -11   24    7     -4.27      0.00
  -11   24    4     -8.07      0.00
  -11   24    1      0.56      0.00
  -13   24    2      3.25      0.00
  -13   24    5     -2.21      0.00
  -13   24    8     -0.30      0.00
  -13   24   11      0.57      0.00
  -10   24   11      1.74      0.00
  -10   24    8     -2.89      0.00
  -10   24    5     -5.51      0.00
  -10   24    2     -7.17      0.00
  -14   24    1     -0.31      0.00
  -14   24    4      3.00      0.00
  -14   24    7     -1.23      0.00
  -14   24   10      1.18      0.00
  -14   24   13      0.58      0.00
   -9   24   12      3.55      0.00
   -9   24    9     -0.93      0.00
   -9   24    6     -2.93      0.00
   -9   24    3     -3.34      0.00
   -9   24    0     -3.54      0.00
  -15   24    3      1.04      0.00
  -15   24    6     -1.13      0.00
  -15   24    9     -0.38      0.00
  -15   24   12      0.13      0.00
   -8   24   10     -0.21      0.00
   -8   24    7     -2.11      0.00
   -8   24    4     -0.54      0.00
   -8   24    1      2.80      0.00
  -16   24    2     -4.11      0.00
  -16   24    5     -0.75      0.00
  -16   24    8     -0.02      0.00
  -16   24   11     -0.34      0.00
   -7   24   11      0.06      0.00
   -7   24    8     -1.29      0.00
   -7   24    5     -3.97      0.00
   -7   24    2      4.30      0.00
  -17   24    1     -1.82      0.00
  -17   24    4     -2.64      0.00
  -17   24    7      4.47      0.00
  -17   24   10      1.73      0.00
   -6   24   12      0.23      0.00
   -6   24    9     -2.08      0.00
   -6   24    6     -4.73      0.00
   -6   24    3     -4.35      0.00
   -6   24    0      1.23      0.00
  -18   24    3     -1.40      0.00
  -18   24    6      3.83      0.00
  -18   24    9      2.48      0.00
  -18   24   12      2.83      0.00
   -5   24   10     -2.50      0.00
   -5   24    7     -4.36      0.00
   -5   24    4     -7.55      0.00
   -5   24    1     -3.70      0.00
  -19   24    2      2.69      0.00
  -19   24    5      0.39      0.00
  -19   24    8      0.02      0.00
  -19   24   11      1.14      0.00
   -4   24   11     -2.95      0.00
   -4   24    8     -3.85      0.00
   -4   24    5     -3.42      0.00
   -4   24    2     -5.02      0.00
  -20   24    1     -1.06      0.00
  -20   24    4      2.51      0.00
  -20   24    7     -1.61      0.00
  -20   24   10     -0.12      0.00
   -3   24    9     -3.15      0.00
   -3   24    6     -1.69      0.00
   -3   24    3     -1.98      0.00
   -3   24    0     -4.02      0.00
  -21   24    3      1.64      0.00
  -21   24    6      4.64      0.00
  -21   24    9      0.82      0.00
   -2   24   10     -1.67      0.00
   -2   24    7     -0.67      0.00
   -2   24    4     -2.82      0.00
   -2   24    1     -2.88      0.00
  -22   24    2      0.08      0.00
  -22   24    5      7.84      0.00
  -22   24    8      4.75      0.00
  -22   24   11      0.70      0.00
   -1   24   11     -2.23      0.00
   -1   24    8     -0.19      0.00
   -1   24    5     -3.13      0.00
   -1   24    2     -1.81      0.00
  -23   24    1      1.54      0.00
  -23   24    4      3.11      0.00
  -23   24    7      6.50      0.00
  -23   24   10      0.18      0.00
    0   24    9     -0.42      0.00
    0   24    6      0.49      0.00
    0   24    3     -0.37      0.00
    0   24    0      2.03      0.00
  -24   24    3     -1.08      0.00
  -24   24    6      1.10      0.00
  -24   24    9      1.76      0.00
  -12   25   11      0.27      0.00
  -12   25    8      1.42      0.00
  -12   25    5      1.07      0.00
  -12   25    2      2.40      0.00
  -13   25    1      2.77      0.00
  -13   25    4     -1.97      0.00
  -13   25    7      2.13      0.00
  -13   25   10      0.70      0.00
  -13   25   13     -0.02      0.00
  -11   25   12      0.67      0.00
  -11   25    9      0.99      0.00
  -11   25    6      0.50      0.00
  -11   25    3      1.05      0.00
  -11   25    0     -1.37      0.00
  -14   25    3     -2.13      0.00
  -14   25    6     -1.95      0.00
  -14   25    9      0.41      0.00
  -14   25   12      1.18      0.00
  -10   25   13      1.99      0.00
  -10   25   10      2.03      0.00
  -10   25    7     -0.35      0.00
  -10   25    4     -0.09      0.00
  -10   25    1     -4.15      0.00
  -15   25    2     -0.97      0.00
  -15   25    5     -2.10      0.00
  -15   25    8     -2.32      0.00
  -15   25   11     -1.02      0.00
   -9   25   11      1.53      0.00
   -9   25    8      2.13      0.00
   -9   25    5      0.15      0.00
   -9   25    2     -0.08      0.00
  -16   25    1     -1.15      0.00
  -16   25    4      1.97      0.00
  -16   25    7     -1.57      0.00
  -16   25   10     -0.07      0.00
   -8   25   12      1.11      0.00
   -8   25    9      0.66      0.00
   -8   25    6      2.94      0.00
   -8   25    3      4.51      0.00
   -8   25    0      3.01      0.00
  -17   25    3      0.79      0.00
  -17   25    6      4.33      0.00
  -17   25    9      2.24      0.00
  -17   25   12      0.20      0.00
   -7   25   10      0.46      0.00
   -7   25    7      2.74      0.00
   -7   25    4      6.38      0.00
   -7   25    1      5.08      0.00
  -18   25    2      0.09      0.00
  -18   25    5      3.11      0.00
  -18   25    8      5.00      0.00
  -18   25   11      1.22      0.00
   -6   25   11      0.20      0.00
   -6   25    8      1.34      0.00
   -6   25    5      5.83      0.00
   -6   25    2      4.68      0.00
  -19   25    1     -0.17      0.00
  -19   25    4     -2.30      0.00
  -19   25    7      0.69      0.00
  -19   25   10      0.56      0.00
   -5   25   12      0.13      0.00
   -5   25    9     -0.15      0.00
   -5   25    6      2.49      0.00
   -5   25    3      3.96      0.00
   -5   25    0     -0.27      0.00
  -20   25    3     -3.86      0.00
  -20   25    6     -6.42      0.00
  -20   25    9     -1.43      0.00
   -4   25   10     -1.51      0.00
   -4   25    7     -0.57      0.00
   -4   25    4      2.99      0.00
   -4   25    1      0.16      0.00
  -21   25    2     -2.82      0.00
  -21   25    5     -3.63      0.00
  -21   25    8     -3.78      0.00
  -21   25   11      1.84      0.00
   -3   25   11     -0.25      0.00
   -3   25    8     -0.47      0.00
   -3   25    5      1.13      0.00
   -3   25    2      0.99      0.00
  -22   25    1     -1.39      0.00
  -22   25    4      2.26      0.00
  -22   25    7      1.09      0.00
  -22   25   10      0.20      0.00
   -2   25    9      1.24      0.00
   -2   25    6      1.72      0.00
   -2   25    3      0.75      0.00
   -2   25    0      0.35      0.00
  -23   25    3      0.98      0.00
  -23   25    6      4.26      0.00
  -23   25    9     -0.08      0.00
   -1   25   10     -0.76      0.00
   -1   25    7      2.96      0.00
   -1   25    4      3.62      0.00
   -1   25    1      2.88      0.00
  -24   25    2     -2.28      0.00
  -24   25    5     -1.82      0.00
  -24   25    8     -1.35      0.00
    0   25   11     -2.15      0.00
    0   25    8      0.58      0.00
    0   25    5      6.57      0.00
    0   25    2      6.51      0.00
  -25   25    1     -2.71      0.00
  -25   25    4     -5.52      0.00
  -25   25    7     -4.95      0.00
  -25   25   10     -0.15      0.00
  -13   26    0     -0.56      0.00
  -13   26    3      4.99      0.00
  -13   26    6      5.97      0.00
  -13   26    9      1.87      0.00
  -13   26   12      0.31      0.00
  -12   26   10      0.92      0.00
  -12   26    7      2.32      0.00
  -12   26    4      9.86      0.00
  -12   26    1      0.14      0.00
  -14   26    2     -1.99      0.00
  -14   26    5      0.17      0.00
  -14   26    8      2.92      0.00
  -14   26   11      0.25      0.00
  -11   26   11     -0.70      0.00
  -11   26    8      0.06      0.00
  -11   26    5      5.15      0.00
  -11   26    2      1.34      0.00
  -15   26    1     -3.63      0.00
  -15   26    4     -5.18      0.00
  -15   26    7     -1.81      0.00
  -15   26   10     -0.87      0.00
  -10   26   12     -0.14      0.00
  -10   26    9      1.38      0.00
  -10   26    6      0.70      0.00
  -10   26    3     -1.30      0.00
  -10   26    0      0.39      0.00
  -16   26    3     -1.81      0.00
  -16   26    6     -3.99      0.00
  -16   26    9     -2.19      0.00
  -16   26   12     -1.11      0.00
   -9   26   10      0.49      0.00
   -9   26    7      2.54      0.00
   -9   26    4     -1.13      0.00
   -9   26    1      2.06      0.00
  -17   26    2      4.10      0.00
  -17   26    5      2.75      0.00
  -17   26    8     -1.32      0.00
  -17   26   11     -0.74      0.00
   -8   26   11      0.06      0.00
   -8   26    8      1.88      0.00
   -8   26    5      5.64      0.00
   -8   26    2      4.05      0.00
  -18   26    1      3.60      0.00
  -18   26    4      6.66      0.00
  -18   26    7      3.85      0.00
  -18   26   10      0.46      0.00
   -7   26   12     -0.32      0.00
   -7   26    9      1.40      0.00
   -7   26    6      7.13      0.00
   -7   26    3      9.43      0.00
   -7   26    0      0.82      0.00
  -19   26    3      2.23      0.00
  -19   26    6      1.95      0.00
  -19   26    9      1.44      0.00
   -6   26   10      2.88      0.00
   -6   26    7      2.82      0.00
   -6   26    4     10.19      0.00
   -6   26    1      2.87      0.00
  -20   26    2     -2.56      0.00
  -20   26    5     -5.56      0.00
  -20   26    8     -1.96      0.00
  -20   26   11     -1.72      0.00
   -5   26   11      1.38      0.00
   -5   26    8      1.63      0.00
   -5   26    5      4.14      0.00
   -5   26    2      5.24      0.00
  -21   26    1     -0.93      0.00
  -21   26    4     -7.81      0.00
  -21   26    7     -5.98      0.00
  -21   26   10     -0.54      0.00
   -4   26    9      1.08      0.00
   -4   26    6      0.14      0.00
   -4   26    3      1.96      0.00
   -4   26    0      2.47      0.00
  -22   26    3     -3.62      0.00
  -22   26    6     -3.43      0.00
  -22   26    9     -0.69      0.00
   -3   26   10      2.45      0.00
   -3   26    7      0.64      0.00
   -3   26    4      0.55      0.00
   -3   26    1      0.94      0.00
  -23   26    2      0.40      0.00
  -23   26    5      1.47      0.00
  -23   26    8     -1.27      0.00
   -2   26   11      2.75      0.00
   -2   26    8      0.36      0.00
   -2   26    5      3.16      0.00
   -2   26    2      2.29      0.00
  -24   26    1     -0.18      0.00
  -24   26    4      1.79      0.00
  -24   26    7     -2.63      0.00
  -24   26   10     -3.06      0.00
   -1   26    9      0.43      0.00
   -1   26    6      3.34      0.00
   -1   26    3      4.96      0.00
   -1   26    0     -0.98      0.00
  -25   26    3     -2.25      0.00
  -25   26    6     -4.20      0.00
  -25   26    9     -2.16      0.00
    0   26   10     -2.45      0.00
    0   26    7      2.50      0.00
    0   26    4      5.12      0.00
    0   26    1     -0.07      0.00
  -26   26    2     -4.76      0.00
  -26   26    5     -4.59      0.00
  -26   26    8     -1.22      0.00
  -13   27   11     -0.92      0.00
  -13   27    8     -0.56      0.00
  -13   27    5      7.80      0.00
  -13   27    2      4.96      0.00
  -14   27    1     -1.25      0.00
  -14   27    4      3.91      0.00
  -14   27    7      4.02      0.00
  -14   27   10      0.49      0.00
  -12   27   12     -3.08      0.00
  -12   27    9     -2.49      0.00
  -12   27    6      1.07      0.00
  -12   27    3      6.94      0.00
  -12   27    0     -1.43      0.00
  -15   27    3     -3.12      0.00
  -15   27    6      0.12      0.00
  -15   27    9      0.44      0.00
  -15   27   12      2.13      0.00
  -11   27   10     -1.17      0.00
  -11   27    7     -1.98      0.00
  -11   27    4     -0.88      0.00
  -11   27    1      0.21      0.00
  -16   27    2     -2.84      0.00
  -16   27    5     -4.83      0.00
  -16   27    8     -1.87      0.00
  -16   27   11     -0.82      0.00
  -10   27   11     -0.68      0.00
  -10   27    8      0.95      0.00
  -10   27    5     -5.17      0.00
  -10   27    2     -2.33      0.00
  -17   27    1      2.94      0.00
  -17   27    4     -1.71      0.00
  -17   27    7     -2.58      0.00
  -17   27   10     -0.72      0.00
   -9   27   12     -0.67      0.00
   -9   27    9     -0.44      0.00
   -9   27    6     -1.77      0.00
   -9   27    3     -2.46      0.00
   -9   27    0      2.90      0.00
  -18   27    3      5.92      0.00
  -18   27    6      2.17      0.00
  -18   27    9     -1.47      0.00
   -8   27   10     -0.25      0.00
   -8   27    7     -1.43      0.00
   -8   27    4      3.18      0.00
   -8   27    1     -1.41      0.00
  -19   27    2      6.35      0.00
  -19   27    5      6.11      0.00
  -19   27    8     -0.13      0.00
  -19   27   11     -1.44      0.00
   -7   27   11      0.75      0.00
   -7   27    8     -0.22      0.00
   -7   27    5      3.94      0.00
   -7   27    2      1.18      0.00
  -20   27    1     -0.00      0.00
  -20   27    4      3.03      0.00
  -20   27    7     -0.07      0.00
  -20   27   10     -1.73      0.00
   -6   27   12      0.96      0.00
   -6   27    9      2.95      0.00
   -6   27    6      0.11      0.00
   -6   27    3      1.12      0.00
   -6   27    0      1.36      0.00
  -21   27    3     -2.93      0.00
  -21   27    6     -3.27      0.00
  -21   27    9      0.68      0.00
   -5   27   10      1.60      0.00
   -5   27    7      0.42      0.00
   -5   27    4     -2.74      0.00
   -5   27    1      2.22      0.00
  -22   27    2     -1.11      0.00
  -22   27    5     -4.79      0.00
  -22   27    8      0.39      0.00
   -4   27   11      1.56      0.00
   -4   27    8     -0.15      0.00
   -4   27    5     -3.13      0.00
   -4   27    2     -1.07      0.00
  -23   27    1      3.33      0.00
  -23   27    4     -1.35      0.00
  -23   27    7      0.52      0.00
  -23   27   10     -1.41      0.00
   -3   27    9      0.79      0.00
   -3   27    6     -2.07      0.00
   -3   27    3     -2.08      0.00
   -3   27    0      0.50      0.00
  -24   27    3      3.60      0.00
  -24   27    6      0.32      0.00
  -24   27    9     -2.90      0.00
   -2   27   10      0.89      0.00
   -2   27    7     -1.28      0.00
   -2   27    4      0.62      0.00
   -2   27    1     -1.69      0.00
  -25   27    2      0.91      0.00
  -25   27    5      1.01      0.00
  -25   27    8     -3.12      0.00
   -1   27   11     -0.74      0.00
   -1   27    8     -1.15      0.00
   -1   27    5      1.73      0.00
   -1   27    2     -1.04      0.00
  -26   27    1     -1.94      0.00
  -26   27    4     -1.02      0.00
  -26   27    7     -0.82      0.00
    0   27    9      0.06      0.00
    0   27    6      0.07      0.00
    0   27    3     -2.67      0.00
    0   27    0     -2.09      0.00
  -27   27    3     -1.59      0.00
  -27   27    6      0.48      0.00
  -27   27    9      3.80      0.00
  -14   28    0      0.88      0.00
  -14   28    3      3.26      0.00
  -14   28    6      0.74      0.00
  -14   28    9     -1.26      0.00
  -13   28   10     -2.33      0.00
  -13   28    7     -3.74      0.00
  -13   28    4      1.64      0.00
  -13   28    1      0.97      0.00
  -15   28    2      0.94      0.00
  -15   28    5      2.28      0.00
  -15   28    8      2.27      0.00
  -15   28   11      0.40      0.00
  -12   28   11     -2.07      0.00
  -12   28    8     -2.65      0.00
  -12   28    5     -2.30      0.00
  -12   28    2      0.07      0.00
  -16   28    1     -0.47      0.00
  -16   28    4     -2.03      0.00
  -16   28    7      1.31      0.00
  -16   28   10      0.52      0.00
  -11   28   12     -0.25      0.00
  -11   28    9      0.74      0.00
  -11   28    6     -3.28      0.00
  -11   28    3     -4.58      0.00
  -11   28    0      1.37      0.00
  -17   28    3     -3.43      0.00
  -17   28    6     -3.20      0.00
  -17   28    9      0.20      0.00
  -10   28   10      0.21      0.00
  -10   28    7     -0.63      0.00
  -10   28    4     -6.61      0.00
  -10   28    1     -1.39      0.00
  -18   28    2      0.82      0.00
  -18   28    5     -2.14      0.00
  -18   28    8     -1.42      0.00
  -18   28   11      1.28      0.00
   -9   28   11     -0.43      0.00
   -9   28    8     -1.94      0.00
   -9   28    5     -3.08      0.00
   -9   28    2     -3.26      0.00
  -19   28    1      1.36      0.00
  -19   28    4      2.92      0.00
  -19   28    7      0.33      0.00
  -19   28   10     -0.59      0.00
   -8   28   12     -0.63      0.00
   -8   28    9     -1.46      0.00
   -8   28    6     -3.04      0.00
   -8   28    3     -2.60      0.00
   -8   28    0     -1.81      0.00
  -20   28    3      4.95      0.00
  -20   28    6      2.44      0.00
  -20   28    9     -0.75      0.00
   -7   28   10      0.09      0.00
   -7   28    7     -1.62      0.00
   -7   28    4     -5.10      0.00
   -7   28    1     -1.66      0.00
  -21   28    2      0.91      0.00
  -21   28    5      2.73      0.00
  -21   28    8      0.56      0.00
   -6   28   11     -0.40      0.00
   -6   28    8      2.12      0.00
   -6   28    5     -5.44      0.00
   -6   28    2     -2.30      0.00
  -22   28    1      1.12      0.00
  -22   28    4     -1.01      0.00
  -22   28    7      1.35      0.00
  -22   28   10      2.41      0.00
   -5   28    9      1.24      0.00
   -5   28    6     -2.01      0.00
   -5   28    3     -4.00      0.00
   -5   28    0      1.53      0.00
  -23   28    3     -0.34      0.00
  -23   28    6     -0.07      0.00
  -23   28    9      2.09      0.00
   -4   28   10     -0.50      0.00
   -4   28    7     -1.64      0.00
   -4   28    4     -3.00      0.00
   -4   28    1     -1.87      0.00
  -24   28    2      2.62      0.00
  -24   28    5      0.34      0.00
  -24   28    8      0.42      0.00
   -3   28   11      0.44      0.00
   -3   28    8     -4.28      0.00
   -3   28    5     -2.14      0.00
   -3   28    2     -1.99      0.00
  -25   28    1      1.21      0.00
  -25   28    4      2.91      0.00
  -25   28    7     -0.71      0.00
   -2   28    9     -1.53      0.00
   -2   28    6     -2.57      0.00
   -2   28    3     -2.79      0.00
   -2   28    0     -1.26      0.00
  -26   28    3      2.40      0.00
  -26   28    6      0.22      0.00
  -26   28    9      1.25      0.00
   -1   28   10     -1.03      0.00
   -1   28    7      0.44      0.00
   -1   28    4     -3.06      0.00
   -1   28    1     -2.39      0.00
  -27   28    2      0.21      0.00
  -27   28    5     -0.59      0.00
  -27   28    8      2.85      0.00
    0   28    8      1.35      0.00
    0   28    5     -2.96      0.00
    0   28    2     -1.85      0.00
  -28   28    1      2.92      0.00
  -28   28    4     -2.20      0.00
  -28   28    7      1.71      0.00
  -14   29   11     -0.26      0.00
  -14   29    8     -2.76      0.00
  -14   29    5     -3.90      0.00
  -14   29    2     -0.84      0.00
  -15   29    1      0.88      0.00
  -15   29    4     -1.15      0.00
  -15   29    7      0.99      0.00
  -15   29   10      0.18      0.00
  -13   29    9     -1.26      0.00
  -13   29    6     -4.17      0.00
  -13   29    3     -2.86      0.00
  -13   29    0      1.17      0.00
  -16   29    3      1.43      0.00
  -16   29    6      3.27      0.00
  -16   29    9      1.89      0.00
  -12   29   10      0.95      0.00
  -12   29    7      1.38      0.00
  -12   29    4     -3.69      0.00
  -12   29    1     -0.94      0.00
  -17   29    2     -0.01      0.00
  -17   29    5      0.39      0.00
  -17   29    8      1.81      0.00
  -17   29   11     -0.31      0.00
  -11   29   11      0.92      0.00
  -11   29    8      3.01      0.00
  -11   29    5     -0.20      0.00
  -11   29    2     -2.25      0.00
  -18   29    1     -1.49      0.00
  -18   29    4     -5.03      0.00
  -18   29    7     -1.49      0.00
  -18   29   10      2.26      0.00
  -10   29    9      0.06      0.00
  -10   29    6      1.01      0.00
  -10   29    3     -1.11      0.00
  -10   29    0     -1.83      0.00
  -19   29    3     -4.90      0.00
  -19   29    6     -3.52      0.00
  -19   29    9      1.08      0.00
   -9   29   10     -1.09      0.00
   -9   29    7     -1.27      0.00
   -9   29    4     -1.18      0.00
   -9   29    1     -2.15      0.00
  -20   29    2     -2.93      0.00
  -20   29    5      0.46      0.00
  -20   29    8     -0.28      0.00
   -8   29   11     -0.07      0.00
   -8   29    8     -1.90      0.00
   -8   29    5     -3.37      0.00
   -8   29    2     -2.13      0.00
  -21   29    1     -2.05      0.00
  -21   29    4      2.97      0.00
  -21   29    7      0.91      0.00
  -21   29   10      0.05      0.00
   -7   29    9     -0.50      0.00
   -7   29    6     -2.09      0.00
   -7   29    3     -4.41      0.00
   -7   29    0     -0.33      0.00
  -22   29    3      2.24      0.00
  -22   29    6      0.37      0.00
  -22   29    9      2.25      0.00
   -6   29   10     -1.49      0.00
   -6   29    7      2.90      0.00
   -6   29    4     -2.52      0.00
   -6   29    1     -0.61      0.00
  -23   29    2      0.46      0.00
  -23   29    5     -0.91      0.00
  -23   29    8      1.65      0.00
   -5   29   11     -1.41      0.00
   -5   29    8      1.52      0.00
   -5   29    5      0.52      0.00
   -5   29    2      0.68      0.00
  -24   29    1     -0.22      0.00
  -24   29    4     -1.49      0.00
  -24   29    7      1.75      0.00
   -4   29    9     -1.23      0.00
   -4   29    6     -1.43      0.00
   -4   29    3      0.54      0.00
   -4   29    0     -1.32      0.00
  -25   29    3      0.38      0.00
  -25   29    6      1.95      0.00
  -25   29    9     -0.10      0.00
   -3   29   10     -2.34      0.00
   -3   29    7     -2.69      0.00
   -3   29    4     -1.05      0.00
   -3   29    1     -1.12      0.00
  -26   29    2     -0.17      0.00
  -26   29    5      1.86      0.00
  -26   29    8      0.77      0.00
   -2   29    8     -1.19      0.00
   -2   29    5     -1.37      0.00
   -2   29    2     -0.34      0.00
  -27   29    1      0.87      0.00
  -27   29    4     -0.08      0.00
  -27   29    7     -0.22      0.00
   -1   29    9      2.96      0.00
   -1   29    6     -1.78      0.00
   -1   29    3     -1.24      0.00
   -1   29    0      3.71      0.00
  -28   29    3     -0.42      0.00
  -28   29    6     -0.58      0.00
    0   29   10      1.78      0.00
    0   29    7      2.10      0.00
    0   29    4     -2.99      0.00
    0   29    1      5.22      0.00
  -29   29    2      1.56      0.00
  -29   29    5     -1.00      0.00
  -29   29    8     -1.07      0.00
  -15   30    0     -0.06      0.00
  -15   30    3     -3.75      0.00
  -15   30    6     -3.11      0.00
  -15   30    9     -0.74      0.00
  -14   30   10      0.40      0.00
  -14   30    7     -2.95      0.00
  -14   30    4     -4.86      0.00
  -14   30    1     -1.37      0.00
  -16   30    2     -0.33      0.00
  -16   30    5      2.43      0.00
  -16   30    8      1.16      0.00
  -13   30   11      1.86      0.00
  -13   30    8      1.36      0.00
  -13   30    5     -0.42      0.00
  -13   30    2     -0.61      0.00
  -17   30    1      0.58      0.00
  -17   30    4      2.99      0.00
  -17   30    7      3.18      0.00
  -17   30   10      0.34      0.00
  -12   30    9      2.07      0.00
  -12   30    6      4.33      0.00
  -12   30    3      1.13      0.00
  -12   30    0      0.16      0.00
  -18   30    3      0.34      0.00
  -18   30    6     -0.67      0.00
  -18   30    9      0.57      0.00
  -11   30   10     -1.12      0.00
  -11   30    7      4.14      0.00
  -11   30    4      3.31      0.00
  -11   30    1      0.11      0.00
  -19   30    2     -4.38      0.00
  -19   30    5     -4.10      0.00
  -19   30    8      0.04      0.00
  -10   30   11     -1.35      0.00
  -10   30    8     -0.61      0.00
  -10   30    5      4.32      0.00
  -10   30    2      1.91      0.00
  -20   30    1     -4.73      0.00
  -20   30    4     -5.14      0.00
  -20   30    7     -0.57      0.00
  -20   30   10     -0.16      0.00
   -9   30    9     -1.36      0.00
   -9   30    6     -0.18      0.00
   -9   30    3      1.93      0.00
   -9   30    0     -1.96      0.00
  -21   30    3     -2.41      0.00
  -21   30    6      0.03      0.00
  -21   30    9     -0.78      0.00
   -8   30   10     -0.75      0.00
   -8   30    7     -1.59      0.00
   -8   30    4     -0.38      0.00
   -8   30    1     -0.20      0.00
  -22   30    2     -0.32      0.00
  -22   30    5      1.37      0.00
  -22   30    8     -1.02      0.00
   -7   30   11     -0.11      0.00
   -7   30    8      0.20      0.00
   -7   30    5      1.20      0.00
   -7   30    2      0.92      0.00
  -23   30    1      0.21      0.00
  -23   30    4      0.23      0.00
  -23   30    7     -0.36      0.00
   -6   30    9      1.51      0.00
   -6   30    6      3.50      0.00
   -6   30    3      2.69      0.00
   -6   30    0     -0.04      0.00
  -24   30    3     -0.39      0.00
  -24   30    6     -0.68      0.00
  -24   30    9     -0.40      0.00
   -5   30   10     -0.37      0.00
   -5   30    7      2.36      0.00
   -5   30    4      2.93      0.00
   -5   30    1      0.45      0.00
  -25   30    2     -2.38      0.00
  -25   30    5      0.79      0.00
  -25   30    8      0.22      0.00
   -4   30    8     -1.53      0.00
   -4   30    5      1.40      0.00
   -4   30    2      1.93      0.00
  -26   30    1     -2.75      0.00
  -26   30    4     -0.30      0.00
  -26   30    7      2.22      0.00
   -3   30    9      0.43      0.00
   -3   30    6     -0.44      0.00
   -3   30    3      1.33      0.00
   -3   30    0     -1.26      0.00
  -27   30    3     -1.00      0.00
  -27   30    6      1.64      0.00
   -2   30   10      1.03      0.00
   -2   30    7      1.54      0.00
   -2   30    4      0.54      0.00
   -2   30    1      1.96      0.00
  -28   30    2     -0.50      0.00
  -28   30    5      0.00      0.00
  -28   30    8     -0.19      0.00
   -1   30    8      2.41      0.00
   -1   30    5     -1.33      0.00
   -1   30    2      4.62      0.00
  -29   30    1      3.17      0.00
  -29   30    4      0.03      0.00
  -29   30    7     -1.19      0.00
    0   30    9      2.16      0.00
    0   30    6     -0.33      0.00
    0   30    3      2.23      0.00
    0   30    0      3.58      0.00
  -30   30    3      1.07      0.00
  -30   30    6      0.93      0.00
  -15   31    8     -1.76      0.00
  -15   31    5     -1.24      0.00
  -15   31    2     -2.32      0.00
  -16   31    1     -2.62      0.00
  -16   31    4     -0.84      0.00
  -16   31    7     -0.80      0.00
  -16   31   10      0.83      0.00
  -14   31    9      0.70      0.00
  -14   31    6     -1.52      0.00
  -14   31    3      1.51      0.00
  -14   31    0      0.10      0.00
  -17   31    3      1.58      0.00
  -17   31    6      2.82      0.00
  -17   31    9     -1.15      0.00
  -13   31   10      1.43      0.00
  -13   31    7      2.23      0.00
  -13   31    4      2.59      0.00
  -13   31    1      2.03      0.00
  -18   31    2      3.03      0.00
  -18   31    5      3.84      0.00
  -18   31    8     -1.94      0.00
  -12   31    8      0.99      0.00
  -12   31    5      4.60      0.00
  -12   31    2      3.42      0.00
  -19   31    1      1.13      0.00
  -19   31    4      1.28      0.00
  -19   31    7     -1.32      0.00
  -11   31    9     -1.59      0.00
  -11   31    6      3.18      0.00
  -11   31    3      2.95      0.00
  -11   31    0      1.22      0.00
  -20   31    3     -1.50      0.00
  -20   31    6     -1.80      0.00
  -20   31    9      0.93      0.00
  -10   31   10     -1.35      0.00
  -10   31    7     -0.85      0.00
  -10   31    4      2.93      0.00
  -10   31    1      0.92      0.00
  -21   31    2     -2.85      0.00
  -21   31    5      0.48      0.00
  -21   31    8      0.62      0.00
   -9   31    8     -2.72      0.00
   -9   31    5      1.13      0.00
   -9   31    2      1.87      0.00
  -22   31    1     -0.41      0.00
  -22   31    4     -0.24      0.00
  -22   31    7      0.41      0.00
   -8   31    9     -0.24      0.00
   -8   31    6     -0.77      0.00
   -8   31    3      2.47      0.00
   -8   31    0      0.70      0.00
  -23   31    3      1.23      0.00
  -23   31    6     -0.74      0.00
   -7   31   10      0.12      0.00
   -7   31    7      1.50      0.00
   -7   31    4      2.42      0.00
   -7   31    1      1.32      0.00
  -24   31    2      0.16      0.00
  -24   31    5     -0.54      0.00
  -24   31    8     -1.43      0.00
   -6   31    8      1.07      0.00
   -6   31    5      3.02      0.00
   -6   31    2      1.41      0.00
  -25   31    1     -0.59      0.00
  -25   31    4     -0.28      0.00
  -25   31    7     -0.63      0.00
   -5   31    9      0.32      0.00
   -5   31    6      2.10      0.00
   -5   31    3      0.17      0.00
   -5   31    0     -1.23      0.00
  -26   31    3     -0.87      0.00
  -26   31    6      0.87      0.00
   -4   31   10      0.08      0.00
   -4   31    7      0.35      0.00
   -4   31    4      2.04      0.00
   -4   31    1     -1.97      0.00
  -27   31    2     -2.00      0.00
  -27   31    5      1.12      0.00
   -3   31    8      0.42      0.00
   -3   31    5      2.44      0.00
   -3   31    2      1.39      0.00
  -28   31    1     -1.77      0.00
  -28   31    4      0.70      0.00
  -28   31    7      0.97      0.00
   -2   31    9      1.74      0.00
   -2   31    6      0.38      0.00
   -2   31    3      2.54      0.00
   -2   31    0     -0.01      0.00
  -29   31    3      1.81      0.00
  -29   31    6      0.10      0.00
   -1   31    7      1.28      0.00
   -1   31    4      1.04      0.00
   -1   31    1     -0.39      0.00
  -30   31    2      0.74      0.00
  -30   31    5      1.38      0.00
    0   31    8     -1.70      0.00
    0   31    5      3.23      0.00
    0   31    2     -2.78      0.00
  -31   31    1     -1.32      0.00
  -31   31    4      1.02      0.00
  -16   32    0     -0.19      0.00
  -16   32    3     -0.35      0.00
  -16   32    6     -0.89      0.00
  -16   32    9      1.14      0.00
  -15   32    7     -1.03      0.00
  -15   32    4      2.85      0.00
  -15   32    1     -0.20      0.00
  -17   32    2     -1.76      0.00
  -17   32    5      0.82      0.00
  -17   32    8     -0.25      0.00
  -14   32    8      0.39      0.00
  -14   32    5      1.34      0.00
  -14   32    2      3.86      0.00
  -18   32    1      0.05      0.00
  -18   32    4      1.23      0.00
  -18   32    7     -0.66      0.00
  -13   32    9      0.57      0.00
  -13   32    6      0.33      0.00
  -13   32    3      2.44      0.00
  -13   32    0      2.34      0.00
  -19   32    3      5.79      0.00
  -19   32    6     -0.55      0.00
  -19   32    9     -3.18      0.00
  -12   32   10     -1.70      0.00
  -12   32    7      0.89      0.00
  -12   32    4     -0.82      0.00
  -12   32    1      2.37      0.00
  -20   32    2      4.55      0.00
  -20   32    5      1.69      0.00
  -20   32    8      0.82      0.00
  -11   32    8     -0.78      0.00
  -11   32    5      0.17      0.00
  -11   32    2      0.08      0.00
  -21   32    1      2.66      0.00
  -21   32    4      0.76      0.00
  -21   32    7      2.82      0.00
  -10   32    9      0.78      0.00
  -10   32    6     -2.31      0.00
  -10   32    3      1.15      0.00
  -10   32    0      0.20      0.00
  -22   32    3      0.25      0.00
  -22   32    6      2.10      0.00
   -9   32    7     -2.63      0.00
   -9   32    4      1.95      0.00
   -9   32    1     -1.54      0.00
  -23   32    2      1.24      0.00
  -23   32    5      1.16      0.00
  -23   32    8     -2.55      0.00
   -8   32    8     -0.58      0.00
   -8   32    5      0.46      0.00
   -8   32    2      0.22      0.00
  -24   32    1      1.33      0.00
  -24   32    4     -0.40      0.00
  -24   32    7     -1.22      0.00
   -7   32    9     -0.10      0.00
   -7   32    6      1.19      0.00
   -7   32    3     -2.45      0.00
   -7   32    0      2.12      0.00
  -25   32    3      0.06      0.00
  -25   32    6     -1.78      0.00
   -6   32    7      1.34      0.00
   -6   32    4     -2.57      0.00
   -6   32    1     -0.67      0.00
  -26   32    2     -0.13      0.00
  -26   32    5     -0.67      0.00
   -5   32    8     -1.27      0.00
   -5   32    5      1.24      0.00
   -5   32    2     -2.34      0.00
  -27   32    1      0.23      0.00
  -27   32    4     -0.61      0.00
  -27   32    7     -0.49      0.00
   -4   32    9      0.70      0.00
   -4   32    6     -0.11      0.00
   -4   32    3      0.96      0.00
   -4   32    0     -1.33      0.00
  -28   32    3      0.91      0.00
  -28   32    6      0.27      0.00
   -3   32    7     -0.64      0.00
   -3   32    4      2.16      0.00
   -3   32    1     -1.41      0.00
  -29   32    2      0.87      0.00
  -29   32    5      0.72      0.00
   -2   32    8     -1.80      0.00
   -2   32    5      1.46      0.00
   -2   32    2     -1.66      0.00
  -30   32    1     -1.09      0.00
  -30   32    4      1.76      0.00
   -1   32    6      2.05      0.00
   -1   32    3     -3.04      0.00
   -1   32    0     -4.19      0.00
  -31   32    3      0.16      0.00
  -31   32    6      0.30      0.00
    0   32    7     -0.15      0.00
    0   32    4      0.04      0.00
    0   32    1     -6.68      0.00
  -32   32    2     -1.95      0.00
  -32   32    5     -0.22      0.00
  -16   33    8      2.08      0.00
  -16   33    5      2.43      0.00
  -16   33    2      0.60      0.00
  -17   33    1     -0.08      0.00
  -17   33    4     -1.54      0.00
  -17   33    7      0.63      0.00
  -15   33    9      0.53      0.00
  -15   33    6      0.19      0.00
  -15   33    3      2.62      0.00
  -15   33    0      0.02      0.00
  -18   33    3     -2.51      0.00
  -18   33    6     -2.37      0.00
  -14   33    7     -0.29      0.00
  -14   33    4     -0.98      0.00
  -14   33    1     -0.96      0.00
  -19   33    2      1.02      0.00
  -19   33    5     -1.97      0.00
  -19   33    8     -1.11      0.00
  -13   33    8     -0.19      0.00
  -13   33    5     -2.25      0.00
  -13   33    2     -1.01      0.00
  -20   33    1      1.25      0.00
  -20   33    4      2.11      0.00
  -20   33    7      1.12      0.00
  -12   33    9      0.41      0.00
  -12   33    6     -0.96      0.00
  -12   33    3     -3.70      0.00
  -12   33    0      2.25      0.00
  -21   33    3      3.68      0.00
  -21   33    6      1.86      0.00
  -11   33    7     -0.66      0.00
  -11   33    4     -1.89      0.00
  -11   33    1     -1.21      0.00
  -22   33    2      1.96      0.00
  -22   33    5      1.70      0.00
  -22   33    8      1.67      0.00
  -10   33    8      0.50      0.00
  -10   33    5     -1.24      0.00
  -10   33    2     -1.21      0.00
  -23   33    1      0.65      0.00
  -23   33    4     -1.48      0.00
  -23   33    7     -0.30      0.00
   -9   33    9      2.48      0.00
   -9   33    6     -1.81      0.00
   -9   33    3      0.29      0.00
   -9   33    0     -1.67      0.00
  -24   33    3     -0.15      0.00
  -24   33    6     -0.51      0.00
   -8   33    7      0.36      0.00
   -8   33    4     -2.75      0.00
   -8   33    1     -0.29      0.00
  -25   33    2     -0.49      0.00
  -25   33    5      0.95      0.00
   -7   33    8     -0.94      0.00
   -7   33    5     -2.41      0.00
   -7   33    2     -1.94      0.00
  -26   33    1      1.29      0.00
  -26   33    4      0.26      0.00
  -26   33    7     -0.99      0.00
   -6   33    9     -0.90      0.00
   -6   33    6     -0.52      0.00
   -6   33    3     -3.44      0.00
   -6   33    0      2.16      0.00
  -27   33    3     -0.38      0.00
  -27   33    6     -2.78      0.00
   -5   33    7     -1.07      0.00
   -5   33    4      0.56      0.00
   -5   33    1     -0.68      0.00
  -28   33    2      1.36      0.00
  -28   33    5     -2.28      0.00
   -4   33    8     -0.94      0.00
   -4   33    5     -0.18      0.00
   -4   33    2      1.00      0.00
  -29   33    1      1.28      0.00
  -29   33    4     -0.17      0.00
   -3   33    9     -1.29      0.00
   -3   33    6     -1.81      0.00
   -3   33    3     -0.55      0.00
   -3   33    0      0.26      0.00
  -30   33    3      1.00      0.00
  -30   33    6     -0.50      0.00
   -2   33    7     -0.71      0.00
   -2   33    4     -2.06      0.00
   -2   33    1     -2.34      0.00
  -31   33    2     -1.32      0.00
  -31   33    5     -0.82      0.00
   -1   33    5      1.39      0.00
   -1   33    2     -4.15      0.00
  -32   33    1     -1.61      0.00
  -32   33    4     -2.15      0.00
    0   33    6      0.85      0.00
    0   33    3     -1.76      0.00
    0   33    0     -0.46      0.00
  -33   33    3     -1.75      0.00
  -17   34    0      3.49      0.00
  -17   34    3     -1.10      0.00
  -17   34    6      1.64      0.00
  -16   34    7      2.08      0.00
  -16   34    4      0.65      0.00
  -16   34    1     -0.80      0.00
  -18   34    2     -0.55      0.00
  -18   34    5     -2.69      0.00
  -18   34    8      0.82      0.00
  -15   34    8     -1.08      0.00
  -15   34    5     -1.05      0.00
  -15   34    2     -1.56      0.00
  -19   34    1     -2.64      0.00
  -19   34    4     -4.92      0.00
  -19   34    7     -1.58      0.00
  -14   34    9     -1.72      0.00
  -14   34    6     -1.66      0.00
  -14   34    3     -2.86      0.00
  -14   34    0     -4.40      0.00
  -20   34    3     -1.01      0.00
  -20   34    6     -1.12      0.00
  -13   34    7     -0.53      0.00
  -13   34    4     -3.02      0.00
  -13   34    1     -2.36      0.00
  -21   34    2     -1.11      0.00
  -21   34    5      1.52      0.00
  -12   34    8      0.47      0.00
  -12   34    5     -1.16      0.00
  -12   34    2     -1.37      0.00
  -22   34    1      0.89      0.00
  -22   34    4     -0.33      0.00
  -22   34    7      1.71      0.00
  -11   34    9      2.03      0.00
  -11   34    6     -1.48      0.00
  -11   34    3     -0.23      0.00
  -11   34    0      0.16      0.00
  -23   34    3     -0.87      0.00
  -23   34    6     -1.62      0.00
  -10   34    7      0.53      0.00
  -10   34    4     -0.06      0.00
  -10   34    1     -2.60      0.00
  -24   34    2     -0.51      0.00
  -24   34    5     -1.64      0.00
   -9   34    8      0.77      0.00
   -9   34    5     -0.68      0.00
   -9   34    2     -0.20      0.00
  -25   34    1     -1.72      0.00
  -25   34    4     -0.14      0.00
  -25   34    7      0.61      0.00
   -8   34    9     -0.44      0.00
   -8   34    6     -0.46      0.00
   -8   34    3     -1.24      0.00
   -8   34    0      1.20      0.00
  -26   34    3      0.33      0.00
  -26   34    6      1.93      0.00
   -7   34    7     -0.33      0.00
   -7   34    4     -1.73      0.00
   -7   34    1      1.65      0.00
  -27   34    2     -0.07      0.00
  -27   34    5      1.14      0.00
   -6   34    8      0.31      0.00
   -6   34    5     -0.80      0.00
   -6   34    2      0.70      0.00
  -28   34    1      1.69      0.00
  -28   34    4     -1.55      0.00
   -5   34    6     -1.58      0.00
   -5   34    3      1.48      0.00
   -5   34    0      2.13      0.00
  -29   34    3     -0.93      0.00
  -29   34    6     -0.72      0.00
   -4   34    7     -0.67      0.00
   -4   34    4     -0.80      0.00
   -4   34    1      2.92      0.00
  -30   34    2     -0.06      0.00
  -30   34    5     -0.14      0.00
   -3   34    8     -0.10      0.00
   -3   34    5     -2.37      0.00
   -3   34    2      1.86      0.00
  -31   34    1     -0.23      0.00
  -31   34    4     -0.63      0.00
   -2   34    6     -0.70      0.00
   -2   34    3     -1.41      0.00
   -2   34    0      1.31      0.00
  -32   34    3     -2.11      0.00
   -1   34    4     -0.82      0.00
   -1   34    1      1.67      0.00
  -33   34    2      0.00      0.00
    0   34    2      3.42      0.00
  -34   34    1      2.40      0.00
  -34   34    4     -0.47      0.00
  -17   35    5      0.86      0.00
  -17   35    2      0.78      0.00
  -18   35    1      2.64      0.00
  -18   35    4     -1.09      0.00
  -18   35    7     -0.05      0.00
  -16   35    9     -1.50      0.00
  -16   35    6      0.43      0.00
  -16   35    3     -0.64      0.00
  -16   35    0     -0.66      0.00
  -19   35    3     -1.47      0.00
  -19   35    6     -1.80      0.00
  -15   35    7     -1.75      0.00
  -15   35    4     -1.19      0.00
  -15   35    1     -5.09      0.00
  -20   35    2     -2.84      0.00
  -20   35    5     -0.76      0.00
  -20   35    8     -0.31      0.00
  -14   35    8     -2.61      0.00
  -14   35    5      0.15      0.00
  -14   35    2     -1.70      0.00
  -21   35    1     -5.65      0.00
  -21   35    4     -0.12      0.00
  -21   35    7      1.77      0.00
  -13   35    6      0.02      0.00
  -13   35    3      0.38      0.00
  -13   35    0      0.39      0.00
  -22   35    3     -1.37      0.00
  -22   35    6      1.35      0.00
  -12   35    7      0.95      0.00
  -12   35    4      0.54      0.00
  -12   35    1      2.09      0.00
  -23   35    2     -0.53      0.00
  -23   35    5     -1.10      0.00
  -11   35    8      1.64      0.00
  -11   35    5     -0.06      0.00
  -11   35    2      0.06      0.00
  -24   35    1      0.29      0.00
  -24   35    4     -2.95      0.00
  -10   35    9      0.19      0.00
  -10   35    6      2.16      0.00
  -10   35    3     -0.65      0.00
  -10   35    0     -2.02      0.00
  -25   35    3     -0.01      0.00
  -25   35    6     -1.65      0.00
   -9   35    7      1.07      0.00
   -9   35    4      1.02      0.00
   -9   35    1      0.99      0.00
  -26   35    2     -0.31      0.00
  -26   35    5      2.15      0.00
   -8   35    8     -0.59      0.00
   -8   35    5      1.00      0.00
   -8   35    2      3.92      0.00
  -27   35    1      0.22      0.00
  -27   35    4      2.59      0.00
   -7   35    6     -0.79      0.00
   -7   35    3      2.64      0.00
   -7   35    0      0.68      0.00
  -28   35    3      0.65      0.00
   -6   35    7      0.32      0.00
   -6   35    4      0.57      0.00
   -6   35    1     -0.99      0.00
  -29   35    2      0.38      0.00
  -29   35    5     -0.59      0.00
   -5   35    8      1.10      0.00
   -5   35    5     -0.45      0.00
   -5   35    2      1.68      0.00
  -30   35    1     -0.24      0.00
  -30   35    4     -0.84      0.00
   -4   35    6     -0.24      0.00
   -4   35    3      1.33      0.00
   -4   35    0      2.47      0.00
  -31   35    3     -1.30      0.00
   -3   35    4     -1.28      0.00
   -3   35    1      3.82      0.00
  -32   35    2     -1.43      0.00
   -2   35    2      2.84      0.00
  -33   35    1      0.48      0.00
  -33   35    4     -0.20      0.00
   -1   35    3      3.04      0.00
   -1   35    0      1.32      0.00
  -34   35    3      1.28      0.00
    0   35    1      1.58      0.00
  -35   35    2      1.58      0.00
  -18   36    0      4.50      0.00
  -18   36    3      0.84      0.00
  -18   36    6      0.87      0.00
  -17   36    7      1.24      0.00
  -17   36    4     -0.17      0.00
  -17   36    1      0.69      0.00
  -19   36    2      3.02      0.00
  -19   36    5      1.36      0.00
  -16   36    8     -0.69      0.00
  -16   36    5     -0.57      0.00
  -16   36    2      0.38      0.00
  -20   36    1     -0.02      0.00
  -20   36    4      1.41      0.00
  -20   36    7     -2.28      0.00
  -15   36    9     -1.15      0.00
  -15   36    6      0.44      0.00
  -15   36    3      0.65      0.00
  -15   36    0     -2.19      0.00
  -21   36    3     -0.17      0.00
  -21   36    6      1.94      0.00
  -14   36    4      2.75      0.00
  -14   36    1      0.97      0.00
  -22   36    2     -2.77      0.00
  -22   36    5      3.71      0.00
  -13   36    8      1.38      0.00
  -13   36    5      1.38      0.00
  -13   36    2      2.78      0.00
  -23   36    1      1.79      0.00
  -23   36    4      0.99      0.00
  -12   36    9      1.12      0.00
  -12   36    6      1.00      0.00
  -12   36    3     -0.12      0.00
  -12   36    0      3.15      0.00
  -24   36    3      0.48      0.00
  -24   36    6     -4.24      0.00
  -11   36    7      2.86      0.00
  -11   36    4     -2.21      0.00
  -11   36    1     -0.71      0.00
  -25   36    2     -0.42      0.00
  -25   36    5     -3.30      0.00
  -10   36    8     -0.84      0.00
  -10   36    5      2.72      0.00
  -10   36    2     -0.02      0.00
  -26   36    1     -2.02      0.00
  -26   36    4     -0.60      0.00
   -9   36    6      1.92      0.00
   -9   36    3      4.16      0.00
   -9   36    0      0.69      0.00
  -27   36    3      1.72      0.00
   -8   36    7     -0.95      0.00
   -8   36    4      3.99      0.00
   -8   36    1      1.15      0.00
  -28   36    2      1.69      0.00
  -28   36    5      2.23      0.00
   -7   36    8      0.22      0.00
   -7   36    5     -0.05      0.00
   -7   36    2     -0.76      0.00
  -29   36    1     -1.51      0.00
  -29   36    4      1.14      0.00
   -6   36    6      1.02      0.00
   -6   36    3     -2.11      0.00
   -6   36    0     -3.48      0.00
  -30   36    3      0.17      0.00
   -5   36    4     -0.58      0.00
   -5   36    1     -0.55      0.00
  -31   36    2      0.02      0.00
   -4   36    5      0.17      0.00
   -4   36    2      2.54      0.00
  -32   36    1      0.50      0.00
  -32   36    4      1.02      0.00
   -3   36    3      1.46      0.00
   -3   36    0      0.89      0.00
  -33   36    3      0.67      0.00
   -2   36    1     -0.89      0.00
  -34   36    2      0.54      0.00
   -1   36    2      0.72      0.00
  -35   36    1     -0.53      0.00
    0   36    0     -0.11      0.00
  -18   37    5     -0.92      0.00
  -18   37    2      1.27      0.00
  -19   37    1      1.60      0.00
  -19   37    4      1.70      0.00
  -19   37    7     -0.99      0.00
  -17   37    6     -0.54      0.00
  -17   37    3      0.84      0.00
  -17   37    0      2.45      0.00
  -20   37    3      2.56      0.00
  -20   37    6     -0.56      0.00
  -16   37    4      0.55      0.00
  -16   37    1      1.14      0.00
  -21   37    2      2.44      0.00
  -21   37    5      1.00      0.00
  -15   37    5      2.72      0.00
  -15   37    2      1.19      0.00
  -22   37    1      0.88      0.00
  -22   37    4      1.08      0.00
  -22   37    7      1.66      0.00
  -14   37    6      0.80      0.00
  -14   37    3      1.60      0.00
  -14   37    0      3.03      0.00
  -23   37    3      1.33      0.00
  -23   37    6      1.54      0.00
  -13   37    7      0.57      0.00
  -13   37    4     -0.33      0.00
  -13   37    1      1.74      0.00
  -24   37    2      1.56      0.00
  -24   37    5      0.81      0.00
  -12   37    5     -2.23      0.00
  -12   37    2     -1.65      0.00
  -25   37    1      0.49      0.00
  -25   37    4     -0.89      0.00
  -11   37    3     -3.18      0.00
  -11   37    0     -1.61      0.00
  -26   37    3     -1.38      0.00
  -10   37    7     -0.49      0.00
  -10   37    4      1.86      0.00
  -10   37    1      0.60      0.00
  -27   37    2     -1.55      0.00
  -27   37    5     -0.06      0.00
   -9   37    5      2.38      0.00
   -9   37    2      2.54      0.00
  -28   37    1      0.06      0.00
  -28   37    4      0.66      0.00
   -8   37    6     -1.15      0.00
   -8   37    3      0.77      0.00
   -8   37    0     -1.73      0.00
  -29   37    3      1.23      0.00
   -7   37    4     -2.88      0.00
   -7   37    1     -5.41      0.00
  -30   37    2      0.59      0.00
   -6   37    5      0.01      0.00
   -6   37    2     -4.00      0.00
  -31   37    1     -1.13      0.00
  -31   37    4     -0.19      0.00
   -5   37    3     -0.69      0.00
   -5   37    0      1.00      0.00
  -32   37    3     -0.01      0.00
   -4   37    1     -0.33      0.00
  -33   37    2      1.56      0.00
   -3   37    2     -2.24      0.00
  -34   37    1     -0.29      0.00
   -2   37    3     -1.49      0.00
   -2   37    0     -2.28      0.00
   -1   37    1     -0.55      0.00
    0   37    2      1.11      0.00
  -37   37    1      1.46      0.00
  -19   38    0     -0.83      0.00
  -19   38    3     -0.70      0.00
  -19   38    6     -0.44      0.00
  -18   38    4     -0.55      0.00
  -18   38    1     -0.51      0.00
  -20   38    2     -0.83      0.00
  -20   38    5      0.10      0.00
  -17   38    5     -1.42      0.00
  -17   38    2      1.44      0.00
  -21   38    1      1.52      0.00
  -21   38    4     -1.05      0.00
  -21   38    7     -1.15      0.00
  -16   38    6      1.25      0.00
  -16   38    3     -1.16      0.00
  -16   38    0      2.95      0.00
  -22   38    3      0.44      0.00
  -22   38    6     -0.39      0.00
  -15   38    4      0.98      0.00
  -15   38    1      0.81      0.00
  -23   38    2      1.00      0.00
  -23   38    5      0.39      0.00
  -14   38    5     -0.05      0.00
  -14   38    2     -0.44      0.00
  -24   38    1      0.32      0.00
  -24   38    4      1.63      0.00
  -24   38    7     -0.15      0.00
  -13   38    3     -0.66      0.00
  -13   38    0     -1.54      0.00
  -25   38    3      1.22      0.00
  -12   38    7     -1.46      0.00
  -12   38    4     -3.95      0.00
  -12   38    1     -1.08      0.00
  -26   38    2     -1.13      0.00
  -11   38    5     -1.04      0.00
  -11   38    2     -0.58      0.00
  -27   38    1     -1.19      0.00
  -27   38    4     -1.64      0.00
  -10   38    6     -1.00      0.00
  -10   38    3      1.54      0.00
  -10   38    0      0.61      0.00
  -28   38    3     -1.74      0.00
   -9   38    4      1.10      0.00
   -9   38    1     -0.69      0.00
  -29   38    2     -0.24      0.00
   -8   38    2     -3.04      0.00
  -30   38    1     -0.42      0.00
   -7   38    3     -4.23      0.00
   -7   38    0     -0.41      0.00
  -31   38    3     -0.76      0.00
   -6   38    1     -0.21      0.00
  -32   38    2      0.27      0.00
   -5   38    2      0.17      0.00
  -33   38    1      0.67      0.00
   -4   38    3     -0.33      0.00
   -4   38    0     -0.91      0.00
   -3   38    1     -3.90      0.00
   -2   38    2     -2.66      0.00
  -36   38    1     -0.13      0.00
   -1   38    0      2.05      0.00
    0   38    1      2.72      0.00
  -19   39    5     -0.41      0.00
  -19   39    2     -1.85      0.00
  -20   39    1     -4.79      0.00
  -20   39    4      0.39      0.00
  -18   39    6     -1.30      0.00
  -18   39    3      0.39      0.00
  -18   39    0     -1.43      0.00
  -21   39    3     -2.01      0.00
  -21   39    6     -0.41      0.00
  -17   39    4     -1.34      0.00
  -17   39    1      0.89      0.00
  -22   39    2      0.66      0.00
  -22   39    5     -3.68      0.00
  -16   39    5      1.09      0.00
  -16   39    2     -0.86      0.00
  -23   39    1      1.07      0.00
  -23   39    4     -3.38      0.00
  -23   39    7      1.58      0.00
  -15   39    3      0.20      0.00
  -15   39    0     -2.25      0.00
  -24   39    3     -0.24      0.00
  -24   39    6      0.95      0.00
  -14   39    7     -1.64      0.00
  -14   39    4      1.16      0.00
  -14   39    1     -3.03      0.00
  -25   39    2     -0.95      0.00
  -25   39    5      1.63      0.00
  -13   39    5     -2.40      0.00
  -13   39    2      0.41      0.00
  -26   39    1     -0.07      0.00
  -26   39    4      0.20      0.00
  -12   39    3      0.26      0.00
  -12   39    0      1.28      0.00
  -27   39    3     -0.36      0.00
  -11   39    4     -0.41      0.00
  -11   39    1      1.32      0.00
  -28   39    2     -0.42      0.00
  -10   39    2     -0.93      0.00
  -29   39    1     -0.16      0.00
   -9   39    3     -0.69      0.00
   -9   39    0      0.47      0.00
  -30   39    3     -1.05      0.00
   -8   39    4     -1.42      0.00
   -8   39    1      0.68      0.00
  -31   39    2      0.42      0.00
   -7   39    2      0.88      0.00
  -32   39    1      0.66      0.00
   -6   39    3      1.44      0.00
   -6   39    0      0.93      0.00
   -5   39    1     -0.28      0.00
   -4   39    2     -1.01      0.00
  -35   39    1     -1.03      0.00
   -3   39    0     -0.28      0.00
   -2   39    1     -0.07      0.00
  -20   40    0     -3.65      0.00
  -20   40    3     -0.06      0.00
  -20   40    6      1.21      0.00
  -19   40    4      1.18      0.00
  -19   40    1     -2.20      0.00
  -21   40    2     -2.70      0.00
  -21   40    5      1.55      0.00
  -18   40    5     -1.18      0.00
  -18   40    2      1.19      0.00
  -22   40    1     -0.98      0.00
  -22   40    4     -1.45      0.00
  -17   40    3     -0.52      0.00
  -17   40    0      0.70      0.00
  -23   40    3     -0.93      0.00
  -23   40    6     -0.39      0.00
  -16   40    4      0.88      0.00
  -16   40    1     -0.70      0.00
  -24   40    2     -1.38      0.00
  -24   40    5     -0.78      0.00
  -15   40    5      1.88      0.00
  -15   40    2     -0.79      0.00
  -25   40    1     -3.29      0.00
  -25   40    4      0.49      0.00
  -14   40    3      2.91      0.00
  -14   40    0     -2.68      0.00
  -26   40    3      1.33      0.00
  -13   40    4      0.16      0.00
  -13   40    1      1.92      0.00
  -27   40    2      3.15      0.00
  -12   40    2      1.28      0.00
  -28   40    1      3.74      0.00
  -11   40    3     -0.14      0.00
  -11   40    0      0.09      0.00
  -10   40    4      0.09      0.00
  -10   40    1     -1.58      0.00
  -30   40    2     -0.60      0.00
   -9   40    2      0.05      0.00
  -31   40    1      1.13      0.00
   -8   40    3      1.31      0.00
   -8   40    0      3.26      0.00
   -7   40    1      2.29      0.00
   -6   40    2      2.52      0.00
  -34   40    1     -3.31      0.00
   -5   40    0     -1.10      0.00
   -4   40    1      0.30      0.00
  -20   41    5      0.95      0.00
  -20   41    2      0.16      0.00
  -21   41    1     -0.73      0.00
  -21   41    4      1.71      0.00
  -19   41    3      0.95      0.00
  -19   41    0     -0.20      0.00
  -22   41    3      0.46      0.00
  -22   41    6      1.02      0.00
  -18   41    4     -1.04      0.00
  -18   41    1      1.08      0.00
  -23   41    2      0.84      0.00
  -23   41    5      0.64      0.00
  -17   41    5     -0.11      0.00
  -17   41    2      0.66      0.00
  -24   41    4     -0.04      0.00
  -16   41    3      0.79      0.00
  -16   41    0     -1.21      0.00
  -25   41    3     -0.17      0.00
  -15   41    4      1.78      0.00
  -15   41    1     -1.51      0.00
  -26   41    2     -0.82      0.00
  -14   41    2     -0.13      0.00
  -27   41    1      2.23      0.00
  -13   41    3      0.17      0.00
  -13   41    0      2.96      0.00
  -12   41    4     -0.97      0.00
  -12   41    1      1.08      0.00
  -29   41    2      0.49      0.00
  -11   41    2     -1.65      0.00
  -30   41    1     -2.34      0.00
  -10   41    3      0.05      0.00
  -10   41    0     -1.18      0.00
   -9   41    1      1.60      0.00
   -8   41    2      2.06      0.00
  -33   41    1      0.85      0.00
   -7   41    0     -1.23      0.00
  -20   42    4     -0.91      0.00
  -19   42    5     -1.16      0.00
  -18   42    3     -0.61      0.00
  -17   42    4     -0.68      0.00
  -16   42    2     -0.79      0.00
  -15   42    3     -0.65      0.00
  -15   42    0     -0.30      0.00
  -14   42    4     -1.19      0.00
  -14   42    1      0.28      0.00
  -13   42    2     -0.80      0.00
  -29   42    1      0.37      0.00
  -12   42    3     -0.33      0.00
  -12   42    0     -1.40      0.00
  -11   42    1     -0.86      0.00
   -9   42    0      1.33      0.00
  -28   43    1     -0.09      0.00
  -14   43    0     -0.36      0.00
   -1    2    0    -22.06      0.00
    0    3    0   -163.07      0.00
   -2    4    0   -141.18      0.00
   -1    1    1    282.52      0.00
    0    2    1    -82.45      0.00
   -2    3    1   -220.39      0.00
   -1    4    1    -45.61      0.00
  -24   41    1      0.32      0.00
  -30   38    4     -0.17      0.00
  -33   34    5     -1.25      0.00
    0   34    5     -0.49      0.00
  -32   35    5      0.60      0.00
   -2   35    5     -1.59      0.00
  -31   36    5      0.35      0.00
  -30   37    5     -0.44      0.00
  -26   38    5     -0.38      0.00
  -33   33    6     -0.34      0.00
  -32   34    6     -1.08      0.00
  -31   35    6      0.82      0.00
  -28   35    6      1.46      0.00
  -27   36    6      2.15      0.00
  -26   37    6     -1.46      0.00
  -11   37    6      1.43      0.00
  -31   31    7      0.80      0.00
  -30   32    7     -1.17      0.00
  -29   33    7     -0.23      0.00
  -28   34    7     -0.59      0.00
  -27   35    7      2.61      0.00
  -24   35    7     -2.29      0.00
  -23   36    7     -1.25      0.00
  -14   36    7     -0.56      0.00
  -30   31    8     -0.37      0.00
  -27   31    8      2.04      0.00
  -29   32    8     -0.39      0.00
  -26   32    8     -0.17      0.00
  -25   33    8     -0.24      0.00
  -24   34    8     -1.26      0.00
  -21   34    8      2.20      0.00
  -17   35    8      1.26      0.00
  -28   29    9     -1.06      0.00
  -27   30    9      1.43      0.00
  -26   31    9      0.33      0.00
  -23   31    9     -2.04      0.00
  -22   32    9     -0.16      0.00
  -21   33    9      2.04      0.00
  -18   33    9     -0.09      0.00
  -26   27   10      2.05      0.00
  -25   28   10     -1.23      0.00
  -24   29   10     -0.26      0.00
  -19   31   10     -1.00      0.00
  -24   25   11     -0.07      0.00
  -23   26   11     -0.59      0.00
    0   21   12      4.51      0.00
   -2   22   12      0.76      0.00
   -7    7   13      9.45      0.00
  -10   10   13     -3.18      0.00
   -1   16   13     -0.60      0.00
    0   17   13     -0.36      0.00
   -5   18   13     -0.30      0.00
   -2   18   13     -0.19      0.00
   -4   19   13      0.28      0.00
   -6   20   13      1.69      0.00
    0   10   14     -1.90      0.00
  -11   11   14     -0.23      0.00
  -10   12   14     -0.08      0.00
  -12   13   14      2.80      0.00
   -9   13   14      0.53      0.00
    0   13   14     -0.79      0.00
   -8   14   14      2.16      0.00
  -10   15   14     -1.56      0.00
   -7   15   14     -0.22      0.00
    0    0    0      0.00      0.00
# SQUEEZE RESULTS (Version = 300118)
# Note: Data are Listed for all Voids in the P1 Unit Cell
# i.e. Centre of Gravity, Solvent Accessible Volume,
# Recovered number of Electrons in the Void and
# Details about the Squeezed Material
loop_
  _platon_squeeze_void_nr
  _platon_squeeze_void_average_x
  _platon_squeeze_void_average_y
  _platon_squeeze_void_average_z
  _platon_squeeze_void_volume
  _platon_squeeze_void_count_electrons
  _platon_squeeze_void_content
   1 -0.000 -0.000  0.500        73         0 ' '
   2 -0.000 -0.000 -0.000       844       204 ' '
   3  0.333  0.667  0.667       842       205 ' '
   4  0.333  0.667  0.167        75         0 ' '
   5  0.667  0.333  0.333       843       205 ' '
   6  0.667  0.333  0.833        75         0 ' '
# Missing Reflections Below sin(th)/lambda = 0.25
loop_
  _platon_missing_refln_index_h
  _platon_missing_refln_index_k
  _platon_missing_refln_index_l
  _platon_missing_refln_theta
   -1    2    0     1.270
    0    3    0     2.201
   -2    4    0     2.541
   -1    1    1     1.916
    0    2    1     2.299
   -2    3    1     2.627
   -1    4    1     3.184
_platon_squeeze_void_probe_radius                  1.20
_platon_squeeze_details
)
TITL al57e in R-3m; 130K; Xcalibur
CELL   32.0583   32.0583   11.5030     90.00     90.00    120.00
SPGR R-3m
# Solvent Accessible Volume =      2751
# Electrons Found in S.A.V. =       608
# Note: Atoms in Void are Labelled as Cxxx and Qxxx for all Others
C101 0.819 0.795 0.028 !       3.21 eA-3
C102 0.531 0.899 0.717 !       2.86 eA-3
C103 0.813 0.244 0.404 !       2.06 eA-3
C104 0.484 0.298 0.236 !       1.36 eA-3
C105 0.156 0.663 0.543 !       1.23 eA-3
C106 0.257 0.804 0.685 !       1.11 eA-3
Q107 0.984 0.494 0.127 !       0.52 eA-3
Q108 0.070 0.174 0.339 !       0.51 eA-3
)
;
_shelx_fab_checksum              84855
loop_
_space_group_symop_operation_xyz
'x, y, z'
'-y, x-y, z'
'-x+y, -x, z'
'y, x, -z'
'x-y, -y, -z'
'-x, -x+y, -z'
'x+2/3, y+1/3, z+1/3'
'-y+2/3, x-y+1/3, z+1/3'
'-x+y+2/3, -x+1/3, z+1/3'
'y+2/3, x+1/3, -z+1/3'
'x-y+2/3, -y+1/3, -z+1/3'
'-x+2/3, -x+y+1/3, -z+1/3'
'x+1/3, y+2/3, z+2/3'
'-y+1/3, x-y+2/3, z+2/3'
'-x+y+1/3, -x+2/3, z+2/3'
'y+1/3, x+2/3, -z+2/3'
'x-y+1/3, -y+2/3, -z+2/3'
'-x+1/3, -x+y+2/3, -z+2/3'
'-x, -y, -z'
'y, -x+y, -z'
'x-y, x, -z'
'-y, -x, z'
'-x+y, y, z'
'x, x-y, z'
'-x+2/3, -y+1/3, -z+1/3'
'y+2/3, -x+y+1/3, -z+1/3'
'x-y+2/3, x+1/3, -z+1/3'
'-y+2/3, -x+1/3, z+1/3'
'-x+y+2/3, y+1/3, z+1/3'
'x+2/3, x-y+1/3, z+1/3'
'-x+1/3, -y+2/3, -z+2/3'
'y+1/3, -x+y+2/3, -z+2/3'
'x-y+1/3, x+2/3, -z+2/3'
'-y+1/3, -x+2/3, z+2/3'
'-x+y+1/3, y+2/3, z+2/3'
'x+1/3, x-y+2/3, z+2/3'
loop_
_atom_site_label
_atom_site_type_symbol
_atom_site_fract_x
_atom_site_fract_y
_atom_site_fract_z
_atom_site_U_iso_or_equiv
_atom_site_adp_type
_atom_site_occupancy
_atom_site_site_symmetry_order
_atom_site_calc_flag
_atom_site_refinement_flags_posn
_atom_site_refinement_flags_adp
_atom_site_refinement_flags_occupancy
_atom_site_disorder_assembly
_atom_site_disorder_group
Zn1 Zn 0.57374(2) 0.78687(2) 0.14009(2) 0.02946(9) Uani 1 2 d S T P . .
Zn2 Zn 0.52872(2) 0.666667 0.166667 0.04635(11) Uani 1 2 d S T P . .
N1 N 0.63176(7) 0.81588(3) 0.25790(16) 0.0322(4) Uani 1 2 d DS TU P . .
C1 C 0.67308(15) 0.8097(2) 0.2142(3) 0.0583(12) Uani 0.5 1 d D U P . .
H1A H 0.682519 0.823373 0.135033 0.070 Uiso 0.5 1 calc R U P . .
H1B H 0.662926 0.775071 0.210648 0.070 Uiso 0.5 1 calc R U P . .
C2 C 0.61681(15) 0.78636(15) 0.3680(3) 0.0633(13) Uani 0.5 1 d D U P . .
H2A H 0.603892 0.751978 0.348528 0.076 Uiso 0.5 1 calc R U P . .
H2B H 0.590931 0.789502 0.406706 0.076 Uiso 0.5 1 calc R U P . .
C3 C 0.64861(18) 0.86462(14) 0.2822(4) 0.0638(13) Uani 0.5 1 d D U P . .
H3A H 0.620985 0.869051 0.301559 0.077 Uiso 0.5 1 calc R U P . .
H3B H 0.664505 0.884093 0.212124 0.077 Uiso 0.5 1 calc R U P . .
O11 O 0.56288(6) 0.65436(5) 0.29186(14) 0.0587(4) Uani 1 1 d . . . . .
O12 O 0.50818(5) 0.57634(5) 0.31247(11) 0.0497(3) Uani 1 1 d . . . . .
C11 C 0.54710(7) 0.61342(6) 0.33564(14) 0.0383(4) Uani 1 1 d . . . . .
C12 C 0.57786(7) 0.60876(6) 0.42459(15) 0.0375(4) Uani 1 1 d . . . . .
C13 C 0.62380(7) 0.64186(7) 0.45718(17) 0.0491(5) Uani 1 1 d . . . . .
H13 H 0.641450 0.673401 0.425581 0.059 Uiso 1 1 calc R U . . .
S1 S 0.55596(2) 0.55596(2) 0.500000 0.03690(14) Uani 1 2 d S T P . .
O1S O 0.52611(5) 0.72293(5) 0.20296(14) 0.0559(4) Uani 1 1 d . U . . .
C1S C 0.48910(10) 0.72226(9) 0.2680(3) 0.0787(8) Uani 1 1 d . U . . .
C2S C 0.46470(19) 0.69031(18) 0.3573(5) 0.0721(13) Uani 0.5 1 d . U P A .
H2S1 H 0.488515 0.697049 0.419742 0.086 Uiso 0.5 1 calc R U P . .
H2S2 H 0.454848 0.657702 0.327483 0.086 Uiso 0.5 1 calc R U P . .
C3S C 0.4201(2) 0.6872(2) 0.4157(6) 0.0931(18) Uani 0.5 1 d D U P . .
C4S C 0.4016(3) 0.6502(3) 0.5151(7) 0.111(3) Uani 0.451(4) 1 d D U P A 1
H4S1 H 0.373281 0.648997 0.550673 0.167 Uiso 0.451(4) 1 calc R U P A 1
H4S2 H 0.392903 0.618373 0.484242 0.167 Uiso 0.451(4) 1 calc R U P A 1
H4S3 H 0.426971 0.659680 0.573787 0.167 Uiso 0.451(4) 1 calc R U P A 1
C4S' C 0.3678(8) 0.657(2) 0.374(5) 0.106(8) Uani 0.049(4) 1 d D U P A 2
H4S4 H 0.346612 0.661876 0.427346 0.159 Uiso 0.049(4) 1 calc R U P A 2
H4S5 H 0.364910 0.667584 0.295767 0.159 Uiso 0.049(4) 1 calc R U P A 2
H4S6 H 0.358453 0.623085 0.372471 0.159 Uiso 0.049(4) 1 calc R U P A 2
loop_
_atom_site_aniso_label
_atom_site_aniso_U_11
_atom_site_aniso_U_22
_atom_site_aniso_U_33
_atom_site_aniso_U_23
_atom_site_aniso_U_13
_atom_site_aniso_U_12
Zn1 0.02845(14) 0.02923(12) 0.03046(14) 0.00054(5) 0.00108(10) 0.01422(7)
Zn2 0.04104(14) 0.03277(16) 0.0625(2) 0.01899(14) 0.00949(7) 0.01638(8)
N1 0.0281(9) 0.0341(7) 0.0324(9) 0.0011(4) 0.0021(7) 0.0141(5)
C1 0.047(2) 0.104(4) 0.043(2) -0.022(2) -0.0125(18) 0.051(2)
C2 0.047(2) 0.064(3) 0.0331(17) 0.0091(17) -0.0118(16) -0.0070(19)
C3 0.063(3) 0.036(2) 0.098(4) -0.019(2) -0.047(3) 0.029(2)
O11 0.0561(9) 0.0424(8) 0.0661(9) 0.0189(7) -0.0042(7) 0.0160(7)
O12 0.0567(9) 0.0388(7) 0.0451(7) 0.0015(6) -0.0158(6) 0.0176(6)
C11 0.0431(10) 0.0363(9) 0.0327(8) 0.0017(7) 0.0036(7) 0.0178(8)
C12 0.0412(9) 0.0318(8) 0.0326(8) 0.0025(7) 0.0032(7) 0.0131(7)
C13 0.0437(11) 0.0344(9) 0.0510(10) 0.0066(8) 0.0000(9) 0.0059(8)
S1 0.0326(2) 0.0326(2) 0.0344(3) 0.00341(12) -0.00341(12) 0.0079(2)
O1S 0.0471(8) 0.0362(7) 0.0827(10) 0.0201(7) 0.0279(7) 0.0196(6)
C1S 0.0722(16) 0.0468(12) 0.1051(19) 0.0119(13) 0.0555(15) 0.0208(11)
C2S 0.064(3) 0.047(2) 0.102(3) 0.023(2) 0.039(3) 0.026(2)
C3S 0.073(3) 0.081(3) 0.112(4) 0.032(3) 0.052(3) 0.029(3)
C4S 0.093(5) 0.099(5) 0.119(6) 0.043(4) 0.060(5) 0.032(4)
C4S' 0.087(10) 0.088(10) 0.116(11) 0.024(10) 0.044(10) 0.023(10)
loop_
_atom_type_symbol
_atom_type_description
_atom_type_scat_dispersion_real
_atom_type_scat_dispersion_imag
_atom_type_scat_source
C C 0.0033 0.0016 'International Tables Vol C Tables 4.2.6.8 and 6.1.1.4'
H H 0.0000 0.0000 'International Tables Vol C Tables 4.2.6.8 and 6.1.1.4'
N N 0.0061 0.0033 'International Tables Vol C Tables 4.2.6.8 and 6.1.1.4'
O O 0.0106 0.0060 'International Tables Vol C Tables 4.2.6.8 and 6.1.1.4'
S S 0.1246 0.1234 'International Tables Vol C Tables 4.2.6.8 and 6.1.1.4'
Zn Zn 0.2839 1.4301 'International Tables Vol C Tables 4.2.6.8 and 6.1.1.4'
loop_
_geom_angle_atom_site_label_1
_geom_angle_atom_site_label_2
_geom_angle_atom_site_label_3
_geom_angle
_geom_angle_site_symmetry_1
_geom_angle_site_symmetry_3
O12 Zn1 N1 100.04(6) 27 .
O12 Zn1 N1 100.04(6) 11_565 .
O12 Zn1 O12 82.89(8) 11_565 27
O1S Zn1 N1 106.01(6) . .
O1S Zn1 N1 106.01(6) 24_565 .
O1S Zn1 O12 92.23(6) 24_565 27
O1S Zn1 O12 92.24(6) . 11_565
O1S Zn1 O12 153.95(7) . 27
O1S Zn1 O12 153.95(7) 24_565 11_565
O1S Zn1 O1S 80.95(8) 24_565 .
O11 Zn2 O11 97.74(10) 11_565 .
O1S Zn2 O11 111.13(6) . 11_565
O1S Zn2 O11 108.92(7) . .
O1S Zn2 O11 108.92(7) 11_565 11_565
O1S Zn2 O11 111.13(6) 11_565 .
O1S Zn2 O1S 117.27(9) 11_565 .
C1 N1 Zn1 111.40(17) . .
C1 N1 Zn1 111.40(17) 24_565 .
C1 N1 C1 68.9(4) 24_565 .
C2 N1 Zn1 109.27(17) . .
C2 N1 Zn1 109.27(17) 24_565 .
C2 N1 C1 138.6(2) . 24_565
C2 N1 C1 138.6(2) 24_565 .
C2 N1 C1 102.7(3) . .
C2 N1 C1 102.7(3) 24_565 24_565
C2 N1 C2 55.9(4) 24_565 .
C3 N1 Zn1 112.54(15) . .
C3 N1 Zn1 112.54(15) 24_565 .
C3 N1 C1 45.0(3) . 24_565
C3 N1 C1 45.0(3) 24_565 .
C3 N1 C1 109.6(4) . .
C3 N1 C1 109.6(4) 24_565 24_565
C3 N1 C2 59.5(3) . 24_565
C3 N1 C2 59.5(3) 24_565 .
C3 N1 C2 110.9(3) . .
C3 N1 C2 110.9(3) 24_565 24_565
C3 N1 C3 134.3(3) . 24_565
N1 C1 H1A 109.9 . .
N1 C1 H1B 109.9 . .
N1 C1 C2 108.9(3) . 18_655
N1 C1 H3B 109.7(5) . 24_565
H1A C1 H1B 108.3 . .
H1A C1 H3B 109.0 . 24_565
H1B C1 H3B 0.7 . 24_565
C2 C1 H1A 109.9 18_655 .
C2 C1 H1B 109.9 18_655 .
C2 C1 H3B 109.4(4) 18_655 24_565
N1 C2 C1 110.9(3) . 18_655
N1 C2 H2A 109.5 . .
N1 C2 H2B 109.5 . .
C1 C2 H2A 109.5 18_655 .
C1 C2 H2B 109.5 18_655 .
H2A C2 H2B 108.0 . .
N1 C3 C3 111.58(18) . 18_655
N1 C3 H3A 109.3 . .
N1 C3 H3B 109.3 . .
C3 C3 H3A 109.3 18_655 .
C3 C3 H3B 109.3 18_655 .
H3A C3 H3B 108.0 . .
C11 O11 Zn2 122.11(13) . .
C11 O12 Zn1 143.42(12) . 26_455
O11 C11 C12 116.33(16) . .
O12 C11 O11 126.86(17) . .
O12 C11 C12 116.81(15) . .
C11 C12 S1 119.11(13) . .
C13 C12 C11 128.64(16) . .
C13 C12 S1 112.26(14) . .
C12 C13 C13 112.20(11) . 4_556
C12 C13 H13 123.9 . .
C13 C13 H13 123.9 4_556 .
C12 S1 C12 91.07(13) 4_556 .
Zn2 O1S Zn1 121.78(7) . .
C1S O1S Zn1 114.94(13) . .
C1S O1S Zn2 123.12(13) . .
O1S C1S C1S 114.21(12) . 24_565
C2S C1S O1S 124.9(3) . .
C2S C1S C1S 117.2(2) . 24_565
C1S C2S H2S1 106.7 . .
C1S C2S H2S2 106.7 . .
C1S C2S C3S 122.4(4) . .
H2S1 C2S H2S2 106.6 . .
C3S C2S H2S1 106.7 . .
C3S C2S H2S2 106.7 . .
C2S C3S C4S 111.2(6) . .
C2S C3S H4S6 107(2) . 22_665
C4S C3S H4S6 71.6(17) . 22_665
C4S' C3S C2S 126(2) . .
C4S' C3S H4S6 26.4(3) . 22_665
C3S C4S H4S1 109.5 . .
C3S C4S H4S2 109.5 . .
C3S C4S H4S3 109.5 . .
H4S1 C4S H4S2 109.5 . .
H4S1 C4S H4S3 109.5 . .
H4S2 C4S H4S3 109.5 . .
C3S C4S' C4S' 85(2) . 24_565
C3S C4S' H4S4 109.5 . .
C3S C4S' H4S5 109.5 . .
C3S C4S' H4S6 75(4) . 22_665
C3S C4S' H4S6 109.5 . .
C4S' C4S' H4S4 60.1 24_565 .
C4S' C4S' H4S5 67.3 24_565 .
C4S' C4S' H4S6 159(6) 24_565 22_665
C4S' C4S' H4S6 164.6 24_565 .
H4S4 C4S' H4S5 109.5 . .
H4S4 C4S' H4S6 109.5 . .
H4S4 C4S' H4S6 134.3 . 22_665
H4S5 C4S' H4S6 109.5 . .
H4S5 C4S' H4S6 111.4 . 22_665
H4S6 C4S' H4S6 36.7 . 22_665
loop_
_geom_bond_atom_site_label_1
_geom_bond_atom_site_label_2
_geom_bond_distance
_geom_bond_site_symmetry_2
_geom_bond_publ_flag
Zn1 N1 2.1050(19) . yes
Zn1 O12 2.0466(13) 11_565 yes
Zn1 O12 2.0468(13) 27 ?
Zn1 O1S 1.9814(13) . yes
Zn1 O1S 1.9814(13) 24_565 ?
Zn2 O11 1.9650(14) . yes
Zn2 O11 1.9650(14) 11_565 ?
Zn2 O1S 1.8936(14) 11_565 ?
Zn2 O1S 1.8937(14) . yes
N1 C1 1.519(4) . ?
N1 C1 1.519(4) 24_565 ?
N1 C2 1.509(4) . ?
N1 C2 1.509(4) 24_565 ?
N1 C3 1.403(4) . ?
N1 C3 1.403(4) 24_565 ?
C1 H1A 0.9900 . ?
C1 H1B 0.9900 . ?
C1 C2 1.556(5) 18_655 ?
C1 H3B 0.837(6) 24_565 ?
C2 H2A 0.9900 . ?
C2 H2B 0.9900 . ?
C3 C3 1.546(6) 18_655 ?
C3 H3A 0.9900 . ?
C3 H3B 0.9900 . ?
O11 C11 1.252(2) . ?
O12 C11 1.248(2) . ?
C11 C12 1.479(2) . ?
C12 C13 1.369(3) . ?
C12 S1 1.7094(17) . ?
C13 C13 1.406(4) 4_556 ?
C13 H13 0.9500 . ?
O1S C1S 1.394(3) . ?
C1S C1S 1.429(5) 24_565 ?
C1S C2S 1.384(5) . ?
C2S H2S1 0.9900 . ?
C2S H2S2 0.9900 . ?
C2S C3S 1.536(7) . ?
C3S C4S 1.537(8) . ?
C3S C4S' 1.535(13) . ?
C3S H4S6 1.51(4) 22_665 ?
C4S H4S1 0.9800 . ?
C4S H4S2 0.9800 . ?
C4S H4S3 0.9800 . ?
C4S' C4S' 1.71(13) 24_565 ?
C4S' H4S4 0.9800 . ?
C4S' H4S5 0.9800 . ?
C4S' H4S6 0.697(10) 22_665 ?
C4S' H4S6 0.9800 . ?
