#------------------------------------------------------------------------------
#$Date: 2019-10-28 01:55:41 +0200 (Mon, 28 Oct 2019) $
#$Revision: 219554 $
#$URL: file:///home/coder/svn-repositories/cod/cif/4/12/72/4127283.cif $
#------------------------------------------------------------------------------
#
# This file is available in the Crystallography Open Database (COD),
# http://www.crystallography.net/
#
# All data on this site have been placed in the public domain by the
# contributors.
#
data_4127283
loop_
_publ_author_name
'Tan, Chunxia'
'Yang, Kuiwei'
'Dong, Jinqiao'
'Liu, Yuhao'
'Liu, Yan'
'Jiang, Jianwen'
'Cui, Yong'
_publ_section_title
;
 Boosting Enantioselectivity of Chiral Organocatalysts with Ultrathin
 Two-Dimensional Metal-Organic Framework Nanosheets.
;
_journal_name_full               'Journal of the American Chemical Society'
_journal_paper_doi               10.1021/jacs.9b07633
_journal_year                    2019
_chemical_absolute_configuration rmad
_chemical_formula_moiety         'C76 H76 O25 S4 Zn4, C2 H3 N, C3 H7 N O'
_chemical_formula_sum            'C81 H86 N2 O26 S4 Zn4'
_chemical_formula_weight         1893.23
_chemical_name_systematic        T3145
_space_group_crystal_system      triclinic
_space_group_IT_number           1
_space_group_name_Hall           'P 1'
_space_group_name_H-M_alt        'P 1'
_symmetry_space_group_name_Hall  'P 1'
_symmetry_space_group_name_H-M   'P 1'
_atom_sites_solution_hydrogens   geom
_audit_creation_date             2018-06-17
_audit_creation_method
;
Olex2 1.2
(compiled 2018.05.29 svn.r3508 for OlexSys, GUI svn.r5506)
;
_cell_angle_alpha                112.7680(10)
_cell_angle_beta                 103.6510(10)
_cell_angle_gamma                91.1570(10)
_cell_formula_units_Z            1
_cell_length_a                   13.9028(3)
_cell_length_b                   14.2795(3)
_cell_length_c                   16.7217(4)
_cell_measurement_reflns_used    9959
_cell_measurement_temperature    273.15
_cell_measurement_theta_max      21.85
_cell_measurement_theta_min      2.26
_cell_volume                     2951.40(12)
_computing_cell_refinement       'SAINT V8.38A (?, 2016)'
_computing_data_reduction        'SAINT V8.38A (?, 2016)'
_computing_molecular_graphics    'Olex2 (Dolomanov et al., 2009)'
_computing_publication_material  'Olex2 (Dolomanov et al., 2009)'
_computing_structure_refinement  'XL (Sheldrick, 2008)'
_computing_structure_solution    'SHELXT 2014/5 (Sheldrick, 2014)'
_diffrn_ambient_temperature      273.15
_diffrn_measured_fraction_theta_full 0.942
_diffrn_measured_fraction_theta_max 0.942
_diffrn_measurement_device_type  'Bruker APEX-II CCD'
_diffrn_measurement_method       '\f and \w scans'
_diffrn_radiation_type           CuK\a
_diffrn_radiation_wavelength     1.54178
_diffrn_reflns_av_R_equivalents  0.0184
_diffrn_reflns_av_unetI/netI     0.0439
_diffrn_reflns_Laue_measured_fraction_full 0.942
_diffrn_reflns_Laue_measured_fraction_max 0.942
_diffrn_reflns_limit_h_max       15
_diffrn_reflns_limit_h_min       -15
_diffrn_reflns_limit_k_max       16
_diffrn_reflns_limit_k_min       -16
_diffrn_reflns_limit_l_max       19
_diffrn_reflns_limit_l_min       -19
_diffrn_reflns_number            32839
_diffrn_reflns_point_group_measured_fraction_full 0.936
_diffrn_reflns_point_group_measured_fraction_max 0.936
_diffrn_reflns_theta_full        61.695
_diffrn_reflns_theta_max         61.695
_diffrn_reflns_theta_min         4.544
_diffrn_standards_number         0
_exptl_absorpt_coefficient_mu    2.054
_exptl_absorpt_correction_type   none
_exptl_crystal_colour            'clear light colourless'
_exptl_crystal_colour_lustre     clear
_exptl_crystal_colour_modifier   light
_exptl_crystal_colour_primary    colourless
_exptl_crystal_density_diffrn    1.065
_exptl_crystal_description       block
_exptl_crystal_F_000             978
_exptl_crystal_size_max          0.04
_exptl_crystal_size_mid          0.04
_exptl_crystal_size_min          0.01
_platon_squeeze_details
;
TITL T3145-a_0m_a.res in P1
CELL   13.9028   14.2795   16.7217    112.77    103.65     91.16
SPGR P1
# Solvent Accessible Volume =      1165
# Electrons Found in S.A.V. =       241
# Note: Atoms in Void as Cxxx and Qxxx all others
C101 0.152 0.728 0.184 !       6.37 eA-3
C102 0.015 0.387 0.904 !       4.30 eA-3
C103 0.156 0.535 0.027 !       3.49 eA-3
C104 0.029 0.276 0.064 !       3.35 eA-3
C105 0.982 0.612 0.466 !       3.21 eA-3
C106 0.957 0.579 0.522 !       3.14 eA-3
C107 0.015 0.328 0.239 !       3.12 eA-3
C108 0.302 0.733 0.611 !       2.65 eA-3
C109 0.608 0.582 0.510 !       2.58 eA-3
C110 0.140 0.139 0.940 !       2.52 eA-3
C111 0.046 0.595 0.575 !       2.45 eA-3
C112 0.948 0.506 0.325 !       2.41 eA-3
C113 0.392 0.899 0.455 !       2.40 eA-3
C114 0.873 0.556 0.539 !       2.39 eA-3
C115 0.173 0.245 0.029 !       2.36 eA-3
C116 0.336 0.781 0.314 !       2.30 eA-3
C117 0.997 0.548 0.397 !       2.29 eA-3
C118 0.784 0.553 0.473 !       2.25 eA-3
C119 0.095 0.378 0.970 !       2.23 eA-3
C120 0.094 0.454 0.970 !       2.22 eA-3
C121 0.893 0.616 0.479 !       2.12 eA-3
C122 0.256 0.273 0.487 !       2.10 eA-3
C123 0.621 0.518 0.581 !       2.07 eA-3
C124 0.108 0.306 0.058 !       2.03 eA-3
C125 0.280 0.512 0.717 !       2.03 eA-3
C126 0.582 0.511 0.534 !       1.99 eA-3
C127 0.206 0.373 0.343 !       1.99 eA-3
C128 0.360 0.654 0.828 !       1.98 eA-3
C129 0.286 0.200 0.455 !       1.89 eA-3
C130 0.344 0.030 0.458 !       1.78 eA-3
C131 0.286 0.150 0.580 !       1.74 eA-3
C132 0.448 0.846 0.486 !       1.71 eA-3
C133 0.415 0.346 0.643 !       1.66 eA-3
C134 0.533 0.511 0.454 !       1.64 eA-3
C135 0.184 0.465 0.655 !       1.63 eA-3
C136 0.341 0.842 0.596 !       1.60 eA-3
C137 0.303 0.133 0.503 !       1.60 eA-3
C138 0.107 0.266 0.968 !       1.57 eA-3
C139 0.349 0.871 0.373 !       1.56 eA-3
C140 0.281 0.270 0.063 !       1.54 eA-3
C141 0.309 0.203 0.563 !       1.51 eA-3
C142 0.393 0.848 0.565 !       1.50 eA-3
C143 0.339 0.292 0.596 !       1.46 eA-3
C144 0.377 0.456 0.705 !       1.44 eA-3
C145 0.296 0.809 0.661 !       1.44 eA-3
C146 0.375 0.546 0.253 !       1.44 eA-3
C147 0.341 0.950 0.390 !       1.43 eA-3
C148 0.320 0.323 0.629 !       1.42 eA-3
C149 0.236 0.377 0.610 !       1.39 eA-3
C150 0.247 0.549 0.652 !       1.38 eA-3
C151 0.287 0.588 0.785 !       1.34 eA-3
C152 0.066 0.680 0.546 !       1.34 eA-3
C153 0.576 0.623 0.624 !       1.32 eA-3
C154 0.597 0.441 0.568 !       1.29 eA-3
C155 0.454 0.544 0.150 !       1.27 eA-3
C156 0.407 0.925 0.533 !       1.24 eA-3
C157 0.402 0.528 0.207 !       1.21 eA-3
C158 0.504 0.726 0.572 !       1.18 eA-3
C159 0.386 0.291 0.280 !       1.16 eA-3
C160 0.056 0.314 0.923 !       1.16 eA-3
C161 0.384 0.025 0.497 !       1.14 eA-3
C162 0.171 0.560 0.280 !       1.14 eA-3
C163 0.276 0.346 0.392 !       1.12 eA-3
C164 0.307 0.492 0.345 !       1.07 eA-3
C165 0.586 0.644 0.574 !       1.06 eA-3
C166 0.470 0.798 0.544 !       1.06 eA-3
C167 0.274 0.640 0.224 !       1.05 eA-3
C168 0.280 0.683 0.518 !       1.05 eA-3
C169 0.499 0.436 0.455 !       1.04 eA-3
C170 0.287 0.648 0.283 !       1.03 eA-3
C171 0.361 0.688 0.655 !       1.02 eA-3
C172 0.325 0.311 0.508 !       1.01 eA-3
C173 0.390 0.812 0.390 !       1.01 eA-3
C174 0.194 0.531 0.097 !       1.00 eA-3
C175 0.361 0.359 0.076 !       0.99 eA-3
C176 0.298 0.592 0.476 !       0.99 eA-3
C177 0.458 0.441 0.377 !       0.96 eA-3
C178 0.313 0.415 0.659 !       0.93 eA-3
C179 0.300 0.894 0.309 !       0.90 eA-3
C180 0.070 0.579 0.387 !       0.90 eA-3
C181 0.065 0.238 0.017 !       0.87 eA-3
C182 0.524 0.682 0.635 !       0.85 eA-3
C183 0.346 0.748 0.691 !       0.85 eA-3
C184 0.363 0.846 0.493 !       0.84 eA-3
C185 0.261 0.557 0.498 !       0.83 eA-3
C186 0.267 0.474 0.644 !       0.82 eA-3
Q187 0.028 0.081 0.893 !       0.81 eA-3
C188 0.248 0.800 0.574 !       0.79 eA-3
Q189 0.067 0.233 0.902 !       0.76 eA-3
C190 0.152 0.599 0.587 !       0.75 eA-3
C191 0.123 0.471 0.278 !       0.75 eA-3
C192 0.340 0.639 0.708 !       0.73 eA-3
C193 0.328 0.353 0.199 !       0.71 eA-3
Q194 0.070 0.109 0.931 !       0.71 eA-3
C195 0.285 0.273 0.165 !       0.70 eA-3
C196 0.317 0.568 0.318 !       0.70 eA-3
C197 0.286 0.486 0.502 !       0.69 eA-3
C198 0.533 0.598 0.448 !       0.68 eA-3
Q199 0.205 0.061 0.593 !       0.67 eA-3
;
_refine_diff_density_max         0.398
_refine_diff_density_min         -0.346
_refine_diff_density_rms         0.040
_refine_ls_abs_structure_details
;
 Flack x determined using 7560 quotients [(I+)-(I-)]/[(I+)+(I-)]
 (Parsons, Flack and Wagner, Acta Cryst. B69 (2013) 249-259).
;
_refine_ls_abs_structure_Flack   0.032(3)
_refine_ls_extinction_method     none
_refine_ls_goodness_of_fit_ref   1.006
_refine_ls_hydrogen_treatment    constr
_refine_ls_matrix_type           full
_refine_ls_number_parameters     1056
_refine_ls_number_reflns         17236
_refine_ls_number_restraints     3
_refine_ls_restrained_S_all      1.006
_refine_ls_R_factor_all          0.0262
_refine_ls_R_factor_gt           0.0243
_refine_ls_shift/su_max          0.019
_refine_ls_shift/su_mean         0.001
_refine_ls_structure_factor_coef Fsqd
_refine_ls_weighting_details
'w=1/[\s^2^(Fo^2^)+(0.0289P)^2^] where P=(Fo^2^+2Fc^2^)/3'
_refine_ls_weighting_scheme      calc
_refine_ls_wR_factor_gt          0.0603
_refine_ls_wR_factor_ref         0.0608
_reflns_Friedel_coverage         0.988
_reflns_Friedel_fraction_full    0.930
_reflns_Friedel_fraction_max     0.930
_reflns_number_gt                16173
_reflns_number_total             17236
_reflns_threshold_expression     'I > 2\s(I)'
_iucr_refine_instructions_details
;
TITL T3145-a_0m_a.res in P1
 t3145-a_0m_sq.res created by SHELXL-2016/4 at 17:07:45 on 17-Jun-2018
REM <autosolution>
REM {'C00Y': 'AtomInfo(hybridisation=3)',
REM 'C018': 'AtomInfo(hybridisation=3)',
REM 'C019': 'AtomInfo(hybridisation=3)',
REM 'C012': 'AtomInfo(hybridisation=3)',
REM 'C013': 'AtomInfo(hybridisation=3)',
REM 'C010': 'AtomInfo(hybridisation=3)',
REM 'C011': 'AtomInfo(hybridisation=3)',
REM 'C016': 'AtomInfo(hybridisation=3)',
REM 'C017': 'AtomInfo(hybridisation=3)',
REM 'C014': 'AtomInfo(hybridisation=3)',
REM 'C015': 'AtomInfo(hybridisation=3)',
REM 'C01J': 'AtomInfo(hybridisation=3)',
REM 'C01K': 'AtomInfo(hybridisation=3)',
REM 'C01H': 'AtomInfo(hybridisation=3)',
REM 'C01I': 'AtomInfo(hybridisation=3)',
REM 'C01N': 'AtomInfo(hybridisation=3)',
REM 'C01O': 'AtomInfo(hybridisation=3)',
REM 'C01L': 'AtomInfo(hybridisation=3)',
REM 'C01M': 'AtomInfo(hybridisation=3)',
REM 'C01B': 'AtomInfo(hybridisation=3)',
REM 'C01C': 'AtomInfo(hybridisation=3)',
REM 'C01A': 'AtomInfo(hybridisation=3)',
REM 'C01F': 'AtomInfo(hybridisation=3)',
REM 'C01G': 'AtomInfo(hybridisation=3)',
REM 'C01D': 'AtomInfo(hybridisation=3)',
REM 'C01E': 'AtomInfo(hybridisation=3)',
REM 'C01Z': 'AtomInfo(hybridisation=3)',
REM 'C01X': 'AtomInfo(hybridisation=3)',
REM 'C01Y': 'AtomInfo(hybridisation=3)',
REM 'C01R': 'AtomInfo(hybridisation=3)',
REM 'C01S': 'AtomInfo(hybridisation=3)',
REM 'C01P': 'AtomInfo(hybridisation=3)',
REM 'C01Q': 'AtomInfo(hybridisation=3)',
REM 'C01V': 'AtomInfo(hybridisation=3)',
REM 'C01W': 'AtomInfo(hybridisation=3)',
REM 'C01T': 'AtomInfo(hybridisation=3)',
REM 'C01U': 'AtomInfo(hybridisation=3)',
REM 'O02B': 'AtomInfo(hybridisation=3)',
REM 'O009': 'AtomInfo(hybridisation=3)',
REM 'O00Q': 'AtomInfo(hybridisation=3)',
REM 'O00P': 'AtomInfo(hybridisation=3)',
REM 'O00S': 'AtomInfo(hybridisation=3)',
REM 'O00R': 'AtomInfo(hybridisation=3)',
REM 'O00U': 'AtomInfo(hybridisation=3)',
REM 'O00T': 'AtomInfo(hybridisation=3)',
REM 'O00W': 'AtomInfo(hybridisation=3)',
REM 'O00V': 'AtomInfo(hybridisation=3)',
REM 'O00X': 'AtomInfo(hybridisation=3)',
REM 'O00Z': 'AtomInfo(hybridisation=3)',
REM 'O00A': 'AtomInfo(hybridisation=3)',
REM 'O00C': 'AtomInfo(hybridisation=3)',
REM 'O00B': 'AtomInfo(hybridisation=3)',
REM 'O00E': 'AtomInfo(hybridisation=3)',
REM 'O00D': 'AtomInfo(hybridisation=3)',
REM 'O00G': 'AtomInfo(hybridisation=3)',
REM 'O00F': 'AtomInfo(hybridisation=3)',
REM 'O00I': 'AtomInfo(hybridisation=3)',
REM 'O00H': 'AtomInfo(hybridisation=3)',
REM 'O00K': 'AtomInfo(hybridisation=3)',
REM 'O00J': 'AtomInfo(hybridisation=3)',
REM 'O00M': 'AtomInfo(hybridisation=3)',
REM 'O00L': 'AtomInfo(hybridisation=3)',
REM 'O00O': 'AtomInfo(hybridisation=3)',
REM 'O00N': 'AtomInfo(hybridisation=3)', 'S005': 'AtomInfo()',
REM 'S007': 'AtomInfo()', 'S006': 'AtomInfo()', 'S008': 'AtomInfo()',
REM 'ZN04': 'AtomInfo()', 'ZN01': 'AtomInfo()', 'ZN02': 'AtomInfo()',
REM 'ZN03': 'AtomInfo()', 'C02O': 'AtomInfo(hybridisation=3)',
REM 'C02N': 'AtomInfo(hybridisation=3)',
REM 'C02M': 'AtomInfo(hybridisation=3)',
REM 'C02L': 'AtomInfo(hybridisation=3)',
REM 'C02K': 'AtomInfo(hybridisation=3)',
REM 'C02J': 'AtomInfo(hybridisation=3)',
REM 'C02I': 'AtomInfo(hybridisation=3)',
REM 'C02H': 'AtomInfo(hybridisation=3)',
REM 'C02G': 'AtomInfo(hybridisation=3)',
REM 'C02F': 'AtomInfo(hybridisation=3)',
REM 'C02E': 'AtomInfo(hybridisation=3)',
REM 'C02D': 'AtomInfo(hybridisation=3)',
REM 'C02C': 'AtomInfo(hybridisation=3)',
REM 'C02A': 'AtomInfo(hybridisation=3)',
REM 'C02Z': 'AtomInfo(hybridisation=3)',
REM 'C02Y': 'AtomInfo(hybridisation=3)',
REM 'C02X': 'AtomInfo(hybridisation=3)',
REM 'C02W': 'AtomInfo(hybridisation=3)',
REM 'C02V': 'AtomInfo(hybridisation=3)',
REM 'C02U': 'AtomInfo(hybridisation=3)',
REM 'C02T': 'AtomInfo(hybridisation=3)',
REM 'C02S': 'AtomInfo(hybridisation=3)',
REM 'C02R': 'AtomInfo(hybridisation=3)',
REM 'C02Q': 'AtomInfo(hybridisation=3)',
REM 'C02P': 'AtomInfo(hybridisation=3)',
REM 'C038': 'AtomInfo(hybridisation=3)',
REM 'C039': 'AtomInfo(hybridisation=3)',
REM 'C035': 'AtomInfo(hybridisation=3)',
REM 'C036': 'AtomInfo(hybridisation=3)',
REM 'C030': 'AtomInfo(hybridisation=3)',
REM 'C031': 'AtomInfo(hybridisation=3)',
REM 'C032': 'AtomInfo(hybridisation=3)',
REM 'C033': 'AtomInfo(hybridisation=3)',
REM 'C03A': 'AtomInfo(hybridisation=3)',
REM 'C03B': 'AtomInfo(hybridisation=3)',
REM 'O034': 'AtomInfo(hybridisation=3)',
REM 'O037': 'AtomInfo(hybridisation=3)',
REM 'C029': 'AtomInfo(hybridisation=3)',
REM 'C028': 'AtomInfo(hybridisation=3)',
REM 'C027': 'AtomInfo(hybridisation=3)',
REM 'C026': 'AtomInfo(hybridisation=3)',
REM 'C025': 'AtomInfo(hybridisation=3)',
REM 'C024': 'AtomInfo(hybridisation=3)',
REM 'C023': 'AtomInfo(hybridisation=3)',
REM 'C022': 'AtomInfo(hybridisation=3)',
REM 'C021': 'AtomInfo(hybridisation=3)',
REM 'C020': 'AtomInfo(hybridisation=3)'}
REM </autosolution>
CELL 1.54178 13.9028 14.2795 16.7217 112.768 103.651 91.157
ZERR 1 0.0003 0.0003 0.0004 0.001 0.001 0.001
LATT -1
SFAC C H N O S Zn
DISP C 0.003 0.001 9.716
DISP H -0 0 0.621
DISP O 0.009 0.005 26.173
DISP S 0.108 0.105 415.928
DISP Zn 0.342 1.261 4649.739
UNIT 81 86 2 26 4 4

L.S. 5 0 277
PLAN  -20 0 0
TEMP 0
BOND $H
ABIN
fmap 2
acta
OMIT 1 -5 2
OMIT -3 1 0
OMIT 3 -1 0
OMIT 0 2 -1
OMIT 1 -1 0
OMIT 2 2 -4
REM <olex2.extras>
REM <HklSrc "%.\\t3145-a_0m_sq.hkl">
REM </olex2.extras>

WGHT    0.028900
FVAR       0.56421
ZN4   6    0.726060    0.139904    0.579050    11.00000    0.02144    0.01746 =
         0.01643    0.00644    0.00721   -0.00286
ZN3   6    0.937979    0.205433    0.596513    11.00000    0.02144    0.01702 =
         0.02154    0.00648    0.00895   -0.00062
S005  5    0.671738   -0.247650    0.375842    11.00000    0.01849    0.01649 =
         0.02024    0.00751    0.00449   -0.00312
S006  5    0.570631    0.143929    0.413718    11.00000    0.02456    0.02081 =
         0.01993    0.00799    0.00660    0.00353
S007  5    1.068812   -0.117923    0.415635    11.00000    0.01943    0.01932 =
         0.02994    0.00607    0.00831   -0.00139
S008  5    0.965217    0.269660    0.444039    11.00000    0.03454    0.02035 =
         0.02960    0.01104    0.01757   -0.00046
O3    4    0.872115   -0.108202    0.476393    11.00000    0.01933    0.01686 =
         0.02140    0.00159    0.00593   -0.00461
O14   4    0.737392    0.284643    0.672925    11.00000    0.02923    0.01908 =
         0.02939    0.00681    0.01373   -0.00400
O4    4    0.987777    0.087278    0.505044    11.00000    0.02585    0.01930 =
         0.02272    0.00960    0.01147    0.00000
O15   4    0.894523    0.329755    0.679676    11.00000    0.02171    0.02017 =
         0.02895    0.00421    0.01042   -0.00266
O10   4    0.691094   -0.214512    0.472509    11.00000    0.02155    0.01995 =
         0.02186    0.01017    0.00430   -0.00398
O9    4    1.142464   -0.173239    0.377469    11.00000    0.02653    0.02994 =
         0.03629    0.00715    0.01203    0.00142
O7    4    1.006477    0.338318    0.413411    11.00000    0.04765    0.02939 =
         0.04597    0.01814    0.02931    0.00159
O13   4    0.476767    0.166803    0.371594    11.00000    0.02697    0.03057 =
         0.02898    0.01222    0.00158    0.00787
O8    4    1.087049   -0.083053    0.512514    11.00000    0.02138    0.02504 =
         0.02693    0.00666    0.00628    0.00137
O19   4    1.008782    0.923144    0.662060    11.00000    0.02428    0.02789 =
         0.03722    0.01937   -0.00222   -0.00504
O11   4    0.610793   -0.344245    0.321862    11.00000    0.02442    0.01680 =
         0.02535    0.00358    0.00310   -0.00409
O16   4    0.957705    0.517020    0.734592    11.00000    0.02454    0.01848 =
         0.03654    0.00478    0.01460   -0.00034
AFIX 147
H16   2    0.959857    0.455089    0.712949    11.00000   -1.50000
AFIX   0
O6    4    0.988346    0.300264    0.540600    11.00000    0.03239    0.02206 =
         0.03005    0.01042    0.01514   -0.00532
O12   4    0.592157    0.171607    0.509830    11.00000    0.02934    0.02561 =
         0.01976    0.00701    0.01029    0.00433
O17   4    0.808923    0.743661    0.709508    11.00000    0.02258    0.03430 =
         0.02760    0.01974   -0.00218   -0.00360
AFIX 147
H17   2    0.797106    0.778142    0.679701    11.00000   -1.50000
AFIX   0
O18   4    0.851300    0.859988    0.635471    11.00000    0.02084    0.03123 =
         0.03037    0.01882    0.00472    0.00033
O2    4    0.680890   -0.010857    0.482613    11.00000    0.02198    0.01497 =
         0.01244    0.00071    0.00104   -0.00305
O5    4    0.799025    0.176353    0.496638    11.00000    0.02699    0.02620 =
         0.02434    0.01717    0.01236    0.00257

N034  3    0.734031    0.002434    0.116438    11.00000    0.14501    0.09733 =
         0.09035    0.05245    0.00970    0.04098
C59   1    0.811344    0.350007    0.698675    11.00000    0.03234    0.01661 =
         0.01871    0.00746    0.00999   -0.00241
C26   1    0.700801    0.271567    0.285380    11.00000    0.04604    0.02396 =
         0.02489    0.01450    0.00671   -0.00113
C6    1    0.953671   -0.195630    0.361791    11.00000    0.02433    0.02018 =
         0.02933    0.01009    0.00650   -0.00059
C3    1    0.780299   -0.324932    0.258124    11.00000    0.01960    0.02232 =
         0.01824    0.00514    0.00065   -0.00316
AFIX  43
H3    2    0.721660   -0.369135    0.225107    11.00000   -1.20000
AFIX   0
C77   1    0.938446    0.716950    0.814770    11.00000    0.02429    0.01592 =
         0.01641    0.00599    0.00433   -0.00344
C12   1    1.055761   -0.013342    0.384231    11.00000    0.02541    0.02127 =
         0.03373    0.00854    0.01091   -0.00422
C24   1    0.666041    0.203152    0.389218    11.00000    0.04018    0.01578 =
         0.01768    0.00806    0.00820    0.00311
C72   1    1.072689    0.847977    0.795216    11.00000    0.02818    0.03070 =
         0.02873    0.01364    0.00064   -0.01226
AFIX  43
H72   2    1.117790    0.892229    0.789240    11.00000   -1.20000
AFIX   0
C36   1    0.514895   -0.132227    0.210511    11.00000    0.01535    0.02713 =
         0.02220    0.01017    0.00409    0.00038
C22   1    0.834947    0.252768    0.400293    11.00000    0.04049    0.01736 =
         0.02289    0.00633    0.01199    0.00416
C64   1    0.784782    0.662377    0.850347    11.00000    0.03010    0.01865 =
         0.02027    0.00561    0.00690    0.00164
C31   1    0.521004   -0.028587    0.266692    11.00000    0.02020    0.02765 =
         0.01908    0.01306    0.00706    0.00671
AFIX  43
H31   2    0.488592    0.015270    0.243365    11.00000   -1.20000
AFIX   0
C1    1    0.870192   -0.181067    0.399608    11.00000    0.02340    0.01312 =
         0.01875    0.00665    0.00646   -0.00091
C2    1    0.785517   -0.252606    0.344543    11.00000    0.02042    0.01613 =
         0.02740    0.01201    0.00732    0.00157
C21   1    0.801577    0.282688    0.329279    11.00000    0.04875    0.02103 =
         0.02627    0.01314    0.01370   -0.00048
AFIX  43
H21   2    0.848228    0.311038    0.310605    11.00000   -1.20000
AFIX   0
C23   1    0.767480    0.208632    0.432038    11.00000    0.02893    0.01517 =
         0.01509    0.00381    0.01220    0.00025
C66   1    0.865730    0.638014    0.813579    11.00000    0.02135    0.01518 =
         0.01719    0.00639    0.00266   -0.00257
C5    1    0.947294   -0.268619    0.275585    11.00000    0.02676    0.02552 =
         0.02079    0.00937    0.01216    0.00081
AFIX  43
H5    2    1.003661   -0.274928    0.253930    11.00000   -1.20000
AFIX   0
C62   1    0.713407    0.585963    0.838647    11.00000    0.03007    0.02528 =
         0.01929    0.00649    0.01274    0.00375
C33   1    0.626963   -0.049278    0.399504    11.00000    0.01408    0.02186 =
         0.01097    0.00376    0.00538   -0.00464
C34   1    0.613304   -0.154846    0.342583    11.00000    0.01916    0.02145 =
         0.01966    0.01123    0.00781   -0.00069
C25   1    0.634333    0.232348    0.317942    11.00000    0.04456    0.01694 =
         0.02220    0.00391    0.01108    0.00404
AFIX  43
H25   2    0.566339    0.225314    0.291300    11.00000   -1.20000
AFIX   0
C75   1    1.037296    0.735888    0.863996    11.00000    0.02404    0.02547 =
         0.02544    0.01137    0.00024   -0.00263
C73   1    1.105588    0.804124    0.854475    11.00000    0.03215    0.04305 =
         0.03410    0.02154   -0.00548   -0.01391
C39   1    0.364278   -0.242127    0.095835    11.00000    0.03055    0.03010 =
         0.02453    0.01180   -0.00214   -0.00079
AFIX 137
H39A  2    0.380675   -0.297886    0.112998    11.00000   -1.50000
H39B  2    0.328854   -0.268657    0.033327    11.00000   -1.50000
H39C  2    0.323127   -0.201624    0.131305    11.00000   -1.50000
AFIX   0
C40   1    0.527118   -0.241088    0.056337    11.00000    0.03320    0.03937 =
         0.02491    0.00891    0.00825    0.00679
AFIX 137
H40A  2    0.586929   -0.199335    0.065278    11.00000   -1.50000
H40B  2    0.491859   -0.269719   -0.006261    11.00000   -1.50000
H40C  2    0.544135   -0.295349    0.075438    11.00000   -1.50000
AFIX   0
C16   1    1.068788    0.044408    0.267314    11.00000    0.06537    0.03952 =
         0.05295    0.02174    0.04457    0.01220
C65   1    0.774223    0.773605    0.900680    11.00000    0.03419    0.02068 =
         0.03559    0.00527    0.01410    0.00693
AFIX 137
H65A  2    0.839206    0.812224    0.929697    11.00000   -1.50000
H65B  2    0.739132    0.779430    0.945102    11.00000   -1.50000
H65C  2    0.737628    0.799790    0.859200    11.00000   -1.50000
AFIX   0

C78   1    0.791574   -0.049414    0.249290    11.00000    0.03927    0.04205 =
         0.04403    0.01512    0.01254   -0.00438
AFIX 137
H78A  2    0.798621   -0.121061    0.227917    11.00000   -1.50000
H78B  2    0.743141   -0.035248    0.283605    11.00000   -1.50000
H78C  2    0.854614   -0.010343    0.286633    11.00000   -1.50000
AFIX   0

C27   1    0.663064    0.302855    0.205985    11.00000    0.06230    0.04035 =
         0.03041    0.02216    0.01142   -0.00142
C38   1    0.436045   -0.091757    0.078506    11.00000    0.03062    0.03420 =
         0.02400    0.01372    0.00348   -0.00948
AFIX 137
H38A  2    0.390160   -0.052139    0.108297    11.00000   -1.50000
H38B  2    0.406298   -0.121964    0.014781    11.00000   -1.50000
H38C  2    0.496086   -0.048125    0.091390    11.00000   -1.50000
AFIX   0
C7    1    0.855823   -0.408818    0.124009    11.00000    0.03891    0.03326 =
         0.02436    0.00101    0.01204   -0.01130
C10   1    0.883791   -0.347929    0.072419    11.00000    0.06641    0.07125 =
         0.02388    0.01259    0.00532   -0.03458
AFIX 137
H10A  2    0.878677   -0.393791    0.011404    11.00000   -1.50000
H10B  2    0.950980   -0.314670    0.100744    11.00000   -1.50000
H10C  2    0.839132   -0.297409    0.072982    11.00000   -1.50000
AFIX   0
C8    1    0.750569   -0.466438    0.073436    11.00000    0.04419    0.04595 =
         0.02817    0.00211    0.01055   -0.01182
AFIX 137
H8A   2    0.702837   -0.418220    0.078357    11.00000   -1.50000
H8B   2    0.735422   -0.512643    0.099163    11.00000   -1.50000
H8C   2    0.747705   -0.504441    0.011198    11.00000   -1.50000
AFIX   0

C79   1    0.759273   -0.021953    0.174283    11.00000    0.05929    0.04640 =
         0.05554    0.02672    0.01614    0.01121
C63   1    0.622534    0.607676    0.876372    11.00000    0.03985    0.03591 =
         0.05414    0.01861    0.03002    0.01341
AFIX 137
H63A  2    0.644145    0.646316    0.940261    11.00000   -1.50000
H63B  2    0.584779    0.544154    0.863576    11.00000   -1.50000
H63C  2    0.581537    0.646211    0.849001    11.00000   -1.50000
AFIX   0
C74   1    1.213036    0.825285    0.907241    11.00000    0.03356    0.08231 =
         0.06668    0.05618   -0.01819   -0.02262
AFIX 137
H74A  2    1.251660    0.857137    0.881895    11.00000   -1.50000
H74B  2    1.237431    0.762114    0.904909    11.00000   -1.50000
H74C  2    1.218715    0.870133    0.968654    11.00000   -1.50000
AFIX   0
C9    1    0.930981   -0.486391    0.128268    11.00000    0.05669    0.04401 =
         0.03999    0.00048    0.02865    0.00801
AFIX 137
H9A   2    0.921595   -0.539791    0.069411    11.00000   -1.50000
H9B   2    0.920181   -0.515522    0.168899    11.00000   -1.50000
H9C   2    0.997774   -0.451964    0.149135    11.00000   -1.50000
AFIX   0
C11   1    1.081037   -0.027790    0.305375    11.00000    0.03748    0.03389 =
         0.04165    0.01243    0.02854    0.00683
AFIX  43
H11   2    1.107037   -0.087474    0.276697    11.00000   -1.20000
AFIX   0
C76   1    1.074407    0.683865    0.926782    11.00000    0.03110    0.03698 =
         0.03012    0.01696   -0.00406   -0.01250
AFIX 137
H76A  2    1.018541    0.654707    0.937641    11.00000   -1.50000
H76B  2    1.115865    0.733153    0.982693    11.00000   -1.50000
H76C  2    1.112390    0.630687    0.899898    11.00000   -1.50000
AFIX   0
C32   1    0.575396    0.010700    0.358076    11.00000    0.01557    0.02461 =
         0.01795    0.00880    0.00634   -0.00153
C60   1    0.805000    0.457749    0.755497    11.00000    0.02617    0.02138 =
         0.01728    0.00973    0.00618    0.00184
C70   1    0.973611    0.829069    0.742914    11.00000    0.02806    0.01792 =
         0.01846    0.00476    0.00164   -0.00375
C69   1    0.905340    0.764918    0.755446    11.00000    0.02056    0.01576 =
         0.02027    0.00447    0.00482   -0.00261
C67   1    0.876318    0.536458    0.767780    11.00000    0.01639    0.02472 =
         0.02214    0.01389    0.00144    0.00198
C13   1    1.015623    0.076571    0.432444    11.00000    0.01709    0.02254 =
         0.02334    0.00545    0.01404   -0.00202
C71   1    0.943406    0.873961    0.676014    11.00000    0.02394    0.02110 =
         0.02355    0.01192    0.00080    0.00037
C35   1    0.559398   -0.193813    0.251997    11.00000    0.01509    0.01716 =
         0.01935    0.00406    0.00371   -0.00139
AFIX  43
H35   2    0.553126   -0.263930    0.218165    11.00000   -1.20000
AFIX   0
C61   1    0.723948    0.483871    0.790211    11.00000    0.02122    0.02485 =
         0.01735    0.00542    0.00688   -0.00409
AFIX  43
H61   2    0.675312    0.432465    0.781189    11.00000   -1.20000
AFIX   0
C14   1    1.008285    0.149454    0.394850    11.00000    0.03072    0.02413 =
         0.03310    0.00969    0.02254    0.00321
C37   1    0.460587   -0.175251    0.111642    11.00000    0.02739    0.02257 =
         0.01758    0.00454    0.00293   -0.00795
C15   1    1.032903    0.133006    0.315024    11.00000    0.04855    0.03648 =
         0.04689    0.02776    0.03419    0.01441
AFIX  43
H15   2    1.024958    0.183566    0.292712    11.00000   -1.20000
AFIX   0
C4    1    0.859039   -0.332741    0.220475    11.00000    0.02819    0.02401 =
         0.02026    0.00516    0.00605   -0.00503
C17   1    1.091508    0.023522    0.176379    11.00000    0.11470    0.05195 =
         0.06873    0.02874    0.08079    0.02567
C18   1    1.200192    0.000333    0.185217    11.00000    0.10395    0.16442 =
         0.08450    0.05453    0.07482    0.03878
AFIX 137
H18A  2    1.242991    0.053711    0.237628    11.00000   -1.50000
H18B  2    1.219600   -0.003265    0.132781    11.00000   -1.50000
H18C  2    1.205798   -0.063917    0.190755    11.00000   -1.50000
AFIX   0
C20   1    1.023023   -0.066614    0.103737    11.00000    0.11365    0.13124 =
         0.05191    0.02636    0.04182    0.00500
AFIX 137
H20A  2    1.039335   -0.127604    0.112441    11.00000   -1.50000
H20B  2    1.030408   -0.072880    0.046294    11.00000   -1.50000
H20C  2    0.955332   -0.057263    0.105811    11.00000   -1.50000
AFIX   0
C29   1    0.741822    0.295416    0.156108    11.00000    0.14993    0.18838 =
         0.08242    0.10854    0.06876    0.10433
AFIX 137
H29A  2    0.793679    0.351798    0.190634    11.00000   -1.50000
H29B  2    0.712397    0.297493    0.098883    11.00000   -1.50000
H29C  2    0.769541    0.232219    0.147049    11.00000   -1.50000
AFIX   0
C28   1    0.647463    0.411880    0.240222    11.00000    0.23554    0.09443 =
         0.06980    0.05987    0.07097    0.10276
AFIX 137
H28A  2    0.595344    0.421500    0.270405    11.00000   -1.50000
H28B  2    0.628840    0.432309    0.190874    11.00000   -1.50000
H28C  2    0.708062    0.452704    0.281645    11.00000   -1.50000
AFIX   0
C19   1    1.080552    0.110499    0.151267    11.00000    0.34144    0.14620 =
         0.13619    0.10469    0.19309    0.12442
AFIX 137
H19A  2    1.015275    0.130807    0.152163    11.00000   -1.50000
H19B  2    1.089089    0.091454    0.091897    11.00000   -1.50000
H19C  2    1.130072    0.166540    0.193197    11.00000   -1.50000
AFIX   0
ZN2   6    0.985725   -0.002141    0.579942    11.00000    0.01934    0.01764 =
         0.02106    0.00725    0.00287   -0.00431
O1    4    0.864336    0.081344    0.616182    11.00000    0.01924    0.01509 =
         0.01921    0.00244    0.00493   -0.00698
O20   4    0.653536    0.107743    0.657798    11.00000    0.03394    0.02175 =
         0.02858    0.01099    0.01883   -0.00245
O22   4    0.531295    0.200331    0.741224    11.00000    0.03912    0.02192 =
         0.03002    0.01247    0.02173    0.00365
AFIX 147
H22   2    0.569238    0.191034    0.708780    11.00000   -1.50000
AFIX   0
O21   4    0.688767   -0.046231    0.650713    11.00000    0.01967    0.02697 =
         0.02510    0.01568    0.00945    0.00060
C42   1    0.532141    0.124139    0.771066    11.00000    0.02070    0.02232 =
         0.02014    0.00936    0.00310   -0.00698
C41   1    0.647583    0.033543    0.681215    11.00000    0.01482    0.02720 =
         0.01709    0.00922   -0.00200   -0.00772
C49   1    0.469169    0.128164    0.827300    11.00000    0.01361    0.02876 =
         0.01882    0.00989    0.00156   -0.00429
C43   1    0.588302    0.042236    0.744791    11.00000    0.02108    0.02945 =
         0.01613    0.01027    0.00065   -0.00848
C44   1    0.583508   -0.031191    0.779897    11.00000    0.02649    0.03360 =
         0.02875    0.02126    0.01110    0.00471
AFIX  43
H44   2    0.620151   -0.085988    0.762893    11.00000   -1.20000
AFIX   0
C47   1    0.401939    0.057741    0.921659    11.00000    0.03302    0.04434 =
         0.03912    0.02569    0.01865    0.00348
AFIX 137
H47A  2    0.396302    0.127915    0.956370    11.00000   -1.50000
H47B  2    0.429714    0.025690    0.961400    11.00000   -1.50000
H47C  2    0.337065    0.022537    0.885379    11.00000   -1.50000
AFIX   0
C48   1    0.468396    0.053203    0.862300    11.00000    0.01781    0.03644 =
         0.02219    0.01400    0.00479   -0.00390
C45   1    0.527685   -0.026582    0.837979    11.00000    0.02084    0.04221 =
         0.03738    0.02708    0.01013    0.00586
C46   1    0.526772   -0.108630    0.874163    11.00000    0.06049    0.07586 =
         0.08213    0.06869    0.04421    0.02742
AFIX 137
H46A  2    0.551315   -0.167823    0.837051    11.00000   -1.50000
H46B  2    0.459804   -0.126981    0.873783    11.00000   -1.50000
H46C  2    0.568616   -0.083128    0.934605    11.00000   -1.50000
AFIX   0
O23   4    0.278285    0.061870    0.735932    11.00000    0.02210    0.01619 =
         0.02896    0.00472   -0.00319   -0.00557
AFIX 147
H23   2    0.219371    0.046809    0.707605    11.00000   -1.50000
AFIX   0
C51   1    0.298254    0.165101    0.782718    11.00000    0.01867    0.01544 =
         0.01600   -0.00153    0.00389   -0.00738
C50   1    0.395489    0.203058    0.835525    11.00000    0.02218    0.02558 =
         0.02524    0.01170    0.00644   -0.00198
C55   1    0.347999    0.375990    0.880027    11.00000    0.03025    0.01713 =
         0.03952   -0.00290    0.00459   -0.00442
C56   1    0.420479    0.309374    0.885459    11.00000    0.02482    0.02678 =
         0.01816    0.00258    0.00469   -0.00686
C52   1    0.226334    0.230164    0.774463    11.00000    0.02116    0.02163 =
         0.02814    0.00569    0.00937   -0.00462
C57   1    0.525900    0.351197    0.941279    11.00000    0.02595    0.04116 =
         0.03912    0.01429    0.00112   -0.00836
AFIX 137
H57A  2    0.558416    0.298312    0.954666    11.00000   -1.50000
H57B  2    0.525220    0.407180    0.996340    11.00000   -1.50000
H57C  2    0.561334    0.374786    0.908448    11.00000   -1.50000
AFIX   0
C54   1    0.254347    0.335423    0.824156    11.00000    0.02943    0.01538 =
         0.03695    0.00175    0.00797    0.00434
AFIX  43
H54   2    0.207455    0.379743    0.819072    11.00000   -1.20000
AFIX   0
C58   1    0.373649    0.488546    0.934644    11.00000    0.04216    0.03208 =
         0.06866   -0.00039   -0.00003   -0.00131
AFIX 137
H58A  2    0.382613    0.502494    0.997072    11.00000   -1.50000
H58B  2    0.320585    0.523578    0.915744    11.00000   -1.50000
H58C  2    0.434233    0.511901    0.926215    11.00000   -1.50000
AFIX   0

O26   4    0.888426    0.142556    0.792956    11.00000    0.06056
N2    3    0.824402    0.127375    0.900131    11.00000    0.04595
C80   1    0.870799    0.096083    0.835067    11.00000    0.05018
AFIX  43
H80   2    0.891701    0.031508    0.820801    11.00000   -1.20000
AFIX   0
C81   1    0.786631    0.222363    0.923398    11.00000    0.07260
AFIX 137
H81A  2    0.825573    0.269063    0.981713    11.00000   -1.50000
H81B  2    0.718463    0.213168    0.924576    11.00000   -1.50000
H81C  2    0.790112    0.249604    0.879764    11.00000   -1.50000
AFIX   0
C82   1    0.814145    0.065423    0.949024    11.00000    0.09729
AFIX 137
H82A  2    0.840458    0.002074    0.923672    11.00000   -1.50000
H82B  2    0.744896    0.051565    0.944949    11.00000   -1.50000
H82C  2    0.850254    0.101404    1.010988    11.00000   -1.50000
AFIX   0

C30   1    0.573751    0.229153    0.138172    11.00000    0.15875    0.24057 =
         0.11830    0.15481   -0.08244   -0.10429
AFIX 137
H30A  2    0.586196    0.160225    0.128477    11.00000   -1.50000
H30B  2    0.562623    0.237138    0.082400    11.00000   -1.50000
H30C  2    0.515827    0.243383    0.160659    11.00000   -1.50000
AFIX   0
ZN1   6    0.773048   -0.070986    0.561635    11.00000    0.01871    0.01914 =
         0.01704    0.00826    0.00349   -0.00221
O24   4    0.104572    0.093224    0.675646    11.00000    0.02268    0.01807 =
         0.02734    0.00389   -0.00232   -0.00809
O25   4    0.068525    0.251452    0.695271    11.00000    0.02009    0.02162 =
         0.03230    0.00826    0.00236    0.00541
C53   1    0.124133    0.191186    0.710238    11.00000    0.02713    0.02447 =
         0.02425    0.00222    0.00954   -0.00698
HKLF 4




REM  T3145-a_0m_a.res in P1
REM R1 =  0.0243 for   16173 Fo > 4sig(Fo)  and  0.0262 for all   17236 data
REM   1056 parameters refined using      3 restraints

END  
     
WGHT      0.0289      0.0000 

REM Highest difference peak  0.398,  deepest hole -0.346,  1-sigma level  0.040
Q1    1   0.9158  0.0988  0.7883  11.00000  0.05    0.40
Q2    1   0.6876  0.1274  0.6167  11.00000  0.05    0.38
Q3    1   0.8146 -0.0621  0.5259  11.00000  0.05    0.34
Q4    1   0.9856  0.2287  0.5596  11.00000  0.05    0.34
Q5    1   1.0209  0.0097  0.5340  11.00000  0.05    0.32
Q6    1   0.7775  0.1567  0.5497  11.00000  0.05    0.30
Q7    1   0.7224 -0.0758  0.5924  11.00000  0.05    0.28
Q8    1   0.8633  0.1797  0.7991  11.00000  0.05    0.28
Q9    1   0.1951  0.1227  0.2132  11.00000  0.05    0.25
Q10   1   0.6161  0.1726  0.3971  11.00000  0.05    0.25
Q11   1   0.9334 -0.0222  0.6126  11.00000  0.05    0.23
Q12   1   0.8800  0.1953  0.6239  11.00000  0.05    0.23
Q13   1   0.1560  0.7294  0.1816  11.00000  0.05    0.22
Q14   1   0.7822  0.0969  0.9519  11.00000  0.05    0.21
Q15   1   0.8592  0.1597  0.9726  11.00000  0.05    0.21
Q16   1   0.8393 -0.0759  0.2248  11.00000  0.05    0.21
Q17   1   1.1188 -0.0890  0.1300  11.00000  0.05    0.20
Q18   1   0.8505  0.0947  0.9067  11.00000  0.05    0.20
Q19   1   0.9178  0.2455  0.4790  11.00000  0.05    0.20
Q20   1   0.8876  0.1012  0.6872  11.00000  0.05    0.19

  REM The information below was added by Olex2.
  REM
  REM R1 = 0.0243 for 16173 Fo > 4sig(Fo) and 0.0262 for all 32850 data
  REM n/a parameters refined using n/a restraints
  REM Highest difference peak 0.40, deepest hole -0.35
  REM Mean Shift 0.001, Max Shift 0.019.

  REM +++ Tabular Listing of Refinement Information +++
  REM R1_all = 0.0262
  REM R1_gt = 0.0243
  REM wR_ref = 0.0608
  REM GOOF = 1.006
  REM Shift_max = 0.019
  REM Shift_mean = 0.001
  REM Reflections_all = 32850
  REM Reflections_gt = 16173
  REM Parameters = n/a
  REM Hole = -0.35
  REM Peak = 0.40
  REM Flack = 0.032(3)

  
;
_cod_data_source_file            ja9b07633_si_002.cif
_cod_data_source_block           t3145-a_0m_sq
_cod_database_code               4127283
_shelx_shelxl_version_number     2016/4
_shelx_space_group_comment
;
The symmetry employed for this shelxl refinement is uniquely defined
by the following loop, which should always be used as a source of
symmetry information in preference to the above space-group names.
They are only intended as comments.
;
_olex2_refinement_description
;
1. Fixed Uiso
 At 1.2 times of:
  All C(H) groups
 At 1.5 times of:
  All C(H,H,H) groups, All O(H) groups
2.a Aromatic/amide H refined with riding coordinates:
 C3(H3), C72(H72), C31(H31), C21(H21), C5(H5), C25(H25), C11(H11), C35(H35),
 C61(H61), C15(H15), C44(H44), C54(H54), C80(H80)
2.b Idealised Me refined as rotating group:
 C39(H39A,H39B,H39C), C40(H40A,H40B,H40C), C65(H65A,H65B,H65C), C78(H78A,H78B,
 H78C), C38(H38A,H38B,H38C), C10(H10A,H10B,H10C), C8(H8A,H8B,H8C), C63(H63A,
 H63B,H63C), C74(H74A,H74B,H74C), C9(H9A,H9B,H9C), C76(H76A,H76B,H76C),
 C18(H18A,H18B,H18C), C20(H20A,H20B,H20C), C29(H29A,H29B,H29C), C28(H28A,H28B,
 H28C), C19(H19A,H19B,H19C), C47(H47A,H47B,H47C), C46(H46A,H46B,H46C), C57(H57A,
 H57B,H57C), C58(H58A,H58B,H58C), C81(H81A,H81B,H81C), C82(H82A,H82B,H82C),
 C30(H30A,H30B,H30C)
2.c Idealised tetrahedral OH refined as rotating group:
 O16(H16), O17(H17), O22(H22), O23(H23)
;
_shelx_fab_file
;
 2 0 0 -15.25 -10.91
 3 0 0 29.43 -6.74
 4 0 0 -7.27 13.78
 5 0 0 4.44 -8.90
 6 0 0 5.82 -2.04
 7 0 0 5.39 5.19
 8 0 0 2.32 4.33
 9 0 0 -2.26 4.06
 10 0 0 -2.12 -0.58
 11 0 0 -1.08 -1.49
 12 0 0 0.61 -0.83
 13 0 0 1.44 0.10
 14 0 0 0.44 1.72
 15 0 0 -0.10 1.20
 -15 1 0 1.11 -0.05
 -14 1 0 0.17 1.38
 -13 1 0 0.29 0.15
 -12 1 0 0.87 -0.93
 -11 1 0 2.99 -0.05
 -10 1 0 1.51 1.10
 -9 1 0 -0.09 -1.15
 -8 1 0 2.66 0.64
 -7 1 0 -3.40 4.82
 -6 1 0 -0.92 -5.69
 -5 1 0 1.31 -1.48
 -4 1 0 -3.37 6.52
 -2 1 0 -0.29 7.96
 1 1 0 -23.54 -1.21
 2 1 0 -13.84 -22.35
 3 1 0 -1.67 20.27
 4 1 0 -10.04 13.17
 5 1 0 -18.62 -6.96
 6 1 0 4.66 -3.00
 7 1 0 -0.59 0.94
 8 1 0 -2.40 -0.38
 9 1 0 1.66 0.65
 10 1 0 -2.72 3.23
 11 1 0 -3.18 0.76
 12 1 0 -1.35 -1.61
 13 1 0 -0.93 -0.92
 14 1 0 0.27 -1.67
 15 1 0 1.20 -0.76
 -15 2 0 0.67 0.82
 -14 2 0 -0.25 1.47
 -13 2 0 -2.60 -0.47
 -12 2 0 -1.61 -0.81
 -11 2 0 -2.15 -1.96
 -10 2 0 -0.48 0.07
 -9 2 0 -1.01 1.40
 -8 2 0 2.43 0.16
 -7 2 0 0.29 5.27
 -6 2 0 -7.33 0.63
 -5 2 0 6.17 -0.78
 -4 2 0 -1.33 8.33
 -3 2 0 -17.54 -4.25
 -2 2 0 25.93 -4.95
 -1 2 0 -14.55 38.11
 0 2 0 10.76 7.38
 1 2 0 5.14 -8.81
 2 2 0 -2.56 3.98
 3 2 0 7.33 -7.56
 4 2 0 -9.00 -12.53
 5 2 0 14.68 -1.94
 6 2 0 0.51 2.97
 7 2 0 -4.34 2.14
 8 2 0 -2.72 -2.95
 9 2 0 0.24 -5.54
 10 2 0 4.12 -2.15
 11 2 0 2.96 -0.97
 12 2 0 1.12 0.95
 13 2 0 0.80 0.47
 14 2 0 0.45 1.40
 -15 3 0 0.60 -1.05
 -14 3 0 0.33 1.59
 -13 3 0 -1.21 0.93
 -12 3 0 -0.24 -0.62
 -11 3 0 1.33 -0.69
 -10 3 0 4.31 -2.49
 -9 3 0 2.58 0.06
 -8 3 0 0.98 -0.12
 -7 3 0 -1.50 -0.33
 -6 3 0 -0.20 -4.60
 -5 3 0 -0.82 -7.64
 -4 3 0 0.91 -9.35
 -3 3 0 19.56 -14.81
 -2 3 0 14.26 0.07
 -1 3 0 18.12 -10.99
 0 3 0 -2.83 -14.92
 1 3 0 6.17 -0.67
 2 3 0 0.33 -3.52
 3 3 0 -0.88 -4.94
 4 3 0 7.89 3.54
 5 3 0 5.36 -2.87
 6 3 0 -0.55 11.96
 7 3 0 -4.30 -2.05
 8 3 0 2.57 -3.12
 9 3 0 1.76 3.24
 10 3 0 -0.61 1.34
 11 3 0 -1.50 2.04
 12 3 0 0.03 0.16
 13 3 0 0.03 0.78
 14 3 0 -0.42 -0.04
 -15 4 0 -1.72 0.33
 -14 4 0 0.39 -1.88
 -13 4 0 1.49 -0.50
 -12 4 0 1.42 0.17
 -11 4 0 -1.10 0.56
 -10 4 0 -2.02 0.81
 -9 4 0 -0.68 1.84
 -8 4 0 -2.41 -0.18
 -7 4 0 2.30 0.78
 -6 4 0 3.03 4.08
 -5 4 0 -1.08 10.96
 -4 4 0 0.04 6.34
 -3 4 0 -12.79 16.14
 -2 4 0 -16.62 -4.70
 -1 4 0 -0.49 6.56
 0 4 0 -4.33 24.25
 1 4 0 -5.19 3.97
 2 4 0 0.73 11.47
 3 4 0 -6.32 8.24
 4 4 0 -7.92 -0.56
 5 4 0 -5.09 -0.28
 6 4 0 2.97 -2.21
 7 4 0 -1.84 -0.49
 8 4 0 2.06 3.30
 9 4 0 -2.77 2.14
 10 4 0 -2.28 -1.63
 11 4 0 1.90 -1.81
 12 4 0 -0.16 -0.03
 13 4 0 -0.34 0.32
 14 4 0 -0.49 -0.92
 -15 5 0 0.76 0.30
 -14 5 0 -0.78 -0.83
 -13 5 0 0.47 -1.75
 -12 5 0 1.56 0.65
 -11 5 0 1.12 2.09
 -10 5 0 0.88 0.28
 -9 5 0 1.20 1.62
 -8 5 0 -2.82 1.72
 -7 5 0 -2.00 -7.76
 -6 5 0 4.02 -2.20
 -5 5 0 2.47 -5.05
 -4 5 0 4.26 -2.87
 -3 5 0 4.84 2.03
 -2 5 0 1.03 4.13
 -1 5 0 -0.36 -3.00
 0 5 0 0.66 -14.96
 1 5 0 5.29 -7.04
 2 5 0 2.06 -3.26
 3 5 0 2.83 -2.76
 4 5 0 2.61 -0.18
 5 5 0 2.25 -0.79
 6 5 0 -3.03 -1.33
 7 5 0 0.40 -2.60
 8 5 0 3.51 -3.39
 9 5 0 0.73 1.18
 10 5 0 1.29 -0.04
 11 5 0 -0.80 1.67
 12 5 0 -0.60 1.04
 13 5 0 -0.96 -0.91
 -14 6 0 0.98 2.19
 -13 6 0 -0.76 2.65
 -12 6 0 -0.81 -0.61
 -11 6 0 -0.02 0.06
 -10 6 0 -1.26 -0.13
 -9 6 0 0.49 -0.61
 -8 6 0 -0.77 -0.07
 -7 6 0 2.42 2.34
 -6 6 0 0.02 3.05
 -5 6 0 -5.15 3.54
 -4 6 0 -2.56 -2.69
 -3 6 0 5.35 -3.94
 -2 6 0 -0.03 2.31
 -1 6 0 -5.23 -1.30
 0 6 0 -2.55 6.15
 1 6 0 -8.05 3.33
 2 6 0 -5.80 -3.71
 3 6 0 -0.20 -5.70
 4 6 0 3.67 1.99
 5 6 0 -3.96 4.35
 6 6 0 -1.08 0.16
 7 6 0 0.02 1.31
 8 6 0 -4.13 0.59
 9 6 0 1.18 -1.31
 10 6 0 -0.78 -0.01
 11 6 0 1.20 -0.33
 12 6 0 -0.46 1.05
 13 6 0 -1.50 0.04
 -13 7 0 0.14 -1.09
 -12 7 0 -1.13 0.02
 -11 7 0 -0.78 -1.01
 -10 7 0 0.98 -0.80
 -9 7 0 -1.00 -0.17
 -8 7 0 2.12 -0.82
 -7 7 0 0.11 0.26
 -6 7 0 -1.22 3.94
 -5 7 0 -3.27 -1.31
 -4 7 0 1.09 -3.26
 -3 7 0 -2.24 4.94
 -2 7 0 -2.05 0.33
 -1 7 0 5.00 0.88
 0 7 0 6.41 1.06
 1 7 0 3.47 3.50
 2 7 0 2.08 2.68
 3 7 0 -0.36 3.47
 4 7 0 -0.57 -1.70
 5 7 0 2.61 -1.14
 6 7 0 1.03 -1.64
 7 7 0 1.68 0.20
 8 7 0 1.94 0.74
 9 7 0 -0.60 0.98
 10 7 0 -1.66 0.66
 11 7 0 -0.25 -2.20
 12 7 0 1.91 -0.78
 -9 8 0 1.81 0.14
 -8 8 0 -1.83 0.95
 -7 8 0 1.36 -0.61
 -6 8 0 2.42 -1.08
 -5 8 0 0.76 2.93
 -4 8 0 -0.20 2.36
 -3 8 0 -0.10 -0.06
 -2 8 0 -1.91 -3.85
 -1 8 0 0.01 -4.76
 0 8 0 -2.10 -2.02
 1 8 0 -0.06 -1.57
 2 8 0 -1.40 -0.61
 3 8 0 -0.44 -0.91
 4 8 0 -1.20 -0.44
 5 8 0 -1.31 -0.02
 6 8 0 -1.02 -0.76
 7 8 0 2.20 0.13
 8 8 0 -1.38 2.40
 9 8 0 -0.75 -0.48
 10 8 0 1.47 -0.21
 11 8 0 -0.75 1.21
 -9 9 0 -3.00 -0.95
 -8 9 0 -0.25 0.53
 -7 9 0 -3.65 -1.73
 -6 9 0 -0.10 -2.20
 -5 9 0 2.18 -1.01
 -4 9 0 -1.28 -0.10
 -3 9 0 0.02 -1.04
 -2 9 0 2.06 3.47
 -1 9 0 -1.97 7.29
 0 9 0 -2.65 2.27
 1 9 0 -1.09 -0.45
 2 9 0 1.29 0.08
 3 9 0 0.52 2.06
 4 9 0 -0.79 1.29
 5 9 0 -0.17 0.81
 6 9 0 -0.63 -0.03
 7 9 0 -0.63 -1.03
 8 9 0 0.35 -0.61
 9 9 0 -0.31 -0.64
 10 9 0 -0.01 0.11
 11 9 0 -0.66 0.70
 -9 10 0 0.31 -1.01
 -8 10 0 1.87 -0.64
 -7 10 0 0.55 2.45
 -6 10 0 -1.59 -0.80
 -5 10 0 -0.45 -0.25
 -4 10 0 -0.06 -0.56
 -3 10 0 1.82 -1.27
 -2 10 0 0.82 -1.04
 -1 10 0 2.79 -3.04
 0 10 0 -1.26 -0.24
 1 10 0 -0.47 -3.69
 2 10 0 1.07 -0.21
 3 10 0 1.26 -3.08
 4 10 0 2.95 1.74
 5 10 0 -0.76 0.29
 6 10 0 -0.31 0.31
 7 10 0 -0.14 0.89
 8 10 0 -1.38 -0.03
 9 10 0 0.42 -0.89
 10 10 0 0.28 -0.55
 -10 11 0 0.12 -0.91
 -9 11 0 0.63 -0.21
 -8 11 0 0.68 0.01
 -7 11 0 0.88 0.20
 -6 11 0 -0.65 1.16
 -5 11 0 0.26 -0.78
 -4 11 0 -0.33 0.21
 -3 11 0 -2.54 0.09
 -2 11 0 -2.05 -1.75
 -1 11 0 -0.35 -0.47
 0 11 0 1.88 1.31
 1 11 0 0.08 3.48
 2 11 0 -0.90 -0.12
 3 11 0 -2.89 2.62
 4 11 0 -2.02 -3.04
 5 11 0 0.68 -0.13
 6 11 0 0.16 0.03
 7 11 0 -0.01 -1.31
 8 11 0 1.93 1.22
 9 11 0 -1.98 0.73
 -10 12 0 0.49 -1.30
 -9 12 0 -0.73 0.53
 -8 12 0 -0.99 -0.38
 -7 12 0 -1.30 -0.65
 -6 12 0 1.28 -1.02
 -5 12 0 0.29 1.19
 -4 12 0 0.38 1.65
 -3 12 0 0.94 1.39
 -2 12 0 0.64 1.72
 -1 12 0 0.78 0.51
 0 12 0 -1.29 -0.03
 1 12 0 -0.56 -3.53
 2 12 0 1.26 1.28
 3 12 0 0.50 -0.77
 4 12 0 0.01 0.07
 5 12 0 0.24 -0.72
 6 12 0 1.11 -0.76
 7 12 0 1.20 1.19
 -9 13 0 1.89 0.49
 -8 13 0 0.25 0.50
 -7 13 0 1.07 0.00
 -6 13 0 0.12 -0.40
 -5 13 0 1.06 -0.77
 -4 13 0 0.56 -1.28
 -3 13 0 0.96 -1.20
 -2 13 0 0.13 -0.57
 -1 13 0 -0.72 -0.39
 0 13 0 0.17 -0.70
 1 13 0 2.57 1.37
 2 13 0 0.66 0.65
 3 13 0 -0.64 1.01
 4 13 0 0.75 0.29
 5 13 0 0.49 1.31
 -7 14 0 -0.64 -0.92
 -6 14 0 -0.08 0.76
 -5 14 0 -1.33 0.17
 -4 14 0 0.07 -0.34
 -3 14 0 -0.24 1.02
 -2 14 0 0.04 2.01
 -1 14 0 -1.01 0.39
 0 14 0 0.72 0.10
 1 14 0 -1.07 -0.15
 2 14 0 -0.99 1.42
 3 14 0 -0.63 -1.54
 -2 15 0 -0.46 -0.31
 -1 -15 1 -0.31 1.10
 0 -15 1 0.59 1.13
 1 -15 1 -1.48 1.17
 2 -15 1 -0.61 -1.72
 3 -15 1 -0.40 0.33
 4 -15 1 -1.45 0.15
 -4 -14 1 -0.25 -0.02
 -3 -14 1 -1.75 -0.72
 -2 -14 1 -1.13 -0.27
 -1 -14 1 0.42 -0.91
 0 -14 1 -2.55 -1.12
 1 -14 1 0.79 -1.70
 2 -14 1 0.32 1.10
 3 -14 1 1.60 0.90
 4 -14 1 -1.03 1.43
 5 -14 1 -0.52 -1.18
 6 -14 1 -0.53 0.12
 7 -14 1 0.05 -2.42
 -6 -13 1 0.60 -0.54
 -5 -13 1 0.50 -0.84
 -4 -13 1 -0.11 -0.33
 -3 -13 1 1.36 0.89
 -2 -13 1 -1.05 -1.01
 -1 -13 1 -0.97 -1.58
 0 -13 1 2.73 -1.11
 1 -13 1 1.82 0.07
 2 -13 1 0.55 -0.42
 3 -13 1 -0.78 -1.71
 4 -13 1 1.12 -1.51
 5 -13 1 -0.19 -0.46
 6 -13 1 1.91 -0.03
 7 -13 1 -1.38 1.28
 8 -13 1 0.56 -1.14
 9 -13 1 0.01 0.44
 -8 -12 1 1.76 0.06
 -7 -12 1 -0.84 0.27
 -6 -12 1 0.95 -0.93
 -5 -12 1 -0.38 0.33
 -4 -12 1 1.39 -0.21
 -3 -12 1 1.28 0.38
 -2 -12 1 0.06 4.25
 -1 -12 1 -0.98 1.06
 0 -12 1 -2.16 0.51
 1 -12 1 -2.42 0.71
 2 -12 1 -3.15 0.21
 3 -12 1 -0.21 -0.99
 4 -12 1 1.12 1.08
 5 -12 1 1.22 1.98
 6 -12 1 -1.34 1.26
 7 -12 1 0.26 0.61
 8 -12 1 -0.21 0.22
 9 -12 1 1.08 0.46
 -9 -11 1 0.37 0.10
 -8 -11 1 -0.26 -0.20
 -7 -11 1 1.96 1.03
 -6 -11 1 -0.70 2.20
 -5 -11 1 -2.03 1.84
 -4 -11 1 -1.86 -2.13
 -3 -11 1 -0.53 -0.19
 -2 -11 1 0.90 -3.11
 -1 -11 1 1.45 0.04
 0 -11 1 1.85 0.71
 1 -11 1 1.90 0.61
 2 -11 1 2.19 -0.30
 3 -11 1 0.80 -0.29
 4 -11 1 -0.16 -0.45
 5 -11 1 -1.83 -0.97
 6 -11 1 0.32 -1.72
 7 -11 1 0.15 -0.70
 8 -11 1 -0.40 -0.28
 -10 -10 1 -0.41 0.76
 -9 -10 1 -0.93 -0.36
 -8 -10 1 -0.29 -0.16
 -7 -10 1 -1.08 -0.72
 -6 -10 1 -0.48 -1.65
 -5 -10 1 1.63 -2.32
 -4 -10 1 0.54 -0.10
 -3 -10 1 1.01 -1.37
 -2 -10 1 -0.76 -0.30
 -1 -10 1 1.18 -2.11
 0 -10 1 0.19 0.30
 1 -10 1 -0.96 -2.67
 2 -10 1 1.57 0.74
 3 -10 1 -0.96 3.08
 4 -10 1 -1.83 -0.76
 5 -10 1 2.71 -2.22
 6 -10 1 2.75 -0.53
 7 -10 1 2.54 1.36
 8 -10 1 2.11 1.11
 -11 -9 1 2.04 1.86
 -10 -9 1 -0.31 1.48
 -9 -9 1 1.27 -0.77
 -8 -9 1 1.02 2.51
 -7 -9 1 -1.73 1.58
 -6 -9 1 -0.72 -0.51
 -5 -9 1 1.29 1.55
 -4 -9 1 -0.34 3.75
 -3 -9 1 -0.76 3.94
 -2 -9 1 -3.00 3.76
 -1 -9 1 -2.74 1.33
 0 -9 1 -1.63 1.67
 1 -9 1 -2.29 3.07
 2 -9 1 -1.09 -0.35
 3 -9 1 1.49 -0.03
 4 -9 1 -0.09 3.20
 5 -9 1 -3.63 1.26
 6 -9 1 -1.20 2.72
 7 -9 1 -2.95 0.96
 -12 -8 1 -0.93 -1.26
 -11 -8 1 -1.16 -0.84
 -10 -8 1 -0.44 -1.85
 -9 -8 1 -0.42 0.45
 -8 -8 1 -1.37 0.10
 -7 -8 1 -1.63 -3.77
 -6 -8 1 2.36 -1.45
 -5 -8 1 -0.09 -0.93
 -4 -8 1 0.23 -2.53
 -3 -8 1 0.74 -4.71
 -2 -8 1 2.73 -0.55
 -1 -8 1 -1.89 -3.50
 0 -8 1 4.29 -3.39
 1 -8 1 -0.59 -3.21
 2 -8 1 1.41 -6.23
 3 -8 1 0.72 -1.43
 4 -8 1 0.48 -2.11
 5 -8 1 1.65 1.73
 6 -8 1 -2.24 -3.66
 7 -8 1 0.68 -0.51
 -13 -7 1 1.42 0.19
 -12 -7 1 0.52 1.74
 -11 -7 1 -0.44 0.63
 -10 -7 1 -1.07 -0.43
 -9 -7 1 2.23 -2.17
 -8 -7 1 1.87 0.40
 -7 -7 1 2.17 3.28
 -6 -7 1 -0.80 2.94
 -5 -7 1 -4.47 1.36
 -4 -7 1 -1.80 -2.76
 -3 -7 1 0.98 1.34
 -2 -7 1 -1.00 -0.87
 -1 -7 1 3.39 1.76
 0 -7 1 -4.79 4.30
 1 -7 1 -2.79 1.18
 2 -7 1 -0.98 5.86
 3 -7 1 -2.34 1.29
 4 -7 1 1.79 -1.20
 5 -7 1 0.74 -0.39
 6 -7 1 0.80 3.81
 -13 -6 1 0.25 0.81
 -12 -6 1 0.37 0.64
 -11 -6 1 -0.51 1.00
 -10 -6 1 0.03 2.34
 -9 -6 1 -4.16 0.46
 -8 -6 1 1.04 -0.59
 -7 -6 1 -2.42 -1.80
 -6 -6 1 2.69 -3.75
 -5 -6 1 7.89 3.42
 -4 -6 1 1.31 7.46
 -3 -6 1 -4.43 2.20
 -2 -6 1 0.18 -2.09
 -1 -6 1 2.61 0.99
 0 -6 1 8.19 1.76
 1 -6 1 8.69 4.83
 2 -6 1 3.33 3.68
 3 -6 1 -4.21 3.72
 4 -6 1 -5.17 -3.15
 5 -6 1 1.20 -1.03
 11 -6 1 -2.35 -0.36
 12 -6 1 -2.31 -3.74
 13 -6 1 0.40 -1.18
 14 -6 1 0.47 -0.25
 -14 -5 1 -2.31 1.85
 -13 -5 1 -0.86 -1.63
 -12 -5 1 -0.26 -0.81
 -11 -5 1 0.87 -1.26
 -10 -5 1 1.10 -1.78
 -9 -5 1 1.60 1.03
 -8 -5 1 -1.75 -1.08
 -7 -5 1 -0.31 1.52
 -6 -5 1 -3.08 0.24
 -5 -5 1 -4.01 -5.99
 -4 -5 1 0.23 -3.17
 -3 -5 1 1.23 -0.08
 -2 -5 1 -2.61 0.03
 -1 -5 1 -6.58 0.09
 0 -5 1 -18.52 -10.21
 1 -5 1 -8.07 -17.85
 2 -5 1 -3.41 -0.42
 3 -5 1 -3.64 -6.38
 4 -5 1 4.02 1.67
 5 -5 1 -3.09 1.46
 7 -5 1 -1.05 -5.54
 8 -5 1 1.17 1.89
 9 -5 1 -1.65 1.06
 10 -5 1 -0.43 -0.95
 11 -5 1 0.57 1.69
 12 -5 1 0.86 1.20
 13 -5 1 1.34 -0.78
 14 -5 1 0.97 0.72
 -14 -4 1 0.83 -0.90
 -13 -4 1 -0.04 0.72
 -12 -4 1 -0.65 1.24
 -11 -4 1 -3.35 -1.64
 -10 -4 1 2.31 -2.03
 -9 -4 1 2.26 3.55
 -8 -4 1 -3.04 1.12
 -7 -4 1 3.65 -1.10
 -6 -4 1 -0.16 2.36
 -5 -4 1 -2.49 6.73
 -4 -4 1 -4.37 -4.13
 -3 -4 1 4.12 -5.13
 -2 -4 1 4.00 10.87
 -1 -4 1 -0.62 4.08
 0 -4 1 6.65 15.46
 1 -4 1 4.39 11.67
 2 -4 1 10.81 -1.21
 3 -4 1 0.99 5.42
 5 -4 1 12.37 5.65
 6 -4 1 1.89 4.06
 7 -4 1 0.60 -0.47
 8 -4 1 2.17 0.61
 9 -4 1 -2.13 -0.02
 10 -4 1 1.08 -3.07
 11 -4 1 3.94 -2.81
 12 -4 1 1.01 0.67
 13 -4 1 -0.35 1.83
 14 -4 1 -0.77 0.54
 15 -4 1 -0.11 1.28
 -14 -3 1 -0.10 0.40
 -13 -3 1 -0.52 0.04
 -12 -3 1 0.01 -0.90
 -11 -3 1 0.33 2.18
 -10 -3 1 -2.91 -1.79
 -9 -3 1 0.47 -3.62
 -8 -3 1 1.92 -0.58
 -7 -3 1 1.51 -2.36
 -6 -3 1 1.46 5.79
 -5 -3 1 0.07 -6.17
 -4 -3 1 -0.28 1.45
 -3 -3 1 -2.44 -1.94
 -2 -3 1 5.75 -25.05
 -1 -3 1 16.84 -5.09
 0 -3 1 10.07 -7.10
 1 -3 1 -19.82 -15.02
 2 -3 1 -9.58 -14.89
 4 -3 1 -3.38 8.89
 5 -3 1 -6.97 -4.90
 6 -3 1 -0.28 -2.88
 7 -3 1 -1.56 2.68
 8 -3 1 -1.28 0.03
 9 -3 1 -1.04 0.23
 10 -3 1 -2.32 -1.61
 11 -3 1 -1.75 1.11
 12 -3 1 0.06 -0.20
 13 -3 1 -0.41 -0.04
 14 -3 1 -0.49 -0.08
 15 -3 1 -0.34 -1.69
 -15 -2 1 0.06 0.22
 -14 -2 1 -0.06 -0.57
 -13 -2 1 0.64 -1.70
 -12 -2 1 3.18 -0.31
 -11 -2 1 2.43 0.73
 -10 -2 1 0.78 3.60
 -9 -2 1 -2.00 3.74
 -8 -2 1 -5.12 -2.38
 -7 -2 1 2.74 -1.34
 -6 -2 1 -0.27 1.64
 -5 -2 1 -2.80 -3.28
 -4 -2 1 15.76 13.66
 -3 -2 1 -10.87 11.08
 -2 -2 1 -11.82 34.78
 -1 -2 1 -26.39 11.97
 0 -2 1 -32.40 9.65
 1 -2 1 13.23 28.41
 3 -2 1 4.54 16.86
 4 -2 1 -5.00 4.33
 5 -2 1 -5.73 -1.58
 6 -2 1 1.92 -3.78
 7 -2 1 2.05 -2.60
 8 -2 1 0.33 -3.22
 9 -2 1 4.29 0.16
 10 -2 1 2.52 4.42
 11 -2 1 0.24 1.54
 12 -2 1 -2.43 -0.68
 13 -2 1 1.74 -1.82
 14 -2 1 0.34 0.47
 15 -2 1 -0.29 0.12
 -15 -1 1 -0.44 0.46
 -14 -1 1 -1.36 0.12
 -13 -1 1 -0.55 0.06
 -12 -1 1 -1.25 1.00
 -11 -1 1 -2.20 -0.23
 -10 -1 1 1.69 -0.61
 -9 -1 1 -1.35 0.80
 -8 -1 1 2.16 -0.32
 -7 -1 1 -0.16 3.70
 -6 -1 1 -9.98 -2.75
 -5 -1 1 5.77 -11.29
 -4 -1 1 9.54 -6.15
 -3 -1 1 -8.73 18.12
 -2 -1 1 3.63 -31.83
 -1 -1 1 -17.70 -7.91
 2 -1 1 9.37 -14.05
 3 -1 1 16.19 -24.68
 4 -1 1 9.29 7.41
 5 -1 1 -0.88 3.26
 6 -1 1 -2.34 -2.23
 7 -1 1 -0.81 0.39
 8 -1 1 1.71 -2.34
 9 -1 1 1.91 -1.56
 10 -1 1 1.88 -1.53
 11 -1 1 -0.60 0.97
 12 -1 1 -0.93 0.10
 13 -1 1 -0.37 -1.10
 14 -1 1 0.06 0.80
 15 -1 1 -0.44 -0.84
 -15 0 1 -0.33 -0.43
 -14 0 1 0.84 -0.50
 -13 0 1 0.06 0.56
 -12 0 1 -0.79 -1.26
 -11 0 1 -0.16 -1.70
 -10 0 1 -1.34 -2.20
 -9 0 1 0.33 -2.96
 -8 0 1 -0.17 -2.82
 -7 0 1 1.61 -0.66
 -6 0 1 3.38 4.86
 -5 0 1 -8.31 2.30
 -4 0 1 -9.64 10.24
 -2 0 1 -4.89 -39.32
 2 0 1 10.24 26.75
 4 0 1 1.98 -7.37
 5 0 1 4.11 -0.24
 6 0 1 3.45 6.24
 7 0 1 0.91 -0.66
 8 0 1 1.01 3.38
 9 0 1 -1.68 3.10
 10 0 1 -2.31 0.06
 11 0 1 1.77 0.07
 12 0 1 1.49 0.94
 13 0 1 -0.64 1.36
 14 0 1 0.20 -0.26
 15 0 1 -0.36 -0.22
 -15 1 1 0.08 -0.47
 -14 1 1 1.24 -1.75
 -13 1 1 3.23 -0.54
 -12 1 1 2.27 4.02
 -11 1 1 -3.01 4.40
 -10 1 1 -1.87 -1.53
 -9 1 1 2.04 2.83
 -8 1 1 -1.74 0.96
 -7 1 1 5.95 -2.83
 -6 1 1 2.04 5.05
 -5 1 1 4.61 2.79
 -4 1 1 12.08 1.86
 -3 1 1 -6.56 23.04
 -2 1 1 13.53 -2.37
 0 1 1 29.57 36.27
 1 1 1 11.74 -12.48
 2 1 1 0.96 38.98
 4 1 1 -10.13 -10.47
 5 1 1 1.48 1.93
 6 1 1 -3.40 -6.51
 7 1 1 1.86 1.44
 8 1 1 -0.02 1.76
 9 1 1 -0.63 0.93
 10 1 1 -1.38 1.48
 11 1 1 -2.76 -1.78
 12 1 1 -1.43 -1.86
 13 1 1 0.86 -1.92
 14 1 1 1.39 -0.50
 -15 2 1 -0.52 0.20
 -14 2 1 -0.89 0.97
 -13 2 1 -1.27 1.34
 -12 2 1 -1.82 -0.46
 -11 2 1 0.18 -2.63
 -10 2 1 1.45 -1.45
 -9 2 1 0.69 -1.59
 -8 2 1 -3.34 -0.78
 -7 2 1 -3.15 -6.34
 -6 2 1 4.15 -0.41
 -5 2 1 -12.95 -2.17
 -4 2 1 -9.85 -13.78
 -3 2 1 13.10 -12.43
 -2 2 1 -24.51 -2.84
 0 2 1 -17.56 -15.02
 1 2 1 -15.31 -12.19
 2 2 1 6.18 -12.53
 3 2 1 -10.81 -9.12
 4 2 1 16.97 2.85
 5 2 1 -6.05 1.64
 6 2 1 -0.29 -1.65
 7 2 1 1.87 -1.79
 8 2 1 0.69 -3.01
 9 2 1 0.67 1.09
 10 2 1 -1.28 -1.07
 11 2 1 0.79 -0.54
 12 2 1 1.58 0.34
 13 2 1 0.35 0.89
 14 2 1 -0.79 0.16
 -15 3 1 -0.09 0.93
 -14 3 1 0.16 -0.38
 -13 3 1 -0.84 -0.62
 -12 3 1 -1.18 -2.99
 -11 3 1 1.56 -2.18
 -10 3 1 0.07 0.41
 -9 3 1 2.02 0.69
 -8 3 1 2.74 3.54
 -7 3 1 0.58 6.45
 -6 3 1 -4.85 1.85
 -5 3 1 1.29 -1.83
 -4 3 1 11.89 -5.92
 -3 3 1 4.84 6.32
 -2 3 1 15.30 4.23
 0 3 1 14.29 22.44
 1 3 1 -8.84 9.73
 2 3 1 1.29 -10.96
 3 3 1 18.43 5.42
 4 3 1 0.86 3.73
 5 3 1 -0.74 9.43
 6 3 1 0.40 -2.65
 7 3 1 2.49 2.57
 8 3 1 -1.41 4.68
 9 3 1 0.06 -2.95
 10 3 1 3.52 -1.38
 11 3 1 3.66 1.77
 12 3 1 -1.00 1.74
 13 3 1 -0.20 0.15
 14 3 1 -0.13 0.89
 -15 4 1 1.09 -0.24
 -14 4 1 -0.97 0.17
 -13 4 1 0.59 -0.14
 -12 4 1 0.07 1.31
 -11 4 1 1.40 0.39
 -10 4 1 0.82 1.82
 -9 4 1 -1.23 -2.52
 -8 4 1 2.70 -2.52
 -7 4 1 3.32 -1.20
 -6 4 1 -2.12 4.12
 -5 4 1 -2.86 -5.32
 -4 4 1 -1.90 3.35
 -3 4 1 -0.66 1.30
 -2 4 1 -3.14 1.82
 -1 4 1 8.70 -3.95
 0 4 1 3.10 -6.71
 1 4 1 6.03 6.39
 2 4 1 -6.92 10.05
 3 4 1 -14.18 -3.99
 4 4 1 -1.03 -7.23
 5 4 1 2.57 -3.25
 6 4 1 -2.03 -1.57
 7 4 1 2.01 3.92
 8 4 1 -4.26 -0.28
 9 4 1 -2.53 0.69
 10 4 1 -2.60 0.46
 11 4 1 -3.02 -1.24
 12 4 1 0.08 -1.14
 13 4 1 1.36 -0.90
 -15 5 1 -0.85 -0.42
 -14 5 1 0.60 -0.59
 -13 5 1 1.91 -0.72
 -12 5 1 2.23 0.80
 -11 5 1 -0.46 1.58
 -10 5 1 -1.96 1.06
 -9 5 1 -2.28 -0.29
 -8 5 1 -1.15 -0.93
 -7 5 1 -1.98 0.47
 -6 5 1 2.60 -5.39
 -5 5 1 4.36 2.42
 -4 5 1 1.84 1.82
 -3 5 1 -2.07 -1.63
 -2 5 1 -3.18 -3.29
 -1 5 1 -11.18 -3.55
 0 5 1 -4.92 -0.07
 1 5 1 -2.95 -2.50
 2 5 1 2.48 -2.29
 3 5 1 3.70 4.70
 4 5 1 -3.57 3.92
 5 5 1 -2.02 -0.52
 6 5 1 0.18 2.04
 7 5 1 -1.13 -4.46
 8 5 1 1.74 0.14
 9 5 1 2.76 -1.22
 10 5 1 1.56 1.52
 11 5 1 0.28 0.98
 12 5 1 -0.01 -0.54
 13 5 1 -0.39 0.35
 -14 6 1 -0.46 -0.47
 -13 6 1 -0.36 -0.30
 -12 6 1 -0.81 0.50
 -11 6 1 -0.23 -0.09
 -10 6 1 0.80 0.57
 -9 6 1 -0.61 0.02
 -8 6 1 2.81 0.02
 -7 6 1 0.73 1.89
 -6 6 1 -2.06 1.34
 -5 6 1 3.50 -1.18
 -4 6 1 1.28 3.50
 -3 6 1 -0.86 2.82
 -2 6 1 6.66 5.61
 -1 6 1 4.53 9.79
 0 6 1 1.08 -2.94
 1 6 1 4.79 0.04
 2 6 1 0.61 -0.40
 3 6 1 3.41 -1.06
 4 6 1 2.09 1.85
 5 6 1 1.06 0.46
 6 6 1 -0.45 0.31
 7 6 1 -2.10 0.04
 8 6 1 1.91 -2.39
 9 6 1 0.31 0.73
 10 6 1 0.11 0.43
 11 6 1 -0.20 0.32
 12 6 1 -0.73 0.35
 -14 7 1 1.33 1.32
 -13 7 1 -0.70 2.07
 -12 7 1 -1.22 -0.03
 -11 7 1 0.25 -1.79
 -10 7 1 1.04 -0.90
 -9 7 1 2.55 1.60
 -8 7 1 -2.16 1.96
 -7 7 1 -1.82 0.29
 -6 7 1 -1.17 -2.60
 -5 7 1 1.07 -0.25
 -4 7 1 -2.53 3.27
 -3 7 1 -1.21 -6.51
 -2 7 1 1.66 -4.45
 -1 7 1 -3.33 -2.73
 0 7 1 -3.66 -0.60
 1 7 1 -2.12 -0.08
 2 7 1 -3.56 -0.05
 3 7 1 -2.67 -2.08
 4 7 1 -1.35 -1.72
 5 7 1 -1.76 -1.65
 6 7 1 1.70 -0.51
 7 7 1 1.98 1.16
 8 7 1 -1.04 2.85
 9 7 1 -2.36 -0.55
 10 7 1 1.56 -1.87
 11 7 1 -0.08 0.97
 12 7 1 -0.48 0.01
 -13 8 1 0.05 -0.91
 -12 8 1 0.92 -1.27
 -11 8 1 -0.42 1.10
 -10 8 1 -0.45 -0.53
 -9 8 1 -1.56 -2.50
 -8 8 1 2.18 -1.82
 -7 8 1 1.00 -0.03
 -6 8 1 0.69 0.40
 -5 8 1 0.67 1.17
 -4 8 1 -3.88 -0.77
 -3 8 1 -2.36 -1.73
 -2 8 1 1.36 0.58
 -1 8 1 3.60 2.84
 0 8 1 3.27 3.85
 1 8 1 1.16 0.79
 2 8 1 2.11 2.00
 3 8 1 1.07 0.95
 4 8 1 0.41 1.53
 5 8 1 1.70 -0.32
 6 8 1 0.87 1.74
 7 8 1 -3.06 0.39
 8 8 1 0.63 -2.74
 9 8 1 1.58 1.63
 10 8 1 -2.08 0.79
 11 8 1 0.53 -0.98
 -12 9 1 0.82 2.18
 -11 9 1 -0.51 1.54
 -10 9 1 -0.54 1.56
 -9 9 1 -0.38 2.50
 -8 9 1 -0.40 0.42
 -7 9 1 1.15 1.52
 -6 9 1 -0.30 1.53
 -5 9 1 0.53 -0.05
 -4 9 1 4.46 3.57
 -3 9 1 0.36 2.59
 -2 9 1 -1.05 0.64
 -1 9 1 -1.86 -3.46
 0 9 1 0.04 -2.58
 1 9 1 -1.10 0.60
 2 9 1 -0.08 -0.84
 3 9 1 -0.13 1.20
 4 9 1 -0.88 0.42
 5 9 1 -1.49 -0.82
 6 9 1 0.29 -0.53
 7 9 1 0.52 0.28
 8 9 1 0.34 0.30
 9 9 1 0.29 1.28
 10 9 1 -2.04 0.59
 -11 10 1 0.05 -1.77
 -10 10 1 0.96 -1.28
 -9 10 1 -0.98 -0.06
 -8 10 1 -2.21 -1.38
 -7 10 1 -1.68 -2.20
 -6 10 1 -0.50 -0.82
 -5 10 1 -2.50 -1.58
 -4 10 1 -0.97 -3.40
 -3 10 1 -1.75 1.04
 -2 10 1 -1.44 -0.67
 -1 10 1 -2.22 2.66
 0 10 1 -1.87 0.28
 1 10 1 -1.04 -0.48
 2 10 1 -1.10 -2.78
 3 10 1 0.69 -1.45
 4 10 1 1.39 -0.88
 5 10 1 0.45 2.22
 6 10 1 -0.59 -0.24
 7 10 1 -0.49 -0.17
 8 10 1 -0.28 -1.35
 9 10 1 0.72 -1.83
 -11 11 1 0.21 2.05
 -10 11 1 -1.07 0.30
 -9 11 1 1.29 0.14
 -8 11 1 0.70 1.18
 -7 11 1 1.20 0.90
 -6 11 1 0.69 0.60
 -5 11 1 0.12 0.78
 -4 11 1 0.71 -0.76
 -3 11 1 4.67 -1.93
 -2 11 1 3.98 2.30
 -1 11 1 1.77 -0.42
 0 11 1 3.42 -0.04
 1 11 1 0.64 2.48
 2 11 1 -1.61 2.00
 3 11 1 0.82 -0.48
 4 11 1 -0.85 1.82
 5 11 1 -0.43 -1.53
 6 11 1 0.14 0.66
 7 11 1 -0.35 0.98
 8 11 1 -1.27 -0.25
 -10 12 1 -0.95 0.43
 -9 12 1 -0.40 -1.76
 -8 12 1 0.97 -0.85
 -7 12 1 0.01 -0.74
 -6 12 1 0.46 -0.25
 -5 12 1 -0.07 0.45
 -4 12 1 -1.08 -1.00
 -3 12 1 -1.72 -0.03
 -2 12 1 -2.13 -1.19
 -1 12 1 -2.35 -0.31
 0 12 1 -1.34 -1.90
 1 12 1 1.18 0.21
 2 12 1 0.94 -1.57
 3 12 1 0.47 0.93
 4 12 1 -0.33 -0.21
 5 12 1 -0.37 -0.38
 6 12 1 0.89 -1.54
 -8 13 1 -0.25 -0.85
 -7 13 1 0.30 1.27
 -6 13 1 -0.73 0.18
 -5 13 1 0.37 0.58
 -4 13 1 -0.52 2.11
 -3 13 1 -1.29 0.96
 -2 13 1 -0.20 0.09
 -1 13 1 0.76 -0.30
 0 13 1 1.00 0.09
 1 13 1 -0.44 -1.14
 2 13 1 -0.01 0.94
 3 13 1 -0.10 -0.67
 4 13 1 0.71 -0.04
 5 13 1 0.39 1.13
 -6 14 1 -0.67 -0.92
 -5 14 1 1.51 -1.57
 -4 14 1 1.13 0.06
 -3 14 1 1.61 -1.03
 -2 14 1 1.62 -0.56
 -1 14 1 1.26 1.46
 0 14 1 -0.88 1.07
 1 14 1 -0.59 1.52
 2 14 1 0.27 -1.98
 -2 -15 2 0.04 1.15
 -1 -15 2 -0.46 0.55
 0 -15 2 -0.81 0.58
 1 -15 2 -0.42 0.02
 2 -15 2 -0.12 1.80
 3 -15 2 -1.29 -0.54
 4 -15 2 1.21 -0.93
 5 -15 2 -0.70 0.15
 -5 -14 2 0.82 -1.50
 -4 -14 2 0.11 -0.15
 -3 -14 2 0.68 1.15
 -2 -14 2 -0.59 -0.82
 -1 -14 2 -0.54 0.19
 0 -14 2 0.74 0.48
 1 -14 2 -0.77 0.42
 2 -14 2 -0.52 -1.13
 3 -14 2 -1.47 -0.25
 4 -14 2 -0.12 -1.34
 5 -14 2 0.09 0.89
 6 -14 2 -0.15 -0.03
 7 -14 2 -0.94 1.37
 8 -14 2 0.35 -0.48
 -7 -13 2 -2.03 -0.78
 -6 -13 2 0.93 -1.40
 -5 -13 2 -0.33 1.79
 -4 -13 2 0.13 0.83
 -3 -13 2 -2.06 -1.33
 -2 -13 2 -0.21 -0.55
 -1 -13 2 1.82 -1.92
 0 -13 2 0.20 0.60
 1 -13 2 -0.95 -0.24
 2 -13 2 0.93 0.49
 3 -13 2 0.41 1.78
 4 -13 2 -1.12 0.13
 5 -13 2 0.36 -0.34
 6 -13 2 -1.20 -1.80
 7 -13 2 2.84 -1.90
 8 -13 2 0.17 1.40
 -8 -12 2 -0.42 -1.56
 -7 -12 2 2.69 -0.34
 -6 -12 2 -0.85 -0.25
 -5 -12 2 2.97 -0.56
 -4 -12 2 -0.75 0.87
 -3 -12 2 1.51 0.73
 -2 -12 2 2.09 1.17
 -1 -12 2 -2.59 3.27
 0 -12 2 -1.21 -1.12
 1 -12 2 0.26 -1.85
 2 -12 2 2.75 -2.44
 3 -12 2 1.72 1.32
 4 -12 2 -0.60 -0.07
 5 -12 2 1.53 0.47
 6 -12 2 -0.51 2.89
 7 -12 2 -2.03 -0.27
 -10 -11 2 -0.68 -0.05
 -9 -11 2 -0.33 -0.28
 -8 -11 2 1.65 0.00
 -7 -11 2 -0.12 2.65
 -6 -11 2 -2.62 2.75
 -5 -11 2 -3.19 -2.47
 -4 -11 2 -0.30 -0.38
 -3 -11 2 -1.83 -2.30
 -2 -11 2 -1.66 -1.80
 -1 -11 2 1.56 -2.17
 0 -11 2 -1.38 0.16
 1 -11 2 -1.54 -1.87
 2 -11 2 -1.20 -1.15
 3 -11 2 -0.13 -1.49
 4 -11 2 0.18 -0.54
 5 -11 2 -0.59 -2.23
 6 -11 2 0.79 -0.58
 7 -11 2 -0.95 -0.64
 -11 -10 2 2.09 -0.50
 -10 -10 2 0.60 -0.78
 -9 -10 2 0.88 -0.41
 -8 -10 2 -0.39 0.44
 -7 -10 2 0.21 -1.26
 -6 -10 2 2.03 -0.37
 -5 -10 2 0.43 1.44
 -4 -10 2 1.51 0.12
 -3 -10 2 1.69 1.87
 -2 -10 2 2.99 2.14
 -1 -10 2 0.68 3.22
 0 -10 2 3.21 2.70
 1 -10 2 1.34 6.44
 2 -10 2 -1.08 3.07
 3 -10 2 -0.18 0.70
 4 -10 2 0.76 0.38
 5 -10 2 0.73 1.68
 6 -10 2 1.01 -0.56
 7 -10 2 3.30 0.24
 -11 -9 2 -1.30 1.51
 -10 -9 2 0.07 0.10
 -9 -9 2 -1.37 1.79
 -8 -9 2 -1.12 -1.66
 -7 -9 2 0.49 -1.26
 -6 -9 2 1.14 0.13
 -5 -9 2 0.31 0.66
 -4 -9 2 -0.47 0.72
 -3 -9 2 -2.75 -0.75
 -2 -9 2 -1.43 -2.59
 -1 -9 2 -1.37 -1.00
 0 -9 2 -3.62 -3.25
 1 -9 2 0.22 -5.32
 2 -9 2 -0.14 -0.27
 3 -9 2 -2.37 -0.01
 4 -9 2 -0.78 0.26
 5 -9 2 -1.71 1.41
 6 -9 2 -2.34 -0.71
 -12 -8 2 -0.77 0.71
 -11 -8 2 0.85 -0.66
 -10 -8 2 -0.29 1.27
 -9 -8 2 -0.01 0.31
 -8 -8 2 -1.08 0.18
 -7 -8 2 -0.74 1.55
 -6 -8 2 -2.38 -1.70
 -5 -8 2 -0.15 -1.04
 -4 -8 2 0.11 0.38
 -3 -8 2 -0.66 2.89
 -2 -8 2 -2.90 0.07
 -1 -8 2 -1.50 0.86
 0 -8 2 -4.89 -3.19
 1 -8 2 2.91 -2.64
 2 -8 2 0.98 2.92
 3 -8 2 -0.18 -1.49
 4 -8 2 2.09 -1.04
 5 -8 2 0.15 -0.74
 -13 -7 2 0.17 0.49
 -12 -7 2 0.29 -0.86
 -11 -7 2 -0.63 -0.76
 -10 -7 2 2.10 -2.47
 -9 -7 2 1.66 0.70
 -8 -7 2 1.52 0.05
 -7 -7 2 2.30 -0.84
 -6 -7 2 0.66 2.83
 -5 -7 2 -0.87 -1.74
 -4 -7 2 4.30 -5.49
 -3 -7 2 6.63 -0.03
 -2 -7 2 5.15 0.97
 -1 -7 2 6.48 2.67
 0 -7 2 7.06 5.02
 1 -7 2 4.20 1.77
 2 -7 2 4.18 -1.20
 3 -7 2 3.27 -0.81
 4 -7 2 2.34 0.99
 5 -7 2 1.70 2.42
 -13 -6 2 1.33 1.06
 -12 -6 2 -0.44 2.42
 -11 -6 2 -1.00 0.71
 -10 -6 2 -1.94 0.72
 -9 -6 2 -0.81 -0.45
 -8 -6 2 -1.35 -0.25
 -7 -6 2 -0.36 2.50
 -6 -6 2 -0.55 0.54
 -5 -6 2 -0.85 3.88
 -4 -6 2 -8.22 6.24
 -3 -6 2 -6.99 -2.50
 -2 -6 2 -4.85 -0.95
 -1 -6 2 -5.53 -3.09
 0 -6 2 -7.65 1.80
 1 -6 2 -14.81 4.27
 2 -6 2 -12.08 2.57
 3 -6 2 -8.58 4.56
 4 -6 2 -7.10 1.32
 13 -6 2 0.60 -2.30
 14 -6 2 0.79 -0.22
 -14 -5 2 0.74 -1.68
 -13 -5 2 -0.74 0.95
 -12 -5 2 -1.35 -1.12
 -11 -5 2 1.02 -0.73
 -10 -5 2 0.12 1.85
 -9 -5 2 -1.63 -0.20
 -8 -5 2 -0.80 -0.99
 -7 -5 2 0.09 -4.63
 -6 -5 2 1.61 -2.34
 -5 -5 2 2.87 0.27
 -4 -5 2 5.26 -0.96
 -3 -5 2 0.76 3.96
 -2 -5 2 -0.65 2.13
 -1 -5 2 -1.99 2.33
 0 -5 2 3.73 -10.33
 2 -5 2 13.35 -1.47
 3 -5 2 6.92 -3.87
 9 -5 2 1.50 -1.58
 10 -5 2 1.99 0.03
 11 -5 2 0.88 -1.43
 12 -5 2 -0.16 -1.85
 13 -5 2 0.42 -0.26
 14 -5 2 1.09 -0.41
 -14 -4 2 -1.18 1.00
 -13 -4 2 0.30 -0.20
 -12 -4 2 0.02 -0.64
 -11 -4 2 1.31 1.23
 -10 -4 2 -2.05 -0.04
 -9 -4 2 1.00 -4.24
 -8 -4 2 5.02 2.74
 -7 -4 2 -2.59 3.18
 -6 -4 2 -0.24 0.62
 -5 -4 2 0.27 -6.10
 -4 -4 2 2.29 0.80
 -3 -4 2 -0.44 1.25
 -2 -4 2 1.86 -8.63
 -1 -4 2 3.64 -5.58
 0 -4 2 6.28 0.94
 1 -4 2 -17.81 7.33
 2 -4 2 -17.76 -3.33
 7 -4 2 -2.31 3.86
 8 -4 2 -2.94 1.74
 9 -4 2 -0.02 -0.49
 10 -4 2 -0.55 1.52
 11 -4 2 -2.84 2.56
 12 -4 2 1.52 1.37
 13 -4 2 -0.70 2.38
 14 -4 2 -1.18 0.30
 -15 -3 2 0.03 -0.07
 -14 -3 2 1.13 0.10
 -13 -3 2 -0.98 1.17
 -12 -3 2 -2.28 -0.56
 -11 -3 2 -0.12 -4.07
 -10 -3 2 1.81 0.17
 -9 -3 2 0.53 0.56
 -8 -3 2 2.36 0.06
 -7 -3 2 -0.34 7.10
 -6 -3 2 -5.06 0.42
 -5 -3 2 -7.41 5.42
 -4 -3 2 -2.37 -4.90
 -3 -3 2 6.95 -4.79
 -2 -3 2 -0.70 20.98
 -1 -3 2 1.23 11.48
 0 -3 2 -10.64 23.06
 2 -3 2 -3.49 -2.41
 4 -3 2 3.91 -0.81
 5 -3 2 -1.63 -0.57
 6 -3 2 2.43 -0.07
 7 -3 2 -1.66 0.62
 8 -3 2 -4.21 -2.83
 9 -3 2 -0.84 -3.17
 10 -3 2 0.81 -1.61
 11 -3 2 3.83 -4.03
 12 -3 2 0.65 -0.16
 13 -3 2 0.57 -0.23
 14 -3 2 -0.40 0.12
 -15 -2 2 0.48 0.35
 -14 -2 2 -0.79 0.25
 -13 -2 2 1.07 -0.78
 -12 -2 2 2.02 1.02
 -11 -2 2 -0.36 4.19
 -10 -2 2 -2.06 -0.64
 -9 -2 2 0.16 -1.76
 -8 -2 2 0.23 2.58
 -7 -2 2 -5.93 -5.42
 -6 -2 2 7.92 -11.33
 -5 -2 2 13.68 9.11
 -4 -2 2 -13.46 -6.35
 -3 -2 2 5.46 -2.30
 -2 -2 2 11.21 -16.42
 -1 -2 2 -7.29 -3.44
 0 -2 2 7.81 -26.06
 1 -2 2 -0.43 -40.49
 2 -2 2 3.95 1.55
 3 -2 2 -10.21 -8.88
 4 -2 2 -1.71 -6.34
 5 -2 2 0.74 -0.51
 6 -2 2 -3.81 -3.10
 7 -2 2 0.59 -3.44
 8 -2 2 4.46 0.19
 9 -2 2 0.33 0.42
 10 -2 2 0.62 -1.53
 11 -2 2 -2.68 1.73
 12 -2 2 0.32 -0.65
 13 -2 2 -0.57 0.28
 14 -2 2 -0.24 -0.29
 -15 -1 2 -1.01 1.04
 -14 -1 2 -1.11 -0.81
 -13 -1 2 -0.42 0.31
 -12 -1 2 -0.84 -1.84
 -11 -1 2 2.94 -1.52
 -10 -1 2 0.27 3.59
 -9 -1 2 -1.51 2.90
 -8 -1 2 -5.35 1.39
 -7 -1 2 -6.91 -3.07
 -6 -1 2 5.59 -6.26
 -5 -1 2 6.69 10.51
 -4 -1 2 -13.69 18.04
 -3 -1 2 19.92 -7.46
 -2 -1 2 -34.12 72.04
 -1 -1 2 -61.79 -18.30
 0 -1 2 -14.39 -33.54
 2 -1 2 5.05 -5.85
 3 -1 2 11.13 14.58
 4 -1 2 5.22 9.16
 5 -1 2 -1.91 2.86
 6 -1 2 -0.95 0.25
 7 -1 2 2.51 -3.83
 8 -1 2 0.59 -0.54
 9 -1 2 3.07 0.66
 10 -1 2 0.54 4.46
 11 -1 2 -0.15 1.71
 12 -1 2 -0.21 -0.23
 13 -1 2 -0.86 1.65
 14 -1 2 -1.26 -2.15
 -15 0 2 -0.27 -0.99
 -14 0 2 -0.02 -0.45
 -13 0 2 0.13 -1.05
 -12 0 2 -1.91 1.04
 -11 0 2 -1.67 -2.01
 -10 0 2 1.78 -1.09
 -9 0 2 -0.11 -1.46
 -8 0 2 5.72 -1.92
 -7 0 2 7.53 4.19
 -6 0 2 -3.53 3.31
 -5 0 2 -1.54 -1.18
 -4 0 2 0.91 -16.43
 -3 0 2 -5.30 -3.85
 -2 0 2 21.02 -26.80
 -1 0 2 25.03 -14.45
 1 0 2 -6.04 -29.08
 2 0 2 5.10 1.39
 3 0 2 5.34 -8.62
 4 0 2 -0.92 -1.26
 5 0 2 -4.12 6.14
 6 0 2 -2.64 -6.03
 7 0 2 0.50 3.03
 8 0 2 -1.16 0.17
 9 0 2 0.16 -3.26
 10 0 2 2.45 -1.23
 11 0 2 1.00 -1.20
 12 0 2 -0.20 1.40
 13 0 2 -0.45 -0.76
 14 0 2 -0.36 -0.08
 -15 1 2 0.93 -0.38
 -14 1 2 1.69 0.12
 -13 1 2 2.40 2.15
 -12 1 2 0.48 2.49
 -11 1 2 -0.39 -1.00
 -10 1 2 -0.31 1.43
 -9 1 2 -4.75 -1.99
 -8 1 2 0.13 -5.44
 -7 1 2 -1.67 2.57
 -6 1 2 -5.40 1.64
 -5 1 2 -3.93 -7.95
 -4 1 2 -0.21 15.82
 -3 1 2 -12.74 -5.37
 -1 1 2 14.23 -17.74
 0 1 2 9.20 -3.50
 1 1 2 -19.51 42.85
 2 1 2 -3.70 -16.78
 3 1 2 -2.59 12.31
 4 1 2 -6.51 1.95
 5 1 2 5.02 -12.14
 6 1 2 4.61 5.28
 7 1 2 3.04 0.58
 8 1 2 -1.56 3.79
 9 1 2 -3.88 1.77
 10 1 2 -1.07 -0.65
 11 1 2 -1.25 2.12
 12 1 2 -0.97 -1.72
 13 1 2 1.46 -0.84
 14 1 2 0.56 1.00
 -15 2 2 -0.46 -0.03
 -14 2 2 0.10 0.15
 -13 2 2 -1.23 0.00
 -12 2 2 -0.70 -0.24
 -11 2 2 -1.84 2.11
 -10 2 2 -2.01 -0.51
 -9 2 2 1.50 -0.64
 -8 2 2 3.31 2.87
 -7 2 2 2.13 1.48
 -6 2 2 5.87 -1.28
 -5 2 2 7.45 15.66
 -4 2 2 -10.30 0.66
 -3 2 2 -11.57 -1.89
 -2 2 2 6.80 2.14
 0 2 2 0.11 -2.58
 1 2 2 10.27 -5.46
 2 2 2 -5.44 2.44
 3 2 2 9.99 4.27
 4 2 2 -11.34 -2.69
 5 2 2 0.37 -4.34
 6 2 2 5.11 -1.70
 7 2 2 -2.02 -0.95
 8 2 2 2.32 -0.85
 9 2 2 2.24 -1.44
 10 2 2 -0.23 0.37
 11 2 2 -0.85 -2.53
 12 2 2 0.69 -1.51
 13 2 2 0.36 -0.54
 14 2 2 1.06 -0.30
 -15 3 2 0.13 -0.05
 -14 3 2 -1.29 0.80
 -13 3 2 -2.68 -0.81
 -12 3 2 -0.61 -3.13
 -11 3 2 2.55 -2.91
 -10 3 2 1.77 0.09
 -9 3 2 -1.41 -1.07
 -8 3 2 -1.49 -1.82
 -7 3 2 -4.68 -2.25
 -6 3 2 -5.32 -4.04
 -5 3 2 -3.84 -13.86
 -4 3 2 5.12 -7.36
 -3 3 2 21.55 -4.97
 -2 3 2 7.71 9.55
 -1 3 2 8.12 -1.69
 0 3 2 -5.11 -19.30
 1 3 2 13.64 -6.89
 2 3 2 5.23 3.17
 3 3 2 -2.05 -3.00
 4 3 2 1.25 4.55
 5 3 2 2.10 -2.37
 6 3 2 -2.45 4.44
 7 3 2 -2.16 0.29
 8 3 2 1.56 -4.52
 9 3 2 2.51 2.36
 10 3 2 0.91 2.64
 11 3 2 -0.32 0.76
 12 3 2 1.80 1.94
 13 3 2 -1.26 2.16
 -15 4 2 0.05 0.42
 -14 4 2 1.02 0.22
 -13 4 2 0.37 -0.13
 -12 4 2 1.84 -1.30
 -11 4 2 0.76 1.12
 -10 4 2 1.41 -1.05
 -9 4 2 3.82 2.94
 -8 4 2 -0.69 4.01
 -7 4 2 -0.57 0.82
 -6 4 2 3.62 0.34
 -5 4 2 -0.73 6.14
 -4 4 2 -0.01 -1.08
 -3 4 2 -10.24 -1.44
 -2 4 2 1.95 -12.10
 -1 4 2 2.01 6.87
 0 4 2 -3.15 17.83
 1 4 2 -6.24 6.65
 2 4 2 -7.73 3.84
 3 4 2 -0.15 -5.48
 4 4 2 7.92 -0.51
 5 4 2 2.38 5.57
 6 4 2 1.00 6.97
 7 4 2 -3.56 -0.44
 8 4 2 -1.43 3.99
 9 4 2 -2.00 -1.13
 10 4 2 -0.52 -1.29
 11 4 2 0.26 0.19
 12 4 2 0.23 -1.48
 13 4 2 0.23 0.58
 -15 5 2 -0.46 -1.34
 -14 5 2 0.93 -1.09
 -13 5 2 0.45 1.19
 -12 5 2 -1.07 1.63
 -11 5 2 -1.82 1.29
 -10 5 2 -1.79 -1.36
 -9 5 2 0.13 -0.91
 -8 5 2 0.36 -0.68
 -7 5 2 1.39 -1.85
 -6 5 2 0.92 1.06
 -5 5 2 3.04 0.03
 -4 5 2 -2.99 4.65
 -3 5 2 1.72 -1.38
 -2 5 2 4.14 8.68
 -1 5 2 2.09 -0.01
 0 5 2 6.90 -5.37
 1 5 2 1.50 0.43
 2 5 2 2.67 -0.52
 3 5 2 -3.10 1.39
 4 5 2 -1.92 -3.32
 5 5 2 -1.83 -1.01
 6 5 2 -1.68 -6.98
 7 5 2 1.75 -0.08
 8 5 2 1.04 -2.54
 9 5 2 -1.02 0.47
 10 5 2 -0.88 -1.08
 11 5 2 0.17 -2.19
 12 5 2 0.27 0.35
 -14 6 2 0.28 0.45
 -13 6 2 0.86 -0.20
 -12 6 2 1.58 0.67
 -11 6 2 0.29 0.52
 -10 6 2 -0.48 -0.37
 -9 6 2 0.60 0.55
 -8 6 2 -2.95 -1.32
 -7 6 2 0.19 -2.88
 -6 6 2 3.48 -2.58
 -5 6 2 0.27 2.63
 -4 6 2 1.22 -2.37
 -3 6 2 1.02 1.60
 -2 6 2 -6.67 -7.31
 -1 6 2 -3.00 -5.30
 0 6 2 -6.13 0.20
 1 6 2 -0.38 -4.25
 2 6 2 2.13 0.79
 3 6 2 -0.18 3.94
 4 6 2 -2.02 1.47
 5 6 2 -0.62 0.31
 6 6 2 0.45 0.85
 7 6 2 2.36 -0.88
 8 6 2 1.04 0.97
 9 6 2 2.44 1.77
 10 6 2 -0.02 1.84
 11 6 2 -0.63 1.81
 12 6 2 -0.12 0.60
 -14 7 2 -0.03 -0.90
 -13 7 2 -0.96 0.01
 -12 7 2 -0.94 -2.54
 -11 7 2 1.36 0.46
 -10 7 2 -0.21 2.03
 -9 7 2 -1.56 0.15
 -8 7 2 -0.58 2.22
 -7 7 2 -2.12 0.75
 -6 7 2 -3.07 2.58
 -5 7 2 -3.92 -3.98
 -4 7 2 3.33 -2.42
 -3 7 2 1.37 5.70
 -2 7 2 -0.64 7.94
 -1 7 2 1.23 2.19
 0 7 2 5.15 2.62
 1 7 2 -2.42 1.18
 2 7 2 1.47 -3.00
 3 7 2 2.57 -1.25
 4 7 2 2.13 0.57
 5 7 2 0.19 2.94
 6 7 2 -3.13 -0.90
 7 7 2 -0.50 0.08
 8 7 2 -1.82 -0.05
 9 7 2 0.14 -2.21
 10 7 2 0.06 -0.34
 11 7 2 1.30 -1.02
 -13 8 2 0.97 0.12
 -12 8 2 0.26 2.35
 -11 8 2 -0.86 -1.16
 -10 8 2 0.68 -2.34
 -9 8 2 2.62 -1.23
 -8 8 2 4.47 -1.83
 -7 8 2 3.38 1.40
 -6 8 2 2.48 -0.67
 -5 8 2 1.64 2.64
 -4 8 2 0.07 -0.66
 -3 8 2 2.42 -3.36
 -2 8 2 1.68 -4.21
 -1 8 2 1.95 -2.76
 0 8 2 0.73 0.38
 1 8 2 -1.48 2.71
 2 8 2 -1.07 -1.67
 3 8 2 0.50 0.54
 4 8 2 0.19 -1.19
 5 8 2 1.60 -0.73
 6 8 2 1.21 1.55
 7 8 2 0.94 0.12
 8 8 2 0.34 2.43
 9 8 2 -2.82 0.62
 10 8 2 -0.04 -1.50
 -13 9 2 0.35 -0.20
 -12 9 2 0.69 -0.09
 -11 9 2 -0.34 1.76
 -10 9 2 -1.22 1.09
 -9 9 2 -1.50 0.03
 -8 9 2 -2.04 0.94
 -7 9 2 -1.42 1.41
 -6 9 2 -1.77 0.86
 -5 9 2 -0.01 1.88
 -4 9 2 -4.67 0.79
 -3 9 2 -1.99 1.90
 -2 9 2 -3.48 1.65
 -1 9 2 -1.32 0.70
 0 9 2 0.13 1.58
 1 9 2 1.05 0.79
 2 9 2 -1.54 3.15
 3 9 2 -2.59 0.38
 4 9 2 -1.93 -0.46
 5 9 2 -0.57 -0.53
 6 9 2 -0.41 -1.87
 7 9 2 1.07 0.15
 8 9 2 -1.52 -0.11
 9 9 2 0.52 -2.26
 -12 10 2 -0.13 0.47
 -11 10 2 -0.61 0.85
 -10 10 2 -1.06 -0.27
 -9 10 2 0.73 0.32
 -8 10 2 -0.57 0.89
 -7 10 2 -0.79 -2.11
 -6 10 2 1.35 -1.69
 -5 10 2 0.07 -0.26
 -4 10 2 1.81 -0.94
 -3 10 2 3.22 -1.27
 -2 10 2 1.33 1.01
 -1 10 2 -0.53 -0.47
 0 10 2 -1.88 -4.51
 1 10 2 1.94 -3.35
 2 10 2 2.18 -0.16
 3 10 2 1.07 0.18
 4 10 2 1.02 0.89
 5 10 2 0.27 0.32
 6 10 2 -0.58 1.65
 7 10 2 -0.24 -1.75
 8 10 2 2.47 0.75
 -11 11 2 0.42 -2.43
 -10 11 2 1.58 -0.53
 -9 11 2 0.12 -0.47
 -8 11 2 0.25 -1.17
 -7 11 2 -0.11 -0.01
 -6 11 2 -1.88 -0.53
 -5 11 2 1.17 -2.36
 -4 11 2 -0.42 -0.12
 -3 11 2 -1.07 -0.30
 -2 11 2 -1.07 -1.03
 -1 11 2 2.26 -0.36
 0 11 2 -0.87 4.70
 1 11 2 -0.84 -1.76
 2 11 2 2.55 0.08
 3 11 2 -0.28 1.12
 4 11 2 -0.49 -0.74
 5 11 2 0.56 0.49
 6 11 2 -0.64 0.61
 7 11 2 -1.54 -0.79
 -10 12 2 0.06 0.25
 -9 12 2 -0.60 0.75
 -8 12 2 0.33 1.40
 -7 12 2 0.01 1.83
 -6 12 2 0.46 1.17
 -5 12 2 -0.99 0.55
 -4 12 2 1.92 1.35
 -3 12 2 -0.18 2.38
 -2 12 2 0.67 1.09
 -1 12 2 -0.82 2.21
 0 12 2 -0.40 -0.39
 1 12 2 -1.71 0.68
 2 12 2 -1.65 0.71
 3 12 2 -2.24 -0.25
 4 12 2 -0.35 -1.94
 5 12 2 1.21 -1.03
 6 12 2 0.78 0.23
 -8 13 2 0.00 -0.11
 -7 13 2 -0.10 -1.90
 -6 13 2 0.53 -0.28
 -5 13 2 0.25 0.47
 -4 13 2 -1.82 -0.72
 -3 13 2 -0.03 -3.19
 -2 13 2 -0.23 -1.72
 -1 13 2 0.79 -2.98
 0 13 2 0.59 -1.16
 1 13 2 2.33 -0.28
 2 13 2 0.70 -0.16
 3 13 2 1.23 -0.73
 4 13 2 1.00 1.00
 -5 14 2 -1.47 -0.02
 -4 14 2 0.40 -1.82
 -3 14 2 0.62 0.77
 -2 14 2 1.23 1.61
 -1 14 2 -0.53 1.04
 0 14 2 1.70 1.02
 -3 -15 3 0.70 0.61
 -2 -15 3 0.31 -0.62
 -1 -15 3 0.71 0.57
 0 -15 3 0.31 -0.22
 1 -15 3 0.44 0.35
 2 -15 3 -0.73 -0.86
 3 -15 3 0.85 -0.12
 4 -15 3 -0.14 0.20
 5 -15 3 0.88 0.72
 6 -15 3 -0.24 0.05
 -6 -14 3 1.12 -1.64
 -5 -14 3 0.84 0.94
 -4 -14 3 0.52 0.48
 -3 -14 3 0.30 -0.73
 -2 -14 3 0.28 2.00
 -1 -14 3 -0.83 1.08
 0 -14 3 -1.86 0.11
 1 -14 3 -0.32 0.16
 2 -14 3 -0.14 1.14
 3 -14 3 0.03 0.59
 4 -14 3 -1.42 1.03
 5 -14 3 -0.22 -1.64
 6 -14 3 0.53 0.68
 7 -14 3 0.65 -0.57
 -7 -13 3 1.81 0.54
 -6 -13 3 -1.31 1.75
 -5 -13 3 0.10 0.40
 -4 -13 3 -2.85 -0.14
 -3 -13 3 -0.38 -1.09
 -2 -13 3 1.59 -2.21
 -1 -13 3 -0.29 0.92
 0 -13 3 0.27 -1.18
 1 -13 3 1.24 -0.40
 2 -13 3 -1.05 0.30
 3 -13 3 -1.57 -1.63
 4 -13 3 0.23 -1.24
 5 -13 3 -0.45 -1.23
 6 -13 3 0.98 -0.06
 7 -13 3 -2.12 0.95
 -9 -12 3 -0.72 -0.48
 -8 -12 3 0.09 -1.45
 -7 -12 3 -0.79 -1.12
 -6 -12 3 2.01 0.36
 -5 -12 3 -1.49 -0.54
 -4 -12 3 2.78 0.86
 -3 -12 3 -1.38 1.45
 -2 -12 3 -2.80 0.88
 -1 -12 3 0.00 -1.86
 0 -12 3 -0.34 -0.46
 1 -12 3 -0.24 0.66
 2 -12 3 -1.21 -0.36
 3 -12 3 0.88 -0.94
 4 -12 3 1.09 1.34
 5 -12 3 -2.21 0.68
 6 -12 3 0.51 -2.06
 7 -12 3 1.32 0.56
 -10 -11 3 -0.35 -1.70
 -9 -11 3 2.38 -0.67
 -8 -11 3 0.67 2.76
 -7 -11 3 0.44 0.54
 -6 -11 3 0.20 -0.13
 -5 -11 3 0.08 1.24
 -4 -11 3 0.44 -1.95
 -3 -11 3 2.69 2.48
 -2 -11 3 0.57 0.21
 -1 -11 3 0.88 0.86
 0 -11 3 1.10 0.90
 1 -11 3 1.70 -0.74
 2 -11 3 2.15 0.87
 3 -11 3 1.68 -0.24
 4 -11 3 2.75 1.68
 5 -11 3 0.17 3.71
 6 -11 3 -2.12 -0.27
 -11 -10 3 -0.40 0.42
 -10 -10 3 -1.58 1.19
 -9 -10 3 -0.97 -1.44
 -8 -10 3 0.55 -0.07
 -7 -10 3 -3.40 0.54
 -6 -10 3 -0.92 -2.36
 -5 -10 3 0.11 -0.81
 -4 -10 3 -1.28 -0.91
 -3 -10 3 -0.15 -3.14
 -2 -10 3 0.71 -0.04
 -1 -10 3 0.63 0.12
 0 -10 3 -1.21 1.41
 1 -10 3 -2.80 -0.44
 2 -10 3 -0.68 -0.17
 3 -10 3 -3.46 0.96
 4 -10 3 -2.13 -4.28
 5 -10 3 2.53 -2.54
 6 -10 3 1.05 0.92
 -12 -9 3 1.51 1.22
 -11 -9 3 1.50 0.73
 -10 -9 3 -0.28 -0.18
 -9 -9 3 2.58 -0.78
 -8 -9 3 0.63 2.18
 -7 -9 3 1.01 0.75
 -6 -9 3 -0.29 0.17
 -5 -9 3 1.41 2.00
 -4 -9 3 -2.28 2.07
 -3 -9 3 0.30 0.34
 -2 -9 3 -0.84 2.09
 -1 -9 3 -2.18 0.39
 0 -9 3 -0.76 1.42
 1 -9 3 -2.26 1.94
 2 -9 3 -0.74 -0.34
 3 -9 3 1.06 0.78
 4 -9 3 -1.03 1.51
 5 -9 3 0.30 -0.63
 -13 -8 3 -1.06 -1.41
 -12 -8 3 0.65 -0.58
 -11 -8 3 -1.47 0.95
 -10 -8 3 -0.17 0.39
 -9 -8 3 -3.19 0.63
 -8 -8 3 -1.46 -2.80
 -7 -8 3 0.65 -3.86
 -6 -8 3 2.81 0.54
 -5 -8 3 0.54 -0.67
 -4 -8 3 1.91 -0.61
 -3 -8 3 -0.36 0.81
 -2 -8 3 -2.18 -2.07
 -1 -8 3 2.18 -6.72
 0 -8 3 6.04 -3.61
 1 -8 3 3.60 -5.50
 2 -8 3 6.00 -3.59
 3 -8 3 0.82 0.72
 4 -8 3 -0.58 -1.18
 5 -8 3 -1.30 0.73
 -13 -7 3 0.96 -0.56
 -12 -7 3 -0.28 -0.23
 -11 -7 3 0.99 -2.57
 -10 -7 3 1.51 0.28
 -9 -7 3 1.86 0.02
 -8 -7 3 1.29 2.31
 -7 -7 3 -1.35 4.16
 -6 -7 3 -2.68 -2.18
 -5 -7 3 1.87 -1.64
 -4 -7 3 0.13 3.91
 -3 -7 3 -0.17 -1.58
 -2 -7 3 4.53 4.27
 -1 -7 3 -4.71 7.56
 0 -7 3 -4.99 2.44
 1 -7 3 -3.52 8.67
 2 -7 3 -4.82 3.27
 3 -7 3 5.37 5.10
 4 -7 3 0.37 7.73
 -14 -6 3 1.51 -0.11
 -13 -6 3 0.24 1.59
 -12 -6 3 0.25 0.77
 -11 -6 3 0.11 2.42
 -10 -6 3 -0.92 0.58
 -9 -6 3 -1.47 -0.93
 -8 -6 3 1.99 -1.26
 -7 -6 3 2.16 -0.17
 -6 -6 3 -0.39 4.94
 -5 -6 3 -2.86 2.82
 -4 -6 3 -2.03 -3.05
 -3 -6 3 1.41 -1.33
 -2 -6 3 1.62 1.77
 -1 -6 3 1.52 3.80
 0 -6 3 -0.47 1.76
 1 -6 3 1.45 -4.38
 2 -6 3 -2.03 -2.27
 3 -6 3 -5.43 -9.64
 -14 -5 3 -1.00 1.15
 -13 -5 3 0.45 -0.59
 -12 -5 3 0.25 2.22
 -11 -5 3 -3.62 0.66
 -10 -5 3 -1.45 -2.73
 -9 -5 3 0.72 0.03
 -8 -5 3 -2.79 -0.36
 -7 -5 3 -2.72 -2.61
 -6 -5 3 3.21 -5.57
 -5 -5 3 2.52 -2.77
 -4 -5 3 -0.43 3.44
 -3 -5 3 -6.49 -0.52
 -2 -5 3 -5.07 -9.65
 -1 -5 3 -1.76 -15.35
 0 -5 3 6.03 -7.37
 1 -5 3 -4.11 2.20
 2 -5 3 -1.43 0.52
 3 -5 3 -0.20 7.56
 9 -5 3 2.45 2.05
 10 -5 3 -0.71 2.06
 11 -5 3 -2.54 0.89
 12 -5 3 0.97 -2.00
 13 -5 3 2.76 -0.23
 14 -5 3 -0.10 0.40
 -14 -4 3 0.69 -0.72
 -13 -4 3 -1.38 -1.97
 -12 -4 3 2.12 -2.32
 -11 -4 3 2.08 -0.24
 -10 -4 3 1.39 1.41
 -9 -4 3 -0.84 2.40
 -8 -4 3 -1.35 -2.69
 -7 -4 3 6.79 -0.57
 -6 -4 3 0.56 6.58
 -5 -4 3 -1.81 5.30
 -4 -4 3 5.42 1.28
 -3 -4 3 2.89 6.08
 -2 -4 3 -1.37 6.34
 -1 -4 3 12.46 7.24
 0 -4 3 6.15 12.26
 2 -4 3 8.20 8.52
 6 -4 3 2.13 -4.60
 7 -4 3 0.08 0.70
 8 -4 3 -0.65 -0.13
 9 -4 3 -1.55 1.21
 10 -4 3 -0.24 -0.37
 11 -4 3 3.10 -1.15
 12 -4 3 -1.65 1.48
 13 -4 3 -0.38 -1.01
 14 -4 3 0.67 1.59
 -15 -3 3 1.07 0.69
 -14 -3 3 0.21 0.75
 -13 -3 3 0.45 2.06
 -12 -3 3 -1.98 0.86
 -11 -3 3 -1.99 -1.01
 -10 -3 3 3.16 -4.30
 -9 -3 3 4.23 2.34
 -8 -3 3 -0.29 3.72
 -7 -3 3 -2.46 3.35
 -6 -3 3 -9.55 0.07
 -5 -3 3 -1.51 -13.18
 -4 -3 3 -3.05 -6.70
 -3 -3 3 1.36 -6.04
 -2 -3 3 16.44 3.49
 -1 -3 3 -28.78 17.49
 1 -3 3 -25.54 -14.44
 2 -3 3 -15.78 -11.23
 3 -3 3 -7.27 0.72
 4 -3 3 -6.71 -5.50
 5 -3 3 5.66 4.24
 6 -3 3 -7.89 5.96
 7 -3 3 -5.28 -0.80
 8 -3 3 -2.77 -2.21
 9 -3 3 -1.95 -3.55
 10 -3 3 -0.21 -4.42
 11 -3 3 -0.91 1.46
 12 -3 3 -0.42 0.86
 13 -3 3 -0.99 -0.45
 14 -3 3 -0.23 -0.15
 -15 -2 3 0.15 0.35
 -14 -2 3 -0.33 0.72
 -13 -2 3 0.22 -0.99
 -12 -2 3 2.02 2.56
 -11 -2 3 -2.97 1.35
 -10 -2 3 -2.58 -0.56
 -9 -2 3 -0.55 1.37
 -8 -2 3 -4.75 -4.02
 -7 -2 3 7.59 -3.46
 -6 -2 3 2.28 10.83
 -5 -2 3 -7.47 -3.08
 -4 -2 3 13.82 9.86
 -3 -2 3 -8.29 1.71
 -2 -2 3 -8.32 -18.58
 -1 -2 3 48.25 -1.03
 0 -2 3 -2.96 34.82
 1 -2 3 -2.27 8.01
 2 -2 3 16.72 -5.03
 3 -2 3 4.03 0.71
 4 -2 3 4.72 -4.65
 5 -2 3 4.78 -7.12
 6 -2 3 7.19 1.11
 7 -2 3 0.87 -0.58
 8 -2 3 1.50 -0.28
 9 -2 3 1.90 2.25
 10 -2 3 -1.10 1.81
 11 -2 3 3.31 -2.98
 12 -2 3 2.44 -0.13
 13 -2 3 1.58 1.29
 14 -2 3 0.26 1.18
 -15 -1 3 -0.84 -0.59
 -14 -1 3 0.34 -0.15
 -13 -1 3 -0.24 -0.18
 -12 -1 3 -0.82 -0.19
 -11 -1 3 1.01 -0.21
 -10 -1 3 2.72 1.07
 -9 -1 3 -0.88 1.10
 -8 -1 3 -2.12 0.29
 -7 -1 3 3.09 -7.15
 -6 -1 3 4.37 3.55
 -5 -1 3 -5.25 -5.52
 -4 -1 3 23.54 -12.24
 -3 -1 3 -5.39 43.35
 -2 -1 3 -13.78 1.62
 0 -1 3 -4.25 -9.60
 1 -1 3 0.35 -30.89
 2 -1 3 4.72 -1.42
 3 -1 3 5.97 10.88
 4 -1 3 -13.30 3.11
 5 -1 3 -2.68 1.43
 6 -1 3 -4.59 -0.62
 7 -1 3 -2.08 -2.31
 8 -1 3 4.20 -1.51
 9 -1 3 0.19 1.58
 10 -1 3 -1.35 -0.29
 11 -1 3 -2.03 -0.76
 12 -1 3 -1.47 1.25
 13 -1 3 -2.56 -2.13
 14 -1 3 1.06 -1.31
 -15 0 3 -0.60 0.56
 -14 0 3 -1.53 -0.58
 -13 0 3 -1.93 -2.49
 -12 0 3 4.31 -3.68
 -11 0 3 1.39 2.89
 -10 0 3 -3.89 -0.21
 -9 0 3 -0.96 -0.83
 -8 0 3 -0.72 -0.23
 -7 0 3 -6.37 1.82
 -6 0 3 -1.48 -2.96
 -5 0 3 -1.75 0.24
 -4 0 3 -6.82 9.30
 -3 0 3 -6.21 -5.77
 -2 0 3 -27.00 -14.10
 -1 0 3 -1.63 -25.61
 0 0 3 -1.07 -28.53
 1 0 3 9.38 16.49
 2 0 3 1.52 0.13
 3 0 3 -1.20 -4.14
 4 0 3 6.22 9.57
 5 0 3 -4.68 -3.87
 6 0 3 1.12 -0.39
 7 0 3 -0.03 -0.41
 8 0 3 -2.59 -2.28
 9 0 3 1.77 -0.53
 10 0 3 1.61 0.90
 11 0 3 1.02 2.56
 12 0 3 -0.43 0.75
 13 0 3 -0.21 0.36
 14 0 3 -0.34 0.13
 -15 1 3 1.08 -1.22
 -14 1 3 3.05 1.27
 -13 1 3 0.04 3.01
 -12 1 3 -1.95 0.41
 -11 1 3 0.26 1.28
 -10 1 3 -0.18 -0.68
 -9 1 3 5.02 -0.55
 -8 1 3 0.73 5.66
 -7 1 3 1.25 -3.53
 -6 1 3 9.36 -1.34
 -5 1 3 3.46 14.19
 -4 1 3 -7.05 -14.00
 -3 1 3 11.55 -3.47
 -2 1 3 24.01 11.37
 -1 1 3 7.69 29.06
 0 1 3 -5.59 24.95
 1 1 3 7.25 -12.91
 2 1 3 -3.60 9.18
 3 1 3 2.19 -5.61
 4 1 3 6.52 -6.59
 5 1 3 -1.27 8.27
 6 1 3 0.07 -4.17
 7 1 3 -0.64 0.02
 8 1 3 1.58 -0.77
 9 1 3 1.65 -0.94
 10 1 3 -0.38 0.78
 11 1 3 -1.33 -1.52
 12 1 3 0.70 -1.30
 13 1 3 -0.18 0.32
 14 1 3 -0.08 -1.18
 -15 2 3 0.29 -0.33
 -14 2 3 0.19 0.39
 -13 2 3 0.60 2.62
 -12 2 3 -2.90 2.68
 -11 2 3 -1.67 -1.13
 -10 2 3 -2.62 0.48
 -9 2 3 -4.47 -2.37
 -8 2 3 0.72 -6.08
 -7 2 3 4.47 2.64
 -6 2 3 -3.80 10.77
 -5 2 3 -9.99 -2.24
 -4 2 3 -6.75 10.75
 -3 2 3 -6.58 -4.10
 -2 2 3 -11.96 -10.57
 -1 2 3 8.43 -18.50
 0 2 3 0.75 -14.07
 1 2 3 4.27 5.96
 2 2 3 -5.03 11.61
 3 2 3 -19.03 -5.45
 4 2 3 -1.15 -2.93
 5 2 3 1.63 -4.40
 6 2 3 -0.96 0.29
 7 2 3 2.81 1.43
 8 2 3 -1.03 1.43
 9 2 3 -4.37 2.22
 10 2 3 -2.22 -3.78
 11 2 3 2.60 -1.11
 12 2 3 -0.47 0.94
 13 2 3 0.82 -1.00
 -15 3 3 -0.51 1.34
 -14 3 3 -2.23 -1.59
 -13 3 3 0.52 -3.11
 -12 3 3 0.53 -2.05
 -11 3 3 -0.14 -1.68
 -10 3 3 1.94 -1.28
 -9 3 3 0.81 1.65
 -8 3 3 -3.12 0.34
 -7 3 3 -1.85 -2.28
 -6 3 3 -4.54 -6.12
 -5 3 3 1.21 -8.72
 -4 3 3 10.28 -8.32
 -3 3 3 -10.49 3.80
 -2 3 3 -6.45 -9.40
 -1 3 3 -6.80 -7.33
 0 3 3 4.51 7.06
 1 3 3 -2.31 -9.99
 2 3 3 12.90 -3.67
 3 3 3 6.57 5.08
 4 3 3 6.23 -1.72
 5 3 3 -1.40 4.40
 6 3 3 2.09 -4.34
 7 3 3 3.36 -3.02
 8 3 3 4.27 1.18
 9 3 3 4.55 1.03
 10 3 3 1.37 2.16
 11 3 3 -0.07 2.47
 12 3 3 -1.92 -0.13
 13 3 3 -0.74 -1.92
 -15 4 3 0.73 0.02
 -14 4 3 -0.75 1.00
 -13 4 3 -0.26 -0.63
 -12 4 3 0.64 0.72
 -11 4 3 1.63 0.10
 -10 4 3 0.67 0.54
 -9 4 3 2.01 -0.88
 -8 4 3 4.32 1.70
 -7 4 3 -0.04 2.74
 -6 4 3 2.47 -2.10
 -5 4 3 7.81 2.32
 -4 4 3 -1.49 5.34
 -3 4 3 13.95 -0.48
 -2 4 3 12.26 10.92
 -1 4 3 12.19 10.03
 0 4 3 2.07 3.17
 1 4 3 -6.07 5.44
 2 4 3 -1.25 -8.51
 3 4 3 4.30 2.45
 4 4 3 -5.40 1.88
 5 4 3 1.62 -0.67
 6 4 3 -1.35 2.87
 7 4 3 -2.73 4.90
 8 4 3 -4.44 -0.73
 9 4 3 -3.72 -1.99
 10 4 3 0.72 -1.06
 11 4 3 0.17 -0.49
 12 4 3 0.08 0.70
 -15 5 3 -0.12 -0.23
 -14 5 3 0.54 0.25
 -13 5 3 0.17 -0.02
 -12 5 3 0.09 -0.08
 -11 5 3 0.67 -1.04
 -10 5 3 0.21 2.49
 -9 5 3 -2.34 0.39
 -8 5 3 -1.79 -0.10
 -7 5 3 -1.60 1.85
 -6 5 3 -6.02 0.94
 -5 5 3 -4.76 -2.03
 -4 5 3 -2.84 -1.75
 -3 5 3 -7.98 -4.98
 -2 5 3 -3.60 -7.83
 -1 5 3 -8.77 -0.36
 0 5 3 -6.94 -0.26
 1 5 3 1.63 0.68
 2 5 3 -5.03 4.04
 3 5 3 -1.51 -1.21
 4 5 3 0.74 1.24
 5 5 3 -0.72 -1.25
 6 5 3 1.14 0.69
 7 5 3 -0.55 -1.63
 8 5 3 -1.00 -0.86
 9 5 3 1.94 -1.15
 10 5 3 0.16 -0.08
 11 5 3 -0.14 0.17
 12 5 3 0.79 -0.26
 -14 6 3 -0.81 -1.57
 -13 6 3 0.64 0.15
 -12 6 3 -1.04 0.98
 -11 6 3 -2.47 0.76
 -10 6 3 -0.81 -1.09
 -9 6 3 -1.76 -1.13
 -8 6 3 1.54 -2.44
 -7 6 3 2.60 0.04
 -6 6 3 1.87 1.50
 -5 6 3 1.65 -0.20
 -4 6 3 1.09 2.51
 -3 6 3 -0.25 2.29
 -2 6 3 1.23 3.95
 -1 6 3 3.64 -2.35
 0 6 3 8.04 -3.78
 1 6 3 2.37 1.50
 2 6 3 -0.69 -0.88
 3 6 3 2.43 -4.46
 4 6 3 1.27 -0.13
 5 6 3 1.10 -0.64
 6 6 3 0.70 -0.31
 7 6 3 0.85 0.34
 8 6 3 2.64 0.91
 9 6 3 -0.21 1.22
 10 6 3 -0.19 0.76
 11 6 3 -0.49 -0.70
 -14 7 3 0.40 0.57
 -13 7 3 0.71 -1.12
 -12 7 3 2.05 0.54
 -11 7 3 1.76 -1.31
 -10 7 3 2.69 0.98
 -9 7 3 -0.39 2.13
 -8 7 3 -1.52 -2.67
 -7 7 3 1.68 -3.24
 -6 7 3 1.02 -3.28
 -5 7 3 3.93 -0.99
 -4 7 3 1.51 -0.96
 -3 7 3 5.58 -2.63
 -2 7 3 1.16 0.39
 -1 7 3 -3.25 -0.47
 0 7 3 -2.92 -2.20
 1 7 3 3.03 -0.79
 2 7 3 0.98 1.27
 3 7 3 -0.44 1.25
 4 7 3 1.01 2.30
 5 7 3 -2.26 0.32
 6 7 3 0.69 0.48
 7 7 3 -1.29 -0.71
 8 7 3 0.24 -1.35
 9 7 3 0.64 0.66
 10 7 3 0.54 1.09
 11 7 3 -1.77 1.42
 -13 8 3 -0.92 0.24
 -12 8 3 -0.78 -1.57
 -11 8 3 -0.25 0.59
 -10 8 3 -0.72 0.47
 -9 8 3 -1.11 0.07
 -8 8 3 -1.25 1.48
 -7 8 3 -1.66 1.80
 -6 8 3 -0.67 1.86
 -5 8 3 -1.67 0.82
 -4 8 3 -1.44 1.51
 -3 8 3 -3.70 2.49
 -2 8 3 -0.42 2.28
 -1 8 3 -1.33 4.08
 0 8 3 -1.31 1.44
 1 8 3 -1.09 0.53
 2 8 3 -1.78 -0.24
 3 8 3 1.75 -0.92
 4 8 3 -0.61 0.89
 5 8 3 -0.26 -0.28
 6 8 3 -0.11 -0.53
 7 8 3 -0.58 2.26
 8 8 3 -2.17 -0.22
 9 8 3 -0.30 -1.43
 10 8 3 -0.05 -1.27
 -13 9 3 0.64 0.84
 -12 9 3 0.61 1.62
 -11 9 3 0.29 1.15
 -10 9 3 -0.74 -0.20
 -9 9 3 2.33 -1.29
 -8 9 3 3.49 1.08
 -7 9 3 1.58 0.05
 -6 9 3 0.62 2.01
 -5 9 3 -2.16 -0.09
 -4 9 3 0.22 -0.32
 -3 9 3 -0.25 -3.86
 -2 9 3 2.64 -4.29
 -1 9 3 4.92 -1.43
 0 9 3 0.67 1.29
 1 9 3 -0.43 0.01
 2 9 3 0.32 1.37
 3 9 3 -2.42 -1.20
 4 9 3 2.95 -0.83
 5 9 3 -0.23 1.66
 6 9 3 0.20 0.16
 7 9 3 0.17 -1.58
 8 9 3 1.99 -0.54
 9 9 3 -0.05 1.78
 -12 10 3 -1.47 -0.20
 -11 10 3 -1.33 -1.77
 -10 10 3 -0.11 -0.58
 -9 10 3 -2.14 -0.50
 -8 10 3 -1.92 -1.63
 -7 10 3 -0.93 -0.45
 -6 10 3 -0.52 -0.16
 -5 10 3 0.99 -0.72
 -4 10 3 0.00 1.76
 -3 10 3 -3.57 0.73
 -2 10 3 -0.19 -0.20
 -1 10 3 -3.49 0.36
 0 10 3 -0.89 -1.01
 1 10 3 -0.56 -1.92
 2 10 3 1.01 -3.24
 3 10 3 2.96 0.99
 4 10 3 -2.25 0.70
 5 10 3 -0.07 -1.52
 6 10 3 1.12 -0.75
 7 10 3 -0.44 1.91
 8 10 3 -0.76 -0.90
 -10 11 3 0.74 1.23
 -9 11 3 0.23 1.58
 -8 11 3 0.23 0.87
 -7 11 3 -0.18 0.45
 -6 11 3 1.18 -1.89
 -5 11 3 -0.13 0.67
 -4 11 3 1.79 -1.24
 -3 11 3 2.92 1.59
 -2 11 3 1.46 1.67
 -1 11 3 0.63 2.03
 0 11 3 2.04 -0.64
 1 11 3 -0.16 3.29
 2 11 3 -0.54 0.48
 3 11 3 0.27 0.81
 4 11 3 0.75 1.78
 5 11 3 -2.01 1.41
 6 11 3 -1.54 -1.37
 -9 12 3 0.52 -0.76
 -8 12 3 -0.20 -0.92
 -7 12 3 0.66 -1.11
 -6 12 3 -0.97 0.94
 -5 12 3 0.33 -0.72
 -4 12 3 -1.03 -0.78
 -3 12 3 0.18 -1.61
 -2 12 3 -1.00 0.37
 -1 12 3 -1.88 -1.24
 0 12 3 -1.94 -0.57
 1 12 3 0.18 -0.92
 2 12 3 -1.33 -0.94
 3 12 3 0.45 -1.77
 4 12 3 0.17 -0.68
 5 12 3 0.35 -0.61
 -7 13 3 -0.48 1.34
 -6 13 3 -0.15 0.51
 -5 13 3 -1.61 0.52
 -4 13 3 -0.35 -0.14
 -3 13 3 -1.91 1.18
 -2 13 3 -0.19 -2.70
 -1 13 3 2.25 -0.23
 0 13 3 1.75 0.00
 1 13 3 0.70 0.02
 2 13 3 0.83 0.55
 -4 -15 4 -0.68 0.03
 -3 -15 4 0.08 -1.75
 -2 -15 4 0.51 0.16
 -1 -15 4 0.50 -0.63
 0 -15 4 0.20 1.49
 1 -15 4 -0.51 -0.46
 2 -15 4 0.98 0.46
 3 -15 4 -0.08 -0.15
 4 -15 4 0.10 0.44
 5 -15 4 0.10 -0.95
 6 -15 4 0.35 1.31
 -6 -14 4 0.48 -0.26
 -5 -14 4 1.28 -1.01
 -4 -14 4 2.64 0.56
 -3 -14 4 0.17 3.75
 -2 -14 4 -0.94 0.26
 -1 -14 4 0.39 0.86
 0 -14 4 0.08 2.05
 1 -14 4 -2.37 0.46
 2 -14 4 -0.05 -1.45
 3 -14 4 -0.10 1.12
 4 -14 4 0.62 -0.98
 5 -14 4 0.66 2.59
 6 -14 4 -2.00 -0.46
 7 -14 4 0.90 0.14
 -8 -13 4 -0.06 0.02
 -7 -13 4 -0.16 0.70
 -6 -13 4 1.06 2.28
 -5 -13 4 -3.13 0.67
 -4 -13 4 -0.84 -1.04
 -3 -13 4 -0.10 -1.97
 -2 -13 4 -1.12 0.30
 -1 -13 4 0.51 -2.01
 0 -13 4 0.48 0.20
 1 -13 4 -1.28 1.50
 2 -13 4 -1.88 -0.92
 3 -13 4 -0.63 -0.78
 4 -13 4 -1.12 -0.08
 5 -13 4 -1.20 -0.82
 6 -13 4 0.42 -0.01
 -9 -12 4 -0.14 -1.14
 -8 -12 4 -1.69 0.01
 -7 -12 4 0.64 -2.43
 -6 -12 4 -0.09 -2.10
 -5 -12 4 2.39 0.01
 -4 -12 4 0.50 -0.46
 -3 -12 4 1.18 1.32
 -2 -12 4 0.85 -1.24
 -1 -12 4 0.73 -0.52
 0 -12 4 1.31 0.65
 1 -12 4 1.52 -2.85
 2 -12 4 3.04 0.72
 3 -12 4 1.20 -0.08
 4 -12 4 0.94 -1.27
 5 -12 4 3.35 -1.00
 6 -12 4 0.30 0.10
 -10 -11 4 1.28 1.37
 -9 -11 4 0.36 0.14
 -8 -11 4 2.87 0.71
 -7 -11 4 -2.33 2.94
 -6 -11 4 0.28 -0.79
 -5 -11 4 1.10 1.65
 -4 -11 4 -2.42 2.70
 -3 -11 4 -2.27 -2.21
 -2 -11 4 0.05 1.00
 -1 -11 4 -1.21 1.24
 0 -11 4 -1.22 -2.09
 1 -11 4 -0.63 1.38
 2 -11 4 0.92 -0.29
 3 -11 4 -0.72 4.49
 4 -11 4 -3.76 0.81
 5 -11 4 -0.44 0.36
 6 -11 4 -3.06 3.63
 -11 -10 4 1.09 -0.84
 -10 -10 4 0.85 -1.12
 -9 -10 4 -0.11 1.62
 -8 -10 4 -2.42 0.45
 -7 -10 4 1.26 -0.39
 -6 -10 4 -3.11 1.07
 -5 -10 4 -0.89 -2.87
 -4 -10 4 1.84 -0.57
 -3 -10 4 1.62 1.35
 -2 -10 4 0.78 1.68
 -1 -10 4 -1.55 1.62
 0 -10 4 -1.37 1.84
 1 -10 4 -0.35 -0.02
 2 -10 4 -1.46 -0.79
 3 -10 4 1.54 -2.96
 4 -10 4 1.93 1.55
 5 -10 4 -2.00 -1.32
 -12 -9 4 -0.84 1.87
 -11 -9 4 -2.81 -0.31
 -10 -9 4 0.66 -1.58
 -9 -9 4 -0.14 -0.36
 -8 -9 4 1.09 -2.34
 -7 -9 4 0.66 -0.61
 -6 -9 4 1.40 0.53
 -5 -9 4 -1.10 -1.62
 -4 -9 4 2.19 -2.20
 -3 -9 4 -0.91 -0.52
 -2 -9 4 1.99 -3.46
 -1 -9 4 2.52 1.47
 0 -9 4 -1.12 -3.08
 1 -9 4 1.16 -1.74
 2 -9 4 -3.04 -0.73
 3 -9 4 -0.51 -3.93
 4 -9 4 2.06 -0.96
 5 -9 4 0.21 0.68
 -13 -8 4 -0.61 0.19
 -12 -8 4 0.18 -0.62
 -11 -8 4 1.06 0.55
 -10 -8 4 -0.33 1.43
 -9 -8 4 -0.24 1.55
 -8 -8 4 -2.43 0.43
 -7 -8 4 1.39 -2.10
 -6 -8 4 3.19 0.72
 -5 -8 4 0.44 4.42
 -4 -8 4 -2.52 3.93
 -3 -8 4 -2.87 0.53
 -2 -8 4 -1.28 -1.34
 -1 -8 4 -0.13 0.07
 0 -8 4 0.04 0.58
 1 -8 4 5.20 3.91
 2 -8 4 1.73 7.03
 3 -8 4 1.19 2.62
 4 -8 4 1.71 3.62
 -13 -7 4 -0.05 -2.13
 -12 -7 4 1.00 -1.60
 -11 -7 4 1.16 0.59
 -10 -7 4 -0.72 -0.92
 -9 -7 4 -0.26 -1.98
 -8 -7 4 2.46 -0.38
 -7 -7 4 -1.91 1.22
 -6 -7 4 -1.55 -1.48
 -5 -7 4 0.73 -2.56
 -4 -7 4 3.94 -4.07
 -3 -7 4 3.74 2.27
 -2 -7 4 -0.10 2.34
 -1 -7 4 0.35 -0.13
 0 -7 4 1.74 -0.99
 1 -7 4 -1.97 -5.34
 2 -7 4 1.63 -5.20
 3 -7 4 -2.42 -1.23
 4 -7 4 -2.75 -2.59
 -14 -6 4 1.46 -0.13
 -13 -6 4 1.88 1.41
 -12 -6 4 -0.08 2.06
 -11 -6 4 0.22 -0.64
 -10 -6 4 1.54 1.36
 -9 -6 4 2.00 3.09
 -8 -6 4 -3.37 2.99
 -7 -6 4 -1.60 0.06
 -6 -6 4 -0.72 -0.79
 -5 -6 4 -2.59 -2.50
 -4 -6 4 3.27 -0.54
 -3 -6 4 0.78 7.49
 -2 -6 4 -5.65 0.69
 -1 -6 4 -1.95 0.44
 0 -6 4 -7.44 3.05
 1 -6 4 -3.35 1.35
 2 -6 4 0.65 6.53
 3 -6 4 -3.49 4.18
 -14 -5 4 -0.04 -0.37
 -13 -5 4 -1.19 1.03
 -12 -5 4 -2.00 -0.50
 -11 -5 4 -1.47 0.67
 -10 -5 4 -3.41 -1.47
 -9 -5 4 -0.59 -3.87
 -8 -5 4 1.81 -1.35
 -7 -5 4 3.59 -3.34
 -6 -5 4 4.34 5.45
 -5 -5 4 -2.76 8.26
 -4 -5 4 -6.41 -2.59
 -3 -5 4 -0.11 -9.25
 -2 -5 4 4.26 -2.71
 -1 -5 4 3.54 1.03
 0 -5 4 3.71 -6.14
 1 -5 4 9.21 -4.42
 2 -5 4 2.29 -4.29
 3 -5 4 0.72 -4.68
 8 -5 4 1.86 0.82
 9 -5 4 -1.90 0.73
 10 -5 4 -0.53 -0.72
 11 -5 4 0.00 -2.81
 12 -5 4 -0.10 -0.57
 13 -5 4 -1.19 -1.02
 14 -5 4 1.53 -0.40
 -15 -4 4 0.18 0.31
 -14 -4 4 -0.25 -1.95
 -13 -4 4 2.50 -0.11
 -12 -4 4 -0.51 0.33
 -11 -4 4 1.51 -1.48
 -10 -4 4 0.75 2.06
 -9 -4 4 -3.37 -1.95
 -8 -4 4 2.62 -3.81
 -7 -4 4 -0.95 1.72
 -6 -4 4 2.51 -7.24
 -5 -4 4 9.15 2.63
 -4 -4 4 -8.70 5.96
 -3 -4 4 -1.92 -0.82
 -2 -4 4 1.16 1.44
 -1 -4 4 -3.83 -7.03
 0 -4 4 10.49 1.78
 1 -4 4 -0.12 15.46
 2 -4 4 -9.92 13.50
 3 -4 4 -6.74 7.66
 4 -4 4 -5.75 -0.33
 5 -4 4 3.22 -1.90
 6 -4 4 0.43 4.11
 7 -4 4 0.73 2.24
 8 -4 4 -0.18 1.82
 9 -4 4 0.31 2.78
 10 -4 4 -2.97 1.76
 11 -4 4 -2.65 1.33
 12 -4 4 1.01 -0.30
 13 -4 4 0.75 0.68
 14 -4 4 0.14 -0.13
 -15 -3 4 0.85 -0.51
 -14 -3 4 0.83 1.81
 -13 -3 4 -1.08 0.03
 -12 -3 4 1.44 -1.39
 -11 -3 4 3.03 0.45
 -10 -3 4 -0.50 2.75
 -9 -3 4 3.02 -1.00
 -8 -3 4 4.76 8.13
 -7 -3 4 -8.29 6.76
 -6 -3 4 -4.60 -4.66
 -5 -3 4 1.77 -0.92
 -4 -3 4 6.62 2.85
 -3 -3 4 4.58 -0.91
 -2 -3 4 -5.29 2.94
 -1 -3 4 9.64 6.11
 0 -3 4 -10.65 13.49
 1 -3 4 -12.58 -8.25
 2 -3 4 10.17 -16.98
 3 -3 4 10.57 -6.00
 4 -3 4 6.82 6.55
 5 -3 4 -5.13 2.89
 6 -3 4 -1.88 -1.23
 7 -3 4 -3.08 -2.94
 8 -3 4 -1.40 -1.53
 9 -3 4 0.21 -3.35
 10 -3 4 3.38 0.53
 11 -3 4 0.48 -0.05
 12 -3 4 -0.53 -2.23
 13 -3 4 0.50 1.09
 14 -3 4 -1.30 -0.64
 -15 -2 4 0.57 0.24
 -14 -2 4 0.58 0.87
 -13 -2 4 -1.28 2.70
 -12 -2 4 -4.29 -0.34
 -11 -2 4 -0.38 -2.18
 -10 -2 4 2.37 0.31
 -9 -2 4 -3.38 -1.49
 -8 -2 4 3.23 -1.57
 -7 -2 4 -2.80 3.40
 -6 -2 4 -2.62 -6.05
 -5 -2 4 -0.49 4.29
 -4 -2 4 -17.70 -17.04
 -3 -2 4 15.27 -17.15
 -2 -2 4 27.90 18.67
 -1 -2 4 -22.09 10.48
 0 -2 4 1.55 -13.68
 1 -2 4 4.00 2.39
 2 -2 4 -21.61 2.10
 3 -2 4 -1.74 -8.58
 4 -2 4 0.19 -2.34
 5 -2 4 -0.13 1.49
 6 -2 4 -0.65 -1.39
 7 -2 4 1.85 2.54
 8 -2 4 -1.70 1.09
 9 -2 4 -3.55 -4.23
 10 -2 4 2.67 -3.23
 11 -2 4 -1.58 1.36
 12 -2 4 0.49 -0.49
 13 -2 4 0.89 1.01
 14 -2 4 -1.39 1.06
 -15 -1 4 -0.54 0.88
 -14 -1 4 -1.22 -1.65
 -13 -1 4 1.36 -1.32
 -12 -1 4 1.61 1.05
 -11 -1 4 -1.98 0.46
 -10 -1 4 -1.82 -0.60
 -9 -1 4 -1.98 2.13
 -8 -1 4 -0.62 -3.75
 -7 -1 4 -1.21 2.99
 -6 -1 4 -1.38 -6.91
 -5 -1 4 16.78 2.24
 -4 -1 4 -0.93 26.64
 -3 -1 4 -7.08 1.03
 -2 -1 4 -18.26 1.85
 -1 -1 4 -5.22 -6.58
 0 -1 4 -4.96 -4.77
 1 -1 4 -0.19 1.73
 2 -1 4 13.83 5.84
 3 -1 4 -5.80 -1.43
 4 -1 4 10.22 2.50
 5 -1 4 -2.57 4.75
 6 -1 4 -0.85 -3.36
 7 -1 4 4.17 1.20
 8 -1 4 -2.31 2.61
 9 -1 4 1.40 2.83
 10 -1 4 -1.48 1.73
 11 -1 4 1.80 0.49
 12 -1 4 -0.74 0.60
 13 -1 4 0.83 -0.51
 14 -1 4 0.60 1.19
 -15 0 4 -0.31 -0.10
 -14 0 4 -0.97 -0.79
 -13 0 4 2.25 -1.39
 -12 0 4 -0.45 0.48
 -11 0 4 3.70 -1.26
 -10 0 4 3.08 3.75
 -9 0 4 -1.03 0.51
 -8 0 4 -2.81 -2.36
 -7 0 4 7.49 -6.03
 -6 0 4 3.86 3.51
 -5 0 4 0.85 -0.53
 -4 0 4 3.28 -2.67
 -3 0 4 -9.97 9.99
 -2 0 4 -4.31 -2.37
 -1 0 4 1.16 -6.51
 0 0 4 9.53 2.77
 1 0 4 7.21 -5.10
 2 0 4 -2.34 -4.99
 3 0 4 8.50 8.21
 4 0 4 -10.10 -2.11
 5 0 4 -0.94 -2.26
 6 0 4 -2.31 -0.44
 7 0 4 -2.58 -5.00
 8 0 4 3.89 -0.49
 9 0 4 -1.66 -1.01
 10 0 4 -0.03 -1.42
 11 0 4 -1.19 0.11
 12 0 4 -1.03 -1.37
 13 0 4 -0.11 -0.44
 -15 1 4 -0.27 0.23
 -14 1 4 0.17 -1.01
 -13 1 4 1.80 0.11
 -12 1 4 1.20 2.62
 -11 1 4 -1.89 0.33
 -10 1 4 -0.13 -0.32
 -9 1 4 -0.60 1.83
 -8 1 4 -0.32 1.84
 -7 1 4 -3.86 1.39
 -6 1 4 -2.09 0.95
 -5 1 4 -1.33 -8.24
 -4 1 4 8.77 4.53
 -3 1 4 12.49 -6.29
 -2 1 4 9.14 5.62
 -1 1 4 -2.14 1.47
 0 1 4 -8.07 -5.44
 1 1 4 -10.93 -6.42
 2 1 4 12.95 -0.68
 3 1 4 -5.73 6.00
 4 1 4 -2.48 3.76
 5 1 4 0.85 1.36
 6 1 4 -4.36 1.44
 7 1 4 0.57 0.00
 8 1 4 -2.39 -2.35
 9 1 4 1.90 -0.90
 10 1 4 1.30 1.89
 11 1 4 -0.22 0.32
 12 1 4 -0.17 1.63
 13 1 4 -1.27 -0.25
 -15 2 4 0.68 -0.09
 -14 2 4 1.27 2.04
 -13 2 4 -2.08 2.14
 -12 2 4 -2.34 0.16
 -11 2 4 -2.97 -0.08
 -10 2 4 -1.20 -1.05
 -9 2 4 -0.25 -2.27
 -8 2 4 2.37 -0.38
 -7 2 4 1.71 5.70
 -6 2 4 -4.64 4.17
 -5 2 4 -7.11 11.70
 -4 2 4 -16.40 -2.00
 -3 2 4 -23.57 -1.23
 -2 2 4 -6.08 -8.46
 -1 2 4 -6.83 2.80
 0 2 4 5.07 8.07
 1 2 4 -3.65 9.39
 2 2 4 -11.29 -8.49
 3 2 4 6.93 -4.34
 4 2 4 0.21 -5.54
 5 2 4 2.87 -5.57
 6 2 4 6.08 0.39
 7 2 4 -0.80 0.40
 8 2 4 -0.38 1.36
 9 2 4 0.40 -1.25
 10 2 4 -1.12 -0.58
 11 2 4 -0.70 -2.03
 12 2 4 2.55 -2.13
 13 2 4 1.17 1.68
 -15 3 4 -0.23 -1.17
 -14 3 4 0.39 0.26
 -13 3 4 -1.35 -0.36
 -12 3 4 0.57 -1.45
 -11 3 4 1.52 0.66
 -10 3 4 -1.73 -0.68
 -9 3 4 -0.69 -2.05
 -8 3 4 0.35 -1.89
 -7 3 4 -0.18 -6.08
 -6 3 4 6.34 -3.96
 -5 3 4 5.01 -5.97
 -4 3 4 4.03 -0.32
 -3 3 4 14.32 -5.14
 -2 3 4 6.27 -1.85
 -1 3 4 9.94 -7.12
 0 3 4 6.66 -15.01
 1 3 4 10.27 2.57
 2 3 4 0.62 3.90
 3 3 4 -3.25 1.98
 4 3 4 -6.35 0.41
 5 3 4 -0.57 -2.80
 6 3 4 -0.61 -2.01
 7 3 4 3.71 -0.04
 8 3 4 1.63 1.64
 9 3 4 -2.21 0.32
 10 3 4 1.06 0.76
 11 3 4 -1.12 0.23
 12 3 4 -0.94 -0.60
 -15 4 4 -1.58 0.17
 -14 4 4 0.64 -1.22
 -13 4 4 0.34 -0.92
 -12 4 4 2.59 -1.52
 -11 4 4 1.09 0.89
 -10 4 4 0.75 0.75
 -9 4 4 1.19 0.82
 -8 4 4 -0.28 0.68
 -7 4 4 1.03 3.04
 -6 4 4 -4.39 2.44
 -5 4 4 -1.33 -0.21
 -4 4 4 4.34 0.87
 -3 4 4 -4.75 4.59
 -2 4 4 -4.27 4.30
 -1 4 4 -10.33 2.60
 0 4 4 -3.42 5.96
 1 4 4 1.37 -1.51
 2 4 4 1.26 4.06
 3 4 4 2.50 0.98
 4 4 4 4.23 3.17
 5 4 4 1.54 2.72
 6 4 4 -1.32 2.78
 7 4 4 -1.28 -1.38
 8 4 4 -0.79 0.98
 9 4 4 0.83 0.40
 10 4 4 0.39 -0.38
 11 4 4 0.47 1.06
 12 4 4 1.35 0.67
 -15 5 4 0.46 1.22
 -14 5 4 -1.49 0.86
 -13 5 4 -1.28 0.91
 -12 5 4 -0.57 0.63
 -11 5 4 -1.69 2.43
 -10 5 4 0.04 -1.55
 -9 5 4 1.72 2.99
 -8 5 4 -1.01 4.60
 -7 5 4 -3.62 0.88
 -6 5 4 1.14 0.38
 -5 5 4 -2.89 1.38
 -4 5 4 -3.74 -2.34
 -3 5 4 3.23 0.34
 -2 5 4 1.06 3.68
 -1 5 4 3.52 1.42
 0 5 4 -1.19 -0.35
 1 5 4 -6.90 -1.43
 2 5 4 -2.40 -4.69
 3 5 4 -0.83 -5.55
 4 5 4 0.64 -1.92
 5 5 4 -1.61 -0.12
 6 5 4 0.67 -0.49
 7 5 4 -2.22 1.49
 8 5 4 -0.08 -3.54
 9 5 4 0.62 -0.88
 10 5 4 -1.40 -0.88
 11 5 4 1.43 -1.67
 -14 6 4 1.22 -0.41
 -13 6 4 0.35 0.12
 -12 6 4 -1.09 -0.89
 -11 6 4 0.09 -2.44
 -10 6 4 -2.14 -2.13
 -9 6 4 0.26 -4.37
 -8 6 4 -0.15 -3.40
 -7 6 4 -0.20 -4.39
 -6 6 4 0.32 -2.62
 -5 6 4 -2.92 -1.59
 -4 6 4 -0.35 -6.82
 -3 6 4 1.99 -7.57
 -2 6 4 3.61 -7.22
 -1 6 4 0.66 -2.74
 0 6 4 1.45 -0.79
 1 6 4 2.42 0.17
 2 6 4 1.41 -0.36
 3 6 4 -2.71 1.24
 4 6 4 2.14 -3.33
 5 6 4 3.10 0.59
 6 6 4 0.05 -0.15
 7 6 4 2.56 -1.26
 8 6 4 0.08 2.97
 9 6 4 -1.42 0.50
 10 6 4 0.79 -0.57
 11 6 4 0.22 0.63
 -14 7 4 -0.81 -0.63
 -13 7 4 0.29 -1.44
 -12 7 4 1.50 -0.63
 -11 7 4 1.46 2.72
 -10 7 4 0.06 2.38
 -9 7 4 -0.14 1.87
 -8 7 4 0.16 2.51
 -7 7 4 0.17 2.42
 -6 7 4 2.66 -0.11
 -5 7 4 5.52 3.07
 -4 7 4 1.71 6.33
 -3 7 4 -1.89 8.45
 -2 7 4 -4.70 5.87
 -1 7 4 -0.59 0.59
 0 7 4 2.02 1.87
 1 7 4 0.43 0.85
 2 7 4 2.22 3.29
 3 7 4 0.73 3.79
 4 7 4 -3.49 0.06
 5 7 4 0.49 -0.65
 6 7 4 -0.84 0.63
 7 7 4 0.04 0.50
 8 7 4 1.37 0.63
 9 7 4 0.03 1.97
 10 7 4 -2.19 0.37
 -13 8 4 0.42 0.79
 -12 8 4 1.13 0.73
 -11 8 4 0.74 0.43
 -10 8 4 -1.11 0.76
 -9 8 4 -0.84 -1.87
 -8 8 4 1.61 -1.13
 -7 8 4 -1.38 -1.10
 -6 8 4 -1.26 -1.41
 -5 8 4 -0.87 -1.62
 -4 8 4 0.85 -0.09
 -3 8 4 -0.23 -1.28
 -2 8 4 -0.07 -3.56
 -1 8 4 1.45 -1.44
 0 8 4 -2.16 -0.44
 1 8 4 -2.57 -2.87
 2 8 4 1.82 -4.76
 3 8 4 1.19 -0.28
 4 8 4 1.59 0.51
 5 8 4 -0.29 1.09
 6 8 4 0.25 0.74
 7 8 4 -1.77 -0.95
 8 8 4 -1.50 -2.37
 9 8 4 0.76 -2.65
 -12 9 4 -1.54 0.72
 -11 9 4 -2.14 -1.15
 -10 9 4 0.65 -2.26
 -9 9 4 0.97 0.82
 -8 9 4 -1.55 0.17
 -7 9 4 0.36 1.46
 -6 9 4 -0.50 0.29
 -5 9 4 -1.64 0.34
 -4 9 4 -0.70 -4.81
 -3 9 4 1.66 -0.26
 -2 9 4 0.33 0.17
 -1 9 4 0.15 1.15
 0 9 4 -0.90 2.40
 1 9 4 -0.92 -0.11
 2 9 4 -1.81 0.25
 3 9 4 0.96 -0.29
 4 9 4 -1.74 -0.22
 5 9 4 1.51 -1.61
 6 9 4 0.13 0.50
 7 9 4 0.11 1.18
 8 9 4 0.03 1.12
 -11 10 4 -0.33 0.32
 -10 10 4 1.00 0.02
 -9 10 4 1.31 1.66
 -8 10 4 0.00 0.70
 -7 10 4 1.60 -0.78
 -6 10 4 0.99 1.02
 -5 10 4 0.30 1.71
 -4 10 4 -1.10 1.68
 -3 10 4 1.66 0.97
 -2 10 4 -0.94 1.03
 -1 10 4 1.71 -0.70
 0 10 4 2.25 -0.57
 1 10 4 0.29 1.44
 2 10 4 1.46 0.49
 3 10 4 -0.86 0.44
 4 10 4 0.22 -0.01
 5 10 4 0.21 -0.51
 6 10 4 0.52 1.47
 7 10 4 -0.08 -0.91
 -10 11 4 -0.83 0.60
 -9 11 4 -1.68 -1.83
 -8 11 4 -0.02 -0.82
 -7 11 4 -1.24 -0.91
 -6 11 4 -0.52 0.42
 -5 11 4 -0.79 -0.74
 -4 11 4 -0.39 -1.53
 -3 11 4 -0.89 -0.93
 -2 11 4 -1.17 -1.18
 -1 11 4 -0.40 -0.83
 0 11 4 -2.73 0.11
 1 11 4 1.64 -2.02
 2 11 4 -0.78 0.68
 3 11 4 0.11 -0.06
 4 11 4 -0.29 -0.05
 5 11 4 -0.48 0.50
 -8 12 4 -0.13 1.47
 -7 12 4 -0.88 0.58
 -6 12 4 0.66 -1.63
 -5 12 4 1.33 -0.15
 -4 12 4 1.00 2.20
 -3 12 4 -0.59 1.61
 -2 12 4 -0.54 1.07
 -1 12 4 -0.41 -0.25
 0 12 4 0.82 0.10
 1 12 4 -0.83 -1.20
 2 12 4 1.74 0.58
 3 12 4 -0.44 -0.71
 -5 13 4 0.01 -0.22
 -4 13 4 -0.58 -0.93
 -3 13 4 1.14 -2.17
 -2 13 4 1.27 -0.63
 -1 13 4 0.42 -0.14
 0 13 4 0.42 -0.18
 -1 -16 5 -0.47 -0.05
 0 -16 5 0.50 0.78
 1 -16 5 -0.11 0.73
 2 -16 5 0.04 0.13
 -5 -15 5 -0.34 2.00
 -4 -15 5 0.71 -0.46
 -3 -15 5 -0.48 1.25
 -2 -15 5 -0.56 -1.60
 -1 -15 5 1.98 -0.46
 0 -15 5 0.68 0.03
 1 -15 5 0.07 0.25
 2 -15 5 0.25 -0.83
 3 -15 5 1.21 0.86
 4 -15 5 -0.75 0.54
 5 -15 5 -1.06 -0.18
 6 -15 5 -0.28 -1.09
 -7 -14 5 -1.34 -0.81
 -6 -14 5 0.43 -2.45
 -5 -14 5 1.81 -1.05
 -4 -14 5 -0.43 0.39
 -3 -14 5 1.31 -1.29
 -2 -14 5 1.40 2.30
 -1 -14 5 -2.06 1.33
 0 -14 5 -0.96 -1.05
 1 -14 5 1.01 0.13
 2 -14 5 -0.81 1.45
 3 -14 5 -0.43 -1.13
 4 -14 5 1.05 1.44
 5 -14 5 -0.60 0.19
 6 -14 5 1.30 0.38
 -8 -13 5 0.79 1.21
 -7 -13 5 -0.24 2.11
 -6 -13 5 -1.83 -0.66
 -5 -13 5 0.69 1.27
 -4 -13 5 -1.27 -0.15
 -3 -13 5 -1.11 -0.11
 -2 -13 5 0.50 -1.64
 -1 -13 5 -0.82 1.29
 0 -13 5 -1.57 -0.91
 1 -13 5 0.62 -1.42
 2 -13 5 -0.90 0.06
 3 -13 5 -0.24 -1.77
 4 -13 5 0.34 -1.79
 5 -13 5 1.54 -0.33
 6 -13 5 -0.79 0.58
 -9 -12 5 -0.11 -1.16
 -8 -12 5 1.06 -1.67
 -7 -12 5 0.11 0.08
 -6 -12 5 1.08 1.01
 -5 -12 5 -0.39 -0.72
 -4 -12 5 0.33 0.95
 -3 -12 5 0.39 -1.19
 -2 -12 5 0.46 0.76
 -1 -12 5 2.17 0.24
 0 -12 5 0.35 0.13
 1 -12 5 -0.40 1.15
 2 -12 5 1.01 0.28
 3 -12 5 -1.56 0.77
 4 -12 5 0.73 -0.27
 5 -12 5 -1.04 0.70
 -11 -11 5 -0.05 -0.21
 -10 -11 5 -0.07 -1.66
 -9 -11 5 1.12 -0.17
 -8 -11 5 -0.28 0.54
 -7 -11 5 2.79 -0.71
 -6 -11 5 0.05 2.30
 -5 -11 5 -1.07 1.06
 -4 -11 5 0.62 -0.33
 -3 -11 5 -0.40 2.18
 -2 -11 5 -0.71 -0.71
 -1 -11 5 -0.80 -1.39
 0 -11 5 1.80 2.06
 1 -11 5 0.74 1.16
 2 -11 5 -1.27 0.01
 3 -11 5 2.49 -0.32
 4 -11 5 0.66 2.96
 5 -11 5 -2.03 0.82
 -11 -10 5 0.31 0.98
 -10 -10 5 -0.52 1.34
 -9 -10 5 -0.62 2.18
 -8 -10 5 -2.34 0.35
 -7 -10 5 -3.34 -0.75
 -6 -10 5 0.16 -2.19
 -5 -10 5 0.18 -1.13
 -4 -10 5 -0.59 -0.56
 -3 -10 5 -0.40 -1.19
 -2 -10 5 -0.72 -0.09
 -1 -10 5 0.21 0.33
 0 -10 5 -2.01 -2.66
 1 -10 5 -1.00 -1.98
 2 -10 5 -1.01 0.66
 3 -10 5 -2.68 -1.27
 4 -10 5 0.02 -2.30
 5 -10 5 0.30 1.13
 -12 -9 5 -0.34 0.19
 -11 -9 5 0.07 -2.34
 -10 -9 5 1.66 -0.27
 -9 -9 5 0.80 -0.89
 -8 -9 5 0.71 0.86
 -7 -9 5 0.22 -0.05
 -6 -9 5 -0.60 -0.94
 -5 -9 5 -0.07 -0.18
 -4 -9 5 1.20 -1.35
 -3 -9 5 3.51 0.56
 -2 -9 5 0.87 2.77
 -1 -9 5 -0.70 -0.16
 0 -9 5 0.31 3.67
 1 -9 5 -0.89 -1.64
 2 -9 5 6.06 -3.26
 3 -9 5 3.17 0.98
 4 -9 5 2.89 -2.73
 -13 -8 5 0.46 -1.11
 -12 -8 5 0.82 0.65
 -11 -8 5 -0.80 2.66
 -10 -8 5 -2.92 -0.81
 -9 -8 5 -1.04 -2.14
 -8 -8 5 2.53 -2.07
 -7 -8 5 1.45 2.80
 -6 -8 5 -1.05 1.28
 -5 -8 5 1.34 0.80
 -4 -8 5 -3.18 0.57
 -3 -8 5 -1.11 -2.68
 -2 -8 5 -0.12 -0.39
 -1 -8 5 -0.38 -1.47
 0 -8 5 3.46 -1.28
 1 -8 5 -2.89 3.09
 2 -8 5 -5.33 0.96
 3 -8 5 -3.72 2.20
 4 -8 5 -6.08 2.47
 -14 -7 5 2.08 -0.95
 -13 -7 5 0.36 0.19
 -12 -7 5 0.00 0.50
 -11 -7 5 0.36 -2.01
 -10 -7 5 2.06 2.05
 -9 -7 5 -0.74 1.72
 -8 -7 5 -2.28 -0.55
 -7 -7 5 1.11 -2.26
 -6 -7 5 1.32 -0.79
 -5 -7 5 -0.09 0.79
 -4 -7 5 -0.87 1.25
 -3 -7 5 0.95 -0.56
 -2 -7 5 0.52 0.45
 -1 -7 5 0.78 -1.78
 0 -7 5 0.16 -0.29
 1 -7 5 4.07 1.16
 2 -7 5 4.90 -0.08
 3 -7 5 6.14 2.08
 4 -7 5 2.17 1.75
 -14 -6 5 -2.04 -0.63
 -13 -6 5 1.07 -1.70
 -12 -6 5 1.98 0.29
 -11 -6 5 -0.81 2.29
 -10 -6 5 -0.10 -1.87
 -9 -6 5 1.08 0.60
 -8 -6 5 0.08 2.29
 -7 -6 5 -2.64 -0.39
 -6 -6 5 0.10 -2.11
 -5 -6 5 6.20 -0.19
 -4 -6 5 2.41 3.41
 -3 -6 5 1.26 -0.81
 -2 -6 5 1.96 6.58
 -1 -6 5 -6.62 4.81
 0 -6 5 -2.36 -3.52
 1 -6 5 0.10 -4.19
 2 -6 5 -2.83 -2.68
 3 -6 5 0.34 -2.64
 4 -6 5 -2.78 0.95
 -14 -5 5 0.60 2.71
 -13 -5 5 -3.38 1.33
 -12 -5 5 -2.18 -0.55
 -11 -5 5 -0.90 -1.79
 -10 -5 5 -0.07 -0.08
 -9 -5 5 -1.63 -0.03
 -8 -5 5 0.11 -3.00
 -7 -5 5 0.87 3.47
 -6 -5 5 -6.28 1.14
 -5 -5 5 -5.41 -7.33
 -4 -5 5 1.76 -1.21
 -3 -5 5 -2.89 6.25
 -2 -5 5 -3.69 -1.19
 -1 -5 5 -0.62 -3.92
 0 -5 5 0.41 3.17
 1 -5 5 -3.42 3.98
 2 -5 5 -0.31 4.42
 3 -5 5 -1.57 1.82
 4 -5 5 1.58 2.95
 5 -5 5 -3.31 -0.87
 6 -5 5 2.38 1.49
 7 -5 5 -0.46 2.49
 8 -5 5 -1.50 -0.84
 9 -5 5 -0.27 0.34
 10 -5 5 -1.21 -1.55
 11 -5 5 1.08 1.16
 12 -5 5 -0.25 -0.16
 13 -5 5 1.21 -0.77
 -15 -4 5 -1.05 -2.61
 -14 -4 5 2.14 -2.67
 -13 -4 5 3.24 -0.39
 -12 -4 5 1.90 1.42
 -11 -4 5 -2.23 1.11
 -10 -4 5 -0.51 -3.10
 -9 -4 5 2.05 -0.50
 -8 -4 5 -0.37 -3.48
 -7 -4 5 9.67 -4.45
 -6 -4 5 5.45 7.71
 -5 -4 5 -1.27 2.29
 -4 -4 5 0.94 1.76
 -3 -4 5 -6.85 -14.47
 -2 -4 5 8.70 -16.45
 -1 -4 5 11.72 -1.54
 0 -4 5 12.37 -3.74
 1 -4 5 7.06 7.31
 2 -4 5 -4.04 -3.03
 3 -4 5 1.59 -7.08
 4 -4 5 1.06 -1.79
 5 -4 5 1.81 -2.12
 6 -4 5 4.42 -2.64
 7 -4 5 2.53 1.82
 8 -4 5 0.54 3.37
 9 -4 5 -0.64 0.41
 10 -4 5 0.65 0.55
 11 -4 5 0.01 -1.29
 12 -4 5 -1.02 -0.98
 13 -4 5 0.34 -0.52
 -15 -3 5 0.87 0.55
 -14 -3 5 -0.46 1.25
 -13 -3 5 -0.55 -1.21
 -12 -3 5 2.48 0.33
 -11 -3 5 0.21 2.49
 -10 -3 5 1.76 -1.87
 -9 -3 5 2.88 5.06
 -8 -3 5 -7.82 3.70
 -7 -3 5 -0.21 -5.97
 -6 -3 5 4.96 5.11
 -5 -3 5 -4.98 2.93
 -4 -3 5 7.30 -2.71
 -3 -3 5 3.43 29.40
 -2 -3 5 -15.27 10.85
 -1 -3 5 -0.04 -1.92
 0 -3 5 -4.99 13.54
 1 -3 5 -8.19 -2.13
 2 -3 5 2.47 5.43
 3 -3 5 -4.08 11.72
 4 -3 5 -3.68 1.58
 5 -3 5 -4.37 3.11
 6 -3 5 -3.98 -1.03
 7 -3 5 -0.97 1.63
 8 -3 5 -2.11 -3.17
 9 -3 5 0.80 0.47
 10 -3 5 -3.00 1.74
 11 -3 5 -2.37 0.09
 12 -3 5 -0.40 1.45
 13 -3 5 -0.96 -1.31
 -15 -2 5 0.03 0.45
 -14 -2 5 -0.70 1.09
 -13 -2 5 -2.08 1.29
 -12 -2 5 -2.59 -0.65
 -11 -2 5 -1.18 -1.32
 -10 -2 5 -2.31 -1.40
 -9 -2 5 5.15 0.28
 -8 -2 5 -0.73 6.59
 -7 -2 5 -4.75 -1.00
 -6 -2 5 -3.05 4.61
 -5 -2 5 -14.29 -6.00
 -4 -2 5 1.19 -12.77
 -3 -2 5 7.24 -13.14
 -2 -2 5 4.20 -2.64
 -1 -2 5 -5.32 10.01
 0 -2 5 -13.79 -5.14
 1 -2 5 -7.49 -5.53
 2 -2 5 1.67 -10.26
 3 -2 5 2.76 -7.25
 4 -2 5 2.45 -3.45
 5 -2 5 8.18 -0.06
 6 -2 5 -0.95 6.93
 7 -2 5 -4.74 -4.15
 8 -2 5 1.57 -2.73
 9 -2 5 3.29 1.35
 10 -2 5 -0.79 -0.96
 11 -2 5 4.84 -2.84
 12 -2 5 2.09 2.43
 13 -2 5 -1.58 0.56
 -15 -1 5 0.77 -0.87
 -14 -1 5 1.43 1.39
 -13 -1 5 -1.40 0.29
 -12 -1 5 -0.79 -2.80
 -11 -1 5 3.76 -1.44
 -10 -1 5 1.19 2.33
 -9 -1 5 -2.56 -3.43
 -8 -1 5 -0.13 -2.35
 -7 -1 5 0.80 -3.29
 -6 -1 5 2.49 -5.32
 -5 -1 5 6.25 -2.89
 -4 -1 5 5.86 -3.17
 -3 -1 5 6.30 8.14
 -2 -1 5 6.38 9.95
 -1 -1 5 1.72 0.24
 0 -1 5 8.45 -1.31
 1 -1 5 10.36 0.03
 2 -1 5 -5.12 -0.91
 3 -1 5 4.10 -2.60
 4 -1 5 2.22 -1.67
 5 -1 5 -0.17 -0.44
 6 -1 5 2.18 -0.98
 7 -1 5 1.37 3.15
 8 -1 5 0.54 2.28
 9 -1 5 -2.19 -0.56
 10 -1 5 0.29 0.48
 11 -1 5 -2.81 0.39
 12 -1 5 0.66 -1.00
 13 -1 5 -0.18 1.47
 -15 0 5 -1.93 -1.06
 -14 0 5 1.02 -3.01
 -13 0 5 1.78 -0.39
 -12 0 5 2.87 0.95
 -11 0 5 -0.89 1.86
 -10 0 5 -1.13 0.29
 -9 0 5 0.35 -0.56
 -8 0 5 4.66 1.96
 -7 0 5 -1.48 1.06
 -6 0 5 6.79 1.94
 -5 0 5 -0.80 7.21
 -4 0 5 -0.07 9.22
 -3 0 5 -10.61 -0.24
 -2 0 5 -8.97 -16.32
 -1 0 5 5.90 -6.68
 0 0 5 -2.02 4.96
 1 0 5 -9.36 3.69
 2 0 5 6.16 8.89
 3 0 5 -6.83 7.55
 4 0 5 -4.04 5.21
 5 0 5 -0.93 2.19
 6 0 5 -2.65 2.72
 7 0 5 -0.70 0.20
 8 0 5 -3.29 1.30
 9 0 5 -2.52 -0.18
 10 0 5 -0.42 0.03
 11 0 5 -1.05 0.20
 12 0 5 -0.63 -0.71
 13 0 5 0.19 -0.14
 -15 1 5 0.44 0.17
 -14 1 5 -0.08 1.22
 -13 1 5 -1.18 0.00
 -12 1 5 0.61 -1.43
 -11 1 5 1.68 2.54
 -10 1 5 0.15 2.32
 -9 1 5 -3.04 4.08
 -8 1 5 -6.94 -2.28
 -7 1 5 -0.44 -0.33
 -6 1 5 -4.14 -3.86
 -5 1 5 6.78 1.75
 -4 1 5 1.80 3.31
 -3 1 5 -5.29 18.15
 -2 1 5 -12.04 10.53
 -1 1 5 -12.52 3.57
 0 1 5 -3.69 -8.09
 1 1 5 10.89 -4.70
 2 1 5 -3.72 -5.68
 3 1 5 6.80 -2.66
 4 1 5 -1.82 1.72
 5 1 5 -6.67 -7.12
 6 1 5 3.35 -4.28
 7 1 5 -3.48 -3.50
 8 1 5 5.31 -4.31
 9 1 5 3.38 1.74
 10 1 5 0.34 -1.02
 11 1 5 2.02 1.94
 12 1 5 -1.81 0.70
 13 1 5 -0.23 -0.91
 -15 2 5 1.97 1.12
 -14 2 5 -0.82 1.13
 -13 2 5 0.21 0.34
 -12 2 5 -0.59 1.27
 -11 2 5 -1.18 -0.55
 -10 2 5 0.05 -3.29
 -9 2 5 2.78 -0.65
 -8 2 5 3.29 -0.01
 -7 2 5 2.97 0.12
 -6 2 5 0.27 4.69
 -5 2 5 -6.77 -5.28
 -4 2 5 -3.53 -4.72
 -3 2 5 9.49 -16.04
 -2 2 5 12.91 -5.79
 -1 2 5 9.50 2.81
 0 2 5 -5.05 -2.23
 1 2 5 -3.42 -1.85
 2 2 5 -0.44 1.29
 3 2 5 -1.22 -4.01
 4 2 5 3.06 2.09
 5 2 5 0.75 5.05
 6 2 5 -2.08 2.20
 7 2 5 -0.22 2.21
 8 2 5 -2.20 -0.78
 9 2 5 -1.96 -1.47
 10 2 5 0.84 -0.08
 11 2 5 -0.74 -0.26
 12 2 5 0.10 -0.32
 -15 3 5 -0.72 -0.23
 -14 3 5 0.41 -0.87
 -13 3 5 0.10 0.49
 -12 3 5 -1.95 -0.63
 -11 3 5 -0.48 -1.94
 -10 3 5 -1.37 1.58
 -9 3 5 -0.89 -2.18
 -8 3 5 -0.72 -0.22
 -7 3 5 -1.09 2.27
 -6 3 5 -3.71 -1.55
 -5 3 5 1.58 2.09
 -4 3 5 0.31 -0.13
 -3 3 5 -8.18 2.85
 -2 3 5 -7.87 -2.92
 -1 3 5 -0.01 -7.39
 0 3 5 6.10 9.23
 1 3 5 2.76 0.96
 2 3 5 -0.83 5.25
 3 3 5 -2.17 -0.62
 4 3 5 1.42 -1.25
 5 3 5 -0.10 -3.71
 6 3 5 3.67 -1.75
 7 3 5 0.73 0.74
 8 3 5 0.18 2.30
 9 3 5 -0.57 2.21
 10 3 5 -1.87 -1.16
 11 3 5 -0.37 -0.86
 12 3 5 -0.08 -0.81
 -15 4 5 0.99 0.70
 -14 4 5 -0.62 0.20
 -13 4 5 1.70 0.22
 -12 4 5 1.12 1.64
 -11 4 5 1.15 1.41
 -10 4 5 1.91 0.07
 -9 4 5 -0.82 1.51
 -8 4 5 1.94 -1.26
 -7 4 5 3.13 -1.21
 -6 4 5 6.87 1.96
 -5 4 5 2.00 4.03
 -4 4 5 -1.86 6.43
 -3 4 5 -0.94 2.19
 -2 4 5 4.92 0.38
 -1 4 5 2.44 6.75
 0 4 5 -1.75 -4.77
 1 4 5 -2.25 2.03
 2 4 5 -0.28 -0.24
 3 4 5 -4.06 -1.55
 4 4 5 -0.06 -3.42
 5 4 5 -0.40 0.85
 6 4 5 1.11 -0.75
 7 4 5 0.71 1.53
 8 4 5 0.30 -1.80
 9 4 5 1.16 -0.69
 10 4 5 -0.29 0.87
 11 4 5 1.02 -0.15
 -14 5 5 -0.69 0.92
 -13 5 5 -0.76 -1.30
 -12 5 5 -0.41 -0.11
 -11 5 5 0.09 -1.29
 -10 5 5 -0.64 2.45
 -9 5 5 -1.84 1.56
 -8 5 5 -4.73 -0.37
 -7 5 5 -2.88 0.11
 -6 5 5 -7.92 -1.29
 -5 5 5 -3.00 -3.51
 -4 5 5 -1.11 -4.46
 -3 5 5 -0.06 -4.23
 -2 5 5 -2.66 -2.19
 -1 5 5 -5.23 -2.33
 0 5 5 -3.77 -1.84
 1 5 5 2.06 -2.78
 2 5 5 0.11 -1.22
 3 5 5 1.41 3.44
 4 5 5 -1.90 3.39
 5 5 5 -1.85 -0.12
 6 5 5 -2.85 -0.65
 7 5 5 -1.58 -2.46
 8 5 5 -0.63 -0.71
 9 5 5 0.15 -0.22
 10 5 5 0.96 0.08
 11 5 5 -0.96 0.88
 -14 6 5 -1.64 0.43
 -13 6 5 -1.54 -0.71
 -12 6 5 -1.67 0.16
 -11 6 5 -2.07 -2.06
 -10 6 5 2.54 -2.13
 -9 6 5 1.23 0.68
 -8 6 5 1.35 1.30
 -7 6 5 1.45 0.22
 -6 6 5 2.38 0.57
 -5 6 5 0.87 -1.33
 -4 6 5 0.41 -1.72
 -3 6 5 3.46 -0.02
 -2 6 5 3.68 3.35
 -1 6 5 4.92 3.08
 0 6 5 0.75 3.80
 1 6 5 -1.79 -0.76
 2 6 5 0.58 -0.43
 3 6 5 1.43 -3.04
 4 6 5 2.22 -4.21
 5 6 5 3.67 0.63
 6 6 5 1.96 1.42
 7 6 5 1.06 2.85
 8 6 5 -0.65 0.63
 9 6 5 0.10 -1.47
 10 6 5 0.80 -0.24
 -13 7 5 1.36 0.13
 -12 7 5 3.01 -0.86
 -11 7 5 2.68 0.70
 -10 7 5 -0.04 1.59
 -9 7 5 -1.04 -0.93
 -8 7 5 0.92 -2.44
 -7 7 5 0.58 -0.90
 -6 7 5 0.41 0.69
 -5 7 5 -0.09 1.28
 -4 7 5 1.36 2.46
 -3 7 5 -1.49 1.11
 -2 7 5 -1.39 -4.00
 -1 7 5 1.32 -2.24
 0 7 5 0.70 -0.40
 1 7 5 -0.49 1.99
 2 7 5 -2.73 -2.31
 3 7 5 0.25 -1.44
 4 7 5 -0.22 2.82
 5 7 5 -1.86 -1.32
 6 7 5 1.22 -0.71
 7 7 5 -0.64 -0.23
 8 7 5 -0.22 -0.57
 9 7 5 -0.28 1.72
 -13 8 5 0.48 -0.56
 -12 8 5 -0.49 0.81
 -11 8 5 -1.28 2.47
 -10 8 5 -2.57 0.50
 -9 8 5 -1.51 0.27
 -8 8 5 -2.71 0.14
 -7 8 5 0.59 -0.53
 -6 8 5 -0.11 0.04
 -5 8 5 -0.11 -0.79
 -4 8 5 -0.54 -0.57
 -3 8 5 -2.01 0.94
 -2 8 5 -3.74 2.76
 -1 8 5 -4.74 -1.83
 0 8 5 -0.05 -0.40
 1 8 5 0.10 -0.68
 2 8 5 -0.29 3.15
 3 8 5 -0.71 -0.49
 4 8 5 1.65 -0.64
 5 8 5 -0.05 2.10
 6 8 5 -2.85 -0.89
 7 8 5 0.84 -1.44
 8 8 5 1.47 0.70
 -12 9 5 0.70 0.42
 -11 9 5 0.03 -1.11
 -10 9 5 1.50 -0.63
 -9 9 5 1.66 -0.39
 -8 9 5 2.02 0.59
 -7 9 5 -0.51 -0.43
 -6 9 5 -0.14 -0.24
 -5 9 5 0.56 -0.68
 -4 9 5 0.20 0.61
 -3 9 5 2.86 -1.92
 -2 9 5 5.50 -0.87
 -1 9 5 3.40 3.32
 0 9 5 0.74 -1.72
 1 9 5 1.42 0.70
 2 9 5 1.39 -1.82
 3 9 5 -0.03 -0.49
 4 9 5 0.94 -0.20
 5 9 5 -0.19 1.04
 6 9 5 0.29 0.36
 7 9 5 0.09 0.02
 -11 10 5 0.78 0.01
 -10 10 5 -1.02 0.66
 -9 10 5 -0.76 -1.50
 -8 10 5 1.13 0.83
 -7 10 5 -0.90 1.82
 -6 10 5 -0.69 0.54
 -5 10 5 -0.14 0.18
 -4 10 5 -0.66 0.42
 -3 10 5 -2.54 -1.86
 -2 10 5 -0.10 0.87
 -1 10 5 -2.32 0.29
 0 10 5 -3.17 2.19
 1 10 5 -1.43 -1.78
 2 10 5 -1.43 1.05
 3 10 5 -1.22 -0.25
 4 10 5 1.04 -1.28
 5 10 5 0.52 1.29
 6 10 5 -1.33 -1.07
 -9 11 5 0.01 0.96
 -8 11 5 0.41 -0.78
 -7 11 5 0.73 1.69
 -6 11 5 -0.75 -0.11
 -5 11 5 -0.98 0.15
 -4 11 5 -0.39 0.14
 -3 11 5 0.37 1.05
 -2 11 5 -0.26 -0.05
 -1 11 5 -0.47 -0.54
 0 11 5 2.63 -2.32
 1 11 5 0.33 1.26
 2 11 5 0.79 -0.78
 3 11 5 0.44 -1.04
 4 11 5 0.34 -0.09
 -7 12 5 0.55 -1.66
 -6 12 5 -0.44 -0.13
 -5 12 5 0.70 -1.48
 -4 12 5 1.53 -1.02
 -3 12 5 0.53 0.37
 -2 12 5 -0.53 -0.07
 -1 12 5 -0.82 -0.44
 0 12 5 -0.70 -0.46
 1 12 5 0.19 -0.37
 2 12 5 0.59 -0.79
 -2 -16 6 -0.94 0.77
 -1 -16 6 0.63 -1.12
 0 -16 6 1.44 0.25
 1 -16 6 -0.42 0.96
 2 -16 6 -0.63 -0.37
 3 -16 6 0.86 -0.68
 -5 -15 6 -1.92 -1.17
 -4 -15 6 -1.56 -2.23
 -3 -15 6 0.94 -0.90
 -2 -15 6 0.42 -0.17
 -1 -15 6 -1.23 0.02
 0 -15 6 -0.48 -0.90
 1 -15 6 0.83 0.04
 2 -15 6 -0.51 1.36
 3 -15 6 -1.94 0.47
 4 -15 6 -0.26 -1.20
 5 -15 6 1.08 0.34
 6 -15 6 -0.98 0.82
 -7 -14 6 -0.22 -0.53
 -6 -14 6 -0.42 -0.83
 -5 -14 6 1.84 0.05
 -4 -14 6 0.97 2.37
 -3 -14 6 -0.79 0.44
 -2 -14 6 -0.61 0.85
 -1 -14 6 0.24 -0.26
 0 -14 6 0.24 0.57
 1 -14 6 0.03 -0.87
 2 -14 6 1.40 -0.19
 3 -14 6 0.23 0.13
 4 -14 6 -0.55 -1.48
 5 -14 6 0.82 -1.09
 6 -14 6 0.62 -0.60
 -8 -13 6 1.75 -0.72
 -7 -13 6 1.22 -0.28
 -6 -13 6 1.72 1.05
 -5 -13 6 -0.45 -1.35
 -4 -13 6 1.77 -0.37
 -3 -13 6 0.94 1.27
 -2 -13 6 -0.61 0.29
 -1 -13 6 0.92 -0.35
 0 -13 6 0.61 0.73
 1 -13 6 -2.04 1.26
 2 -13 6 -0.18 -1.48
 3 -13 6 1.19 0.61
 4 -13 6 0.91 2.87
 5 -13 6 -0.94 1.91
 -10 -12 6 -0.85 -1.60
 -9 -12 6 -0.34 0.75
 -8 -12 6 -2.09 1.64
 -7 -12 6 -2.42 -0.48
 -6 -12 6 -1.19 -1.91
 -5 -12 6 0.77 0.72
 -4 -12 6 -0.08 -0.10
 -3 -12 6 -1.34 -0.13
 -2 -12 6 0.61 -1.44
 -1 -12 6 -0.84 -0.48
 0 -12 6 -0.05 0.51
 1 -12 6 0.58 -0.07
 2 -12 6 -1.82 -1.40
 3 -12 6 0.98 -0.83
 4 -12 6 -1.09 -2.27
 5 -12 6 2.31 -1.80
 -11 -11 6 0.35 -0.91
 -10 -11 6 1.68 0.04
 -9 -11 6 1.09 0.41
 -8 -11 6 1.86 -1.41
 -7 -11 6 1.65 1.35
 -6 -11 6 0.95 1.23
 -5 -11 6 -0.66 0.82
 -4 -11 6 -2.05 0.43
 -3 -11 6 0.10 -1.78
 -2 -11 6 1.04 0.35
 -1 -11 6 1.58 2.03
 0 -11 6 -0.40 -0.51
 1 -11 6 -0.50 -0.33
 2 -11 6 1.94 3.00
 3 -11 6 -2.68 1.11
 4 -11 6 -0.61 -0.93
 5 -11 6 -0.35 0.03
 -12 -10 6 1.13 0.89
 -11 -10 6 -0.18 0.75
 -10 -10 6 -0.09 2.50
 -9 -10 6 -2.48 -0.07
 -8 -10 6 -1.22 -0.06
 -7 -10 6 0.59 -0.70
 -6 -10 6 -1.20 0.31
 -5 -10 6 0.66 0.17
 -4 -10 6 0.84 0.96
 -3 -10 6 -0.60 1.90
 -2 -10 6 -1.31 -0.78
 -1 -10 6 -1.29 -1.98
 0 -10 6 0.38 -0.67
 1 -10 6 2.50 -0.02
 2 -10 6 -0.55 -1.23
 3 -10 6 0.28 -1.08
 4 -10 6 0.26 0.41
 -12 -9 6 -0.54 -1.28
 -11 -9 6 -0.34 0.47
 -10 -9 6 -1.21 -3.21
 -9 -9 6 1.73 0.52
 -8 -9 6 -0.62 1.21
 -7 -9 6 -2.64 -0.32
 -6 -9 6 0.56 -1.50
 -5 -9 6 0.12 -2.10
 -4 -9 6 1.12 -1.06
 -3 -9 6 0.22 0.62
 -2 -9 6 -1.26 1.47
 -1 -9 6 -1.64 2.07
 0 -9 6 -1.74 -1.89
 1 -9 6 -1.36 -0.22
 2 -9 6 -1.55 0.67
 3 -9 6 1.84 0.06
 4 -9 6 0.64 2.49
 -13 -8 6 -0.52 0.08
 -12 -8 6 0.09 0.22
 -11 -8 6 1.29 -1.80
 -10 -8 6 2.32 2.88
 -9 -8 6 -0.32 -0.42
 -8 -8 6 0.58 -0.39
 -7 -8 6 2.16 -1.22
 -6 -8 6 1.15 1.79
 -5 -8 6 -2.74 2.22
 -4 -8 6 -0.72 -1.50
 -3 -8 6 1.10 -2.23
 -2 -8 6 3.51 -2.12
 -1 -8 6 3.83 -1.55
 0 -8 6 1.60 1.99
 1 -8 6 1.54 1.12
 2 -8 6 1.65 -2.22
 3 -8 6 1.35 -2.06
 4 -8 6 2.86 -2.14
 -14 -7 6 -1.65 -1.06
 -13 -7 6 0.85 0.69
 -12 -7 6 -1.34 -0.37
 -11 -7 6 -0.82 1.63
 -10 -7 6 -1.99 -2.42
 -9 -7 6 0.88 -0.38
 -8 -7 6 0.31 1.00
 -7 -7 6 -1.01 0.04
 -6 -7 6 0.12 1.41
 -5 -7 6 -0.61 -3.13
 -4 -7 6 3.64 -1.93
 -3 -7 6 -0.74 2.61
 -2 -7 6 -1.62 -1.88
 -1 -7 6 0.78 3.54
 0 -7 6 -3.65 1.73
 1 -7 6 -1.64 -5.31
 2 -7 6 -0.27 4.48
 3 -7 6 -6.53 0.28
 4 -7 6 0.29 -1.48
 -14 -6 6 2.18 -0.31
 -13 -6 6 -0.30 -0.03
 -12 -6 6 1.19 0.38
 -11 -6 6 1.91 0.81
 -10 -6 6 -2.01 4.39
 -9 -6 6 -3.32 -0.14
 -8 -6 6 -1.55 -1.17
 -7 -6 6 -1.11 -0.76
 -6 -6 6 1.84 -2.78
 -5 -6 6 1.95 3.05
 -4 -6 6 1.68 5.66
 -3 -6 6 -3.77 7.81
 -2 -6 6 -1.94 -1.65
 -1 -6 6 3.29 -1.05
 0 -6 6 1.33 0.51
 1 -6 6 2.09 3.22
 2 -6 6 5.04 -1.14
 3 -6 6 5.86 5.10
 4 -6 6 -2.42 3.88
 5 -6 6 -0.79 -0.47
 6 -6 6 -0.60 2.19
 10 -6 6 1.69 0.29
 11 -6 6 0.10 2.22
 12 -6 6 0.64 -0.46
 13 -6 6 -0.09 -0.20
 -14 -5 6 -1.13 -1.22
 -13 -5 6 1.40 0.99
 -12 -5 6 -2.57 -0.84
 -11 -5 6 0.00 -3.24
 -10 -5 6 3.62 -1.22
 -9 -5 6 1.73 0.81
 -8 -5 6 -0.54 2.11
 -7 -5 6 -4.62 -1.11
 -6 -5 6 -2.06 -6.70
 -5 -5 6 4.50 -2.30
 -4 -5 6 -2.17 -1.81
 -3 -5 6 0.99 -5.55
 -2 -5 6 -6.93 2.38
 -1 -5 6 -12.00 -3.67
 0 -5 6 -2.04 -9.89
 1 -5 6 0.91 -4.46
 2 -5 6 -2.20 -1.84
 3 -5 6 -3.00 -2.44
 4 -5 6 1.25 -4.05
 5 -5 6 2.59 2.65
 6 -5 6 -1.45 -1.95
 7 -5 6 -0.40 -1.19
 8 -5 6 0.00 -0.51
 9 -5 6 1.30 -0.99
 10 -5 6 -0.32 1.48
 11 -5 6 -0.80 -0.97
 12 -5 6 -1.40 0.37
 13 -5 6 -0.72 0.56
 -15 -4 6 -0.14 -0.07
 -14 -4 6 0.54 -0.12
 -13 -4 6 -0.67 -0.05
 -12 -4 6 -0.53 0.39
 -11 -4 6 0.31 -0.10
 -10 -4 6 -2.52 1.07
 -9 -4 6 -3.88 -5.25
 -8 -4 6 6.96 -5.03
 -7 -4 6 6.07 4.21
 -6 -4 6 3.96 4.23
 -5 -4 6 -2.74 7.71
 -4 -4 6 -7.69 -6.33
 -3 -4 6 8.69 -5.72
 -2 -4 6 13.71 -3.21
 -1 -4 6 22.10 0.88
 0 -4 6 6.43 14.79
 1 -4 6 0.73 6.20
 2 -4 6 -1.02 5.20
 3 -4 6 -2.70 -0.04
 4 -4 6 2.55 -3.76
 5 -4 6 3.69 0.49
 6 -4 6 -0.96 3.59
 7 -4 6 2.36 0.84
 8 -4 6 0.00 3.36
 9 -4 6 -3.82 0.59
 10 -4 6 0.55 -1.34
 11 -4 6 -0.39 1.09
 12 -4 6 1.94 -0.06
 13 -4 6 0.50 0.76
 -15 -3 6 0.13 -0.58
 -14 -3 6 1.62 -0.26
 -13 -3 6 1.48 2.14
 -12 -3 6 -0.48 1.31
 -11 -3 6 0.25 -0.40
 -10 -3 6 1.53 3.52
 -9 -3 6 -2.36 1.03
 -8 -3 6 3.94 -1.29
 -7 -3 6 -0.97 5.09
 -6 -3 6 -2.57 -3.38
 -5 -3 6 10.83 2.77
 -4 -3 6 -2.30 17.58
 -3 -3 6 -10.13 -3.07
 -2 -3 6 -1.58 5.97
 -1 -3 6 -16.64 8.01
 0 -3 6 -3.36 -4.70
 1 -3 6 0.13 4.49
 2 -3 6 -3.34 3.47
 3 -3 6 -0.97 -0.31
 4 -3 6 -4.11 3.13
 5 -3 6 -0.54 -1.18
 6 -3 6 -0.28 0.82
 7 -3 6 -1.62 -4.04
 8 -3 6 3.00 2.10
 9 -3 6 -1.10 1.81
 10 -3 6 -0.16 -0.28
 11 -3 6 -0.63 0.13
 12 -3 6 -1.56 -2.47
 13 -3 6 0.85 -0.68
 -15 -2 6 -0.04 1.39
 -14 -2 6 -2.38 -0.15
 -13 -2 6 0.18 -2.48
 -12 -2 6 0.65 0.53
 -11 -2 6 -1.41 -0.85
 -10 -2 6 2.05 -1.69
 -9 -2 6 -3.20 1.62
 -8 -2 6 -2.46 -3.34
 -7 -2 6 -1.00 5.67
 -6 -2 6 -12.40 -2.93
 -5 -2 6 -2.88 -10.17
 -4 -2 6 -0.92 -5.49
 -3 -2 6 -1.50 1.15
 -2 -2 6 -3.08 -4.45
 -1 -2 6 4.96 -8.97
 0 -2 6 -0.61 -1.07
 1 -2 6 -5.18 -8.42
 2 -2 6 -0.68 -9.86
 3 -2 6 0.88 -1.80
 4 -2 6 1.20 -2.34
 5 -2 6 -3.97 -1.03
 6 -2 6 -0.67 -4.98
 7 -2 6 1.81 1.24
 8 -2 6 -0.37 -2.89
 9 -2 6 1.58 -2.26
 10 -2 6 1.88 -0.22
 11 -2 6 -0.36 1.64
 12 -2 6 -0.62 0.18
 13 -2 6 0.83 0.42
 -15 -1 6 0.24 1.06
 -14 -1 6 -1.50 0.00
 -13 -1 6 -1.31 -0.44
 -12 -1 6 -0.76 -1.20
 -11 -1 6 -1.25 -2.67
 -10 -1 6 3.25 -2.76
 -9 -1 6 5.22 3.75
 -8 -1 6 -1.22 3.01
 -7 -1 6 -0.87 -5.43
 -6 -1 6 3.86 -2.46
 -5 -1 6 -0.01 -6.00
 -4 -1 6 13.69 -8.92
 -3 -1 6 14.23 0.23
 -2 -1 6 4.66 3.98
 -1 -1 6 0.57 5.81
 0 -1 6 -2.60 4.21
 1 -1 6 -1.83 -0.55
 2 -1 6 9.27 0.65
 3 -1 6 9.31 2.37
 4 -1 6 3.27 8.03
 5 -1 6 3.22 1.72
 6 -1 6 4.80 5.97
 7 -1 6 -1.89 2.79
 8 -1 6 -0.76 1.59
 9 -1 6 -1.14 2.23
 10 -1 6 -0.11 0.41
 11 -1 6 1.48 1.78
 12 -1 6 -1.12 1.39
 13 -1 6 -0.39 -0.45
 -15 0 6 0.56 0.05
 -14 0 6 -0.10 0.59
 -13 0 6 1.18 -0.16
 -12 0 6 0.77 0.68
 -11 0 6 0.86 3.64
 -10 0 6 -2.95 -1.24
 -9 0 6 2.50 -1.11
 -8 0 6 -0.80 1.53
 -7 0 6 4.72 2.71
 -6 0 6 3.04 7.52
 -5 0 6 4.14 13.99
 -4 0 6 -12.77 11.58
 -3 0 6 -6.65 4.88
 -2 0 6 -1.09 7.63
 -1 0 6 -1.61 5.39
 0 0 6 3.01 3.55
 1 0 6 1.54 8.72
 2 0 6 -11.63 1.09
 3 0 6 -8.26 -2.40
 4 0 6 0.26 -5.74
 5 0 6 -2.71 2.07
 6 0 6 -3.06 -3.60
 7 0 6 -0.07 3.18
 8 0 6 -3.93 -0.21
 9 0 6 0.59 -2.04
 10 0 6 -1.10 -1.07
 11 0 6 0.37 -1.87
 12 0 6 0.56 -0.25
 -15 1 6 -0.68 -1.31
 -14 1 6 0.48 -2.38
 -13 1 6 2.34 -1.16
 -12 1 6 1.31 1.47
 -11 1 6 0.55 -0.66
 -10 1 6 -0.97 3.08
 -9 1 6 -4.69 -1.47
 -8 1 6 -0.47 -2.87
 -7 1 6 -3.60 -5.48
 -6 1 6 0.12 -6.50
 -5 1 6 0.45 -7.38
 -4 1 6 0.87 2.55
 -3 1 6 -3.44 -10.57
 -2 1 6 0.22 -7.36
 -1 1 6 -4.52 -7.39
 0 1 6 -5.82 -12.05
 1 1 6 2.30 -9.18
 2 1 6 4.82 3.80
 3 1 6 -0.41 -0.60
 4 1 6 -0.78 1.48
 5 1 6 -1.94 1.87
 6 1 6 -2.98 -3.06
 7 1 6 3.21 -4.25
 8 1 6 2.22 -1.13
 9 1 6 1.11 0.79
 10 1 6 -1.11 3.08
 11 1 6 -2.15 -1.23
 12 1 6 0.55 0.34
 -15 2 6 -1.15 -0.01
 -14 2 6 0.54 0.22
 -13 2 6 -0.55 1.20
 -12 2 6 -2.40 -0.07
 -11 2 6 0.43 -2.81
 -10 2 6 2.63 1.91
 -9 2 6 1.14 1.33
 -8 2 6 -1.50 1.75
 -7 2 6 1.06 0.60
 -6 2 6 1.26 4.20
 -5 2 6 -2.96 2.30
 -4 2 6 4.82 -5.69
 -3 2 6 1.36 8.63
 -2 2 6 -3.94 6.64
 -1 2 6 -3.44 -1.24
 0 2 6 5.76 5.52
 1 2 6 1.28 -1.31
 2 2 6 6.90 -1.43
 3 2 6 0.96 5.05
 4 2 6 2.74 -1.63
 5 2 6 2.51 2.77
 6 2 6 -1.79 -0.13
 7 2 6 1.46 0.60
 8 2 6 -0.76 2.58
 9 2 6 1.18 1.06
 10 2 6 0.03 0.45
 11 2 6 0.40 0.38
 12 2 6 0.26 1.02
 -15 3 6 1.92 0.27
 -14 3 6 -0.07 1.72
 -13 3 6 -1.92 -0.46
 -12 3 6 2.40 -2.20
 -11 3 6 1.03 2.33
 -10 3 6 0.67 -1.59
 -9 3 6 -0.58 0.69
 -8 3 6 2.91 -0.15
 -7 3 6 0.98 1.09
 -6 3 6 1.56 0.09
 -5 3 6 -1.24 1.06
 -4 3 6 -2.74 -0.46
 -3 3 6 6.28 -0.44
 -2 3 6 3.15 1.81
 -1 3 6 2.60 3.82
 0 3 6 0.14 -1.26
 1 3 6 -6.14 6.65
 2 3 6 -3.69 -2.04
 3 3 6 -2.06 0.33
 4 3 6 -5.11 -1.68
 5 3 6 0.49 -1.85
 6 3 6 -0.71 1.82
 7 3 6 -1.06 -1.10
 8 3 6 -0.86 -1.09
 9 3 6 -1.11 -1.98
 10 3 6 -1.28 -0.61
 11 3 6 0.09 -0.99
 -15 4 6 -0.43 -0.92
 -14 4 6 1.28 -0.02
 -13 4 6 0.58 -0.16
 -12 4 6 0.42 1.17
 -11 4 6 -1.38 1.70
 -10 4 6 -5.14 0.85
 -9 4 6 -0.62 -4.05
 -8 4 6 0.17 -1.49
 -7 4 6 -0.20 1.32
 -6 4 6 -1.73 1.28
 -5 4 6 1.12 3.92
 -4 4 6 -4.36 2.87
 -3 4 6 -7.04 -5.80
 -2 4 6 -2.18 -6.01
 -1 4 6 0.94 -5.78
 0 4 6 1.68 3.32
 1 4 6 1.34 0.31
 2 4 6 -2.59 -1.02
 3 4 6 1.67 1.44
 4 4 6 -0.32 0.85
 5 4 6 0.01 -1.42
 6 4 6 2.25 -1.70
 7 4 6 1.36 2.60
 8 4 6 -0.48 1.80
 9 4 6 -0.23 2.19
 10 4 6 -1.67 0.77
 11 4 6 -0.52 -2.80
 -14 5 6 -0.09 0.21
 -13 5 6 -0.68 1.51
 -12 5 6 0.11 -0.12
 -11 5 6 1.73 0.88
 -10 5 6 2.43 0.92
 -9 5 6 1.04 1.48
 -8 5 6 2.08 3.55
 -7 5 6 -2.60 0.81
 -6 5 6 1.04 -3.67
 -5 5 6 1.06 -1.93
 -4 5 6 0.46 0.22
 -3 5 6 0.95 4.55
 -2 5 6 -1.85 4.07
 -1 5 6 0.09 0.13
 0 5 6 1.24 -0.97
 1 5 6 1.40 -2.12
 2 5 6 4.75 3.05
 3 5 6 -0.48 1.37
 4 5 6 -2.79 -0.82
 5 5 6 -0.12 -1.12
 6 5 6 -1.51 0.42
 7 5 6 0.76 -2.65
 8 5 6 0.42 0.17
 9 5 6 -0.15 -2.77
 10 5 6 2.90 -0.24
 -14 6 6 -0.87 -0.90
 -13 6 6 -1.11 -0.40
 -12 6 6 -1.05 -2.71
 -11 6 6 0.08 -1.27
 -10 6 6 -1.87 -0.53
 -9 6 6 -0.98 -1.42
 -8 6 6 -0.74 -0.70
 -7 6 6 -2.86 -0.39
 -6 6 6 -1.56 -0.91
 -5 6 6 -0.53 -1.22
 -4 6 6 2.39 -2.21
 -3 6 6 3.95 -3.06
 -2 6 6 2.33 0.66
 -1 6 6 -3.41 0.11
 0 6 6 -2.26 -0.37
 1 6 6 -5.09 -0.24
 2 6 6 -3.17 -4.35
 3 6 6 -2.07 -1.80
 4 6 6 0.65 -0.55
 5 6 6 0.92 -0.73
 6 6 6 1.43 0.82
 7 6 6 -1.61 1.48
 8 6 6 -1.02 -0.41
 9 6 6 -0.72 0.53
 -13 7 6 1.76 -0.99
 -12 7 6 -0.17 1.13
 -11 7 6 -0.09 -0.40
 -10 7 6 2.13 -0.58
 -9 7 6 1.25 2.04
 -8 7 6 -0.25 0.38
 -7 7 6 2.40 2.12
 -6 7 6 -0.74 0.99
 -5 7 6 -1.77 0.78
 -4 7 6 -1.87 -1.89
 -3 7 6 -1.34 0.94
 -2 7 6 -0.13 1.42
 -1 7 6 0.59 1.36
 0 7 6 2.58 1.64
 1 7 6 2.48 3.49
 2 7 6 -1.23 3.39
 3 7 6 1.47 -1.49
 4 7 6 2.74 -0.92
 5 7 6 0.65 1.50
 6 7 6 -0.65 0.21
 7 7 6 0.94 0.21
 8 7 6 -0.06 1.37
 -12 8 6 1.16 1.75
 -11 8 6 -0.54 0.80
 -10 8 6 -0.95 0.58
 -9 8 6 -0.71 -1.12
 -8 8 6 0.32 -0.90
 -7 8 6 -0.43 -2.92
 -6 8 6 3.03 -0.05
 -5 8 6 1.97 2.81
 -4 8 6 -2.10 2.71
 -3 8 6 0.06 -1.20
 -2 8 6 0.51 -3.73
 -1 8 6 2.57 -0.86
 0 8 6 -0.74 -2.29
 1 8 6 0.23 -2.21
 2 8 6 1.44 -2.13
 3 8 6 -1.67 0.48
 4 8 6 -2.39 0.15
 5 8 6 -0.14 -1.46
 6 8 6 0.58 0.18
 7 8 6 -0.13 -0.50
 -11 9 6 0.28 0.36
 -10 9 6 -0.51 -0.03
 -9 9 6 -0.82 0.10
 -8 9 6 -0.74 -0.14
 -7 9 6 -0.02 0.98
 -6 9 6 -1.25 -0.20
 -5 9 6 -0.84 -2.20
 -4 9 6 2.94 -0.88
 -3 9 6 -1.99 1.41
 -2 9 6 -2.48 1.18
 -1 9 6 -0.82 -1.46
 0 9 6 -0.42 3.14
 1 9 6 -1.65 0.71
 2 9 6 -0.97 0.47
 3 9 6 1.92 1.89
 4 9 6 -0.66 0.34
 5 9 6 0.54 -0.90
 6 9 6 0.30 0.65
 -10 10 6 1.24 -0.56
 -9 10 6 1.15 1.27
 -8 10 6 0.69 -0.33
 -7 10 6 0.79 0.76
 -6 10 6 0.22 0.08
 -5 10 6 -0.51 0.65
 -4 10 6 -0.16 -0.93
 -3 10 6 2.95 1.95
 -2 10 6 1.12 0.68
 -1 10 6 -0.16 2.26
 0 10 6 0.29 -1.02
 1 10 6 -0.78 0.76
 2 10 6 -1.44 -2.26
 3 10 6 1.09 -3.81
 4 10 6 0.77 1.64
 5 10 6 -1.76 -0.32
 -8 11 6 -0.86 1.49
 -7 11 6 -0.36 -0.72
 -6 11 6 -1.34 1.53
 -5 11 6 -0.54 -0.75
 -4 11 6 -0.58 0.16
 -3 11 6 -2.09 -2.11
 -2 11 6 -0.16 -1.00
 -1 11 6 -0.25 -1.07
 0 11 6 -0.10 -0.21
 1 11 6 0.69 0.37
 2 11 6 -0.74 0.67
 3 11 6 0.33 1.18
 -5 12 6 0.07 1.13
 -4 12 6 -0.75 0.81
 -3 12 6 -0.19 -0.02
 -2 12 6 0.01 -0.43
 -1 12 6 1.00 0.14
 -2 -16 7 0.73 -0.10
 -1 -16 7 -0.79 0.88
 0 -16 7 -0.67 0.12
 1 -16 7 0.44 -0.25
 2 -16 7 0.31 0.93
 3 -16 7 -0.42 0.69
 -5 -15 7 0.14 -0.64
 -4 -15 7 0.62 1.48
 -3 -15 7 -0.97 -1.18
 -2 -15 7 0.22 -0.32
 -1 -15 7 1.53 0.48
 0 -15 7 0.28 1.13
 1 -15 7 -0.98 0.69
 2 -15 7 -0.75 -0.36
 3 -15 7 -0.41 -1.21
 4 -15 7 -0.77 -0.77
 5 -15 7 -0.27 -0.83
 -7 -14 7 0.46 -2.15
 -6 -14 7 1.10 -1.47
 -5 -14 7 -0.26 -1.00
 -4 -14 7 0.82 -1.96
 -3 -14 7 0.45 0.81
 -2 -14 7 0.42 -2.21
 -1 -14 7 1.06 -0.59
 0 -14 7 0.25 -0.77
 1 -14 7 0.31 -0.22
 2 -14 7 0.06 -0.99
 3 -14 7 0.75 0.42
 4 -14 7 0.78 0.30
 5 -14 7 0.18 -0.45
 -9 -13 7 0.59 0.91
 -8 -13 7 -0.46 1.46
 -7 -13 7 -0.18 -0.22
 -6 -13 7 0.33 0.69
 -5 -13 7 0.18 1.57
 -4 -13 7 -0.10 0.63
 -3 -13 7 -0.28 0.17
 -2 -13 7 0.04 2.35
 -1 -13 7 -2.34 0.99
 0 -13 7 -1.02 0.15
 1 -13 7 1.24 -0.43
 2 -13 7 0.98 1.86
 3 -13 7 -0.39 1.21
 4 -13 7 -0.54 0.18
 5 -13 7 0.07 0.95
 -10 -12 7 -1.03 -0.76
 -9 -12 7 1.39 0.09
 -8 -12 7 -0.62 0.58
 -7 -12 7 0.26 0.01
 -6 -12 7 0.12 0.29
 -5 -12 7 -0.06 -0.49
 -4 -12 7 -1.31 -0.15
 -3 -12 7 1.52 -0.39
 -2 -12 7 -0.79 -0.08
 -1 -12 7 1.35 -0.07
 0 -12 7 0.18 -0.33
 1 -12 7 -1.62 -0.44
 2 -12 7 -0.36 -0.11
 3 -12 7 -1.52 -1.48
 4 -12 7 -0.02 -1.21
 5 -12 7 0.07 0.23
 -11 -11 7 -0.09 -1.22
 -10 -11 7 1.44 -0.73
 -9 -11 7 0.44 -1.02
 -8 -11 7 0.02 -0.55
 -7 -11 7 1.06 -1.25
 -6 -11 7 -0.12 1.02
 -5 -11 7 -0.40 -0.31
 -4 -11 7 1.74 -0.63
 -3 -11 7 0.45 -0.40
 -2 -11 7 1.85 0.41
 -1 -11 7 -1.20 -0.71
 0 -11 7 -0.10 0.04
 1 -11 7 1.17 -0.13
 2 -11 7 -0.53 -1.81
 3 -11 7 1.33 -0.19
 4 -11 7 1.00 0.59
 5 -11 7 0.49 -0.73
 -12 -10 7 -0.09 0.01
 -11 -10 7 0.44 1.52
 -10 -10 7 -1.24 0.58
 -9 -10 7 -1.13 1.69
 -8 -10 7 0.83 0.31
 -7 -10 7 -0.33 1.25
 -6 -10 7 1.97 1.06
 -5 -10 7 -1.33 1.54
 -4 -10 7 -1.47 0.80
 -3 -10 7 -1.15 1.11
 -2 -10 7 -2.01 1.42
 -1 -10 7 0.59 1.62
 0 -10 7 1.14 2.07
 1 -10 7 -2.39 2.21
 2 -10 7 1.22 2.08
 3 -10 7 -0.03 2.75
 4 -10 7 -1.68 0.60
 5 -10 7 -2.03 -0.16
 -13 -9 7 0.02 -0.34
 -12 -9 7 0.65 0.04
 -11 -9 7 -0.09 -0.77
 -10 -9 7 -0.02 1.10
 -9 -9 7 -0.53 -1.63
 -8 -9 7 -1.31 -1.00
 -7 -9 7 -0.81 -1.08
 -6 -9 7 -2.24 -3.06
 -5 -9 7 1.31 -0.50
 -4 -9 7 -0.38 -0.94
 -3 -9 7 0.33 -1.95
 -2 -9 7 -0.36 -1.86
 -1 -9 7 -1.74 -5.55
 0 -9 7 -0.77 -4.01
 1 -9 7 1.95 -4.38
 2 -9 7 0.11 -3.67
 3 -9 7 -0.19 -3.53
 4 -9 7 0.98 -1.35
 -13 -8 7 0.25 1.39
 -12 -8 7 -0.31 -0.50
 -11 -8 7 0.62 0.64
 -10 -8 7 0.39 -2.24
 -9 -8 7 1.61 0.45
 -8 -8 7 2.09 1.04
 -7 -8 7 -0.83 2.30
 -6 -8 7 -0.35 -0.36
 -5 -8 7 2.35 -2.48
 -4 -8 7 2.28 0.83
 -3 -8 7 -0.35 2.43
 -2 -8 7 0.66 -0.95
 -1 -8 7 3.17 5.82
 0 -8 7 -0.28 4.10
 1 -8 7 -1.17 2.39
 2 -8 7 -1.76 2.49
 3 -8 7 2.27 0.88
 4 -8 7 1.42 1.84
 5 -8 7 1.35 1.66
 -14 -7 7 0.12 0.88
 -13 -7 7 -1.05 -0.74
 -12 -7 7 0.17 2.09
 -11 -7 7 -1.35 0.24
 -10 -7 7 -0.96 2.08
 -9 -7 7 0.01 -0.27
 -8 -7 7 1.44 0.97
 -7 -7 7 0.88 3.62
 -6 -7 7 -3.22 0.42
 -5 -7 7 -0.74 1.33
 -4 -7 7 -2.16 1.05
 -3 -7 7 3.22 -4.18
 -2 -7 7 5.99 4.92
 -1 -7 7 -2.16 0.48
 0 -7 7 0.32 -2.36
 1 -7 7 0.57 1.79
 2 -7 7 1.04 -2.43
 3 -7 7 0.85 -0.04
 4 -7 7 -1.89 1.41
 5 -7 7 -1.69 -1.36
 6 -7 7 0.77 0.79
 -14 -6 7 -0.05 -1.26
 -13 -6 7 1.24 0.45
 -12 -6 7 0.29 -1.08
 -11 -6 7 -1.53 0.46
 -10 -6 7 0.77 -2.60
 -9 -6 7 -0.68 1.10
 -8 -6 7 -4.48 -1.78
 -7 -6 7 -0.34 -5.67
 -6 -6 7 3.01 0.45
 -5 -6 7 -0.96 1.51
 -4 -6 7 -4.76 -1.64
 -3 -6 7 -2.37 -1.61
 -2 -6 7 -7.92 0.12
 -1 -6 7 -6.60 -3.02
 0 -6 7 -0.55 -3.86
 1 -6 7 2.40 -2.66
 2 -6 7 -2.22 3.11
 3 -6 7 -1.85 -1.17
 4 -6 7 0.76 -1.20
 5 -6 7 -0.15 -1.34
 6 -6 7 1.63 -3.56
 7 -6 7 1.65 -1.06
 8 -6 7 2.79 -0.30
 9 -6 7 1.78 1.45
 10 -6 7 -0.65 0.98
 11 -6 7 1.30 -0.25
 12 -6 7 -1.68 1.29
 -14 -5 7 -0.31 1.02
 -13 -5 7 -1.86 -1.96
 -12 -5 7 2.00 -0.49
 -11 -5 7 1.08 1.21
 -10 -5 7 -0.63 -0.60
 -9 -5 7 1.46 3.03
 -8 -5 7 -4.64 1.84
 -7 -5 7 0.01 -4.98
 -6 -5 7 3.39 -2.20
 -5 -5 7 5.35 -2.01
 -4 -5 7 6.55 5.46
 -3 -5 7 -0.44 2.78
 -2 -5 7 5.70 0.50
 -1 -5 7 1.42 -2.27
 0 -5 7 1.75 -5.97
 1 -5 7 6.52 -0.39
 2 -5 7 3.90 0.81
 3 -5 7 3.53 0.16
 4 -5 7 1.00 4.94
 5 -5 7 -3.16 0.90
 6 -5 7 -2.00 1.49
 7 -5 7 -0.76 -0.65
 8 -5 7 1.29 -0.46
 9 -5 7 -0.66 1.87
 10 -5 7 0.47 -0.07
 11 -5 7 -0.37 1.35
 12 -5 7 0.59 0.33
 -15 -4 7 1.27 -0.86
 -14 -4 7 0.01 1.22
 -13 -4 7 -0.39 0.53
 -12 -4 7 1.29 -0.57
 -11 -4 7 -0.41 3.28
 -10 -4 7 -2.43 -1.63
 -9 -4 7 4.37 -3.06
 -8 -4 7 2.35 2.00
 -7 -4 7 -1.08 -0.22
 -6 -4 7 -1.66 3.06
 -5 -4 7 -7.66 -5.05
 -4 -4 7 5.87 -8.27
 -3 -4 7 4.02 2.00
 -2 -4 7 -3.26 0.42
 -1 -4 7 1.02 -0.94
 0 -4 7 9.30 9.78
 1 -4 7 -7.62 8.36
 2 -4 7 -2.99 -1.37
 3 -4 7 -1.12 2.16
 4 -4 7 -1.58 -1.54
 5 -4 7 1.07 -0.35
 6 -4 7 4.34 -1.04
 7 -4 7 -0.92 4.46
 8 -4 7 -4.85 -1.06
 9 -4 7 2.87 -3.12
 10 -4 7 -0.23 1.52
 11 -4 7 0.60 -1.17
 12 -4 7 -0.50 0.30
 -15 -3 7 0.59 -0.61
 -14 -3 7 1.43 -0.28
 -13 -3 7 0.61 1.52
 -12 -3 7 -2.29 0.41
 -11 -3 7 -0.12 0.03
 -10 -3 7 -4.72 -1.16
 -9 -3 7 0.72 -3.91
 -8 -3 7 0.26 2.14
 -7 -3 7 2.37 -0.45
 -6 -3 7 7.73 4.54
 -5 -3 7 -0.90 13.22
 -4 -3 7 -10.56 4.11
 -3 -3 7 -4.41 -0.35
 -2 -3 7 2.91 -3.62
 -1 -3 7 6.24 4.90
 0 -3 7 -8.29 2.02
 1 -3 7 -3.56 -2.17
 2 -3 7 -4.49 -2.25
 3 -3 7 -1.13 -3.20
 4 -3 7 -0.47 -0.09
 5 -3 7 -1.73 -2.85
 6 -3 7 0.87 -0.19
 7 -3 7 -0.37 2.35
 8 -3 7 0.07 -3.06
 9 -3 7 0.73 1.49
 10 -3 7 -1.60 -0.76
 11 -3 7 -0.44 -1.09
 12 -3 7 0.99 0.32
 -15 -2 7 -0.75 -0.11
 -14 -2 7 0.45 -0.03
 -13 -2 7 -0.33 1.37
 -12 -2 7 -1.50 -0.02
 -11 -2 7 0.39 -2.12
 -10 -2 7 1.68 2.01
 -9 -2 7 0.48 -0.75
 -8 -2 7 2.08 1.40
 -7 -2 7 -3.62 -0.83
 -6 -2 7 -3.41 -1.99
 -5 -2 7 -3.88 -3.51
 -4 -2 7 -1.26 -4.85
 -3 -2 7 -1.22 -7.68
 -2 -2 7 -1.01 -2.24
 -1 -2 7 -7.02 -2.90
 0 -2 7 1.82 -8.91
 1 -2 7 10.29 -0.84
 2 -2 7 5.48 7.97
 3 -2 7 -2.74 1.14
 4 -2 7 1.66 -2.43
 5 -2 7 1.28 1.94
 6 -2 7 -0.42 -3.05
 7 -2 7 4.13 -3.12
 8 -2 7 0.60 4.07
 9 -2 7 -0.08 -0.33
 10 -2 7 0.74 2.44
 11 -2 7 -0.07 0.32
 12 -2 7 0.65 0.01
 -15 -1 7 -0.44 0.25
 -14 -1 7 -0.82 0.52
 -13 -1 7 -0.52 -0.74
 -12 -1 7 -0.58 -1.54
 -11 -1 7 2.71 -0.95
 -10 -1 7 1.84 1.20
 -9 -1 7 -2.07 1.16
 -8 -1 7 -1.86 -0.31
 -7 -1 7 -0.96 -0.59
 -6 -1 7 -0.24 -4.35
 -5 -1 7 7.92 -9.64
 -4 -1 7 15.63 -0.66
 -3 -1 7 11.73 14.23
 -2 -1 7 0.48 10.09
 -1 -1 7 3.08 2.40
 0 -1 7 0.12 3.26
 1 -1 7 -0.69 -2.04
 2 -1 7 -2.20 -3.51
 3 -1 7 0.92 -2.14
 4 -1 7 4.09 -0.28
 5 -1 7 1.64 5.04
 6 -1 7 -5.30 1.94
 7 -1 7 0.33 -1.46
 8 -1 7 2.37 0.75
 9 -1 7 0.59 -0.05
 10 -1 7 1.63 -0.45
 11 -1 7 -0.32 0.72
 12 -1 7 -0.63 0.22
 -15 0 7 0.50 -0.61
 -14 0 7 0.94 0.20
 -13 0 7 -1.41 0.34
 -12 0 7 -0.39 -0.30
 -11 0 7 -0.86 -2.32
 -10 0 7 1.33 0.75
 -9 0 7 -0.57 0.27
 -8 0 7 4.15 -1.19
 -7 0 7 1.25 4.53
 -6 0 7 -2.61 4.28
 -5 0 7 -6.80 2.96
 -4 0 7 -3.30 3.53
 -3 0 7 -8.54 -3.76
 -2 0 7 -0.76 -6.33
 -1 0 7 1.97 1.98
 0 0 7 -4.42 9.00
 1 0 7 -12.51 2.71
 2 0 7 -2.51 -3.37
 3 0 7 4.45 -0.22
 4 0 7 -3.71 4.62
 5 0 7 -0.25 -3.37
 6 0 7 3.82 4.99
 7 0 7 -4.93 2.22
 8 0 7 -3.18 -1.30
 9 0 7 -3.86 -0.39
 10 0 7 -1.73 -1.85
 11 0 7 0.58 -1.28
 12 0 7 2.13 0.37
 -15 1 7 -0.18 -0.19
 -14 1 7 -0.10 0.72
 -13 1 7 -0.84 -0.62
 -12 1 7 1.86 0.00
 -11 1 7 -1.54 2.84
 -10 1 7 -0.56 -1.21
 -9 1 7 -0.59 1.14
 -8 1 7 -4.44 -1.07
 -7 1 7 0.39 -2.96
 -6 1 7 3.72 -0.26
 -5 1 7 0.86 4.44
 -4 1 7 -3.97 -3.88
 -3 1 7 -3.30 1.66
 -2 1 7 -3.27 -3.85
 -1 1 7 -0.83 -3.17
 0 1 7 3.89 -4.83
 1 1 7 5.26 -1.30
 2 1 7 1.69 -2.47
 3 1 7 0.24 2.02
 4 1 7 -2.44 -0.73
 5 1 7 -0.56 -5.17
 6 1 7 1.49 -2.82
 7 1 7 2.78 -1.25
 8 1 7 1.71 1.89
 9 1 7 2.66 -1.16
 10 1 7 3.95 2.18
 11 1 7 -1.85 3.19
 12 1 7 -1.90 -1.43
 -15 2 7 0.49 -0.21
 -14 2 7 0.45 -1.09
 -13 2 7 0.62 0.68
 -12 2 7 -0.26 -2.48
 -11 2 7 2.52 -0.33
 -10 2 7 0.44 -1.00
 -9 2 7 0.27 -0.30
 -8 2 7 2.06 -1.19
 -7 2 7 0.48 -1.44
 -6 2 7 1.33 -5.61
 -5 2 7 7.11 -0.48
 -4 2 7 1.78 7.13
 -3 2 7 4.41 1.14
 -2 2 7 2.23 2.51
 -1 2 7 2.45 1.70
 0 2 7 -0.30 -3.28
 1 2 7 2.95 0.54
 2 2 7 2.57 2.99
 3 2 7 1.25 1.08
 4 2 7 -1.81 2.08
 5 2 7 -1.05 -0.61
 6 2 7 1.63 1.39
 7 2 7 -1.82 -0.39
 8 2 7 1.85 -1.50
 9 2 7 -0.19 0.79
 10 2 7 -0.35 0.46
 11 2 7 -0.03 0.84
 -15 3 7 -1.73 0.44
 -14 3 7 -0.78 -0.74
 -13 3 7 0.50 -1.19
 -12 3 7 -0.03 1.21
 -11 3 7 0.80 -0.42
 -10 3 7 0.93 2.96
 -9 3 7 0.76 3.78
 -8 3 7 -4.04 1.39
 -7 3 7 -0.64 1.81
 -6 3 7 -3.68 2.39
 -5 3 7 0.93 -3.00
 -4 3 7 2.21 0.18
 -3 3 7 -5.25 -1.94
 -2 3 7 -0.47 -0.92
 -1 3 7 -4.24 1.95
 0 3 7 -5.55 1.86
 1 3 7 0.97 -1.90
 2 3 7 -1.90 0.59
 3 3 7 1.24 2.45
 4 3 7 1.26 2.93
 5 3 7 -1.06 2.55
 6 3 7 -2.22 1.27
 7 3 7 -2.16 -0.42
 8 3 7 1.20 0.27
 9 3 7 -2.00 2.56
 10 3 7 -1.16 -1.04
 11 3 7 0.23 -0.45
 -14 4 7 1.24 0.62
 -13 4 7 0.62 2.00
 -12 4 7 -1.06 0.95
 -11 4 7 -1.79 -1.56
 -10 4 7 1.54 -3.17
 -9 4 7 0.46 -1.73
 -8 4 7 2.72 -0.40
 -7 4 7 3.10 -0.41
 -6 4 7 0.94 3.42
 -5 4 7 -5.33 0.65
 -4 4 7 -2.88 -0.35
 -3 4 7 0.78 0.55
 -2 4 7 2.88 -0.10
 -1 4 7 3.44 1.23
 0 4 7 2.35 -0.70
 1 4 7 -1.37 -1.07
 2 4 7 0.45 -0.58
 3 4 7 -1.37 -6.10
 4 4 7 0.78 -3.23
 5 4 7 2.01 -1.84
 6 4 7 1.67 0.67
 7 4 7 0.73 0.21
 8 4 7 -0.67 0.49
 9 4 7 -1.30 -1.08
 10 4 7 0.77 -3.06
 -14 5 7 -1.03 0.60
 -13 5 7 0.29 -1.22
 -12 5 7 0.73 0.69
 -11 5 7 -0.38 1.02
 -10 5 7 -1.17 1.12
 -9 5 7 -0.50 1.14
 -8 5 7 -2.40 -1.13
 -7 5 7 0.12 -1.44
 -6 5 7 2.23 1.77
 -5 5 7 -0.24 3.21
 -4 5 7 1.16 -0.85
 -3 5 7 -0.63 -0.09
 -2 5 7 -1.90 -2.54
 -1 5 7 -0.42 -1.23
 0 5 7 1.33 1.08
 1 5 7 0.89 5.36
 2 5 7 -2.11 4.20
 3 5 7 -4.92 5.47
 4 5 7 -1.96 -0.39
 5 5 7 -1.33 0.92
 6 5 7 -0.92 -2.29
 7 5 7 1.18 -0.08
 8 5 7 1.79 1.22
 9 5 7 -0.18 2.81
 -13 6 7 -1.30 -0.78
 -12 6 7 -0.06 -0.46
 -11 6 7 0.14 0.86
 -10 6 7 -0.46 0.14
 -9 6 7 0.06 0.55
 -8 6 7 -0.61 0.61
 -7 6 7 0.62 1.01
 -6 6 7 -2.88 -1.40
 -5 6 7 -0.57 -3.38
 -4 6 7 0.16 -1.76
 -3 6 7 0.25 2.68
 -2 6 7 -2.29 2.13
 -1 6 7 -0.58 -0.19
 0 6 7 -0.31 -1.66
 1 6 7 3.22 -0.88
 2 6 7 -0.96 0.60
 3 6 7 2.74 -4.28
 4 6 7 1.98 0.23
 5 6 7 -0.47 -0.61
 6 6 7 0.09 1.42
 7 6 7 -1.85 -0.90
 8 6 7 0.34 -2.50
 9 6 7 1.25 0.38
 -13 7 7 -0.93 0.07
 -12 7 7 0.86 -1.74
 -11 7 7 2.09 -1.35
 -10 7 7 0.83 0.71
 -9 7 7 0.07 -1.36
 -8 7 7 1.24 0.46
 -7 7 7 -1.16 -0.84
 -6 7 7 -0.01 0.63
 -5 7 7 1.62 -1.33
 -4 7 7 1.49 1.90
 -3 7 7 1.38 -1.98
 -2 7 7 2.42 -2.54
 -1 7 7 1.64 0.98
 0 7 7 -2.72 -0.29
 1 7 7 -3.28 -3.53
 2 7 7 1.47 -3.56
 3 7 7 -1.39 1.03
 4 7 7 -1.40 -0.55
 5 7 7 2.28 0.14
 6 7 7 0.54 1.28
 7 7 7 -0.66 1.16
 8 7 7 -0.83 0.64
 -12 8 7 -0.08 0.39
 -11 8 7 -0.64 1.61
 -10 8 7 -1.18 0.41
 -9 8 7 -0.87 0.03
 -8 8 7 -0.04 -0.84
 -7 8 7 1.65 1.39
 -6 8 7 0.07 1.30
 -5 8 7 -1.55 1.09
 -4 8 7 0.17 1.07
 -3 8 7 -4.71 1.05
 -2 8 7 -1.08 0.46
 -1 8 7 0.95 -0.29
 0 8 7 1.59 4.32
 1 8 7 -0.20 3.49
 2 8 7 -1.21 2.80
 3 8 7 0.57 0.93
 4 8 7 1.04 -0.47
 5 8 7 -1.54 -0.16
 6 8 7 0.44 -1.15
 -11 9 7 -0.61 -0.78
 -10 9 7 -0.18 -0.47
 -9 9 7 0.23 -0.23
 -8 9 7 0.10 -0.61
 -7 9 7 -0.08 -1.27
 -6 9 7 0.74 -0.77
 -5 9 7 0.40 0.35
 -4 9 7 -1.75 -0.77
 -3 9 7 2.47 -0.59
 -2 9 7 1.62 -1.43
 -1 9 7 -0.91 1.20
 0 9 7 0.02 -3.42
 1 9 7 1.62 -1.32
 2 9 7 0.27 0.00
 3 9 7 -2.11 -1.76
 4 9 7 -0.43 0.48
 5 9 7 -1.09 0.48
 -9 10 7 0.66 -0.27
 -8 10 7 -0.57 0.84
 -7 10 7 0.12 -0.14
 -6 10 7 0.01 0.35
 -5 10 7 0.91 0.63
 -4 10 7 0.24 0.18
 -3 10 7 -0.42 -1.39
 -2 10 7 0.34 1.71
 -1 10 7 -0.17 1.08
 0 10 7 -2.26 0.12
 1 10 7 0.28 -0.50
 2 10 7 0.04 0.50
 3 10 7 0.89 1.61
 -7 11 7 -0.38 1.09
 -6 11 7 0.32 0.11
 -5 11 7 -1.00 0.20
 -4 11 7 -0.70 0.00
 -3 11 7 1.10 0.78
 -2 11 7 -0.48 0.66
 -1 11 7 -0.61 -0.52
 0 11 7 0.42 0.90
 1 11 7 -1.95 -0.41
 -2 -16 8 -0.59 -0.22
 -1 -16 8 1.86 0.20
 0 -16 8 0.23 0.57
 1 -16 8 -0.06 0.01
 2 -16 8 0.21 -0.58
 -5 -15 8 -1.54 -1.87
 -4 -15 8 0.00 -1.28
 -3 -15 8 -0.29 0.21
 -2 -15 8 -0.03 -0.03
 -1 -15 8 -1.33 -0.94
 0 -15 8 0.18 0.27
 1 -15 8 -1.37 0.31
 2 -15 8 -0.36 -0.88
 3 -15 8 -0.13 1.00
 4 -15 8 -0.23 -0.10
 5 -15 8 0.26 -0.02
 -7 -14 8 -1.25 0.60
 -6 -14 8 -0.49 -0.46
 -5 -14 8 0.86 0.87
 -4 -14 8 -0.68 0.16
 -3 -14 8 0.51 -1.48
 -2 -14 8 0.61 0.89
 -1 -14 8 -0.21 0.92
 0 -14 8 -0.73 -0.97
 1 -14 8 2.47 -0.33
 2 -14 8 0.19 2.26
 3 -14 8 -1.10 -1.16
 4 -14 8 -0.34 -1.56
 5 -14 8 1.41 -1.25
 -9 -13 8 2.75 -2.26
 -8 -13 8 1.73 1.28
 -7 -13 8 0.70 -0.10
 -6 -13 8 1.06 -0.27
 -5 -13 8 0.73 -0.94
 -4 -13 8 1.05 1.26
 -3 -13 8 -0.30 1.57
 -2 -13 8 -0.35 -1.36
 -1 -13 8 1.48 -1.12
 0 -13 8 2.23 0.81
 1 -13 8 -1.49 0.21
 2 -13 8 0.62 -1.02
 3 -13 8 0.59 1.33
 4 -13 8 -0.14 1.05
 5 -13 8 -0.77 1.06
 -10 -12 8 2.18 0.07
 -9 -12 8 -3.13 2.44
 -8 -12 8 -2.48 -1.97
 -7 -12 8 -1.08 -1.39
 -6 -12 8 -0.19 -1.07
 -5 -12 8 0.18 0.32
 -4 -12 8 0.45 -1.02
 -3 -12 8 0.14 -0.64
 -2 -12 8 -0.09 0.99
 -1 -12 8 -1.71 0.31
 0 -12 8 -2.32 -0.05
 1 -12 8 -0.41 0.24
 2 -12 8 -0.80 -0.91
 3 -12 8 0.59 0.02
 4 -12 8 0.59 1.80
 5 -12 8 -1.74 0.72
 -11 -11 8 1.54 -1.66
 -10 -11 8 1.05 0.69
 -9 -11 8 -0.19 1.15
 -8 -11 8 1.85 -0.09
 -7 -11 8 0.72 2.18
 -6 -11 8 0.07 0.08
 -5 -11 8 -0.23 -0.58
 -4 -11 8 0.76 -0.27
 -3 -11 8 1.69 1.71
 -2 -11 8 0.20 1.34
 -1 -11 8 1.49 1.99
 0 -11 8 0.65 0.17
 1 -11 8 1.03 -1.30
 2 -11 8 1.34 1.39
 3 -11 8 -0.80 -2.54
 4 -11 8 1.95 -3.70
 5 -11 8 1.60 0.30
 -12 -10 8 1.98 1.22
 -11 -10 8 -0.50 1.97
 -10 -10 8 -2.35 0.89
 -9 -10 8 1.32 -3.75
 -8 -10 8 0.82 0.82
 -7 -10 8 -0.73 0.78
 -6 -10 8 -1.89 -0.98
 -5 -10 8 0.49 1.72
 -4 -10 8 -1.63 -0.20
 -3 -10 8 -1.61 0.13
 -2 -10 8 -2.33 -2.32
 -1 -10 8 -1.38 -3.01
 0 -10 8 -2.13 -0.65
 1 -10 8 0.55 -0.12
 2 -10 8 -2.68 2.02
 3 -10 8 -3.66 1.54
 4 -10 8 -2.63 0.90
 5 -10 8 0.59 -0.02
 -13 -9 8 0.80 1.25
 -12 -9 8 -2.32 -0.74
 -11 -9 8 0.26 -1.42
 -10 -9 8 0.33 -0.96
 -9 -9 8 -2.25 1.46
 -8 -9 8 -0.79 -1.13
 -7 -9 8 0.73 -1.54
 -6 -9 8 1.59 1.69
 -5 -9 8 0.47 -2.09
 -4 -9 8 0.44 2.03
 -3 -9 8 -2.22 0.08
 -2 -9 8 -0.27 -2.08
 -1 -9 8 3.02 1.04
 0 -9 8 2.77 0.87
 1 -9 8 -0.41 0.65
 2 -9 8 2.37 -1.08
 3 -9 8 2.43 -0.33
 4 -9 8 1.44 -2.48
 5 -9 8 1.73 -1.85
 -13 -8 8 0.99 -1.41
 -12 -8 8 1.56 1.28
 -11 -8 8 0.58 -0.90
 -10 -8 8 2.79 1.60
 -9 -8 8 2.32 1.51
 -8 -8 8 -1.11 0.96
 -7 -8 8 0.83 -1.92
 -6 -8 8 2.23 -0.91
 -5 -8 8 -0.45 1.30
 -4 -8 8 2.42 -1.39
 -3 -8 8 3.14 -1.95
 -2 -8 8 4.39 1.27
 -1 -8 8 0.11 -0.73
 0 -8 8 -0.40 -1.01
 1 -8 8 1.18 -1.85
 2 -8 8 2.52 -0.08
 3 -8 8 -1.29 0.70
 4 -8 8 0.23 1.83
 5 -8 8 -0.81 1.72
 6 -8 8 -0.06 1.71
 -14 -7 8 -1.02 0.08
 -13 -7 8 0.12 1.23
 -12 -7 8 -0.72 -0.70
 -11 -7 8 -0.33 1.18
 -10 -7 8 -0.02 -0.76
 -9 -7 8 -0.25 1.01
 -8 -7 8 -1.23 2.65
 -7 -7 8 -3.79 1.36
 -6 -7 8 -3.23 1.51
 -5 -7 8 -2.29 -0.60
 -4 -7 8 -1.54 -0.90
 -3 -7 8 -0.49 6.06
 -2 -7 8 -6.26 4.14
 -1 -7 8 -3.99 4.48
 0 -7 8 -3.68 3.96
 1 -7 8 -5.62 1.10
 2 -7 8 -4.60 -2.13
 3 -7 8 1.82 -0.95
 4 -7 8 1.18 -0.81
 5 -7 8 0.63 1.29
 6 -7 8 -2.41 0.21
 7 -7 8 -2.15 -2.28
 8 -7 8 -0.06 -1.44
 9 -7 8 -0.09 -1.84
 -14 -6 8 0.90 0.20
 -13 -6 8 0.02 -0.53
 -12 -6 8 -2.08 1.62
 -11 -6 8 -1.08 -1.57
 -10 -6 8 -2.59 -0.10
 -9 -6 8 -1.09 -2.38
 -8 -6 8 3.23 -2.00
 -7 -6 8 2.65 1.07
 -6 -6 8 0.72 -0.87
 -5 -6 8 -0.85 -2.30
 -4 -6 8 1.55 -2.57
 -3 -6 8 0.25 -6.59
 -2 -6 8 4.78 -4.87
 -1 -6 8 1.80 -6.62
 0 -6 8 3.12 -7.01
 1 -6 8 3.33 -0.34
 2 -6 8 3.12 -2.64
 3 -6 8 -0.52 -0.41
 4 -6 8 -1.15 -2.08
 5 -6 8 1.03 -1.17
 6 -6 8 0.71 -1.67
 7 -6 8 3.13 0.32
 8 -6 8 0.87 0.23
 9 -6 8 0.60 0.89
 10 -6 8 0.27 -0.33
 11 -6 8 -0.14 -0.56
 12 -6 8 1.18 0.32
 -14 -5 8 -0.63 -1.57
 -13 -5 8 2.68 -0.16
 -12 -5 8 2.08 0.35
 -11 -5 8 1.95 -0.36
 -10 -5 8 4.47 4.04
 -9 -5 8 -5.09 2.84
 -8 -5 8 -3.22 -5.16
 -7 -5 8 -1.35 -1.92
 -6 -5 8 1.50 -4.02
 -5 -5 8 6.14 3.97
 -4 -5 8 -0.39 5.72
 -3 -5 8 -4.00 6.32
 -2 -5 8 -6.13 -2.60
 -1 -5 8 2.37 -0.08
 0 -5 8 3.36 3.50
 1 -5 8 4.58 -2.89
 2 -5 8 6.28 6.50
 3 -5 8 0.96 8.46
 4 -5 8 -2.42 3.08
 5 -5 8 -0.88 0.48
 6 -5 8 0.11 1.08
 7 -5 8 -0.39 -0.57
 8 -5 8 0.40 2.00
 9 -5 8 0.41 -0.04
 10 -5 8 0.34 1.72
 11 -5 8 -0.81 0.81
 12 -5 8 -0.30 -0.76
 -15 -4 8 -0.45 -0.33
 -14 -4 8 -0.40 -0.22
 -13 -4 8 0.04 -0.88
 -12 -4 8 -1.78 2.04
 -11 -4 8 -0.94 -3.71
 -10 -4 8 2.61 1.51
 -9 -4 8 -2.82 2.91
 -8 -4 8 0.14 -0.88
 -7 -4 8 3.32 3.38
 -6 -4 8 -3.72 1.45
 -5 -4 8 0.23 -3.51
 -4 -4 8 0.03 -0.60
 -3 -4 8 2.90 -0.91
 -2 -4 8 3.40 2.44
 -1 -4 8 0.31 4.04
 0 -4 8 -6.04 -0.90
 1 -4 8 -3.86 3.42
 2 -4 8 -6.40 -2.35
 3 -4 8 -2.51 -5.56
 4 -4 8 0.42 -2.74
 5 -4 8 2.39 0.80
 6 -4 8 -4.54 2.06
 7 -4 8 -1.28 -3.41
 8 -4 8 1.45 -1.16
 9 -4 8 -2.92 -0.58
 10 -4 8 1.77 -2.85
 11 -4 8 0.15 1.20
 12 -4 8 -0.12 0.09
 -15 -3 8 0.77 0.91
 -14 -3 8 0.01 0.54
 -13 -3 8 0.77 -0.19
 -12 -3 8 2.33 3.13
 -11 -3 8 -6.29 2.90
 -10 -3 8 -0.24 -4.49
 -9 -3 8 0.90 -1.49
 -8 -3 8 2.25 -4.51
 -7 -3 8 2.86 -0.49
 -6 -3 8 0.42 1.49
 -5 -3 8 -3.05 0.90
 -4 -3 8 -0.25 -4.44
 -3 -3 8 3.96 -2.63
 -2 -3 8 -2.44 2.69
 -1 -3 8 -1.15 -3.84
 0 -3 8 2.91 2.26
 1 -3 8 0.42 -3.52
 2 -3 8 4.10 -1.85
 3 -3 8 2.56 0.98
 4 -3 8 1.74 -0.20
 5 -3 8 -0.31 -0.07
 6 -3 8 2.03 -1.47
 7 -3 8 0.99 -0.49
 8 -3 8 -0.35 2.70
 9 -3 8 -0.12 -0.93
 10 -3 8 0.26 0.56
 11 -3 8 1.28 -0.20
 12 -3 8 1.11 0.18
 -15 -2 8 0.99 -0.79
 -14 -2 8 0.17 1.29
 -13 -2 8 -0.51 -0.07
 -12 -2 8 0.03 -0.57
 -11 -2 8 -0.21 0.56
 -10 -2 8 -1.14 -3.55
 -9 -2 8 2.53 0.03
 -8 -2 8 0.25 3.14
 -7 -2 8 1.94 3.27
 -6 -2 8 -0.94 6.77
 -5 -2 8 -4.96 1.00
 -4 -2 8 -4.33 -1.18
 -3 -2 8 -3.23 -2.43
 -2 -2 8 3.97 -5.80
 -1 -2 8 7.51 -1.09
 0 -2 8 4.90 5.08
 1 -2 8 -3.16 5.92
 2 -2 8 -4.89 1.38
 3 -2 8 -1.91 -0.91
 4 -2 8 -1.75 0.65
 5 -2 8 0.39 -2.42
 6 -2 8 2.13 1.22
 7 -2 8 -0.20 2.14
 8 -2 8 2.59 -2.39
 9 -2 8 0.83 2.74
 10 -2 8 -1.49 -1.68
 11 -2 8 0.08 -1.67
 12 -2 8 -0.23 -0.03
 -15 -1 8 -0.66 0.04
 -14 -1 8 0.10 -0.56
 -13 -1 8 -1.69 -0.64
 -12 -1 8 1.88 -1.98
 -11 -1 8 1.80 2.31
 -10 -1 8 -2.23 2.56
 -9 -1 8 -0.46 1.70
 -8 -1 8 -5.31 -0.39
 -7 -1 8 -6.73 -7.17
 -6 -1 8 2.90 -12.27
 -5 -1 8 9.04 -0.38
 -4 -1 8 5.95 5.16
 -3 -1 8 0.06 4.08
 -2 -1 8 -3.41 2.11
 -1 -1 8 -5.99 0.05
 0 -1 8 -1.96 -5.57
 1 -1 8 2.77 -1.49
 2 -1 8 4.44 0.20
 3 -1 8 1.51 4.49
 4 -1 8 -3.14 1.64
 5 -1 8 -2.62 -1.81
 6 -1 8 2.09 -1.73
 7 -1 8 -0.11 0.44
 8 -1 8 -1.40 0.28
 9 -1 8 0.22 0.76
 10 -1 8 -0.53 2.68
 11 -1 8 -0.87 1.77
 -15 0 8 0.06 1.53
 -14 0 8 -1.10 0.82
 -13 0 8 -0.14 1.10
 -12 0 8 -1.83 -0.85
 -11 0 8 0.92 -1.27
 -10 0 8 1.97 -1.77
 -9 0 8 4.02 -1.69
 -8 0 8 3.44 4.05
 -7 0 8 2.46 4.17
 -6 0 8 -1.15 4.24
 -5 0 8 -0.19 -0.34
 -4 0 8 -3.00 -2.76
 -3 0 8 2.65 -1.34
 -2 0 8 5.24 4.64
 -1 0 8 -0.88 9.03
 0 0 8 -5.33 1.60
 1 0 8 -0.12 -2.88
 2 0 8 -0.55 -0.39
 3 0 8 -0.96 -3.39
 4 0 8 6.82 -1.50
 5 0 8 1.36 5.64
 6 0 8 -2.68 0.27
 7 0 8 -0.53 2.22
 8 0 8 -2.73 -1.47
 9 0 8 2.57 -3.09
 10 0 8 1.77 -0.61
 11 0 8 1.52 -0.94
 -15 1 8 0.02 -0.07
 -14 1 8 -0.50 -1.54
 -13 1 8 1.71 0.19
 -12 1 8 -2.45 1.33
 -11 1 8 -1.35 -1.65
 -10 1 8 -1.36 0.02
 -9 1 8 -1.22 1.22
 -8 1 8 -2.58 -0.09
 -7 1 8 -1.21 -2.42
 -6 1 8 -1.34 0.47
 -5 1 8 -3.27 -0.35
 -4 1 8 -0.19 1.69
 -3 1 8 1.42 -2.25
 -2 1 8 -1.21 -1.50
 -1 1 8 1.76 -4.81
 0 1 8 -0.27 -0.75
 1 1 8 -1.46 -1.18
 2 1 8 0.11 1.16
 3 1 8 -3.78 -0.28
 4 1 8 -2.20 -3.21
 5 1 8 -0.21 0.57
 6 1 8 -1.37 -0.76
 7 1 8 -0.93 -2.13
 8 1 8 1.26 -1.99
 9 1 8 -0.38 1.46
 10 1 8 -2.20 -0.95
 11 1 8 1.07 -0.56
 -15 2 8 -0.56 -0.96
 -14 2 8 1.02 0.80
 -13 2 8 -0.90 -0.36
 -12 2 8 0.81 0.06
 -11 2 8 0.56 -0.25
 -10 2 8 -0.25 0.09
 -9 2 8 0.54 -2.70
 -8 2 8 0.66 -1.25
 -7 2 8 0.94 -1.83
 -6 2 8 3.24 1.28
 -5 2 8 1.07 -0.31
 -4 2 8 -0.19 -2.62
 -3 2 8 -2.58 -2.15
 -2 2 8 0.01 0.69
 -1 2 8 -2.53 -1.52
 0 2 8 3.33 0.89
 1 2 8 1.99 1.91
 2 2 8 -0.21 -1.17
 3 2 8 3.45 1.43
 4 2 8 1.94 0.69
 5 2 8 1.97 -1.24
 6 2 8 2.46 -0.53
 7 2 8 2.78 1.64
 8 2 8 1.94 1.34
 9 2 8 0.89 2.82
 10 2 8 -0.64 0.65
 -14 3 8 -0.46 -0.60
 -13 3 8 0.51 -1.01
 -12 3 8 1.69 -1.64
 -11 3 8 2.49 -0.49
 -10 3 8 2.70 2.75
 -9 3 8 -2.57 1.01
 -8 3 8 2.48 0.25
 -7 3 8 -1.17 1.49
 -6 3 8 0.18 -4.20
 -5 3 8 1.86 0.73
 -4 3 8 3.58 4.30
 -3 3 8 1.98 9.25
 -2 3 8 -4.38 2.50
 -1 3 8 -0.89 -2.15
 0 3 8 2.84 -2.51
 1 3 8 -0.22 -0.49
 2 3 8 3.15 2.28
 3 3 8 -1.68 0.65
 4 3 8 -2.58 1.87
 5 3 8 -3.27 1.92
 6 3 8 -2.88 -2.21
 7 3 8 1.23 -0.14
 8 3 8 -3.39 0.19
 9 3 8 1.78 -2.04
 10 3 8 0.29 2.20
 -14 4 8 1.07 1.51
 -13 4 8 -1.90 1.84
 -12 4 8 -2.34 -0.38
 -11 4 8 -0.67 0.40
 -10 4 8 -1.78 -0.03
 -9 4 8 0.14 -0.15
 -8 4 8 0.12 -0.93
 -7 4 8 0.57 2.48
 -6 4 8 -1.19 2.44
 -5 4 8 0.07 0.97
 -4 4 8 -1.64 -4.07
 -3 4 8 2.19 -5.64
 -2 4 8 1.67 -0.74
 -1 4 8 1.30 0.79
 0 4 8 -2.55 3.17
 1 4 8 -1.36 1.24
 2 4 8 -2.50 -0.67
 3 4 8 -0.80 0.40
 4 4 8 3.27 -1.38
 5 4 8 1.79 1.27
 6 4 8 -0.10 1.32
 7 4 8 -0.23 -0.19
 8 4 8 0.36 0.99
 9 4 8 -0.87 -1.62
 -14 5 8 0.14 -0.46
 -13 5 8 1.23 -0.07
 -12 5 8 1.13 0.63
 -11 5 8 0.68 0.58
 -10 5 8 -0.60 0.40
 -9 5 8 -0.41 -2.02
 -8 5 8 2.56 0.59
 -7 5 8 -0.43 1.53
 -6 5 8 -0.74 -1.32
 -5 5 8 -1.05 1.75
 -4 5 8 -5.45 2.27
 -3 5 8 -2.36 -1.62
 -2 5 8 1.73 0.45
 -1 5 8 1.08 0.13
 0 5 8 2.34 -0.62
 1 5 8 2.37 -1.53
 2 5 8 3.18 0.29
 3 5 8 1.48 0.37
 4 5 8 -2.88 0.34
 5 5 8 -0.97 -2.66
 6 5 8 1.53 -0.44
 7 5 8 1.16 0.27
 8 5 8 0.63 0.54
 -13 6 8 -0.53 -0.67
 -12 6 8 0.64 0.26
 -11 6 8 -1.36 -0.27
 -10 6 8 1.20 -1.29
 -9 6 8 0.55 1.39
 -8 6 8 -2.57 -0.17
 -7 6 8 -0.63 -3.74
 -6 6 8 2.14 -1.05
 -5 6 8 3.54 -0.28
 -4 6 8 1.93 2.59
 -3 6 8 -1.27 0.02
 -2 6 8 -1.90 -1.78
 -1 6 8 -1.61 -1.30
 0 6 8 -0.58 0.65
 1 6 8 -3.87 2.48
 2 6 8 -3.72 0.63
 3 6 8 -3.19 0.36
 4 6 8 -0.98 0.41
 5 6 8 -0.33 0.01
 6 6 8 0.52 -1.56
 7 6 8 0.55 1.24
 8 6 8 -1.64 1.77
 -12 7 8 -0.87 -1.17
 -11 7 8 1.17 -0.37
 -10 7 8 0.43 1.32
 -9 7 8 -0.42 1.58
 -8 7 8 -0.35 1.00
 -7 7 8 -1.15 1.05
 -6 7 8 1.18 -0.56
 -5 7 8 -1.43 0.44
 -4 7 8 2.64 -1.94
 -3 7 8 0.89 2.37
 -2 7 8 0.77 2.91
 -1 7 8 -0.23 0.24
 0 7 8 1.11 -1.04
 1 7 8 3.42 0.38
 2 7 8 1.38 -0.15
 3 7 8 2.71 -0.30
 4 7 8 2.65 -0.63
 5 7 8 -0.70 1.63
 6 7 8 -1.30 0.40
 7 7 8 0.55 -0.40
 -11 8 8 -0.46 1.11
 -10 8 8 -0.71 -0.80
 -9 8 8 0.39 -0.60
 -8 8 8 0.04 -0.66
 -7 8 8 0.77 -0.77
 -6 8 8 -0.32 0.90
 -5 8 8 -1.48 1.76
 -4 8 8 -4.36 -1.97
 -3 8 8 3.30 -1.45
 -2 8 8 0.16 -0.67
 -1 8 8 -0.71 0.80
 0 8 8 0.01 -0.90
 1 8 8 -0.14 -0.30
 2 8 8 -1.97 -0.07
 3 8 8 -0.77 -1.96
 4 8 8 -1.21 1.36
 5 8 8 1.07 0.14
 -10 9 8 -1.01 -0.56
 -9 9 8 0.00 -1.96
 -8 9 8 1.05 -0.18
 -7 9 8 0.61 1.43
 -6 9 8 -1.00 0.78
 -5 9 8 0.39 -0.77
 -4 9 8 0.55 1.03
 -3 9 8 -3.21 -2.60
 -2 9 8 1.02 -0.28
 -1 9 8 1.49 -0.17
 0 9 8 -0.24 0.99
 1 9 8 -0.67 1.72
 2 9 8 -0.97 0.70
 3 9 8 0.52 0.04
 4 9 8 0.85 -0.45
 -8 10 8 0.60 -0.92
 -7 10 8 0.80 -1.09
 -6 10 8 1.16 -0.59
 -5 10 8 1.39 -1.26
 -4 10 8 1.52 2.22
 -3 10 8 0.87 2.62
 -2 10 8 -1.03 0.73
 -1 10 8 -1.46 -0.86
 0 10 8 0.60 0.37
 1 10 8 0.08 -1.29
 2 10 8 2.15 -0.12
 -2 -16 9 -0.60 0.12
 -1 -16 9 -0.76 -1.59
 0 -16 9 0.69 -0.52
 1 -16 9 0.52 0.40
 2 -16 9 -0.23 0.44
 -5 -15 9 0.13 1.61
 -4 -15 9 -0.86 -0.58
 -3 -15 9 0.52 -0.54
 -2 -15 9 0.58 0.45
 -1 -15 9 0.66 1.66
 0 -15 9 -0.65 1.59
 1 -15 9 -0.97 -0.87
 2 -15 9 1.55 -0.41
 3 -15 9 0.93 0.07
 4 -15 9 0.16 1.04
 5 -15 9 -1.02 0.41
 -7 -14 9 -1.05 -1.49
 -6 -14 9 0.10 -1.17
 -5 -14 9 -0.42 -2.10
 -4 -14 9 1.20 -0.37
 -3 -14 9 -0.26 0.96
 -2 -14 9 -0.89 -2.05
 -1 -14 9 0.55 -1.21
 0 -14 9 0.00 -0.28
 1 -14 9 -1.60 -0.47
 2 -14 9 -1.27 -1.24
 3 -14 9 -1.52 -0.51
 4 -14 9 0.72 -1.70
 5 -14 9 0.68 -0.03
 -9 -13 9 -0.57 -1.65
 -8 -13 9 1.63 -1.73
 -7 -13 9 0.42 1.76
 -6 -13 9 -1.76 0.87
 -5 -13 9 -0.56 0.73
 -4 -13 9 -1.14 -0.97
 -3 -13 9 0.84 -2.26
 -2 -13 9 0.92 0.97
 -1 -13 9 1.11 0.15
 0 -13 9 0.04 0.76
 1 -13 9 1.97 0.99
 2 -13 9 1.02 1.65
 3 -13 9 0.96 0.24
 4 -13 9 0.13 0.31
 5 -13 9 1.85 0.21
 -10 -12 9 0.02 1.90
 -9 -12 9 0.71 1.22
 -8 -12 9 0.35 1.42
 -7 -12 9 0.10 -0.07
 -6 -12 9 1.83 -1.27
 -5 -12 9 1.21 0.77
 -4 -12 9 0.00 0.80
 -3 -12 9 0.35 1.52
 -2 -12 9 0.92 0.37
 -1 -12 9 -0.11 1.65
 0 -12 9 0.29 -0.32
 1 -12 9 -0.24 -1.39
 2 -12 9 0.65 0.13
 3 -12 9 -1.33 0.99
 4 -12 9 -1.56 -0.51
 5 -12 9 -2.46 0.17
 -11 -11 9 0.07 -0.42
 -10 -11 9 -0.26 -0.79
 -9 -11 9 1.05 -1.32
 -8 -11 9 -2.00 1.12
 -7 -11 9 -1.94 -1.40
 -6 -11 9 -1.94 -0.40
 -5 -11 9 0.19 -1.61
 -4 -11 9 0.66 0.18
 -3 -11 9 -0.57 -0.39
 -2 -11 9 -1.31 0.80
 -1 -11 9 -2.47 -0.32
 0 -11 9 -3.78 0.79
 1 -11 9 -2.25 -0.71
 2 -11 9 -0.96 -1.16
 3 -11 9 0.75 -0.05
 4 -11 9 1.23 2.06
 5 -11 9 1.13 0.82
 -12 -10 9 -0.71 -0.90
 -11 -10 9 0.19 0.55
 -10 -10 9 0.20 -0.54
 -9 -10 9 -1.31 1.50
 -8 -10 9 1.34 -0.73
 -7 -10 9 1.49 0.64
 -6 -10 9 1.62 1.58
 -5 -10 9 0.22 -0.24
 -4 -10 9 0.26 1.23
 -3 -10 9 -0.09 -0.07
 -2 -10 9 0.71 -0.03
 -1 -10 9 0.68 -0.50
 0 -10 9 4.81 -3.09
 1 -10 9 2.66 1.74
 2 -10 9 0.93 -1.20
 3 -10 9 3.19 -1.23
 4 -10 9 -0.38 0.04
 5 -10 9 -3.14 -2.70
 -13 -9 9 -1.81 0.36
 -12 -9 9 0.16 0.26
 -11 -9 9 -0.53 -0.34
 -10 -9 9 -0.21 0.24
 -9 -9 9 1.76 -1.51
 -8 -9 9 -0.33 -0.09
 -7 -9 9 -0.45 -0.64
 -6 -9 9 -0.87 -1.85
 -5 -9 9 -1.55 -0.60
 -4 -9 9 0.86 -1.84
 -3 -9 9 -0.90 -1.78
 -2 -9 9 1.88 -1.60
 -1 -9 9 -1.32 0.05
 0 -9 9 -2.18 -1.25
 1 -9 9 1.07 1.03
 2 -9 9 -5.04 1.79
 3 -9 9 -2.98 -2.52
 4 -9 9 0.81 0.95
 5 -9 9 0.15 1.86
 6 -9 9 -0.69 -0.19
 -13 -8 9 1.11 -1.80
 -12 -8 9 2.32 -0.85
 -11 -8 9 1.23 2.15
 -10 -8 9 -1.19 -0.10
 -9 -8 9 -2.44 -0.94
 -8 -8 9 1.84 -1.78
 -7 -8 9 2.06 2.32
 -6 -8 9 -0.41 3.10
 -5 -8 9 2.83 2.22
 -4 -8 9 -2.72 4.28
 -3 -8 9 -1.15 0.91
 -2 -8 9 0.90 1.47
 -1 -8 9 0.79 3.08
 0 -8 9 1.96 0.71
 1 -8 9 1.67 2.31
 2 -8 9 1.14 1.02
 3 -8 9 2.51 1.92
 4 -8 9 0.22 -0.85
 5 -8 9 0.93 -0.19
 6 -8 9 0.10 0.43
 7 -8 9 -0.76 -0.33
 -14 -7 9 1.76 1.14
 -13 -7 9 -2.19 1.24
 -12 -7 9 -0.60 -0.36
 -11 -7 9 0.63 1.02
 -10 -7 9 -0.49 0.12
 -9 -7 9 3.94 2.20
 -8 -7 9 -0.63 4.42
 -7 -7 9 -3.92 0.18
 -6 -7 9 -1.11 -5.31
 -5 -7 9 -0.20 -4.05
 -4 -7 9 4.03 -2.46
 -3 -7 9 2.17 0.31
 -2 -7 9 -1.93 1.71
 -1 -7 9 -2.48 -1.10
 0 -7 9 -6.52 -0.18
 1 -7 9 -3.40 -5.21
 2 -7 9 0.42 -2.51
 3 -7 9 -0.76 -3.28
 4 -7 9 0.37 2.17
 5 -7 9 -0.99 1.46
 6 -7 9 -2.88 0.90
 7 -7 9 -1.53 -0.94
 8 -7 9 -0.98 -1.69
 9 -7 9 0.02 0.59
 10 -7 9 -0.29 -0.44
 11 -7 9 -0.42 -0.02
 -14 -6 9 0.51 -0.45
 -13 -6 9 -0.56 0.72
 -12 -6 9 0.19 -0.82
 -11 -6 9 -1.67 -0.65
 -10 -6 9 0.40 -1.98
 -9 -6 9 0.41 -0.98
 -8 -6 9 -2.04 0.16
 -7 -6 9 -0.81 0.40
 -6 -6 9 -3.90 2.49
 -5 -6 9 -1.10 -0.67
 -4 -6 9 -2.47 -0.04
 -3 -6 9 -2.80 -1.92
 -2 -6 9 3.34 -3.90
 -1 -6 9 0.99 2.73
 0 -6 9 1.24 -1.63
 1 -6 9 3.05 -3.52
 2 -6 9 2.09 0.72
 3 -6 9 1.93 0.96
 4 -6 9 2.53 -1.36
 5 -6 9 1.30 -2.01
 6 -6 9 4.77 1.18
 7 -6 9 -0.70 1.49
 8 -6 9 0.40 0.19
 9 -6 9 0.74 -1.62
 10 -6 9 1.37 -0.20
 11 -6 9 0.79 0.62
 -14 -5 9 0.07 0.50
 -13 -5 9 -1.18 -1.00
 -12 -5 9 0.78 -2.57
 -11 -5 9 3.90 0.79
 -10 -5 9 -1.29 2.39
 -9 -5 9 -0.51 0.75
 -8 -5 9 -0.19 0.04
 -7 -5 9 3.86 -3.66
 -6 -5 9 6.94 2.19
 -5 -5 9 -0.13 2.65
 -4 -5 9 1.09 -0.65
 -3 -5 9 6.03 2.76
 -2 -5 9 -5.19 7.27
 -1 -5 9 -2.38 -7.43
 0 -5 9 5.93 -1.52
 1 -5 9 0.98 8.85
 2 -5 9 -1.65 2.27
 3 -5 9 -1.99 0.49
 4 -5 9 -2.66 1.62
 5 -5 9 -2.03 1.57
 6 -5 9 -2.56 -3.74
 7 -5 9 3.54 0.40
 8 -5 9 -0.52 1.12
 9 -5 9 -1.52 1.45
 10 -5 9 -1.38 0.07
 11 -5 9 -1.63 -0.93
 -15 -4 9 -1.01 -0.02
 -14 -4 9 1.84 -2.26
 -13 -4 9 2.25 2.19
 -12 -4 9 1.51 -0.10
 -11 -4 9 1.25 5.89
 -10 -4 9 -4.93 1.76
 -9 -4 9 -0.78 -4.41
 -8 -4 9 -0.43 0.29
 -7 -4 9 -6.66 -2.27
 -6 -4 9 -0.53 -6.19
 -5 -4 9 2.59 1.26
 -4 -4 9 -2.74 3.71
 -3 -4 9 -7.15 -3.37
 -2 -4 9 -0.48 -6.20
 -1 -4 9 1.93 -1.35
 0 -4 9 0.70 2.44
 1 -4 9 -1.30 -3.92
 2 -4 9 -1.03 -1.31
 3 -4 9 -0.19 -1.35
 4 -4 9 2.75 0.68
 5 -4 9 -3.95 0.33
 6 -4 9 0.49 -0.74
 7 -4 9 -2.58 0.21
 8 -4 9 -0.87 -1.17
 9 -4 9 2.31 -0.23
 10 -4 9 -0.62 0.06
 11 -4 9 2.23 -0.02
 -15 -3 9 0.91 -0.23
 -14 -3 9 -0.74 1.65
 -13 -3 9 -0.64 0.75
 -12 -3 9 -3.71 -0.03
 -11 -3 9 1.21 -4.40
 -10 -3 9 1.08 0.46
 -9 -3 9 -0.14 0.69
 -8 -3 9 1.53 2.14
 -7 -3 9 1.10 1.65
 -6 -3 9 0.19 -0.06
 -5 -3 9 2.84 -3.89
 -4 -3 9 4.88 1.32
 -3 -3 9 -0.65 3.03
 -2 -3 9 5.05 1.19
 -1 -3 9 -2.28 6.13
 0 -3 9 -5.18 -4.62
 1 -3 9 2.51 -3.20
 2 -3 9 4.69 -0.09
 3 -3 9 3.14 1.07
 4 -3 9 -0.32 0.12
 5 -3 9 3.17 0.81
 6 -3 9 -1.46 -0.55
 7 -3 9 2.05 -1.32
 8 -3 9 0.88 -2.63
 9 -3 9 1.28 -1.42
 10 -3 9 1.02 1.04
 11 -3 9 -1.61 -0.87
 -15 -2 9 -0.75 0.44
 -14 -2 9 1.60 -1.14
 -13 -2 9 -0.14 2.18
 -12 -2 9 -2.61 -0.05
 -11 -2 9 -0.63 -1.93
 -10 -2 9 0.79 -0.34
 -9 -2 9 2.58 0.10
 -8 -2 9 0.78 -0.30
 -7 -2 9 2.43 2.15
 -6 -2 9 -0.68 7.78
 -5 -2 9 -10.31 5.89
 -4 -2 9 -5.90 -7.59
 -3 -2 9 5.90 -5.28
 -2 -2 9 0.15 -0.94
 -1 -2 9 4.18 -1.43
 0 -2 9 4.11 5.05
 1 -2 9 -1.26 6.35
 2 -2 9 -5.10 1.80
 3 -2 9 -3.43 -0.51
 4 -2 9 0.50 -1.16
 5 -2 9 0.50 0.30
 6 -2 9 1.01 1.93
 7 -2 9 -0.54 0.85
 8 -2 9 -1.58 3.48
 9 -2 9 -1.70 -0.18
 10 -2 9 0.59 -0.28
 11 -2 9 0.75 1.13
 -15 -1 9 0.09 -0.85
 -14 -1 9 -0.04 -0.65
 -13 -1 9 2.58 -0.18
 -12 -1 9 0.72 1.41
 -11 -1 9 0.77 -0.73
 -10 -1 9 1.34 2.32
 -9 -1 9 -5.44 -1.12
 -8 -1 9 -2.56 -2.54
 -7 -1 9 -1.09 -5.18
 -6 -1 9 1.24 -4.88
 -5 -1 9 3.61 -5.64
 -4 -1 9 3.09 -0.01
 -3 -1 9 -2.25 3.74
 -2 -1 9 -3.68 0.56
 -1 -1 9 -1.36 -4.10
 0 -1 9 3.47 -3.31
 1 -1 9 1.49 0.81
 2 -1 9 -1.04 -1.73
 3 -1 9 3.06 -1.30
 4 -1 9 -1.58 0.80
 5 -1 9 -1.29 -2.17
 6 -1 9 -0.31 -3.76
 7 -1 9 4.89 -0.29
 8 -1 9 1.45 2.44
 9 -1 9 -0.08 0.20
 10 -1 9 -0.10 -0.05
 11 -1 9 -0.53 -1.00
 -15 0 9 0.60 0.59
 -14 0 9 -0.52 1.05
 -13 0 9 -1.18 -0.77
 -12 0 9 0.19 0.59
 -11 0 9 -1.12 0.47
 -10 0 9 0.92 -0.03
 -9 0 9 1.10 3.05
 -8 0 9 2.41 -0.24
 -7 0 9 1.16 3.46
 -6 0 9 -0.64 -0.21
 -5 0 9 4.55 0.97
 -4 0 9 5.00 7.69
 -3 0 9 0.39 2.44
 -2 0 9 1.05 0.40
 -1 0 9 1.68 1.42
 0 0 9 -3.39 3.62
 1 0 9 -2.04 -2.20
 2 0 9 1.13 -0.33
 3 0 9 1.61 0.26
 4 0 9 0.34 3.58
 5 0 9 -0.03 2.24
 6 0 9 -1.63 4.48
 7 0 9 -5.04 -2.04
 8 0 9 -0.45 -1.55
 9 0 9 -2.23 -1.25
 10 0 9 1.08 -1.44
 -15 1 9 -1.04 -0.03
 -14 1 9 0.41 0.95
 -13 1 9 -1.52 0.37
 -12 1 9 0.08 -0.02
 -11 1 9 -0.76 -0.22
 -10 1 9 -0.24 -0.61
 -9 1 9 -0.62 -1.57
 -8 1 9 0.46 1.21
 -7 1 9 -2.91 3.33
 -6 1 9 -4.00 0.45
 -5 1 9 -3.80 -2.81
 -4 1 9 -2.82 -5.31
 -3 1 9 -4.60 -1.97
 -2 1 9 1.06 -1.09
 -1 1 9 -2.57 3.97
 0 1 9 -1.35 0.47
 1 1 9 -2.94 0.69
 2 1 9 0.22 -3.15
 3 1 9 1.79 3.09
 4 1 9 -2.62 -0.53
 5 1 9 0.67 -3.48
 6 1 9 -0.27 -0.78
 7 1 9 1.08 -1.09
 8 1 9 1.33 0.29
 9 1 9 0.33 0.42
 10 1 9 -0.16 -0.11
 -14 2 9 -1.00 -1.12
 -13 2 9 0.03 -1.13
 -12 2 9 0.24 -1.10
 -11 2 9 -2.60 -0.70
 -10 2 9 0.19 -3.42
 -9 2 9 -0.09 0.18
 -8 2 9 0.33 -3.58
 -7 2 9 3.37 -0.19
 -6 2 9 -0.93 -1.00
 -5 2 9 -0.67 0.26
 -4 2 9 0.77 -0.70
 -3 2 9 6.16 -0.02
 -2 2 9 1.61 -1.52
 -1 2 9 3.44 -2.49
 0 2 9 1.75 -1.75
 1 2 9 0.74 -2.32
 2 2 9 1.12 0.08
 3 2 9 -1.73 -3.51
 4 2 9 -0.03 -2.61
 5 2 9 2.83 -1.44
 6 2 9 3.07 2.47
 7 2 9 -0.55 -0.13
 8 2 9 1.30 0.34
 9 2 9 0.30 0.76
 10 2 9 0.75 -0.65
 -14 3 9 0.70 -0.57
 -13 3 9 2.17 -0.21
 -12 3 9 1.68 1.90
 -11 3 9 2.43 2.19
 -10 3 9 0.22 1.68
 -9 3 9 1.38 1.32
 -8 3 9 -2.87 -0.23
 -7 3 9 1.71 -5.18
 -6 3 9 6.26 1.39
 -5 3 9 5.09 2.27
 -4 3 9 0.36 3.06
 -3 3 9 -3.49 -0.41
 -2 3 9 -1.27 1.31
 -1 3 9 -0.90 0.73
 0 3 9 0.58 -0.25
 1 3 9 5.08 4.25
 2 3 9 -0.26 3.84
 3 3 9 0.76 4.85
 4 3 9 0.22 2.94
 5 3 9 -2.40 0.61
 6 3 9 -1.19 -0.12
 7 3 9 -1.77 -1.00
 8 3 9 2.22 -0.93
 9 3 9 -0.31 0.86
 -14 4 9 -0.76 0.38
 -13 4 9 -0.79 -0.44
 -12 4 9 0.48 -0.38
 -11 4 9 -0.99 0.48
 -10 4 9 -0.80 0.11
 -9 4 9 0.33 1.02
 -8 4 9 -0.82 3.98
 -7 4 9 -2.89 1.46
 -6 4 9 -2.51 -0.65
 -5 4 9 -3.67 -0.18
 -4 4 9 -1.49 0.19
 -3 4 9 -0.36 1.71
 -2 4 9 -0.09 0.74
 -1 4 9 -3.64 1.59
 0 4 9 -4.02 -3.04
 1 4 9 -1.97 -6.08
 2 4 9 1.23 -2.95
 3 4 9 0.92 -2.75
 4 4 9 -0.98 0.17
 5 4 9 -0.65 0.17
 6 4 9 -0.35 -0.40
 7 4 9 -0.64 -0.45
 8 4 9 0.16 -2.28
 -13 5 9 -0.86 0.48
 -12 5 9 -1.67 -1.25
 -11 5 9 0.00 -2.12
 -10 5 9 0.53 -1.78
 -9 5 9 0.79 -2.16
 -8 5 9 1.18 -1.66
 -7 5 9 1.11 -0.36
 -6 5 9 -0.49 2.17
 -5 5 9 -1.40 -2.23
 -4 5 9 3.62 -3.37
 -3 5 9 2.33 0.12
 -2 5 9 0.43 -1.10
 -1 5 9 2.64 -0.48
 0 5 9 2.26 1.00
 1 5 9 2.23 3.90
 2 5 9 -1.32 3.61
 3 5 9 -1.08 0.62
 4 5 9 1.80 0.47
 5 5 9 -0.11 0.21
 6 5 9 2.05 -1.84
 7 5 9 1.97 2.29
 -12 6 9 -0.61 0.60
 -11 6 9 1.24 0.61
 -10 6 9 -0.36 2.15
 -9 6 9 -1.05 0.60
 -8 6 9 0.73 -0.56
 -7 6 9 1.25 0.38
 -6 6 9 1.92 -0.08
 -5 6 9 -0.32 0.87
 -4 6 9 0.54 -0.35
 -3 6 9 -0.67 1.92
 -2 6 9 -0.39 -0.36
 -1 6 9 2.59 0.90
 0 6 9 -0.48 1.77
 1 6 9 1.45 0.80
 2 6 9 -0.81 0.56
 3 6 9 -0.08 -0.21
 4 6 9 -0.99 -0.61
 5 6 9 -0.35 -0.65
 6 6 9 -0.85 1.01
 7 6 9 0.89 -0.04
 -11 7 9 0.35 1.22
 -10 7 9 -0.45 0.11
 -9 7 9 0.42 0.14
 -8 7 9 -1.02 0.82
 -7 7 9 -0.69 -0.17
 -6 7 9 -2.06 -0.59
 -5 7 9 2.00 -0.08
 -4 7 9 -1.61 3.10
 -3 7 9 -1.37 0.05
 -2 7 9 -1.96 -1.69
 -1 7 9 -2.45 -1.62
 0 7 9 -0.51 -1.30
 1 7 9 -2.20 -3.52
 2 7 9 0.77 -0.13
 3 7 9 -1.45 -1.10
 4 7 9 0.05 0.48
 5 7 9 0.14 0.24
 -10 8 9 -0.10 -0.45
 -9 8 9 -0.30 -0.49
 -8 8 9 -0.31 0.13
 -7 8 9 -0.56 0.16
 -6 8 9 0.38 0.06
 -5 8 9 0.07 -1.08
 -4 8 9 2.05 0.27
 -3 8 9 -1.78 -0.35
 -2 8 9 0.89 0.64
 -1 8 9 2.54 0.68
 0 8 9 -0.65 1.57
 1 8 9 -0.85 1.06
 2 8 9 2.03 -1.51
 3 8 9 1.84 2.52
 4 8 9 -0.26 0.00
 -9 9 9 0.45 0.70
 -8 9 9 0.41 -0.33
 -7 9 9 0.41 -1.05
 -6 9 9 0.48 -0.46
 -5 9 9 -0.62 0.23
 -4 9 9 -0.97 -0.55
 -3 9 9 1.47 0.27
 -2 9 9 0.61 -1.48
 -1 9 9 0.19 -0.20
 0 9 9 2.27 1.64
 1 9 9 -0.30 0.88
 2 9 9 -0.12 -0.42
 -6 10 9 0.90 0.24
 -5 10 9 -0.13 1.69
 -4 10 9 0.54 -1.98
 -3 10 9 0.67 0.53
 -2 10 9 -0.94 1.51
 -1 10 9 -0.74 -0.41
 -1 -16 10 -0.04 0.35
 0 -16 10 0.52 0.20
 1 -16 10 -0.67 0.14
 -5 -15 10 -0.92 -1.06
 -4 -15 10 0.22 -0.20
 -3 -15 10 0.85 0.36
 -2 -15 10 -0.28 0.15
 -1 -15 10 0.19 0.35
 0 -15 10 -1.27 -0.58
 1 -15 10 1.03 -0.71
 2 -15 10 0.12 1.73
 3 -15 10 -1.75 1.47
 4 -15 10 -0.59 -0.60
 -7 -14 10 -0.91 0.93
 -6 -14 10 -0.41 0.80
 -5 -14 10 0.00 1.46
 -4 -14 10 -1.16 0.50
 -3 -14 10 -1.58 -1.62
 -2 -14 10 0.09 0.36
 -1 -14 10 -1.12 -0.55
 0 -14 10 0.32 -0.63
 1 -14 10 0.30 0.48
 2 -14 10 -0.16 -0.31
 3 -14 10 0.66 -1.92
 4 -14 10 0.18 -1.07
 5 -14 10 2.07 -0.46
 -9 -13 10 2.40 -0.11
 -8 -13 10 0.91 0.27
 -7 -13 10 0.54 -0.04
 -6 -13 10 0.27 -1.75
 -5 -13 10 0.87 -0.61
 -4 -13 10 -0.25 -0.89
 -3 -13 10 2.10 -0.90
 -2 -13 10 2.46 -0.26
 -1 -13 10 0.67 0.11
 0 -13 10 1.58 -0.82
 1 -13 10 0.52 0.11
 2 -13 10 -1.10 -0.84
 3 -13 10 -0.01 -0.35
 4 -13 10 1.86 0.48
 5 -13 10 -1.42 1.63
 -10 -12 10 1.12 0.11
 -9 -12 10 -1.02 0.83
 -8 -12 10 -1.54 -0.30
 -7 -12 10 0.48 -0.66
 -6 -12 10 -0.84 2.86
 -5 -12 10 -1.80 -0.20
 -4 -12 10 0.61 0.87
 -3 -12 10 -1.98 1.44
 -2 -12 10 -1.43 0.20
 -1 -12 10 0.44 1.65
 0 -12 10 -1.56 3.26
 1 -12 10 -0.74 1.90
 2 -12 10 0.44 2.77
 3 -12 10 -0.31 1.58
 4 -12 10 -1.32 1.64
 5 -12 10 0.60 -0.48
 -11 -11 10 0.67 0.80
 -10 -11 10 -1.65 1.63
 -9 -11 10 -1.83 0.10
 -8 -11 10 0.54 -0.17
 -7 -11 10 -0.25 -0.32
 -6 -11 10 1.55 -1.22
 -5 -11 10 0.42 -1.04
 -4 -11 10 1.42 -1.62
 -3 -11 10 1.67 0.40
 -2 -11 10 -0.18 0.25
 -1 -11 10 -1.89 0.04
 0 -11 10 -1.68 -4.49
 1 -11 10 -0.24 -3.65
 2 -11 10 -0.47 -4.63
 3 -11 10 1.73 -2.29
 4 -11 10 -0.56 -1.59
 5 -11 10 -2.00 -1.34
 -12 -10 10 0.99 0.92
 -11 -10 10 0.42 -0.71
 -10 -10 10 0.94 -0.78
 -9 -10 10 2.17 -0.94
 -8 -10 10 -0.57 0.10
 -7 -10 10 -0.95 -0.15
 -6 -10 10 -1.49 -1.40
 -5 -10 10 -0.29 -0.01
 -4 -10 10 0.42 0.79
 -3 -10 10 -2.21 0.36
 -2 -10 10 -0.25 -1.71
 -1 -10 10 0.85 -1.56
 0 -10 10 0.84 1.85
 1 -10 10 0.89 0.60
 2 -10 10 1.13 2.88
 3 -10 10 -0.79 2.30
 4 -10 10 0.37 2.35
 5 -10 10 1.73 1.69
 6 -10 10 -0.44 1.46
 -12 -9 10 0.53 0.53
 -11 -9 10 -2.53 0.96
 -10 -9 10 -0.55 -2.24
 -9 -9 10 -0.02 0.43
 -8 -9 10 1.01 1.31
 -7 -9 10 0.28 1.04
 -6 -9 10 1.30 1.94
 -5 -9 10 1.57 2.47
 -4 -9 10 -1.97 0.48
 -3 -9 10 2.34 0.25
 -2 -9 10 0.70 1.45
 -1 -9 10 1.93 1.98
 0 -9 10 0.37 0.93
 1 -9 10 0.10 -0.06
 2 -9 10 1.72 0.83
 3 -9 10 -1.21 0.30
 4 -9 10 -0.90 -3.71
 5 -9 10 1.11 -2.65
 6 -9 10 0.99 0.63
 7 -9 10 -0.64 -0.38
 -13 -8 10 1.06 -0.06
 -12 -8 10 0.20 0.23
 -11 -8 10 1.22 -0.50
 -10 -8 10 -0.18 0.29
 -9 -8 10 2.21 -0.59
 -8 -8 10 -0.35 -0.32
 -7 -8 10 0.16 -2.47
 -6 -8 10 1.72 -2.24
 -5 -8 10 -2.77 -0.15
 -4 -8 10 -1.68 -3.18
 -3 -8 10 0.28 -3.05
 -2 -8 10 -1.79 -0.65
 -1 -8 10 0.11 -4.09
 0 -8 10 1.49 3.50
 1 -8 10 -5.11 0.50
 2 -8 10 -1.05 -2.95
 3 -8 10 -1.21 -0.96
 4 -8 10 0.16 0.53
 5 -8 10 -0.06 1.01
 6 -8 10 -0.09 -0.14
 7 -8 10 0.66 0.23
 8 -8 10 -0.24 0.94
 9 -8 10 -1.13 0.34
 -13 -7 10 1.58 0.23
 -12 -7 10 0.43 2.12
 -11 -7 10 -1.34 -1.24
 -10 -7 10 3.76 1.20
 -9 -7 10 -2.22 3.81
 -8 -7 10 -3.22 0.78
 -7 -7 10 -0.53 0.01
 -6 -7 10 0.46 2.15
 -5 -7 10 2.45 3.51
 -4 -7 10 -0.27 1.66
 -3 -7 10 1.64 2.86
 -2 -7 10 1.25 3.80
 -1 -7 10 -4.61 2.94
 0 -7 10 -1.04 -4.57
 1 -7 10 1.47 -0.68
 2 -7 10 0.58 -2.25
 3 -7 10 4.24 2.62
 4 -7 10 0.62 0.80
 5 -7 10 -1.00 0.74
 6 -7 10 -0.24 -0.39
 7 -7 10 -0.04 -0.27
 8 -7 10 0.49 0.48
 9 -7 10 0.43 -0.69
 10 -7 10 -0.14 -0.61
 -14 -6 10 -3.46 0.11
 -13 -6 10 -0.33 -1.60
 -12 -6 10 -2.10 0.04
 -11 -6 10 -0.95 -3.07
 -10 -6 10 2.03 -1.23
 -9 -6 10 0.38 1.16
 -8 -6 10 2.15 0.00
 -7 -6 10 -0.81 1.77
 -6 -6 10 -2.53 -1.88
 -5 -6 10 -1.78 -5.01
 -4 -6 10 1.34 -1.36
 -3 -6 10 1.94 -0.55
 -2 -6 10 -2.83 1.48
 -1 -6 10 1.02 -2.91
 0 -6 10 0.53 1.90
 1 -6 10 -1.75 0.92
 2 -6 10 0.86 -0.92
 3 -6 10 0.12 -2.62
 4 -6 10 -0.36 0.72
 5 -6 10 1.29 1.08
 6 -6 10 -2.27 0.19
 7 -6 10 -0.65 -1.04
 8 -6 10 -0.34 -1.67
 9 -6 10 -0.86 0.31
 10 -6 10 0.30 0.26
 11 -6 10 -1.18 0.43
 -14 -5 10 0.10 -0.27
 -13 -5 10 1.45 -2.55
 -12 -5 10 3.21 1.69
 -11 -5 10 -1.20 1.72
 -10 -5 10 0.39 -0.05
 -9 -5 10 -1.13 -0.94
 -8 -5 10 -0.65 -1.80
 -7 -5 10 -0.91 -0.10
 -6 -5 10 0.11 -0.84
 -5 -5 10 -0.67 2.00
 -4 -5 10 0.12 -2.02
 -3 -5 10 -1.65 -0.75
 -2 -5 10 1.64 -3.10
 -1 -5 10 -0.46 0.88
 0 -5 10 0.32 -1.81
 1 -5 10 1.50 -1.14
 2 -5 10 -1.22 -0.22
 3 -5 10 -0.30 3.59
 4 -5 10 -1.17 -1.25
 5 -5 10 1.19 -1.55
 6 -5 10 0.81 3.17
 7 -5 10 -0.15 -1.01
 8 -5 10 1.38 3.31
 9 -5 10 -0.30 0.24
 10 -5 10 -0.77 -0.81
 11 -5 10 1.14 -1.20
 -14 -4 10 1.23 0.61
 -13 -4 10 0.39 -0.15
 -12 -4 10 1.99 0.48
 -11 -4 10 1.34 1.58
 -10 -4 10 -0.88 1.63
 -9 -4 10 -1.76 2.53
 -8 -4 10 -0.70 -0.55
 -7 -4 10 3.09 -0.44
 -6 -4 10 2.56 2.15
 -5 -4 10 0.83 2.93
 -4 -4 10 -2.22 2.23
 -3 -4 10 -1.72 2.71
 -2 -4 10 -1.52 -0.42
 -1 -4 10 2.15 -1.03
 0 -4 10 0.09 1.32
 1 -4 10 0.22 0.31
 2 -4 10 2.42 1.85
 3 -4 10 0.26 -0.89
 4 -4 10 -2.53 0.42
 5 -4 10 0.03 -1.80
 6 -4 10 0.73 -1.44
 7 -4 10 -0.87 1.17
 8 -4 10 -1.39 -3.24
 9 -4 10 -0.33 -1.10
 10 -4 10 0.37 1.31
 11 -4 10 -2.21 -0.47
 -15 -3 10 -0.74 1.64
 -14 -3 10 -0.23 -0.02
 -13 -3 10 -0.93 0.08
 -12 -3 10 -0.46 1.17
 -11 -3 10 -2.35 0.86
 -10 -3 10 -0.87 -0.10
 -9 -3 10 0.40 -1.03
 -8 -3 10 -1.70 -1.33
 -7 -3 10 -1.74 -2.91
 -6 -3 10 1.04 -3.08
 -5 -3 10 2.04 -0.92
 -4 -3 10 2.48 -0.21
 -3 -3 10 2.80 0.62
 -2 -3 10 -4.35 0.29
 -1 -3 10 -2.97 -2.44
 0 -3 10 0.19 -3.92
 1 -3 10 1.83 -1.32
 2 -3 10 -0.57 -1.38
 3 -3 10 -0.01 -0.26
 4 -3 10 3.62 1.76
 5 -3 10 -3.60 1.14
 6 -3 10 -0.21 -1.43
 7 -3 10 -0.51 -1.85
 8 -3 10 1.13 0.01
 9 -3 10 1.97 0.70
 10 -3 10 0.65 -0.50
 11 -3 10 1.60 1.04
 -15 -2 10 0.31 -1.53
 -14 -2 10 0.10 0.64
 -13 -2 10 -1.29 0.41
 -12 -2 10 -0.28 -3.03
 -11 -2 10 0.44 -2.00
 -10 -2 10 0.71 -3.54
 -9 -2 10 2.53 -2.48
 -8 -2 10 4.09 4.45
 -7 -2 10 -1.86 6.88
 -6 -2 10 -7.66 1.22
 -5 -2 10 -3.31 -4.87
 -4 -2 10 -0.91 -1.77
 -3 -2 10 -2.72 -1.27
 -2 -2 10 4.25 -0.59
 -1 -2 10 3.41 3.28
 0 -2 10 -2.09 3.19
 1 -2 10 -1.02 -1.69
 2 -2 10 1.76 0.48
 3 -2 10 1.84 -0.07
 4 -2 10 -0.73 -0.93
 5 -2 10 2.97 1.00
 6 -2 10 -0.57 1.25
 7 -2 10 0.81 0.86
 8 -2 10 0.80 -0.07
 9 -2 10 -1.81 -0.34
 10 -2 10 -0.33 -2.48
 -15 -1 10 0.74 0.17
 -14 -1 10 0.82 -1.10
 -13 -1 10 2.16 -0.51
 -12 -1 10 1.53 2.70
 -11 -1 10 -0.24 3.13
 -10 -1 10 -0.72 1.73
 -9 -1 10 -0.55 2.60
 -8 -1 10 -0.90 -3.25
 -7 -1 10 2.56 -1.91
 -6 -1 10 1.77 -0.04
 -5 -1 10 2.86 0.02
 -4 -1 10 2.92 3.30
 -3 -1 10 -0.76 -2.13
 -2 -1 10 2.06 -5.31
 -1 -1 10 3.87 -0.86
 0 -1 10 0.96 3.65
 1 -1 10 -2.14 0.13
 2 -1 10 0.52 1.74
 3 -1 10 -5.99 1.27
 4 -1 10 -0.46 -1.96
 5 -1 10 -0.38 -1.85
 6 -1 10 3.82 0.70
 7 -1 10 -1.86 1.84
 8 -1 10 -0.32 -0.64
 9 -1 10 0.70 2.92
 10 -1 10 -2.30 1.63
 -14 0 10 1.30 1.53
 -13 0 10 -1.46 1.83
 -12 0 10 -0.15 -1.19
 -11 0 10 0.09 0.64
 -10 0 10 -1.65 -1.29
 -9 0 10 -0.11 -1.85
 -8 0 10 -2.09 -0.39
 -7 0 10 1.76 -2.78
 -6 0 10 3.92 1.87
 -5 0 10 -0.51 3.77
 -4 0 10 -3.50 -0.58
 -3 0 10 -1.97 2.93
 -2 0 10 -2.10 2.69
 -1 0 10 -1.64 1.88
 0 0 10 0.96 -2.68
 1 0 10 2.63 1.92
 2 0 10 0.39 -0.38
 3 0 10 3.54 0.66
 4 0 10 0.31 0.94
 5 0 10 -0.89 -0.43
 6 0 10 -0.68 -1.47
 7 0 10 0.22 1.23
 8 0 10 -0.38 -1.19
 9 0 10 1.47 -0.41
 10 0 10 -0.25 -0.03
 -14 1 10 -1.36 -1.01
 -13 1 10 -0.72 -0.05
 -12 1 10 -1.58 -1.60
 -11 1 10 1.01 -0.50
 -10 1 10 0.37 1.48
 -9 1 10 1.35 3.38
 -8 1 10 -2.28 3.93
 -7 1 10 -4.16 -0.03
 -6 1 10 -2.75 -2.30
 -5 1 10 -1.33 -1.36
 -4 1 10 -0.06 -1.16
 -3 1 10 5.35 -2.22
 -2 1 10 -0.25 3.04
 -1 1 10 -6.01 -2.10
 0 1 10 -2.35 -4.44
 1 1 10 1.17 -2.57
 2 1 10 -0.87 0.80
 3 1 10 -1.67 -2.16
 4 1 10 1.35 1.50
 5 1 10 -3.15 3.17
 6 1 10 -0.78 -1.76
 7 1 10 -0.33 -0.68
 8 1 10 -1.31 -1.83
 9 1 10 0.68 -0.94
 -14 2 10 -0.43 -0.08
 -13 2 10 1.11 -0.05
 -12 2 10 -1.70 0.65
 -11 2 10 1.13 -3.21
 -10 2 10 1.11 -0.16
 -9 2 10 -0.85 -3.79
 -8 2 10 2.02 -1.81
 -7 2 10 -0.17 -0.70
 -6 2 10 0.52 -1.12
 -5 2 10 2.19 -2.10
 -4 2 10 0.08 -2.15
 -3 2 10 -0.66 -3.65
 -2 2 10 3.19 -0.87
 -1 2 10 4.92 2.00
 0 2 10 -0.71 2.45
 1 2 10 0.55 -0.31
 2 2 10 -0.46 -0.49
 3 2 10 1.05 -1.54
 4 2 10 3.58 -1.36
 5 2 10 1.38 0.82
 6 2 10 -0.35 -1.18
 7 2 10 2.26 1.74
 8 2 10 -2.17 2.06
 9 2 10 -0.70 -3.77
 -14 3 10 2.25 -0.66
 -13 3 10 0.37 0.55
 -12 3 10 1.76 -0.78
 -11 3 10 0.55 1.51
 -10 3 10 0.18 1.35
 -9 3 10 -0.30 1.83
 -8 3 10 1.13 0.48
 -7 3 10 1.71 1.25
 -6 3 10 2.12 0.77
 -5 3 10 0.11 3.59
 -4 3 10 0.62 5.38
 -3 3 10 -2.54 5.05
 -2 3 10 -1.15 -1.40
 -1 3 10 0.03 0.47
 0 3 10 0.61 2.22
 1 3 10 -0.69 -1.19
 2 3 10 2.24 3.20
 3 3 10 -3.45 1.23
 4 3 10 -1.82 -1.17
 5 3 10 0.05 1.01
 6 3 10 -0.40 -1.00
 7 3 10 1.87 0.16
 8 3 10 -0.45 0.43
 -13 4 10 -0.85 0.23
 -12 4 10 -1.37 1.08
 -11 4 10 -0.91 -0.05
 -10 4 10 -0.66 0.84
 -9 4 10 -2.58 -1.23
 -8 4 10 -0.06 -1.94
 -7 4 10 -1.96 0.82
 -6 4 10 -2.43 -1.34
 -5 4 10 0.36 -1.33
 -4 4 10 -0.57 -2.94
 -3 4 10 0.42 -1.16
 -2 4 10 -3.54 -0.04
 -1 4 10 -0.06 -3.47
 0 4 10 0.27 -0.42
 1 4 10 -1.47 0.36
 2 4 10 0.85 -2.51
 3 4 10 2.09 2.03
 4 4 10 -0.31 0.42
 5 4 10 0.51 -0.04
 6 4 10 -2.64 0.88
 7 4 10 -1.43 -3.45
 -12 5 10 0.48 -1.71
 -11 5 10 1.11 -0.49
 -10 5 10 0.73 -1.10
 -9 5 10 2.07 1.47
 -8 5 10 -0.99 1.89
 -7 5 10 -0.70 -1.48
 -6 5 10 1.15 -2.59
 -5 5 10 1.62 -1.41
 -4 5 10 0.02 -0.34
 -3 5 10 2.34 -2.43
 -2 5 10 3.20 1.06
 -1 5 10 -0.36 -1.07
 0 5 10 3.36 -1.90
 1 5 10 2.19 0.23
 2 5 10 0.54 -0.98
 3 5 10 1.06 -1.38
 4 5 10 1.26 0.49
 5 5 10 -0.14 0.12
 6 5 10 0.73 -0.24
 -12 6 10 1.00 0.44
 -11 6 10 -0.39 0.12
 -10 6 10 0.18 -0.46
 -9 6 10 0.86 -1.47
 -8 6 10 2.02 -0.39
 -7 6 10 1.39 2.25
 -6 6 10 -1.25 2.50
 -5 6 10 -0.38 2.21
 -4 6 10 -1.19 1.95
 -3 6 10 -0.23 0.49
 -2 6 10 1.24 1.64
 -1 6 10 -1.46 3.77
 0 6 10 -1.72 2.37
 1 6 10 -2.76 1.24
 2 6 10 -1.14 1.61
 3 6 10 -1.51 1.83
 4 6 10 -2.08 -0.65
 5 6 10 1.07 -0.02
 -10 7 10 -0.29 1.44
 -9 7 10 -2.15 1.54
 -8 7 10 -2.35 -0.78
 -7 7 10 0.32 -2.62
 -6 7 10 3.27 0.21
 -5 7 10 0.02 0.89
 -4 7 10 -0.48 0.46
 -3 7 10 -2.40 -0.67
 -2 7 10 -1.51 -0.25
 -1 7 10 -0.12 -2.40
 0 7 10 1.13 -2.17
 1 7 10 0.99 2.26
 2 7 10 -0.32 -1.26
 3 7 10 -0.09 0.71
 4 7 10 -1.24 -0.86
 -9 8 10 -0.25 0.34
 -8 8 10 0.19 -1.11
 -7 8 10 0.42 0.10
 -6 8 10 -2.19 -0.81
 -5 8 10 0.29 -1.54
 -4 8 10 0.41 -0.03
 -3 8 10 1.26 -0.31
 -2 8 10 1.38 -1.66
 -1 8 10 -0.20 0.24
 0 8 10 0.62 -0.83
 1 8 10 2.09 -2.10
 2 8 10 -0.28 -0.39
 -7 9 10 0.28 1.35
 -6 9 10 -0.01 1.22
 -5 9 10 -0.82 0.17
 -4 9 10 0.08 -2.07
 -3 9 10 1.43 -0.11
 -2 9 10 -0.39 3.24
 -1 9 10 -0.23 0.30
 0 9 10 -1.13 0.76
 -5 -15 11 0.28 0.31
 -4 -15 11 1.28 -0.32
 -3 -15 11 -0.74 0.90
 -2 -15 11 -0.44 -0.40
 -1 -15 11 0.31 -0.58
 0 -15 11 -0.25 -0.03
 1 -15 11 0.74 -1.15
 2 -15 11 1.05 0.31
 3 -15 11 0.58 0.31
 -7 -14 11 0.59 -0.73
 -6 -14 11 -0.29 -1.46
 -5 -14 11 0.90 -0.85
 -4 -14 11 -0.26 1.10
 -3 -14 11 -0.91 0.50
 -2 -14 11 0.07 -1.59
 -1 -14 11 0.19 0.54
 0 -14 11 -0.44 -0.16
 1 -14 11 -0.93 -0.34
 2 -14 11 -0.43 -0.92
 3 -14 11 -0.82 0.49
 4 -14 11 1.05 -0.46
 5 -14 11 -0.15 0.69
 -9 -13 11 -0.11 -0.41
 -8 -13 11 0.57 1.25
 -7 -13 11 -1.59 1.16
 -6 -13 11 -0.95 1.11
 -5 -13 11 -0.55 -0.17
 -4 -13 11 0.90 0.30
 -3 -13 11 -0.64 0.87
 -2 -13 11 -0.77 -0.77
 -1 -13 11 2.71 -0.01
 0 -13 11 0.30 2.14
 1 -13 11 0.84 0.57
 2 -13 11 0.20 1.28
 3 -13 11 1.55 -2.39
 4 -13 11 1.65 0.71
 5 -13 11 0.97 0.90
 -10 -12 11 -0.46 -0.67
 -9 -12 11 2.86 0.32
 -8 -12 11 1.42 2.27
 -7 -12 11 -1.01 0.48
 -6 -12 11 0.88 -1.68
 -5 -12 11 -0.33 -0.09
 -4 -12 11 -0.98 -1.51
 -3 -12 11 0.71 -2.06
 -2 -12 11 1.92 -0.12
 -1 -12 11 -0.53 1.24
 0 -12 11 -0.64 -0.33
 1 -12 11 -0.97 0.28
 2 -12 11 -1.73 0.54
 3 -12 11 -3.60 0.81
 4 -12 11 -0.60 -2.00
 5 -12 11 -1.25 0.65
 -11 -11 11 -0.68 0.32
 -10 -11 11 -0.27 -0.66
 -9 -11 11 -1.75 0.30
 -8 -11 11 -2.24 -2.26
 -7 -11 11 0.46 -0.44
 -6 -11 11 -1.55 -0.51
 -5 -11 11 1.48 0.10
 -4 -11 11 0.21 1.96
 -3 -11 11 -0.51 1.34
 -2 -11 11 -0.85 2.05
 -1 -11 11 -3.46 0.72
 0 -11 11 -2.48 -1.80
 1 -11 11 0.76 -1.83
 2 -11 11 1.03 0.05
 3 -11 11 1.37 -1.26
 4 -11 11 1.56 1.60
 5 -11 11 1.57 0.59
 6 -11 11 -0.43 0.25
 -12 -10 11 -0.99 -0.58
 -11 -10 11 0.31 -1.66
 -10 -10 11 1.70 0.49
 -9 -10 11 -0.42 1.58
 -8 -10 11 -0.70 0.34
 -7 -10 11 0.67 -1.45
 -6 -10 11 2.70 1.06
 -5 -10 11 1.10 0.82
 -4 -10 11 -0.29 -0.20
 -3 -10 11 1.24 -1.27
 -2 -10 11 0.35 -0.69
 -1 -10 11 1.27 -1.63
 0 -10 11 2.42 -2.80
 1 -10 11 3.44 -0.30
 2 -10 11 1.79 1.26
 3 -10 11 -0.69 0.56
 4 -10 11 0.82 -1.80
 5 -10 11 -1.87 0.91
 6 -10 11 -0.92 -1.07
 7 -10 11 -0.43 -0.38
 -12 -9 11 -1.42 -1.26
 -11 -9 11 2.28 -0.77
 -10 -9 11 0.79 1.64
 -9 -9 11 -0.52 0.64
 -8 -9 11 -0.85 -2.52
 -7 -9 11 1.77 -0.03
 -6 -9 11 -3.04 0.08
 -5 -9 11 -2.55 -2.55
 -4 -9 11 0.56 0.26
 -3 -9 11 -1.49 0.66
 -2 -9 11 -0.41 0.84
 -1 -9 11 -0.20 0.61
 0 -9 11 0.13 4.13
 1 -9 11 -4.34 2.69
 2 -9 11 -3.20 -2.30
 3 -9 11 0.17 0.05
 4 -9 11 -1.66 1.39
 5 -9 11 0.57 -0.33
 6 -9 11 1.03 0.39
 7 -9 11 -0.15 1.39
 8 -9 11 -1.74 -0.27
 -13 -8 11 -0.63 -0.24
 -12 -8 11 -0.05 -1.40
 -11 -8 11 -0.65 0.18
 -10 -8 11 -1.35 -0.78
 -9 -8 11 -0.08 -3.16
 -8 -8 11 3.94 1.27
 -7 -8 11 0.72 2.97
 -6 -8 11 -0.10 2.81
 -5 -8 11 0.40 0.44
 -4 -8 11 0.19 -1.37
 -3 -8 11 0.64 -0.59
 -2 -8 11 0.66 -1.46
 -1 -8 11 0.57 -0.55
 0 -8 11 0.35 -1.76
 1 -8 11 1.54 1.52
 2 -8 11 -2.49 0.01
 3 -8 11 2.16 -1.76
 4 -8 11 0.58 -0.89
 5 -8 11 0.78 -2.56
 6 -8 11 2.17 -0.26
 7 -8 11 0.79 0.77
 8 -8 11 0.61 0.36
 9 -8 11 0.29 -0.37
 10 -8 11 -0.89 -0.80
 -13 -7 11 0.32 1.51
 -12 -7 11 -0.51 -0.04
 -11 -7 11 1.54 0.44
 -10 -7 11 -0.49 1.06
 -9 -7 11 -0.22 0.17
 -8 -7 11 0.53 -0.82
 -7 -7 11 0.02 -0.51
 -6 -7 11 1.74 -0.90
 -5 -7 11 0.55 -0.25
 -4 -7 11 2.29 4.17
 -3 -7 11 -2.53 1.74
 -2 -7 11 0.88 -1.12
 -1 -7 11 1.61 3.23
 0 -7 11 -2.42 0.98
 1 -7 11 1.05 -3.40
 2 -7 11 3.33 1.98
 3 -7 11 -1.45 -0.34
 4 -7 11 -0.63 1.44
 5 -7 11 -0.11 1.72
 6 -7 11 -2.08 0.87
 7 -7 11 -1.37 -0.56
 8 -7 11 -0.23 -1.58
 9 -7 11 -0.06 0.95
 10 -7 11 0.55 1.01
 -14 -6 11 0.28 -0.11
 -13 -6 11 -2.06 -0.85
 -12 -6 11 0.17 -2.54
 -11 -6 11 1.56 0.64
 -10 -6 11 0.08 -0.30
 -9 -6 11 1.73 1.75
 -8 -6 11 -4.60 3.02
 -7 -6 11 -3.73 -1.15
 -6 -6 11 -3.02 -2.06
 -5 -6 11 -1.13 0.42
 -4 -6 11 -2.99 -3.75
 -3 -6 11 0.59 -1.57
 -2 -6 11 -1.36 1.58
 -1 -6 11 -4.10 -0.65
 0 -6 11 -3.22 -2.77
 1 -6 11 0.20 -2.45
 2 -6 11 -1.02 -0.29
 3 -6 11 -0.53 0.50
 4 -6 11 3.24 0.40
 5 -6 11 -2.03 1.24
 6 -6 11 0.12 -0.25
 7 -6 11 0.37 -0.32
 8 -6 11 -0.19 1.02
 9 -6 11 2.07 -1.11
 10 -6 11 -0.20 1.10
 -14 -5 11 0.65 -3.33
 -13 -5 11 1.30 2.21
 -12 -5 11 -2.12 -2.51
 -11 -5 11 3.89 -2.63
 -10 -5 11 0.92 2.32
 -9 -5 11 -0.37 -0.35
 -8 -5 11 3.07 -0.13
 -7 -5 11 1.69 0.02
 -6 -5 11 1.83 0.06
 -5 -5 11 2.28 -2.90
 -4 -5 11 4.70 1.28
 -3 -5 11 1.62 3.83
 -2 -5 11 0.21 -0.56
 -1 -5 11 3.73 -0.12
 0 -5 11 1.46 2.32
 1 -5 11 -0.35 -0.16
 2 -5 11 2.11 -0.12
 3 -5 11 0.70 -2.94
 4 -5 11 0.94 -1.87
 5 -5 11 1.92 1.33
 6 -5 11 0.16 -0.85
 7 -5 11 -0.85 2.07
 8 -5 11 -0.75 -2.41
 9 -5 11 -1.34 1.23
 10 -5 11 -1.24 -0.12
 -14 -4 11 0.02 0.00
 -13 -4 11 2.37 -0.54
 -12 -4 11 0.83 4.17
 -11 -4 11 -1.63 1.91
 -10 -4 11 -0.98 1.34
 -9 -4 11 0.13 -1.44
 -8 -4 11 0.19 -0.33
 -7 -4 11 1.68 1.52
 -6 -4 11 -1.57 3.88
 -5 -4 11 -2.31 1.32
 -4 -4 11 -2.32 0.90
 -3 -4 11 -1.14 -3.32
 -2 -4 11 -0.33 -0.75
 -1 -4 11 -0.30 1.02
 0 -4 11 -0.25 1.73
 1 -4 11 -1.82 2.69
 2 -4 11 -3.76 0.53
 3 -4 11 -3.13 1.42
 4 -4 11 1.16 0.00
 5 -4 11 -1.10 2.15
 6 -4 11 -2.87 0.98
 7 -4 11 0.42 -2.33
 8 -4 11 -0.07 2.73
 9 -4 11 -0.66 -0.55
 10 -4 11 0.31 -2.34
 -14 -3 11 -0.52 -0.83
 -13 -3 11 0.30 1.28
 -12 -3 11 -0.62 -0.47
 -11 -3 11 -2.38 0.52
 -10 -3 11 -2.40 -2.01
 -9 -3 11 -3.24 0.44
 -8 -3 11 -4.60 -0.41
 -7 -3 11 -2.32 -5.65
 -6 -3 11 4.51 -1.55
 -5 -3 11 -0.74 3.58
 -4 -3 11 -3.10 1.73
 -3 -3 11 -5.30 1.61
 -2 -3 11 -2.37 -0.59
 -1 -3 11 -2.18 -4.50
 0 -3 11 0.32 -4.18
 1 -3 11 1.90 -3.94
 2 -3 11 3.56 -1.56
 3 -3 11 3.54 0.37
 4 -3 11 -3.92 -0.36
 5 -3 11 0.40 -2.34
 6 -3 11 -0.47 -3.03
 7 -3 11 2.60 -0.94
 8 -3 11 1.25 -0.68
 9 -3 11 -0.03 0.33
 10 -3 11 -1.33 1.23
 -14 -2 11 -1.27 0.25
 -13 -2 11 -1.12 -2.73
 -12 -2 11 0.00 -1.25
 -11 -2 11 2.27 -2.74
 -10 -2 11 5.35 -0.46
 -9 -2 11 4.85 2.26
 -8 -2 11 3.01 0.52
 -7 -2 11 1.15 1.43
 -6 -2 11 -0.44 -0.73
 -5 -2 11 0.50 -2.61
 -4 -2 11 3.75 -4.35
 -3 -2 11 7.16 -2.40
 -2 -2 11 2.81 1.34
 -1 -2 11 -0.91 1.01
 0 -2 11 3.55 -0.48
 1 -2 11 0.38 4.38
 2 -2 11 -1.40 -1.40
 3 -2 11 2.18 0.53
 4 -2 11 2.92 4.07
 5 -2 11 -1.54 0.91
 6 -2 11 1.17 1.38
 7 -2 11 -2.21 -0.38
 8 -2 11 -0.62 -1.37
 9 -2 11 2.02 -0.57
 10 -2 11 1.48 1.00
 -14 -1 11 1.56 -0.09
 -13 -1 11 1.53 0.73
 -12 -1 11 1.77 0.71
 -11 -1 11 0.33 2.21
 -10 -1 11 -2.72 1.44
 -9 -1 11 -2.98 -1.17
 -8 -1 11 -1.19 0.41
 -7 -1 11 -0.47 2.06
 -6 -1 11 -2.74 1.93
 -5 -1 11 -1.92 -0.73
 -4 -1 11 -1.28 -0.42
 -3 -1 11 -0.58 2.31
 -2 -1 11 -0.20 2.52
 -1 -1 11 0.91 2.48
 0 -1 11 -2.95 0.97
 1 -1 11 0.01 -0.47
 2 -1 11 -1.88 1.54
 3 -1 11 -0.63 -2.13
 4 -1 11 -1.10 -1.55
 5 -1 11 0.46 -0.43
 6 -1 11 -0.77 -0.92
 7 -1 11 2.62 2.22
 8 -1 11 -1.06 2.44
 9 -1 11 -0.98 -1.45
 -14 0 11 -1.23 0.61
 -13 0 11 -0.33 0.47
 -12 0 11 -1.79 2.25
 -11 0 11 -2.65 -0.52
 -10 0 11 -0.06 0.28
 -9 0 11 -0.74 0.17
 -8 0 11 1.85 -2.45
 -7 0 11 2.00 0.22
 -6 0 11 1.57 0.32
 -5 0 11 0.01 3.47
 -4 0 11 -3.20 2.04
 -3 0 11 -1.86 -3.64
 -2 0 11 -0.28 -3.02
 -1 0 11 -1.14 -1.94
 0 0 11 -0.62 0.74
 1 0 11 -2.26 -1.98
 2 0 11 0.77 -2.54
 3 0 11 -1.50 1.46
 4 0 11 -1.32 -3.22
 5 0 11 3.45 -0.40
 6 0 11 -0.08 2.35
 7 0 11 -1.09 -2.80
 8 0 11 0.02 -0.45
 9 0 11 -0.50 -0.10
 -14 1 11 -0.70 0.64
 -13 1 11 -0.46 -2.13
 -12 1 11 1.44 -1.76
 -11 1 11 2.22 -1.61
 -10 1 11 1.98 0.76
 -9 1 11 -2.01 -1.08
 -8 1 11 -0.12 -0.22
 -7 1 11 -2.38 -0.13
 -6 1 11 -0.54 -2.14
 -5 1 11 1.50 -2.58
 -4 1 11 2.52 -0.76
 -3 1 11 -0.55 2.01
 -2 1 11 -2.04 1.03
 -1 1 11 2.05 -3.45
 0 1 11 4.28 -0.12
 1 1 11 1.19 0.85
 2 1 11 3.29 1.44
 3 1 11 2.46 3.38
 4 1 11 -1.90 2.98
 5 1 11 -1.02 -1.16
 6 1 11 -1.18 0.62
 7 1 11 -1.22 -0.70
 8 1 11 2.44 0.74
 -13 2 11 -1.95 -0.70
 -12 2 11 1.20 -1.27
 -11 2 11 -0.84 2.03
 -10 2 11 -1.34 -1.20
 -9 2 11 2.74 1.59
 -8 2 11 0.12 1.91
 -7 2 11 0.09 1.17
 -6 2 11 -1.68 -0.73
 -5 2 11 -1.06 -1.43
 -4 2 11 2.19 -2.22
 -3 2 11 4.07 1.75
 -2 2 11 2.29 0.94
 -1 2 11 -2.63 3.61
 0 2 11 -2.44 0.71
 1 2 11 -3.03 -0.41
 2 2 11 -1.52 -3.37
 3 2 11 0.34 -2.56
 4 2 11 1.29 -1.06
 5 2 11 1.88 0.72
 6 2 11 0.45 1.62
 7 2 11 -0.62 -0.56
 8 2 11 -0.16 -1.10
 -13 3 11 0.56 -0.44
 -12 3 11 0.91 0.66
 -11 3 11 0.01 1.03
 -10 3 11 -0.36 -0.96
 -9 3 11 1.04 -1.50
 -8 3 11 0.37 0.32
 -7 3 11 0.17 0.13
 -6 3 11 0.27 2.52
 -5 3 11 -0.33 1.30
 -4 3 11 -1.75 0.50
 -3 3 11 -1.18 -1.10
 -2 3 11 -1.89 0.84
 -1 3 11 0.87 -1.66
 0 3 11 1.26 -2.03
 1 3 11 2.01 1.75
 2 3 11 -0.79 -0.06
 3 3 11 1.30 0.68
 4 3 11 -0.84 0.82
 5 3 11 -0.85 -1.97
 6 3 11 1.30 0.59
 7 3 11 -1.49 0.74
 -12 4 11 -0.80 1.61
 -11 4 11 -0.36 -0.06
 -10 4 11 -1.46 0.86
 -9 4 11 -1.31 0.08
 -8 4 11 -1.86 0.04
 -7 4 11 -0.35 -3.02
 -6 4 11 2.19 -1.20
 -5 4 11 -1.36 1.06
 -4 4 11 -2.69 -0.03
 -3 4 11 -1.79 -2.29
 -2 4 11 1.54 -1.84
 -1 4 11 -1.95 0.67
 0 4 11 -0.61 -1.55
 1 4 11 1.18 -0.04
 2 4 11 -1.57 0.60
 3 4 11 -0.34 -1.78
 4 4 11 1.16 0.90
 5 4 11 -1.70 1.62
 6 4 11 -1.63 -2.34
 -12 5 11 -1.06 -1.58
 -11 5 11 0.64 -1.68
 -10 5 11 1.55 0.02
 -9 5 11 0.82 0.14
 -8 5 11 0.22 -0.43
 -7 5 11 0.53 0.01
 -6 5 11 -0.25 0.71
 -5 5 11 1.35 -1.49
 -4 5 11 4.27 0.10
 -3 5 11 1.01 2.60
 -2 5 11 -0.47 -0.67
 -1 5 11 2.13 0.12
 0 5 11 -1.40 -0.08
 1 5 11 1.90 -3.06
 2 5 11 3.15 1.79
 3 5 11 1.38 2.22
 4 5 11 -1.45 1.47
 5 5 11 -0.59 -1.36
 -11 6 11 -0.01 0.74
 -10 6 11 0.44 -0.53
 -9 6 11 0.05 0.55
 -8 6 11 0.32 0.67
 -7 6 11 0.05 0.75
 -6 6 11 -0.38 -0.02
 -5 6 11 -0.90 -2.11
 -4 6 11 2.75 -0.56
 -3 6 11 0.30 2.63
 -2 6 11 -0.45 1.24
 -1 6 11 0.49 0.63
 0 6 11 1.78 0.81
 1 6 11 -0.11 3.79
 2 6 11 -1.63 -0.35
 3 6 11 -0.67 -1.06
 4 6 11 1.27 0.07
 -9 7 11 0.61 0.01
 -8 7 11 -0.06 0.13
 -7 7 11 -0.57 0.30
 -6 7 11 -1.41 -0.14
 -5 7 11 -0.22 1.54
 -4 7 11 -3.14 0.07
 -3 7 11 -0.49 -1.86
 -2 7 11 -1.08 -1.56
 -1 7 11 -0.62 -1.77
 0 7 11 -0.58 1.11
 1 7 11 -1.87 -2.27
 2 7 11 -1.43 -0.68
 -7 8 11 -0.28 -0.55
 -6 8 11 3.01 -0.99
 -5 8 11 1.40 1.73
 -4 8 11 -0.25 -0.01
 -3 8 11 0.12 0.98
 -2 8 11 -1.13 1.60
 -1 8 11 -0.46 -1.42
 0 8 11 1.67 -1.86
 -4 -15 12 -0.33 0.93
 -3 -15 12 0.21 -0.54
 -2 -15 12 0.50 -0.67
 -1 -15 12 0.36 0.12
 0 -15 12 0.42 -0.60
 1 -15 12 0.55 0.48
 2 -15 12 0.05 0.10
 -7 -14 12 0.34 0.40
 -6 -14 12 0.77 2.19
 -5 -14 12 -0.68 1.24
 -4 -14 12 0.47 -0.14
 -3 -14 12 0.67 0.84
 -2 -14 12 -0.35 1.97
 -1 -14 12 -0.92 -0.72
 0 -14 12 0.83 -0.95
 1 -14 12 1.91 -0.25
 2 -14 12 0.33 2.00
 3 -14 12 0.25 -0.81
 4 -14 12 -0.71 0.60
 -8 -13 12 -0.19 -0.38
 -7 -13 12 0.83 -0.95
 -6 -13 12 0.48 -0.62
 -5 -13 12 -1.38 -0.34
 -4 -13 12 -1.47 -1.21
 -3 -13 12 -0.42 -1.49
 -2 -13 12 -0.36 -0.91
 -1 -13 12 -0.86 -0.34
 0 -13 12 0.55 -0.31
 1 -13 12 -2.06 1.58
 2 -13 12 -0.70 -2.85
 3 -13 12 0.21 1.51
 4 -13 12 0.06 -0.49
 5 -13 12 0.26 0.31
 -9 -12 12 0.69 0.14
 -8 -12 12 -1.91 1.79
 -7 -12 12 -1.39 -1.09
 -6 -12 12 -0.08 0.15
 -5 -12 12 0.51 0.39
 -4 -12 12 0.96 0.22
 -3 -12 12 0.64 0.35
 -2 -12 12 2.06 0.51
 -1 -12 12 1.33 1.43
 0 -12 12 -0.10 2.00
 1 -12 12 -0.14 0.57
 2 -12 12 -0.54 0.74
 3 -12 12 1.08 -1.26
 4 -12 12 -0.35 0.91
 5 -12 12 0.86 -0.97
 6 -12 12 0.59 0.09
 -10 -11 12 0.47 1.14
 -9 -11 12 -1.89 1.14
 -8 -11 12 0.93 -1.37
 -7 -11 12 1.46 1.50
 -6 -11 12 -0.26 0.44
 -5 -11 12 0.75 -1.07
 -4 -11 12 0.17 0.06
 -3 -11 12 0.77 -0.08
 -2 -11 12 -1.68 1.30
 -1 -11 12 -1.77 -0.46
 0 -11 12 -0.84 -1.29
 1 -11 12 -1.68 -0.25
 2 -11 12 -1.32 -2.71
 3 -11 12 0.47 -0.33
 4 -11 12 0.26 -0.88
 5 -11 12 -1.14 0.56
 6 -11 12 -0.35 -0.02
 -11 -10 12 1.18 1.16
 -10 -10 12 -2.37 -0.33
 -9 -10 12 -0.25 -4.07
 -8 -10 12 1.07 -0.55
 -7 -10 12 -1.48 -1.23
 -6 -10 12 0.14 -1.49
 -5 -10 12 -1.03 1.51
 -4 -10 12 -0.99 0.32
 -3 -10 12 -1.08 0.58
 -2 -10 12 -0.83 -0.33
 -1 -10 12 -0.35 -3.04
 0 -10 12 2.57 -0.61
 1 -10 12 1.54 -0.09
 2 -10 12 1.42 0.43
 3 -10 12 1.79 1.45
 4 -10 12 -2.01 3.41
 5 -10 12 -0.28 -1.13
 6 -10 12 0.39 -0.16
 7 -10 12 -0.31 -0.81
 8 -10 12 -0.95 -0.37
 -12 -9 12 1.71 1.06
 -11 -9 12 -1.50 1.87
 -10 -9 12 0.20 -1.13
 -9 -9 12 2.44 1.13
 -8 -9 12 0.80 3.12
 -7 -9 12 -2.32 0.64
 -6 -9 12 1.84 -2.24
 -5 -9 12 3.34 0.82
 -4 -9 12 -0.33 -0.01
 -3 -9 12 0.87 -0.89
 -2 -9 12 1.36 0.27
 -1 -9 12 0.12 2.05
 0 -9 12 -0.13 0.39
 1 -9 12 0.41 1.91
 2 -9 12 -1.12 1.32
 3 -9 12 -0.11 -1.07
 4 -9 12 1.71 -1.47
 5 -9 12 -0.14 0.54
 6 -9 12 -1.35 -0.47
 7 -9 12 0.78 -0.47
 8 -9 12 0.93 0.57
 9 -9 12 -0.38 0.19
 -12 -8 12 -0.67 2.53
 -11 -8 12 -2.86 -1.47
 -10 -8 12 0.16 -2.40
 -9 -8 12 0.39 0.39
 -8 -8 12 -0.37 -1.14
 -7 -8 12 0.71 0.25
 -6 -8 12 0.34 -0.57
 -5 -8 12 -0.29 2.01
 -4 -8 12 -2.42 0.29
 -3 -8 12 1.52 -2.38
 -2 -8 12 2.09 1.43
 -1 -8 12 -0.63 1.54
 0 -8 12 -1.04 0.35
 1 -8 12 -2.37 -2.24
 2 -8 12 0.35 -1.38
 3 -8 12 -2.52 -1.66
 4 -8 12 -0.12 -1.44
 5 -8 12 1.91 0.30
 6 -8 12 0.15 1.79
 7 -8 12 -0.63 -0.44
 8 -8 12 -0.66 0.25
 9 -8 12 -0.92 -0.17
 -13 -7 12 -0.74 -2.34
 -12 -7 12 1.55 -0.24
 -11 -7 12 -0.09 0.30
 -10 -7 12 0.68 -0.58
 -9 -7 12 0.37 -0.23
 -8 -7 12 -0.27 0.16
 -7 -7 12 1.65 0.40
 -6 -7 12 -1.63 3.28
 -5 -7 12 -2.59 -0.31
 -4 -7 12 -0.09 -2.12
 -3 -7 12 -0.07 1.88
 -2 -7 12 -3.82 0.74
 -1 -7 12 -0.36 -2.68
 0 -7 12 0.09 0.98
 1 -7 12 -0.88 1.94
 2 -7 12 0.26 -0.37
 3 -7 12 0.50 3.52
 4 -7 12 0.49 -0.35
 5 -7 12 -0.18 -0.73
 6 -7 12 1.81 -0.24
 7 -7 12 0.38 0.87
 8 -7 12 0.26 0.80
 9 -7 12 0.68 -0.96
 -13 -6 12 -0.44 0.90
 -12 -6 12 -1.29 0.23
 -11 -6 12 -0.43 -2.61
 -10 -6 12 2.54 0.89
 -9 -6 12 -1.07 2.25
 -8 -6 12 -0.42 -1.27
 -7 -6 12 -0.17 -1.03
 -6 -6 12 1.55 -0.61
 -5 -6 12 0.28 -0.21
 -4 -6 12 0.63 -0.14
 -3 -6 12 1.95 0.33
 -2 -6 12 0.67 0.74
 -1 -6 12 -0.83 -2.27
 0 -6 12 4.44 -1.39
 1 -6 12 -0.36 0.54
 2 -6 12 0.04 -3.49
 3 -6 12 3.74 -1.06
 4 -6 12 -3.61 0.17
 5 -6 12 1.17 0.02
 6 -6 12 -2.58 0.32
 7 -6 12 -0.20 -1.19
 8 -6 12 0.93 -0.48
 9 -6 12 -0.85 1.25
 -14 -5 12 0.10 0.76
 -13 -5 12 -0.75 -2.45
 -12 -5 12 2.23 -1.43
 -11 -5 12 2.54 0.96
 -10 -5 12 0.64 0.88
 -9 -5 12 1.10 -0.73
 -8 -5 12 -0.07 1.50
 -7 -5 12 -1.74 -0.84
 -6 -5 12 -0.22 -3.50
 -5 -5 12 3.24 -2.46
 -4 -5 12 3.11 1.61
 -3 -5 12 -0.34 0.57
 -2 -5 12 -0.79 1.69
 -1 -5 12 -1.39 1.77
 0 -5 12 -1.76 0.43
 1 -5 12 -0.24 0.63
 2 -5 12 0.55 0.98
 3 -5 12 -0.65 2.20
 4 -5 12 1.93 2.65
 5 -5 12 -1.58 -0.29
 6 -5 12 1.36 0.65
 7 -5 12 -0.16 0.38
 8 -5 12 -1.04 0.94
 9 -5 12 0.44 -0.31
 -14 -4 12 0.67 1.11
 -13 -4 12 -1.02 1.16
 -12 -4 12 1.16 -0.05
 -11 -4 12 -2.97 2.52
 -10 -4 12 -1.42 -1.16
 -9 -4 12 -1.37 1.84
 -8 -4 12 1.72 1.01
 -7 -4 12 0.03 6.45
 -6 -4 12 -2.96 3.38
 -5 -4 12 -2.46 2.35
 -4 -4 12 -1.61 0.82
 -3 -4 12 -2.62 1.78
 -2 -4 12 2.03 -1.79
 -1 -4 12 1.70 3.22
 0 -4 12 -4.14 1.60
 1 -4 12 -1.19 -1.68
 2 -4 12 -2.96 0.07
 3 -4 12 0.65 -4.47
 4 -4 12 0.22 -0.73
 5 -4 12 0.74 0.74
 6 -4 12 0.04 0.21
 7 -4 12 -0.66 1.82
 8 -4 12 -1.42 -1.04
 9 -4 12 -0.77 -1.22
 -14 -3 12 1.11 -0.31
 -13 -3 12 0.08 0.88
 -12 -3 12 -2.21 0.49
 -11 -3 12 1.65 -0.64
 -10 -3 12 -1.42 0.50
 -9 -3 12 -0.41 -2.56
 -8 -3 12 -1.58 -5.50
 -7 -3 12 3.32 -4.68
 -6 -3 12 -0.25 -1.02
 -5 -3 12 0.39 -2.08
 -4 -3 12 -1.19 -0.54
 -3 -3 12 -1.25 -3.16
 -2 -3 12 -2.43 -3.17
 -1 -3 12 -1.51 -3.02
 0 -3 12 1.96 -3.98
 1 -3 12 1.72 -1.32
 2 -3 12 2.84 -0.06
 3 -3 12 -2.33 1.49
 4 -3 12 0.81 -0.32
 5 -3 12 -1.88 -1.82
 6 -3 12 0.89 -0.30
 7 -3 12 -1.60 -1.82
 8 -3 12 1.65 -0.29
 9 -3 12 0.43 1.52
 -14 -2 12 -1.71 -1.62
 -13 -2 12 0.69 -1.98
 -12 -2 12 1.53 -1.67
 -11 -2 12 0.73 -1.25
 -10 -2 12 1.57 -0.14
 -9 -2 12 -0.25 1.33
 -8 -2 12 -0.38 1.87
 -7 -2 12 0.18 0.77
 -6 -2 12 1.61 0.41
 -5 -2 12 2.66 0.79
 -4 -2 12 1.40 1.75
 -3 -2 12 0.88 2.83
 -2 -2 12 0.66 1.11
 -1 -2 12 4.05 -0.45
 0 -2 12 0.69 2.78
 1 -2 12 1.54 0.34
 2 -2 12 0.95 1.66
 3 -2 12 2.20 0.34
 4 -2 12 -0.40 1.32
 5 -2 12 0.14 1.46
 6 -2 12 -0.78 -0.78
 7 -2 12 1.38 0.91
 8 -2 12 -0.35 -0.57
 9 -2 12 -0.31 -1.98
 -14 -1 12 1.70 0.88
 -13 -1 12 -0.18 1.67
 -12 -1 12 -0.15 1.90
 -11 -1 12 -0.70 0.86
 -10 -1 12 1.62 0.51
 -9 -1 12 2.71 3.32
 -8 -1 12 -1.21 2.47
 -7 -1 12 -2.10 0.08
 -6 -1 12 -1.45 -0.49
 -5 -1 12 -0.95 -0.66
 -4 -1 12 0.55 1.55
 -3 -1 12 -1.46 0.05
 -2 -1 12 -0.56 1.47
 -1 -1 12 -4.43 3.13
 0 -1 12 -2.98 0.72
 1 -1 12 -2.46 -0.34
 2 -1 12 -1.09 0.53
 3 -1 12 -3.95 2.01
 4 -1 12 -1.25 -1.58
 5 -1 12 -0.43 -0.74
 6 -1 12 0.75 0.65
 7 -1 12 -1.34 -0.63
 8 -1 12 -0.32 0.43
 -14 0 12 0.60 0.26
 -13 0 12 -0.35 1.13
 -12 0 12 -1.80 -0.56
 -11 0 12 -1.91 -0.75
 -10 0 12 -2.57 -2.79
 -9 0 12 -0.95 -4.86
 -8 0 12 2.06 -0.65
 -7 0 12 0.25 1.62
 -6 0 12 -1.36 0.95
 -5 0 12 -2.27 -0.39
 -4 0 12 -2.18 -3.81
 -3 0 12 0.55 -3.53
 -2 0 12 3.13 -1.94
 -1 0 12 1.02 -0.17
 0 0 12 0.16 -3.89
 1 0 12 0.51 -0.57
 2 0 12 -1.49 -1.89
 3 0 12 2.19 -5.96
 4 0 12 3.66 -1.09
 5 0 12 2.02 0.70
 6 0 12 -0.15 0.55
 7 0 12 -0.36 0.79
 8 0 12 1.45 -0.60
 -13 1 12 -0.47 -0.68
 -12 1 12 0.30 -1.32
 -11 1 12 2.21 0.50
 -10 1 12 0.05 1.74
 -9 1 12 0.32 1.97
 -8 1 12 -0.70 -1.18
 -7 1 12 2.31 -1.44
 -6 1 12 0.73 0.04
 -5 1 12 2.42 -0.11
 -4 1 12 1.23 2.73
 -3 1 12 -1.08 2.52
 -2 1 12 -2.36 -2.85
 -1 1 12 3.06 -1.31
 0 1 12 1.65 2.65
 1 1 12 2.75 1.14
 2 1 12 1.09 2.37
 3 1 12 -1.57 2.05
 4 1 12 0.06 1.09
 5 1 12 -2.36 0.96
 6 1 12 -0.56 -2.72
 7 1 12 3.07 -1.17
 -13 2 12 -0.17 0.15
 -12 2 12 0.16 0.07
 -11 2 12 0.22 -0.50
 -10 2 12 1.65 -0.08
 -9 2 12 0.42 0.17
 -8 2 12 -0.33 2.31
 -7 2 12 -4.18 0.39
 -6 2 12 0.13 -1.72
 -5 2 12 0.10 -0.37
 -4 2 12 1.21 0.46
 -3 2 12 -0.12 1.23
 -2 2 12 -1.29 2.68
 -1 2 12 -0.82 1.61
 0 2 12 -4.05 -0.26
 1 2 12 -1.84 -2.49
 2 2 12 -0.17 -0.28
 3 2 12 0.05 0.41
 4 2 12 -0.34 -0.19
 5 2 12 -0.75 0.39
 6 2 12 0.08 -0.10
 7 2 12 -1.01 1.97
 -12 3 12 -0.96 0.03
 -11 3 12 0.48 -1.58
 -10 3 12 -0.19 0.75
 -9 3 12 -0.62 -0.49
 -8 3 12 1.26 0.26
 -7 3 12 0.30 0.71
 -6 3 12 -0.30 -0.75
 -5 3 12 -0.08 0.55
 -4 3 12 -1.85 -0.01
 -3 3 12 -0.86 -2.05
 -2 3 12 1.78 -1.95
 -1 3 12 -0.22 -0.88
 0 3 12 1.02 1.17
 1 3 12 -1.42 -0.81
 2 3 12 0.72 -2.11
 3 3 12 1.27 -1.12
 4 3 12 0.21 0.07
 5 3 12 2.05 -0.81
 6 3 12 0.55 2.17
 -12 4 12 -0.29 0.93
 -11 4 12 -1.38 0.58
 -10 4 12 0.49 -0.28
 -9 4 12 -0.47 1.27
 -8 4 12 -1.19 -1.87
 -7 4 12 1.11 -0.02
 -6 4 12 -0.22 1.41
 -5 4 12 -0.06 -0.10
 -4 4 12 0.86 -0.48
 -3 4 12 0.77 0.11
 -2 4 12 0.31 1.19
 -1 4 12 0.59 0.93
 0 4 12 -0.35 0.26
 1 4 12 0.66 -0.23
 2 4 12 0.73 1.62
 3 4 12 -0.73 0.38
 4 4 12 1.19 -0.52
 5 4 12 -0.84 1.66
 -11 5 12 0.09 -0.05
 -10 5 12 0.79 -0.92
 -9 5 12 -0.92 0.25
 -8 5 12 -0.79 -1.47
 -7 5 12 1.02 -1.18
 -6 5 12 0.40 -1.26
 -5 5 12 -0.68 -0.31
 -4 5 12 -0.65 -1.50
 -3 5 12 0.27 -0.18
 -2 5 12 -0.73 -1.05
 -1 5 12 -1.40 -1.80
 0 5 12 1.33 -3.05
 1 5 12 0.93 -0.29
 2 5 12 1.13 -0.94
 3 5 12 -0.25 0.38
 4 5 12 -0.60 0.18
 -9 6 12 1.46 0.69
 -8 6 12 -0.72 1.88
 -7 6 12 -1.16 -0.64
 -6 6 12 0.06 0.30
 -5 6 12 2.26 0.65
 -4 6 12 -0.41 2.25
 -3 6 12 0.71 -0.67
 -2 6 12 0.75 2.21
 -1 6 12 -0.64 0.88
 0 6 12 -0.17 1.28
 1 6 12 -0.45 0.49
 2 6 12 -0.33 -0.07
 -7 7 12 1.28 1.45
 -6 7 12 -0.36 0.15
 -5 7 12 -0.58 -0.86
 -4 7 12 0.42 -0.51
 -3 7 12 -0.15 0.72
 -2 7 12 -0.21 0.16
 -1 7 12 0.58 0.49
 0 7 12 -0.74 -0.03
 -3 -15 13 1.01 0.25
 -2 -15 13 0.17 0.63
 -1 -15 13 -0.95 -0.88
 0 -15 13 -0.26 -1.59
 1 -15 13 0.86 -1.74
 -6 -14 13 -0.39 -0.77
 -5 -14 13 0.20 0.08
 -4 -14 13 -0.84 1.93
 -3 -14 13 -1.55 0.80
 -2 -14 13 -0.94 -0.50
 -1 -14 13 0.24 1.28
 0 -14 13 -0.72 0.47
 1 -14 13 0.84 0.99
 2 -14 13 -0.64 1.14
 3 -14 13 -2.22 0.04
 -8 -13 13 1.08 1.88
 -7 -13 13 -2.25 1.97
 -6 -13 13 -1.64 -0.98
 -5 -13 13 1.27 0.19
 -4 -13 13 -0.59 -0.40
 -3 -13 13 -0.31 -1.36
 -2 -13 13 1.54 -0.91
 -1 -13 13 0.98 -0.20
 0 -13 13 -0.42 0.24
 1 -13 13 0.10 -1.92
 2 -13 13 1.27 0.72
 3 -13 13 0.34 -0.24
 4 -13 13 -0.64 0.44
 5 -13 13 -0.36 -0.56
 -9 -12 13 -1.13 3.98
 -8 -12 13 -1.03 -1.27
 -7 -12 13 1.75 -0.38
 -6 -12 13 0.04 -0.04
 -5 -12 13 1.00 -1.68
 -4 -12 13 0.31 1.15
 -3 -12 13 0.52 -1.07
 -2 -12 13 0.27 0.39
 -1 -12 13 0.58 0.80
 0 -12 13 0.05 0.96
 1 -12 13 -0.46 1.44
 2 -12 13 -1.20 -0.37
 3 -12 13 -0.03 0.28
 4 -12 13 0.54 -0.33
 5 -12 13 0.18 0.47
 6 -12 13 0.40 0.40
 -10 -11 13 -1.26 -0.43
 -9 -11 13 0.68 -1.55
 -8 -11 13 -1.08 2.16
 -7 -11 13 -3.64 -1.16
 -6 -11 13 0.48 -1.71
 -5 -11 13 -0.39 2.13
 -4 -11 13 -0.05 -0.77
 -3 -11 13 0.89 1.92
 -2 -11 13 -0.11 2.56
 -1 -11 13 -3.18 0.08
 0 -11 13 -1.03 -0.68
 1 -11 13 -1.23 -1.24
 2 -11 13 -0.31 -0.16
 3 -11 13 -0.60 -2.02
 4 -11 13 1.20 0.57
 5 -11 13 0.19 0.71
 6 -11 13 -0.02 -0.17
 7 -11 13 -1.07 -0.35
 -11 -10 13 -0.46 0.92
 -10 -10 13 -0.11 -1.46
 -9 -10 13 0.33 1.39
 -8 -10 13 -1.27 -1.99
 -7 -10 13 2.36 -1.30
 -6 -10 13 0.90 1.22
 -5 -10 13 0.12 -1.35
 -4 -10 13 -0.41 0.49
 -3 -10 13 -2.39 -0.51
 -2 -10 13 -2.46 -4.34
 -1 -10 13 2.85 -2.24
 0 -10 13 1.78 -1.14
 1 -10 13 2.40 0.10
 2 -10 13 1.56 0.41
 3 -10 13 0.18 1.28
 4 -10 13 -0.48 -1.66
 5 -10 13 -0.23 -1.04
 6 -10 13 -0.65 -0.07
 7 -10 13 1.33 -0.28
 -12 -9 13 -1.23 0.46
 -11 -9 13 1.98 -2.33
 -10 -9 13 2.12 3.49
 -9 -9 13 -2.59 0.91
 -8 -9 13 -0.55 -1.82
 -7 -9 13 2.34 -1.27
 -6 -9 13 1.15 0.82
 -5 -9 13 0.04 -0.15
 -4 -9 13 3.18 -0.20
 -3 -9 13 2.62 1.40
 -2 -9 13 2.11 2.53
 -1 -9 13 -0.18 1.80
 0 -9 13 0.05 0.97
 1 -9 13 -1.16 0.93
 2 -9 13 -0.46 0.13
 3 -9 13 -0.82 1.06
 4 -9 13 -1.27 1.93
 5 -9 13 -0.66 0.74
 6 -9 13 0.94 -0.02
 7 -9 13 -0.92 0.38
 8 -9 13 -0.39 -0.66
 -12 -8 13 -1.29 -1.59
 -11 -8 13 -0.30 0.83
 -10 -8 13 -2.03 -0.18
 -9 -8 13 -0.04 -1.65
 -8 -8 13 0.57 1.70
 -7 -8 13 -1.68 1.13
 -6 -8 13 -1.68 1.48
 -5 -8 13 -2.15 -0.41
 -4 -8 13 -0.70 0.27
 -3 -8 13 -2.86 2.30
 -2 -8 13 -3.71 -1.21
 -1 -8 13 1.16 -0.32
 0 -8 13 -2.54 2.97
 1 -8 13 -1.77 0.46
 2 -8 13 -1.03 -1.23
 3 -8 13 1.65 -0.25
 4 -8 13 1.49 -1.52
 5 -8 13 1.21 -1.05
 6 -8 13 0.70 0.64
 7 -8 13 -1.49 0.81
 8 -8 13 -0.27 -1.77
 -13 -7 13 0.08 2.61
 -12 -7 13 -1.43 -0.56
 -11 -7 13 0.01 -1.45
 -10 -7 13 0.32 -2.28
 -9 -7 13 2.90 -0.09
 -8 -7 13 0.33 -0.13
 -7 -7 13 0.62 -0.55
 -6 -7 13 0.82 -0.22
 -5 -7 13 -0.04 -1.12
 -4 -7 13 1.74 -1.51
 -3 -7 13 1.05 -1.45
 -2 -7 13 2.75 -1.70
 -1 -7 13 -0.67 -0.06
 0 -7 13 0.38 -3.43
 1 -7 13 2.03 -3.22
 2 -7 13 -1.22 0.92
 3 -7 13 -1.83 -4.72
 4 -7 13 0.94 -0.76
 5 -7 13 -0.37 2.38
 6 -7 13 -1.10 -0.96
 7 -7 13 1.33 0.42
 8 -7 13 -0.10 0.10
 -13 -6 13 0.68 -0.77
 -12 -6 13 -0.82 -0.56
 -11 -6 13 1.27 -1.34
 -10 -6 13 1.40 0.79
 -9 -6 13 -1.33 -1.03
 -8 -6 13 1.01 -0.01
 -7 -6 13 -0.23 0.11
 -6 -6 13 0.30 -0.60
 -5 -6 13 -0.20 1.13
 -4 -6 13 -0.97 0.46
 -3 -6 13 -1.07 0.12
 -2 -6 13 0.16 -1.69
 -1 -6 13 4.45 2.56
 0 -6 13 -1.56 2.78
 1 -6 13 2.04 0.80
 2 -6 13 2.79 4.34
 3 -6 13 -2.51 2.84
 4 -6 13 2.46 0.08
 5 -6 13 0.52 0.02
 6 -6 13 0.83 0.35
 7 -6 13 0.19 0.36
 8 -6 13 -0.56 0.17
 -13 -5 13 0.10 -0.19
 -12 -5 13 1.33 -0.58
 -11 -5 13 0.93 2.36
 -10 -5 13 -0.74 2.88
 -9 -5 13 -0.83 3.58
 -8 -5 13 -2.80 0.12
 -7 -5 13 0.65 -0.92
 -6 -5 13 1.01 -0.13
 -5 -5 13 3.28 0.31
 -4 -5 13 0.93 2.56
 -3 -5 13 -0.20 2.52
 -2 -5 13 -1.62 1.92
 -1 -5 13 -2.74 -0.99
 0 -5 13 -0.87 0.12
 1 -5 13 -1.54 -1.66
 2 -5 13 -0.86 -0.56
 3 -5 13 0.19 -1.24
 4 -5 13 -1.22 -0.90
 5 -5 13 -0.49 1.08
 6 -5 13 -1.52 -0.19
 7 -5 13 -0.47 -1.17
 8 -5 13 1.41 0.19
 -13 -4 13 0.90 -0.57
 -12 -4 13 -1.00 1.19
 -11 -4 13 0.38 -1.66
 -10 -4 13 0.18 -2.49
 -9 -4 13 3.16 -2.32
 -8 -4 13 -0.01 2.33
 -7 -4 13 -2.47 -2.10
 -6 -4 13 0.98 -0.41
 -5 -4 13 -2.92 1.27
 -4 -4 13 -1.28 -2.77
 -3 -4 13 2.19 -1.22
 -2 -4 13 -0.79 1.30
 -1 -4 13 -0.92 0.72
 0 -4 13 -0.85 -0.35
 1 -4 13 -3.00 0.27
 2 -4 13 0.78 -4.26
 3 -4 13 0.69 0.87
 4 -4 13 2.11 -0.08
 5 -4 13 0.68 1.79
 6 -4 13 -0.90 0.73
 7 -4 13 -0.22 0.67
 8 -4 13 -1.61 0.43
 -13 -3 13 -1.40 -0.75
 -12 -3 13 0.99 -0.53
 -11 -3 13 -1.77 0.54
 -10 -3 13 -0.72 1.30
 -9 -3 13 -3.53 -0.33
 -8 -3 13 1.22 -0.71
 -7 -3 13 0.98 1.43
 -6 -3 13 0.08 2.41
 -5 -3 13 -0.88 -0.27
 -4 -3 13 -1.25 -0.41
 -3 -3 13 0.38 -2.40
 -2 -3 13 2.43 0.55
 -1 -3 13 0.12 -1.90
 0 -3 13 1.62 -0.85
 1 -3 13 2.90 0.57
 2 -3 13 -2.28 1.55
 3 -3 13 1.86 -1.79
 4 -3 13 -1.97 1.14
 5 -3 13 -0.30 -1.34
 6 -3 13 1.13 -0.83
 7 -3 13 0.92 1.41
 8 -3 13 -0.71 -0.21
 -13 -2 13 -0.89 -0.47
 -12 -2 13 0.96 -0.88
 -11 -2 13 2.05 1.03
 -10 -2 13 -1.00 0.84
 -9 -2 13 1.22 -2.24
 -8 -2 13 2.63 -1.78
 -7 -2 13 0.31 -0.03
 -6 -2 13 1.87 -2.04
 -5 -2 13 0.88 2.02
 -4 -2 13 0.46 1.76
 -3 -2 13 -1.84 1.18
 -2 -2 13 0.08 -0.75
 -1 -2 13 0.65 2.46
 0 -2 13 1.07 1.99
 1 -2 13 -1.50 0.91
 2 -2 13 3.21 -0.56
 3 -2 13 -0.42 4.82
 4 -2 13 -0.99 -0.11
 5 -2 13 -0.64 -0.85
 6 -2 13 0.24 -0.48
 7 -2 13 -0.23 -0.43
 8 -2 13 -0.66 0.31
 -13 -1 13 1.45 -0.38
 -12 -1 13 1.07 -0.45
 -11 -1 13 0.92 1.24
 -10 -1 13 0.17 1.33
 -9 -1 13 -2.69 1.24
 -8 -1 13 -1.89 0.90
 -7 -1 13 -0.61 0.72
 -6 -1 13 -1.56 -0.02
 -5 -1 13 0.75 -0.34
 -4 -1 13 -0.20 -1.01
 -3 -1 13 1.46 1.88
 -2 -1 13 -3.78 1.28
 -1 -1 13 -2.54 -3.45
 0 -1 13 -0.81 -2.60
 1 -1 13 0.00 0.33
 2 -1 13 -2.32 0.78
 3 -1 13 0.44 -1.46
 4 -1 13 -3.28 1.04
 5 -1 13 0.64 -1.45
 6 -1 13 -0.67 1.49
 7 -1 13 -0.88 -0.36
 -13 0 13 -0.55 3.41
 -12 0 13 -4.45 1.57
 -11 0 13 -1.54 -2.93
 -10 0 13 0.19 -0.66
 -9 0 13 1.67 -0.57
 -8 0 13 2.03 0.81
 -7 0 13 -1.32 0.41
 -6 0 13 -0.31 0.38
 -5 0 13 -2.09 -0.47
 -4 0 13 -1.22 -1.56
 -3 0 13 1.56 -2.34
 -2 0 13 0.95 2.25
 -1 0 13 -1.16 0.35
 0 0 13 0.11 0.98
 1 0 13 -2.05 -0.76
 2 0 13 -0.22 -4.75
 3 0 13 0.72 -1.16
 4 0 13 2.51 -1.10
 5 0 13 0.00 0.14
 6 0 13 0.49 -0.33
 7 0 13 -0.74 -0.55
 -13 1 13 -0.30 -0.52
 -12 1 13 0.22 -0.75
 -11 1 13 0.29 -0.74
 -10 1 13 0.77 -0.71
 -9 1 13 -0.03 -1.31
 -8 1 13 1.24 -0.73
 -7 1 13 1.00 1.21
 -6 1 13 1.42 -0.07
 -5 1 13 0.92 2.20
 -4 1 13 -1.10 1.02
 -3 1 13 -0.08 -1.69
 -2 1 13 2.39 -0.85
 -1 1 13 2.39 -0.60
 0 1 13 2.83 0.55
 1 1 13 1.67 2.46
 2 1 13 -1.28 3.89
 3 1 13 -0.20 -0.01
 4 1 13 -0.76 0.32
 5 1 13 0.05 -0.66
 6 1 13 1.02 0.09
 -12 2 13 0.85 -1.30
 -11 2 13 0.78 0.65
 -10 2 13 -0.78 1.05
 -9 2 13 -1.18 1.51
 -8 2 13 -2.79 -0.32
 -7 2 13 0.27 -1.82
 -6 2 13 -1.37 0.91
 -5 2 13 -1.42 -1.64
 -4 2 13 1.27 -0.03
 -3 2 13 -2.22 1.67
 -2 2 13 -0.26 -0.15
 -1 2 13 -3.44 2.13
 0 2 13 -2.00 -1.01
 1 2 13 -1.11 -0.23
 2 2 13 0.56 -1.75
 3 2 13 -0.05 0.12
 4 2 13 -0.01 0.25
 5 2 13 0.45 0.83
 -11 3 13 -0.31 1.13
 -10 3 13 0.95 -1.10
 -9 3 13 3.13 1.31
 -8 3 13 -0.44 1.73
 -7 3 13 -0.64 -0.50
 -6 3 13 0.69 -1.45
 -5 3 13 2.24 -0.82
 -4 3 13 0.84 -0.10
 -3 3 13 1.35 0.21
 -2 3 13 -1.20 -0.18
 -1 3 13 1.03 -1.31
 0 3 13 0.02 -1.88
 1 3 13 1.91 -1.30
 2 3 13 -0.59 0.72
 3 3 13 -0.66 -1.34
 4 3 13 1.37 -1.93
 -10 4 13 -1.30 -0.93
 -9 4 13 -0.77 -1.68
 -8 4 13 0.03 0.94
 -7 4 13 -0.94 0.65
 -6 4 13 -1.38 1.32
 -5 4 13 -3.32 0.14
 -4 4 13 -0.73 -1.60
 -3 4 13 1.10 0.15
 -2 4 13 0.65 0.90
 -1 4 13 -0.90 1.62
 0 4 13 -1.05 0.86
 1 4 13 -2.22 0.69
 2 4 13 -0.35 -1.82
 3 4 13 0.99 -0.18
 -9 5 13 -0.08 -0.10
 -8 5 13 0.18 -1.11
 -7 5 13 0.90 -1.19
 -6 5 13 0.74 0.43
 -5 5 13 2.02 -0.54
 -4 5 13 -0.10 1.94
 -3 5 13 -1.51 -1.28
 -2 5 13 -0.51 -0.06
 -1 5 13 0.08 -1.70
 0 5 13 1.16 -0.88
 1 5 13 2.37 1.01
 2 5 13 -1.02 1.08
 -7 6 13 -0.03 1.35
 -6 6 13 0.09 -1.97
 -5 6 13 -0.13 -0.53
 -4 6 13 1.57 -1.10
 -3 6 13 1.25 1.28
 -2 6 13 0.23 0.23
 -1 6 13 0.05 -0.72
 0 6 13 0.80 0.22
 -5 -14 14 0.87 0.00
 -4 -14 14 0.84 -0.12
 -3 -14 14 -0.29 0.00
 -2 -14 14 0.36 0.27
 -1 -14 14 -0.30 -1.87
 0 -14 14 1.90 -0.85
 1 -14 14 0.07 1.05
 2 -14 14 -1.10 0.25
 -7 -13 14 0.13 -0.88
 -6 -13 14 0.95 -0.25
 -5 -13 14 -0.55 -0.83
 -4 -13 14 -0.21 0.87
 -3 -13 14 -0.14 0.09
 -2 -13 14 -1.26 0.19
 -1 -13 14 -1.24 0.11
 0 -13 14 0.19 -0.78
 1 -13 14 1.05 0.84
 2 -13 14 -0.13 -0.14
 3 -13 14 0.33 0.36
 4 -13 14 -0.22 0.23
 -9 -12 14 -0.32 0.42
 -8 -12 14 -1.26 -0.40
 -7 -12 14 -0.86 0.98
 -6 -12 14 -1.00 1.32
 -5 -12 14 -2.19 0.84
 -4 -12 14 0.16 -3.24
 -3 -12 14 1.32 -0.46
 -2 -12 14 2.61 0.17
 -1 -12 14 0.83 1.45
 0 -12 14 -0.62 0.91
 1 -12 14 -0.90 0.14
 2 -12 14 -0.85 0.74
 3 -12 14 -1.07 -1.01
 4 -12 14 0.48 -0.37
 5 -12 14 0.61 0.41
 -10 -11 14 0.03 1.19
 -9 -11 14 -0.75 0.47
 -8 -11 14 0.34 0.80
 -7 -11 14 -1.07 -0.53
 -6 -11 14 0.44 -1.95
 -5 -11 14 1.45 -1.23
 -4 -11 14 0.81 1.67
 -3 -11 14 0.32 1.97
 -2 -11 14 -2.52 1.40
 -1 -11 14 -2.22 1.10
 0 -11 14 -2.32 -2.23
 1 -11 14 0.81 -1.55
 2 -11 14 0.37 -1.36
 3 -11 14 1.16 0.05
 4 -11 14 -0.12 -0.23
 5 -11 14 -0.26 -0.28
 6 -11 14 0.00 0.62
 -10 -10 14 -0.25 -1.30
 -9 -10 14 0.83 -0.92
 -8 -10 14 0.09 -0.19
 -7 -10 14 0.14 0.47
 -6 -10 14 -1.22 -1.08
 -5 -10 14 0.87 -0.63
 -4 -10 14 0.54 -0.25
 -3 -10 14 -1.12 -1.74
 -2 -10 14 1.07 -1.90
 -1 -10 14 1.69 -2.51
 0 -10 14 1.98 0.33
 1 -10 14 0.32 0.39
 2 -10 14 0.24 0.58
 3 -10 14 -0.10 0.83
 4 -10 14 -0.79 0.77
 5 -10 14 0.63 -0.07
 6 -10 14 1.48 -0.73
 -11 -9 14 0.41 2.23
 -10 -9 14 -0.55 0.95
 -9 -9 14 -0.90 0.23
 -8 -9 14 -0.17 -0.17
 -7 -9 14 -0.30 -0.43
 -6 -9 14 1.39 0.26
 -5 -9 14 1.11 1.56
 -4 -9 14 -1.47 1.36
 -3 -9 14 1.50 0.13
 -2 -9 14 1.15 2.68
 -1 -9 14 -0.02 1.37
 0 -9 14 1.42 2.31
 1 -9 14 0.25 2.15
 2 -9 14 0.32 1.04
 3 -9 14 0.24 0.53
 4 -9 14 0.05 -0.72
 5 -9 14 -0.99 -1.21
 6 -9 14 -0.97 -0.38
 7 -9 14 -0.21 -0.46
 -12 -8 14 -0.34 1.63
 -11 -8 14 -1.26 -0.30
 -10 -8 14 -0.31 -1.12
 -9 -8 14 0.82 0.96
 -8 -8 14 -1.09 -0.34
 -7 -8 14 0.66 -0.64
 -6 -8 14 0.35 0.53
 -5 -8 14 -1.67 0.90
 -4 -8 14 -0.29 -1.52
 -3 -8 14 -1.23 0.32
 -2 -8 14 -1.83 -0.80
 -1 -8 14 -2.97 0.06
 0 -8 14 -3.17 -2.47
 1 -8 14 -1.87 -3.33
 2 -8 14 -1.03 -0.77
 3 -8 14 -2.07 -0.98
 4 -8 14 -1.06 -0.45
 5 -8 14 1.36 2.25
 6 -8 14 -1.29 0.62
 7 -8 14 1.53 -0.50
 -12 -7 14 -0.61 0.13
 -11 -7 14 -2.61 -1.74
 -10 -7 14 1.03 -2.34
 -9 -7 14 -0.43 -1.19
 -8 -7 14 0.03 0.16
 -7 -7 14 -0.81 -0.38
 -6 -7 14 -1.34 -1.56
 -5 -7 14 1.71 -2.25
 -4 -7 14 -0.45 0.59
 -3 -7 14 2.16 -2.11
 -2 -7 14 1.53 1.16
 -1 -7 14 1.41 -1.42
 0 -7 14 2.64 0.75
 1 -7 14 -0.59 1.33
 2 -7 14 2.42 -2.20
 3 -7 14 2.10 0.87
 4 -7 14 1.88 -0.84
 5 -7 14 1.66 -1.85
 6 -7 14 0.16 0.94
 7 -7 14 -0.63 -1.18
 -12 -6 14 0.16 -0.63
 -11 -6 14 2.79 0.50
 -10 -6 14 0.44 2.33
 -9 -6 14 1.82 0.61
 -8 -6 14 3.61 0.06
 -7 -6 14 1.65 4.70
 -6 -6 14 -2.18 1.49
 -5 -6 14 0.31 -0.94
 -4 -6 14 1.86 0.40
 -3 -6 14 -0.21 1.04
 -2 -6 14 0.74 1.09
 -1 -6 14 -0.99 0.24
 0 -6 14 3.20 0.44
 1 -6 14 0.42 4.02
 2 -6 14 -2.99 -0.37
 3 -6 14 1.60 -0.09
 4 -6 14 -1.85 1.09
 5 -6 14 -1.12 0.46
 6 -6 14 1.36 0.27
 7 -6 14 -0.64 1.35
 -13 -5 14 -0.87 -0.97
 -12 -5 14 0.89 -0.54
 -11 -5 14 0.01 0.29
 -10 -5 14 -0.52 0.13
 -9 -5 14 -4.25 -0.64
 -8 -5 14 -2.99 -2.31
 -7 -5 14 -1.03 -3.98
 -6 -5 14 1.87 -1.41
 -5 -5 14 0.22 1.14
 -4 -5 14 -0.64 2.33
 -3 -5 14 -2.76 0.75
 -2 -5 14 -2.04 -1.46
 -1 -5 14 0.37 0.04
 0 -5 14 -2.42 -0.44
 1 -5 14 -0.58 0.09
 2 -5 14 -1.43 0.37
 3 -5 14 -1.16 0.07
 4 -5 14 -1.53 0.75
 5 -5 14 0.08 -2.83
 6 -5 14 0.87 -0.42
 7 -5 14 0.99 0.35
 -13 -4 14 -1.26 0.72
 -12 -4 14 -0.45 -1.40
 -11 -4 14 0.06 -0.31
 -10 -4 14 1.45 0.36
 -9 -4 14 1.76 2.77
 -8 -4 14 0.21 0.95
 -7 -4 14 1.60 1.71
 -6 -4 14 -0.65 0.57
 -5 -4 14 1.39 -2.45
 -4 -4 14 2.24 -1.06
 -3 -4 14 0.74 -0.61
 -2 -4 14 2.43 -0.44
 -1 -4 14 -0.81 0.59
 0 -4 14 -0.77 -0.60
 1 -4 14 0.72 -3.24
 2 -4 14 1.34 -0.62
 3 -4 14 2.64 -1.51
 4 -4 14 1.96 0.94
 5 -4 14 0.35 1.78
 6 -4 14 -0.04 1.60
 7 -4 14 -1.85 -0.22
 -13 -3 14 1.44 -0.44
 -12 -3 14 -0.06 1.90
 -11 -3 14 -0.79 -0.15
 -10 -3 14 0.08 -1.79
 -9 -3 14 2.09 0.53
 -8 -3 14 -1.18 0.69
 -7 -3 14 -2.79 0.79
 -6 -3 14 -1.65 -2.67
 -5 -3 14 0.60 1.74
 -4 -3 14 -0.80 1.36
 -3 -3 14 0.44 1.69
 -2 -3 14 -0.13 1.40
 -1 -3 14 0.47 1.92
 0 -3 14 0.23 -0.48
 1 -3 14 0.76 1.02
 2 -3 14 0.75 0.18
 3 -3 14 -0.53 1.00
 4 -3 14 -0.16 0.67
 5 -3 14 -1.08 -1.01
 6 -3 14 -0.20 -0.36
 7 -3 14 0.65 -0.18
 -13 -2 14 -0.01 0.77
 -12 -2 14 -0.50 -0.98
 -11 -2 14 -0.44 -0.14
 -10 -2 14 -0.01 -0.21
 -9 -2 14 -2.28 -0.89
 -8 -2 14 -0.96 -1.79
 -7 -2 14 4.55 -2.86
 -6 -2 14 1.94 4.27
 -5 -2 14 -2.47 0.37
 -4 -2 14 -1.62 -2.39
 -3 -2 14 0.06 -1.49
 -2 -2 14 -0.69 -1.21
 -1 -2 14 -0.45 -0.33
 0 -2 14 -1.41 0.59
 1 -2 14 -0.41 0.17
 2 -2 14 -1.13 1.85
 3 -2 14 -0.88 -1.61
 4 -2 14 0.56 -0.21
 5 -2 14 0.99 1.75
 6 -2 14 -1.01 1.15
 -12 -1 14 1.76 1.88
 -11 -1 14 0.40 1.37
 -10 -1 14 -0.76 1.00
 -9 -1 14 0.92 1.04
 -8 -1 14 0.67 -0.56
 -7 -1 14 -0.10 0.31
 -6 -1 14 1.29 -0.25
 -5 -1 14 2.65 0.45
 -4 -1 14 0.78 4.38
 -3 -1 14 -2.53 0.38
 -2 -1 14 0.38 -0.41
 -1 -1 14 1.97 0.32
 0 -1 14 1.26 1.27
 1 -1 14 0.11 1.27
 2 -1 14 -0.17 0.16
 3 -1 14 -2.74 2.27
 4 -1 14 -0.22 -1.47
 5 -1 14 -0.73 -0.18
 6 -1 14 0.01 -0.52
 -12 0 14 -0.29 0.90
 -11 0 14 -1.81 -0.32
 -10 0 14 1.09 -1.37
 -9 0 14 -0.28 0.48
 -8 0 14 -0.83 0.24
 -7 0 14 -0.75 1.53
 -6 0 14 -2.50 -1.29
 -5 0 14 -1.54 -1.33
 -4 0 14 1.82 -2.53
 -3 0 14 1.22 2.16
 -2 0 14 -0.96 -0.63
 -1 0 14 -0.93 -0.64
 0 0 14 -2.41 -0.50
 1 0 14 -0.63 -3.68
 2 0 14 1.04 0.69
 3 0 14 0.52 -1.88
 4 0 14 0.78 -0.54
 5 0 14 -0.04 1.06
 -12 1 14 0.29 -1.82
 -11 1 14 -0.33 0.64
 -10 1 14 -1.92 -0.69
 -9 1 14 0.73 -1.50
 -8 1 14 1.45 0.33
 -7 1 14 1.33 1.18
 -6 1 14 -1.60 3.09
 -5 1 14 -1.85 -1.13
 -4 1 14 0.52 -1.01
 -3 1 14 -0.82 1.21
 -2 1 14 -1.48 -1.38
 -1 1 14 1.67 0.73
 0 1 14 0.34 0.30
 1 1 14 0.55 0.57
 2 1 14 1.69 -0.75
 3 1 14 -0.87 1.51
 4 1 14 -0.34 -1.10
 5 1 14 1.49 0.01
 -11 2 14 1.05 1.21
 -10 2 14 -0.71 0.76
 -9 2 14 0.31 -1.29
 -8 2 14 1.15 0.40
 -7 2 14 -0.99 -0.62
 -6 2 14 1.92 -1.68
 -5 2 14 1.08 1.69
 -4 2 14 -2.23 0.38
 -3 2 14 1.57 -1.73
 -2 2 14 0.56 1.38
 -1 2 14 0.71 -0.52
 0 2 14 -0.04 2.17
 1 2 14 -1.39 0.49
 2 2 14 -2.58 0.65
 3 2 14 0.04 -1.26
 4 2 14 -0.02 0.88
 -10 3 14 1.80 -1.51
 -9 3 14 0.31 1.81
 -8 3 14 -1.82 1.04
 -7 3 14 -1.23 -0.35
 -6 3 14 -0.34 0.09
 -5 3 14 -0.85 0.43
 -4 3 14 -0.19 0.08
 -3 3 14 -1.07 -0.28
 -2 3 14 -0.04 -0.57
 -1 3 14 -1.42 0.06
 0 3 14 -0.57 -1.64
 1 3 14 0.29 -0.23
 2 3 14 1.42 0.37
 3 3 14 -1.16 1.27
 -9 4 14 -0.82 1.62
 -8 4 14 -0.29 -0.83
 -7 4 14 0.64 0.38
 -6 4 14 -0.56 0.11
 -5 4 14 0.72 -1.71
 -4 4 14 1.54 -0.44
 -3 4 14 1.40 0.05
 -2 4 14 0.71 1.99
 -1 4 14 0.53 0.10
 0 4 14 0.18 1.66
 1 4 14 -0.95 -1.05
 -7 5 14 -0.36 0.08
 -6 5 14 -0.38 -1.33
 -5 5 14 -1.33 0.39
 -4 5 14 -0.42 -1.03
 -3 5 14 -0.80 0.58
 -2 5 14 -0.36 -2.18
 -1 5 14 -0.24 -0.08
 -3 -14 15 0.74 -0.23
 -2 -14 15 -0.25 0.65
 -1 -14 15 -0.61 0.44
 0 -14 15 0.05 0.33
 -6 -13 15 -0.69 1.47
 -5 -13 15 -1.08 1.72
 -4 -13 15 -0.85 -2.24
 -3 -13 15 0.41 -0.22
 -2 -13 15 0.85 0.94
 -1 -13 15 0.24 0.22
 0 -13 15 0.42 0.69
 1 -13 15 -1.76 0.44
 2 -13 15 0.16 0.32
 -8 -12 15 0.66 2.25
 -7 -12 15 -1.10 -0.06
 -6 -12 15 -0.98 -1.49
 -5 -12 15 -0.26 -1.81
 -4 -12 15 -0.27 0.04
 -3 -12 15 1.92 -0.86
 -2 -12 15 -0.73 0.47
 -1 -12 15 -0.60 -0.18
 0 -12 15 -0.59 -0.54
 1 -12 15 0.87 -0.12
 2 -12 15 -0.45 -0.35
 3 -12 15 0.16 -0.55
 4 -12 15 0.59 -0.09
 -9 -11 15 0.11 0.85
 -8 -11 15 -1.39 -0.76
 -7 -11 15 0.09 -0.75
 -6 -11 15 0.09 0.07
 -5 -11 15 0.71 -0.62
 -4 -11 15 2.55 -0.38
 -3 -11 15 -0.60 2.04
 -2 -11 15 -1.16 1.26
 -1 -11 15 -0.61 -1.99
 0 -11 15 1.02 0.73
 1 -11 15 -1.97 -0.76
 2 -11 15 1.04 -1.49
 3 -11 15 1.13 0.55
 4 -11 15 0.09 0.40
 -10 -10 15 1.21 -0.11
 -9 -10 15 -0.27 1.02
 -8 -10 15 -0.94 1.31
 -7 -10 15 -0.37 -0.86
 -6 -10 15 0.84 1.82
 -5 -10 15 -2.40 0.80
 -4 -10 15 -1.77 -1.24
 -3 -10 15 1.09 -0.62
 -2 -10 15 0.75 -1.18
 -1 -10 15 0.80 0.58
 0 -10 15 1.07 -0.06
 1 -10 15 0.57 1.14
 2 -10 15 0.17 -0.49
 3 -10 15 0.37 -0.29
 4 -10 15 0.01 -0.39
 5 -10 15 -0.75 0.19
 -10 -9 15 -0.45 0.30
 -9 -9 15 -0.18 -0.83
 -8 -9 15 1.03 -0.84
 -7 -9 15 -0.83 0.16
 -6 -9 15 0.06 -2.94
 -5 -9 15 2.45 -0.06
 -4 -9 15 1.35 1.21
 -3 -9 15 -1.07 0.49
 -2 -9 15 -0.33 0.53
 -1 -9 15 -0.20 1.39
 0 -9 15 -1.83 0.44
 1 -9 15 -0.03 -0.40
 2 -9 15 -0.99 2.67
 3 -9 15 -2.80 0.96
 4 -9 15 -1.33 -0.46
 5 -9 15 1.57 -0.80
 6 -9 15 2.72 0.54
 -11 -8 15 -1.81 1.45
 -10 -8 15 -1.23 0.71
 -9 -8 15 -1.59 -0.35
 -8 -8 15 -0.42 -0.83
 -7 -8 15 1.47 0.26
 -6 -8 15 -0.04 2.34
 -5 -8 15 -1.21 0.06
 -4 -8 15 -0.98 0.02
 -3 -8 15 0.46 0.67
 -2 -8 15 -0.90 -0.99
 -1 -8 15 0.88 -1.21
 0 -8 15 0.06 -0.11
 1 -8 15 0.03 -0.14
 2 -8 15 0.98 -0.89
 3 -8 15 0.66 -0.73
 4 -8 15 1.36 -0.24
 5 -8 15 -1.80 -1.09
 6 -8 15 -0.13 -0.92
 -11 -7 15 1.54 -1.86
 -10 -7 15 1.67 -0.17
 -9 -7 15 0.80 1.46
 -8 -7 15 0.23 -1.14
 -7 -7 15 0.18 0.34
 -6 -7 15 -0.82 -0.99
 -5 -7 15 -0.51 -1.34
 -4 -7 15 2.16 -1.59
 -3 -7 15 -0.20 0.47
 -2 -7 15 -0.63 0.18
 -1 -7 15 -0.34 0.12
 0 -7 15 -0.88 -0.88
 1 -7 15 1.58 -2.34
 2 -7 15 0.43 -0.36
 3 -7 15 0.89 -0.12
 4 -7 15 -0.69 0.79
 5 -7 15 -0.90 1.27
 6 -7 15 0.49 -0.72
 -12 -6 15 -1.10 -1.29
 -11 -6 15 -0.29 -1.40
 -10 -6 15 1.31 -1.36
 -9 -6 15 1.03 0.21
 -8 -6 15 -2.01 3.72
 -7 -6 15 -2.76 -1.56
 -6 -6 15 0.87 -0.52
 -5 -6 15 0.23 0.56
 -4 -6 15 0.18 0.00
 -3 -6 15 2.25 0.67
 -2 -6 15 1.33 1.20
 -1 -6 15 1.04 1.04
 0 -6 15 -0.36 1.67
 1 -6 15 -1.25 1.32
 2 -6 15 -0.79 1.40
 3 -6 15 -0.78 -0.88
 4 -6 15 1.57 0.37
 5 -6 15 1.30 -0.86
 6 -6 15 0.61 0.34
 -12 -5 15 1.15 0.86
 -11 -5 15 -0.01 2.93
 -10 -5 15 -3.12 0.94
 -9 -5 15 0.99 -1.13
 -8 -5 15 1.53 -1.13
 -7 -5 15 1.64 0.05
 -6 -5 15 1.25 0.34
 -5 -5 15 -1.35 1.52
 -4 -5 15 -2.39 -2.44
 -3 -5 15 -0.92 -0.68
 -2 -5 15 -2.23 -1.24
 -1 -5 15 -0.94 -1.51
 0 -5 15 0.96 0.57
 1 -5 15 -0.11 -0.27
 2 -5 15 -0.13 0.92
 3 -5 15 -2.10 -0.60
 4 -5 15 0.97 -2.45
 5 -5 15 -0.57 2.07
 6 -5 15 -0.80 -1.01
 -12 -4 15 -0.57 0.35
 -11 -4 15 -0.19 -1.61
 -10 -4 15 1.51 -0.53
 -9 -4 15 0.07 -0.27
 -8 -4 15 -0.32 0.82
 -7 -4 15 -0.85 -0.99
 -6 -4 15 1.06 0.01
 -5 -4 15 1.66 0.63
 -4 -4 15 1.01 2.44
 -3 -4 15 0.92 -0.30
 -2 -4 15 2.28 0.38
 -1 -4 15 1.60 0.64
 0 -4 15 -0.31 -1.68
 1 -4 15 0.29 -0.33
 2 -4 15 0.66 -1.69
 3 -4 15 0.58 -0.27
 4 -4 15 0.74 0.72
 5 -4 15 -0.26 0.06
 6 -4 15 -0.58 -0.50
 -12 -3 15 -2.21 -2.46
 -11 -3 15 2.76 -1.93
 -10 -3 15 1.33 3.56
 -9 -3 15 -2.97 0.64
 -8 -3 15 -0.69 1.70
 -7 -3 15 -2.48 0.62
 -6 -3 15 -2.43 -1.85
 -5 -3 15 1.17 -2.47
 -4 -3 15 0.96 0.61
 -3 -3 15 -0.28 1.37
 -2 -3 15 -2.25 1.26
 -1 -3 15 -2.19 -0.30
 0 -3 15 0.82 1.05
 1 -3 15 -0.50 1.10
 2 -3 15 0.25 -0.05
 3 -3 15 1.79 1.19
 4 -3 15 -0.38 0.58
 5 -3 15 0.58 1.06
 6 -3 15 1.17 0.61
 -12 -2 15 1.48 0.42
 -11 -2 15 -0.54 1.28
 -10 -2 15 -1.66 -1.69
 -9 -2 15 1.70 -1.07
 -8 -2 15 2.37 -2.42
 -7 -2 15 0.74 0.08
 -6 -2 15 1.75 0.09
 -5 -2 15 -0.78 -0.03
 -4 -2 15 0.20 -0.84
 -3 -2 15 0.95 -1.54
 -2 -2 15 2.16 1.51
 -1 -2 15 1.28 0.15
 0 -2 15 0.17 0.68
 1 -2 15 -0.32 0.30
 2 -2 15 -0.56 -1.14
 3 -2 15 0.10 0.33
 4 -2 15 -0.04 0.22
 5 -2 15 -0.04 -1.15
 -12 -1 15 1.21 2.02
 -11 -1 15 -0.23 1.09
 -10 -1 15 -0.30 0.80
 -9 -1 15 -0.84 -1.35
 -8 -1 15 0.11 0.69
 -7 -1 15 0.87 0.35
 -6 -1 15 0.67 -1.21
 -5 -1 15 1.99 2.84
 -4 -1 15 -1.26 1.29
 -3 -1 15 -1.40 0.08
 -2 -1 15 -0.24 -2.38
 -1 -1 15 -0.99 -0.66
 0 -1 15 0.57 -0.69
 1 -1 15 0.91 0.82
 2 -1 15 -0.35 2.91
 3 -1 15 -0.89 0.83
 4 -1 15 -2.55 -0.09
 5 -1 15 -0.30 -0.39
 -11 0 15 -0.38 -1.01
 -10 0 15 -0.16 0.94
 -9 0 15 -0.50 1.23
 -8 0 15 -1.53 0.76
 -7 0 15 -0.74 -1.05
 -6 0 15 0.55 2.83
 -5 0 15 -1.06 0.25
 -4 0 15 -0.96 1.13
 -3 0 15 0.20 0.17
 -2 0 15 -0.73 3.10
 -1 0 15 -1.77 1.74
 0 0 15 -1.15 -1.66
 1 0 15 0.13 -0.66
 2 0 15 0.03 -1.63
 3 0 15 -0.67 -0.62
 4 0 15 0.55 -0.50
 -10 1 15 1.63 -1.58
 -9 1 15 2.28 0.38
 -8 1 15 0.34 0.50
 -7 1 15 0.16 -1.24
 -6 1 15 0.63 -1.91
 -5 1 15 -0.04 -0.89
 -4 1 15 0.88 -0.99
 -3 1 15 0.11 -0.58
 -2 1 15 1.30 -1.43
 -1 1 15 1.30 -0.98
 0 1 15 0.06 1.52
 1 1 15 -0.59 -0.19
 2 1 15 -0.68 0.02
 3 1 15 1.45 -0.50
 -10 2 15 -1.38 -0.28
 -9 2 15 -0.42 -0.67
 -8 2 15 0.36 0.31
 -7 2 15 0.49 2.68
 -6 2 15 -1.75 3.24
 -5 2 15 -1.95 0.12
 -4 2 15 0.04 -0.51
 -3 2 15 0.56 0.04
 -2 2 15 0.26 1.13
 -1 2 15 -0.88 1.71
 0 2 15 0.24 -0.77
 1 2 15 0.84 1.56
 2 2 15 0.84 1.02
 -8 3 15 0.36 -1.49
 -7 3 15 0.51 -0.39
 -6 3 15 0.18 -1.47
 -5 3 15 1.05 -0.01
 -4 3 15 -0.86 0.99
 -3 3 15 -2.20 -0.48
 -2 3 15 -1.07 -1.17
 -1 3 15 -0.34 -2.82
 0 3 15 1.60 -0.34
 -6 4 15 -2.20 -1.36
 -5 4 15 0.73 -1.59
 -4 4 15 1.07 -0.23
 -3 4 15 1.40 1.01
 -2 4 15 0.52 -0.05
 -4 -13 16 0.74 0.38
 -3 -13 16 0.04 1.56
 -2 -13 16 -1.87 -0.87
 -1 -13 16 -0.22 -0.11
 0 -13 16 -1.26 0.95
 -7 -12 16 -0.45 2.75
 -6 -12 16 -2.27 0.16
 -5 -12 16 0.18 -1.61
 -4 -12 16 1.14 -1.96
 -3 -12 16 -0.70 -0.32
 -2 -12 16 1.07 -0.17
 -1 -12 16 0.43 0.54
 0 -12 16 -0.30 -0.29
 1 -12 16 -1.12 -0.59
 2 -12 16 -0.44 0.01
 -8 -11 16 -0.93 1.31
 -7 -11 16 0.24 -0.15
 -6 -11 16 0.06 -0.25
 -5 -11 16 0.85 -0.14
 -4 -11 16 0.23 1.90
 -3 -11 16 1.22 0.27
 -2 -11 16 0.97 0.13
 -1 -11 16 -0.29 1.16
 0 -11 16 -0.74 -0.72
 1 -11 16 1.68 -0.56
 2 -11 16 0.89 -0.08
 3 -11 16 1.07 0.09
 -9 -10 16 -0.26 1.20
 -8 -10 16 -0.47 -0.59
 -7 -10 16 -1.24 0.75
 -6 -10 16 -1.45 -1.71
 -5 -10 16 1.52 -0.09
 -4 -10 16 -0.72 1.73
 -3 -10 16 -2.77 -0.54
 -2 -10 16 -1.13 0.20
 -1 -10 16 -0.23 -0.21
 0 -10 16 -0.14 0.41
 1 -10 16 -0.20 -0.15
 2 -10 16 0.06 1.24
 3 -10 16 -0.67 0.69
 4 -10 16 0.72 0.10
 -10 -9 16 0.53 1.20
 -9 -9 16 -0.01 0.74
 -8 -9 16 -2.41 -0.42
 -7 -9 16 1.24 -2.75
 -6 -9 16 1.79 1.25
 -5 -9 16 -1.01 -0.82
 -4 -9 16 0.85 -2.24
 -3 -9 16 2.72 0.29
 -2 -9 16 0.81 -0.68
 -1 -9 16 1.09 -0.62
 0 -9 16 0.08 0.71
 1 -9 16 -0.71 0.46
 2 -9 16 -0.35 -0.69
 3 -9 16 -0.39 -0.68
 4 -9 16 -0.90 -1.37
 -10 -8 16 -0.58 -0.60
 -9 -8 16 0.75 -0.70
 -8 -8 16 2.13 0.44
 -7 -8 16 0.68 1.61
 -6 -8 16 -1.02 1.05
 -5 -8 16 -1.03 0.66
 -4 -8 16 -0.28 1.14
 -3 -8 16 -1.67 -1.36
 -2 -8 16 1.01 1.72
 -1 -8 16 -1.67 1.22
 0 -8 16 0.73 -0.63
 1 -8 16 0.22 0.25
 2 -8 16 -0.48 -0.57
 3 -8 16 0.03 0.60
 4 -8 16 -0.25 -0.03
 5 -8 16 0.43 1.39
 -11 -7 16 -1.54 -1.07
 -10 -7 16 -0.35 0.45
 -9 -7 16 -1.20 -1.07
 -8 -7 16 -0.78 1.13
 -7 -7 16 -2.00 -0.20
 -6 -7 16 0.32 -1.10
 -5 -7 16 1.01 0.51
 -4 -7 16 -1.37 -0.65
 -3 -7 16 1.28 0.05
 -2 -7 16 0.37 -0.02
 -1 -7 16 -1.65 -0.30
 0 -7 16 -0.88 -2.33
 1 -7 16 0.88 0.24
 2 -7 16 -0.35 1.52
 3 -7 16 -0.06 -0.55
 4 -7 16 -0.02 0.70
 5 -7 16 -0.27 -1.54
 -11 -6 16 2.92 -0.66
 -10 -6 16 1.10 1.48
 -9 -6 16 -0.55 0.72
 -8 -6 16 1.99 -2.30
 -7 -6 16 1.12 1.36
 -6 -6 16 -1.76 -0.54
 -5 -6 16 -0.42 -2.88
 -4 -6 16 2.63 0.04
 -3 -6 16 -1.49 0.93
 -2 -6 16 -0.44 -1.35
 -1 -6 16 1.47 1.59
 0 -6 16 -0.03 1.23
 1 -6 16 0.88 -0.17
 2 -6 16 0.15 -1.05
 3 -6 16 0.69 -0.88
 4 -6 16 1.19 -1.10
 5 -6 16 0.67 0.91
 -11 -5 16 -1.45 0.74
 -10 -5 16 0.22 -0.99
 -9 -5 16 0.62 -1.05
 -8 -5 16 0.55 0.78
 -7 -5 16 0.69 1.08
 -6 -5 16 -0.89 1.38
 -5 -5 16 1.14 0.25
 -4 -5 16 -0.16 1.45
 -3 -5 16 0.56 -0.14
 -2 -5 16 0.60 -0.31
 -1 -5 16 1.98 -1.07
 0 -5 16 -0.05 0.86
 1 -5 16 -2.94 1.34
 2 -5 16 -1.39 -1.49
 3 -5 16 0.03 1.45
 4 -5 16 -2.53 0.44
 5 -5 16 1.21 -1.21
 -11 -4 16 -0.86 0.79
 -10 -4 16 -1.64 -0.30
 -9 -4 16 -0.46 0.21
 -8 -4 16 0.31 1.13
 -7 -4 16 -2.13 1.30
 -6 -4 16 -0.59 -2.36
 -5 -4 16 0.48 -0.36
 -4 -4 16 -1.00 1.00
 -3 -4 16 -2.70 -1.76
 -2 -4 16 0.49 -1.39
 -1 -4 16 -0.95 1.27
 0 -4 16 -0.59 0.90
 1 -4 16 1.07 -1.92
 2 -4 16 0.81 0.36
 3 -4 16 1.60 -1.37
 4 -4 16 0.49 0.39
 -11 -3 16 0.41 0.08
 -10 -3 16 1.53 -0.94
 -9 -3 16 1.00 3.08
 -8 -3 16 -2.95 -1.90
 -7 -3 16 0.50 -2.96
 -6 -3 16 1.98 0.10
 -5 -3 16 -0.46 0.47
 -4 -3 16 1.40 -1.74
 -3 -3 16 1.67 1.00
 -2 -3 16 1.16 0.67
 -1 -3 16 1.06 -0.59
 0 -3 16 0.29 -2.52
 1 -3 16 2.20 0.41
 2 -3 16 0.61 0.63
 3 -3 16 -0.75 1.33
 4 -3 16 -0.22 -0.07
 -11 -2 16 0.23 -0.70
 -10 -2 16 1.01 0.16
 -9 -2 16 -0.20 -0.51
 -8 -2 16 -1.37 0.56
 -7 -2 16 1.16 -0.15
 -6 -2 16 -2.03 -0.44
 -5 -2 16 0.48 -0.86
 -4 -2 16 0.44 -0.30
 -3 -2 16 1.16 1.59
 -2 -2 16 -1.81 0.90
 -1 -2 16 -2.08 0.36
 0 -2 16 -0.11 1.87
 1 -2 16 -1.86 -1.27
 2 -2 16 2.24 0.70
 3 -2 16 0.22 1.15
 4 -2 16 -0.71 0.41
 -10 -1 16 -0.67 0.73
 -9 -1 16 -0.66 0.57
 -8 -1 16 1.68 -1.14
 -7 -1 16 1.52 -0.01
 -6 -1 16 3.83 3.40
 -5 -1 16 -1.77 2.33
 -4 -1 16 -1.50 -1.49
 -3 -1 16 1.45 -1.40
 -2 -1 16 1.05 0.40
 -1 -1 16 2.58 0.92
 0 -1 16 -0.01 1.12
 1 -1 16 -0.84 1.27
 2 -1 16 -1.38 -0.94
 3 -1 16 -1.18 -0.11
 -10 0 16 -1.50 -0.16
 -9 0 16 -0.52 -1.58
 -8 0 16 -0.45 -0.87
 -7 0 16 0.64 -0.89
 -6 0 16 -1.56 -0.73
 -5 0 16 -1.01 -0.85
 -4 0 16 1.72 -1.01
 -3 0 16 0.77 1.75
 -2 0 16 -0.65 0.36
 -1 0 16 -0.13 -1.03
 0 0 16 -0.76 1.36
 1 0 16 -1.26 -0.90
 2 0 16 0.08 -0.07
 -9 1 16 -0.61 -0.25
 -8 1 16 1.20 -0.61
 -7 1 16 -0.45 1.65
 -6 1 16 0.96 -0.27
 -5 1 16 1.88 1.00
 -4 1 16 -1.23 2.16
 -3 1 16 -1.77 -0.53
 -2 1 16 -0.91 -0.67
 -1 1 16 -1.17 -0.45
 0 1 16 2.18 -3.15
 1 1 16 3.31 1.41
 -7 2 16 0.05 2.05
 -6 2 16 -2.22 -0.13
 -5 2 16 0.23 -0.84
 -4 2 16 0.85 0.48
 -3 2 16 -0.06 0.67
 -2 2 16 1.12 1.60
 -1 2 16 -1.12 1.47
 -4 -12 17 -1.07 0.55
 -3 -12 17 1.17 -2.02
 -2 -12 17 1.26 -1.03
 -1 -12 17 0.00 -0.29
 -6 -11 17 -0.03 -0.06
 -5 -11 17 0.10 -0.04
 -4 -11 17 1.34 -0.76
 -3 -11 17 0.66 1.66
 -2 -11 17 -0.83 2.50
 -1 -11 17 -0.59 -0.17
 0 -11 17 1.18 -0.15
 1 -11 17 -0.60 0.33
 -8 -10 17 0.78 0.49
 -7 -10 17 -0.68 0.79
 -6 -10 17 -0.13 -0.06
 -5 -10 17 -1.42 0.38
 -4 -10 17 -1.37 -0.78
 -3 -10 17 -0.69 -0.55
 -2 -10 17 0.17 -2.03
 -1 -10 17 0.02 0.07
 0 -10 17 -1.03 0.01
 1 -10 17 -0.16 -0.07
 2 -10 17 0.68 -0.11
 -8 -9 17 -0.09 -1.52
 -7 -9 17 1.01 -0.49
 -6 -9 17 0.11 -0.58
 -5 -9 17 0.35 0.01
 -4 -9 17 1.05 -0.85
 -3 -9 17 1.89 0.09
 -2 -9 17 -0.22 2.09
 -1 -9 17 -0.30 0.40
 0 -9 17 0.13 -0.14
 1 -9 17 0.04 -0.71
 2 -9 17 -0.47 -0.37
 3 -9 17 0.18 0.07
 -9 -8 17 2.17 -0.96
 -8 -8 17 0.91 1.28
 -7 -8 17 -0.37 1.08
 -6 -8 17 0.76 1.30
 -5 -8 17 -0.38 1.46
 -4 -8 17 -1.70 -0.79
 -3 -8 17 0.47 0.34
 -2 -8 17 0.25 -1.11
 -1 -8 17 1.48 -0.26
 0 -8 17 -0.26 1.74
 1 -8 17 -1.29 0.96
 2 -8 17 -0.36 0.58
 3 -8 17 -0.08 -1.10
 -9 -7 17 -1.43 0.94
 -8 -7 17 -0.33 -1.06
 -7 -7 17 0.34 0.12
 -6 -7 17 -1.85 -0.03
 -5 -7 17 -1.90 -1.85
 -4 -7 17 1.34 -0.36
 -3 -7 17 -0.48 0.65
 -2 -7 17 -2.20 0.36
 -1 -7 17 -0.54 -0.66
 0 -7 17 0.86 -0.97
 1 -7 17 2.17 -0.05
 2 -7 17 -0.06 0.33
 3 -7 17 -1.53 0.56
 -10 -6 17 0.10 -1.30
 -9 -6 17 1.96 -1.64
 -8 -6 17 -0.66 0.58
 -7 -6 17 0.03 -1.81
 -6 -6 17 1.68 -1.02
 -5 -6 17 3.23 0.21
 -4 -6 17 0.24 0.64
 -3 -6 17 1.33 -0.70
 -2 -6 17 1.13 1.08
 -1 -6 17 -0.66 -2.03
 0 -6 17 0.35 -0.40
 1 -6 17 -1.83 -1.08
 2 -6 17 1.37 0.38
 3 -6 17 0.30 0.75
 -10 -5 17 -0.94 1.25
 -9 -5 17 0.15 1.80
 -8 -5 17 0.60 2.52
 -7 -5 17 -1.79 2.06
 -6 -5 17 -0.41 0.17
 -5 -5 17 -1.93 0.65
 -4 -5 17 -0.12 0.76
 -3 -5 17 -1.44 0.68
 -2 -5 17 -0.11 0.27
 -1 -5 17 -1.16 2.82
 0 -5 17 -0.75 0.55
 1 -5 17 2.01 0.28
 2 -5 17 -0.67 1.36
 3 -5 17 -1.23 -1.33
 -10 -4 17 0.94 -3.31
 -9 -4 17 2.28 -1.38
 -8 -4 17 0.41 -0.85
 -7 -4 17 1.78 -0.20
 -6 -4 17 -2.19 2.41
 -5 -4 17 -2.55 -1.30
 -4 -4 17 -1.05 -3.73
 -3 -4 17 1.60 -1.78
 -2 -4 17 1.24 0.32
 -1 -4 17 -0.54 -1.47
 0 -4 17 0.64 -2.88
 1 -4 17 -1.42 1.39
 2 -4 17 -1.57 -2.42
 3 -4 17 0.44 -0.90
 -10 -3 17 0.59 1.57
 -9 -3 17 -0.76 1.29
 -8 -3 17 -2.93 1.93
 -7 -3 17 -1.78 -2.23
 -6 -3 17 2.11 -2.47
 -5 -3 17 2.31 0.75
 -4 -3 17 0.85 0.77
 -3 -3 17 1.89 1.32
 -2 -3 17 -2.17 0.19
 -1 -3 17 0.58 -1.67
 0 -3 17 2.08 2.55
 1 -3 17 0.56 -1.28
 2 -3 17 2.82 1.31
 -9 -2 17 -0.54 0.02
 -8 -2 17 1.72 0.35
 -7 -2 17 -2.31 -0.14
 -6 -2 17 1.04 -1.12
 -5 -2 17 1.50 -0.36
 -4 -2 17 -0.19 2.43
 -3 -2 17 -2.23 -0.39
 -2 -2 17 1.13 -0.33
 -1 -2 17 1.33 1.75
 0 -2 17 -1.64 -1.03
 1 -2 17 0.65 1.23
 2 -2 17 -1.47 -0.87
 -9 -1 17 0.32 -1.85
 -8 -1 17 0.69 -0.67
 -7 -1 17 1.38 0.70
 -6 -1 17 -2.28 -0.77
 -5 -1 17 -0.35 -1.14
 -4 -1 17 0.93 -0.68
 -3 -1 17 -0.74 -0.78
 -2 -1 17 0.58 -1.67
 -1 -1 17 0.52 -1.17
 0 -1 17 1.33 1.33
 1 -1 17 -0.57 0.80
 -8 0 17 -2.06 -0.87
 -7 0 17 0.67 -0.65
 -6 0 17 2.14 2.26
 -5 0 17 -0.38 0.43
 -4 0 17 0.12 -0.08
 -3 0 17 1.15 0.72
 -2 0 17 0.22 0.75
 -1 0 17 -0.33 1.80
 -5 1 17 1.30 0.63
 -4 1 17 0.39 1.44
 -3 1 17 -1.01 0.67
 -5 -10 18 -0.78 0.93
 -4 -10 18 -1.30 -0.53
 -3 -10 18 0.01 -1.01
 -2 -10 18 0.15 0.14
 -1 -10 18 0.82 -0.18
 -7 -9 18 -0.19 -0.33
 -6 -9 18 -0.07 0.39
 -5 -9 18 0.88 -1.33
 -4 -9 18 0.53 1.11
 -3 -9 18 -1.29 -0.10
 -2 -9 18 0.79 -0.78
 -1 -9 18 -0.43 0.54
 0 -9 18 -1.00 -0.60
 -7 -8 18 0.17 0.97
 -6 -8 18 -0.44 -0.69
 -5 -8 18 -0.36 0.14
 -4 -8 18 0.69 0.88
 -3 -8 18 -0.68 -0.12
 -2 -8 18 0.33 -0.33
 -1 -8 18 0.25 1.01
 0 -8 18 -0.41 -0.01
 1 -8 18 0.44 -1.41
 -8 -7 18 -1.13 -0.81
 -7 -7 18 0.54 -0.42
 -6 -7 18 -0.75 0.89
 -5 -7 18 0.12 -1.27
 -4 -7 18 0.14 -0.87
 -3 -7 18 -0.73 0.10
 -2 -7 18 0.40 -1.61
 -1 -7 18 1.25 -0.35
 0 -7 18 -0.35 0.74
 1 -7 18 -1.24 0.37
 -8 -6 18 2.23 0.14
 -7 -6 18 0.47 1.53
 -6 -6 18 0.61 0.11
 -5 -6 18 -0.80 0.80
 -4 -6 18 0.49 -0.02
 -3 -6 18 1.46 0.65
 -2 -6 18 -0.51 1.33
 -1 -6 18 -0.76 0.81
 0 -6 18 1.08 -0.21
 1 -6 18 1.22 1.65
 -8 -5 18 -0.26 -0.50
 -7 -5 18 0.11 -0.18
 -6 -5 18 -0.94 0.14
 -5 -5 18 1.17 0.94
 -4 -5 18 -1.63 1.08
 -3 -5 18 -2.14 -0.34
 -2 -5 18 -0.05 -1.00
 -1 -5 18 0.49 -1.07
 0 -5 18 -0.34 -0.35
 1 -5 18 -2.14 0.22
 -8 -4 18 -0.14 1.70
 -7 -4 18 -1.56 0.56
 -6 -4 18 -0.02 -0.73
 -5 -4 18 -1.30 -1.44
 -4 -4 18 0.41 -1.64
 -3 -4 18 1.94 -0.88
 -2 -4 18 -0.19 -0.32
 -1 -4 18 0.77 0.80
 0 -4 18 -1.55 2.50
 -8 -3 18 1.23 -2.29
 -7 -3 18 1.38 0.76
 -6 -3 18 -0.09 0.64
 -5 -3 18 0.65 0.24
 -4 -3 18 0.00 1.08
 -3 -3 18 -1.75 -0.47
 -2 -3 18 1.41 -0.63
 -1 -3 18 0.77 -0.04
 0 -3 18 0.68 -2.18
 -7 -2 18 -0.25 -0.93
 -6 -2 18 -0.23 -0.75
 -5 -2 18 -0.76 1.59
 -4 -2 18 -0.97 -0.74
 -3 -2 18 0.68 -0.07
 -2 -2 18 -0.91 1.07
 -1 -2 18 -2.03 -1.47
 -5 -1 18 -0.69 -0.92
 -4 -1 18 0.00 -1.95
 -5 -7 19 0.22 0.71
 -4 -7 19 0.34 0.65
 -3 -7 19 1.04 -0.67
 -5 -6 19 1.17 1.15
 -4 -6 19 -1.39 1.39
 -3 -6 19 -2.37 0.15
 -4 -5 19 -0.11 -1.87
 1 0 0 -3.51 115.96
 -3 1 0 -0.59 -10.94
 -1 1 0 0.07 30.36
 0 1 0 -101.07 -1.50
 15 2 0 -1.49 1.15
 15 3 0 0.51 -0.53
 15 4 0 0.15 0.86
 14 5 0 0.34 -0.10
 15 5 0 0.57 -0.77
 -15 6 0 0.28 -0.48
 14 6 0 0.12 -0.97
 15 6 0 -0.35 0.58
 -15 7 0 0.11 0.39
 -14 7 0 -0.43 -1.22
 13 7 0 1.24 0.82
 14 7 0 0.05 -0.18
 15 7 0 0.75 0.01
 -15 8 0 0.00 -0.33
 -14 8 0 -0.03 1.04
 -13 8 0 -0.58 0.81
 -12 8 0 0.23 0.01
 -11 8 0 1.55 0.68
 -10 8 0 -1.81 1.42
 12 8 0 -1.09 -0.29
 13 8 0 -0.01 -0.78
 14 8 0 -0.08 0.95
 -15 9 0 0.73 0.20
 -14 9 0 0.55 0.03
 -13 9 0 0.36 -0.16
 -12 9 0 0.55 -0.74
 -11 9 0 1.14 0.95
 -10 9 0 -0.28 1.97
 12 9 0 -0.62 -0.48
 13 9 0 0.38 -0.05
 -15 10 0 -0.08 0.00
 -14 10 0 -0.81 0.35
 -13 10 0 -0.25 -0.05
 -12 10 0 -1.26 0.92
 -11 10 0 -1.62 -1.31
 -10 10 0 -0.16 -0.59
 11 10 0 1.40 -0.30
 12 10 0 0.35 0.02
 -14 11 0 0.38 0.14
 -13 11 0 -0.31 -0.01
 -12 11 0 0.87 0.67
 -11 11 0 -0.28 0.23
 10 11 0 0.55 -0.73
 11 11 0 -0.01 0.26
 12 11 0 -0.09 0.53
 -14 12 0 -0.43 -0.44
 -13 12 0 0.77 -0.30
 -12 12 0 -0.65 0.21
 -11 12 0 -2.22 -0.16
 8 12 0 -1.09 0.02
 9 12 0 0.58 -0.24
 10 12 0 -0.30 -0.12
 11 12 0 -0.01 0.11
 -13 13 0 -0.24 0.01
 -12 13 0 0.00 0.13
 -11 13 0 1.34 -0.71
 -10 13 0 0.26 -0.12
 6 13 0 -1.76 1.42
 7 13 0 -1.40 -0.52
 8 13 0 0.40 0.07
 9 13 0 -0.56 0.02
 -11 14 0 -0.28 -0.21
 -10 14 0 0.54 0.71
 -9 14 0 -0.99 -0.10
 -8 14 0 -0.71 0.21
 4 14 0 0.47 -0.28
 5 14 0 -0.38 0.77
 6 14 0 0.25 -0.28
 7 14 0 -0.20 0.04
 8 14 0 -0.42 -0.54
 -10 15 0 -0.13 -0.26
 -9 15 0 0.21 0.18
 -8 15 0 -0.28 0.08
 -7 15 0 0.20 -0.11
 -6 15 0 0.16 0.08
 -5 15 0 0.33 -0.63
 -4 15 0 0.44 0.84
 -3 15 0 0.73 0.14
 -1 15 0 -0.04 -0.58
 0 15 0 0.25 0.32
 1 15 0 -1.11 1.30
 2 15 0 -0.49 -2.13
 3 15 0 0.49 0.76
 4 15 0 -0.39 0.66
 5 15 0 -0.38 -1.15
 6 15 0 0.27 -0.15
 -8 16 0 0.43 -0.10
 -7 16 0 0.07 -0.27
 -6 16 0 0.78 0.25
 -5 16 0 -0.14 0.73
 -4 16 0 0.20 -0.11
 -3 16 0 -1.40 0.29
 -2 16 0 0.06 -0.53
 -1 16 0 -0.08 0.55
 0 16 0 -0.58 -0.47
 1 16 0 0.46 -0.62
 2 16 0 0.14 0.36
 3 16 0 0.10 -0.19
 4 16 0 -0.49 -0.32
 -5 -16 1 -0.51 0.43
 -4 -16 1 0.59 -0.46
 -3 -16 1 -0.06 -0.02
 -2 -16 1 0.56 0.17
 -1 -16 1 0.20 0.51
 0 -16 1 -0.16 -0.28
 1 -16 1 0.47 0.17
 2 -16 1 -0.34 0.60
 3 -16 1 0.38 -0.20
 4 -16 1 0.15 -0.60
 5 -16 1 0.00 0.40
 6 -16 1 0.23 -0.38
 7 -16 1 0.39 0.05
 8 -16 1 -0.28 -0.01
 9 -16 1 0.09 0.18
 -7 -15 1 -0.08 0.01
 -6 -15 1 -0.06 -0.51
 -5 -15 1 0.85 -0.58
 -4 -15 1 -0.60 0.27
 -3 -15 1 0.91 0.71
 -2 -15 1 0.14 0.18
 5 -15 1 0.72 -1.01
 6 -15 1 -0.05 0.48
 7 -15 1 0.38 0.60
 8 -15 1 0.64 0.80
 9 -15 1 -0.72 0.48
 10 -15 1 0.35 -0.28
 -9 -14 1 -0.24 0.70
 -8 -14 1 0.28 -0.10
 -7 -14 1 0.67 0.99
 -6 -14 1 -0.92 1.16
 -5 -14 1 -1.08 0.80
 8 -14 1 0.14 -0.06
 9 -14 1 0.39 -0.63
 10 -14 1 -0.75 -0.42
 11 -14 1 1.02 -0.39
 12 -14 1 -0.11 0.26
 -10 -13 1 -0.32 0.06
 -9 -13 1 0.42 0.29
 -8 -13 1 -1.94 0.66
 -7 -13 1 -0.89 -1.52
 10 -13 1 1.06 0.30
 11 -13 1 -0.65 0.56
 12 -13 1 -0.18 0.26
 13 -13 1 0.24 0.05
 -11 -12 1 -0.62 0.09
 -10 -12 1 0.41 -0.65
 -9 -12 1 0.37 -0.66
 10 -12 1 -0.80 0.86
 11 -12 1 0.41 -0.54
 12 -12 1 0.95 -0.16
 13 -12 1 -0.18 0.33
 14 -12 1 -0.06 0.08
 -12 -11 1 -0.73 0.41
 -11 -11 1 0.68 -0.66
 -10 -11 1 -0.42 -0.10
 9 -11 1 -1.19 -0.15
 10 -11 1 -0.16 -1.97
 11 -11 1 0.99 0.61
 12 -11 1 -0.91 1.29
 13 -11 1 -0.59 0.49
 14 -11 1 -0.82 -0.10
 -13 -10 1 0.04 -0.83
 -12 -10 1 0.78 -0.62
 -11 -10 1 -0.26 0.14
 9 -10 1 2.24 2.27
 10 -10 1 -0.86 3.55
 11 -10 1 -1.29 -0.64
 12 -10 1 -0.21 -0.06
 13 -10 1 -0.23 -1.00
 14 -10 1 0.86 -0.18
 15 -10 1 -0.10 -0.22
 -14 -9 1 0.27 0.10
 -13 -9 1 -0.49 0.73
 -12 -9 1 1.21 -0.18
 8 -9 1 -4.11 -1.77
 9 -9 1 0.82 -1.51
 10 -9 1 -1.45 0.07
 11 -9 1 -0.91 -0.65
 12 -9 1 0.18 -0.70
 13 -9 1 -0.06 -0.22
 14 -9 1 -0.80 -0.02
 15 -9 1 -0.03 -0.20
 -14 -8 1 0.07 0.32
 -13 -8 1 -0.88 -0.47
 8 -8 1 0.67 0.95
 9 -8 1 -1.61 -1.29
 10 -8 1 0.46 -0.81
 11 -8 1 1.12 -1.59
 12 -8 1 1.12 0.86
 13 -8 1 -0.34 1.05
 14 -8 1 0.90 0.03
 15 -8 1 0.12 0.30
 -15 -7 1 -0.18 -0.08
 -14 -7 1 0.13 -0.53
 7 -7 1 1.77 -1.21
 8 -7 1 0.38 2.58
 9 -7 1 -0.55 1.30
 10 -7 1 0.23 1.16
 11 -7 1 -0.91 1.27
 12 -7 1 -0.10 0.75
 13 -7 1 -0.24 -0.69
 14 -7 1 -0.40 -0.14
 15 -7 1 -0.39 0.56
 -15 -6 1 0.44 0.48
 -14 -6 1 0.89 -0.38
 6 -6 1 0.85 -3.64
 7 -6 1 -1.23 1.43
 8 -6 1 0.01 -3.39
 9 -6 1 1.28 -1.34
 10 -6 1 0.35 0.26
 15 -6 1 0.59 -0.67
 -15 -5 1 0.66 0.25
 6 -5 1 -6.45 2.28
 15 -5 1 -0.77 0.26
 -15 -4 1 -0.51 0.55
 4 -4 1 4.88 -12.61
 -15 -3 1 -0.17 -0.41
 3 -3 1 3.46 -9.47
 2 -2 1 -1.16 9.48
 0 -1 1 38.66 -51.32
 1 -1 1 10.22 -44.40
 -3 0 1 -21.79 -21.13
 -1 0 1 55.50 13.58
 0 0 1 -72.26 7.73
 1 0 1 29.51 4.90
 3 0 1 -22.19 21.70
 -1 1 1 10.52 24.33
 3 1 1 -15.17 -2.35
 15 1 1 0.74 1.30
 -1 2 1 6.64 -40.29
 15 2 1 0.23 -0.92
 -1 3 1 -2.05 19.41
 15 3 1 -0.63 0.27
 14 4 1 0.11 1.54
 15 4 1 -0.47 -0.53
 14 5 1 0.66 -0.77
 15 5 1 -0.25 0.55
 -15 6 1 0.22 0.51
 13 6 1 0.24 -0.33
 14 6 1 -0.56 0.60
 15 6 1 -0.30 -0.39
 -15 7 1 -0.06 -0.73
 13 7 1 -0.38 -0.41
 14 7 1 0.24 -0.20
 -15 8 1 0.48 0.20
 -14 8 1 -0.04 -0.75
 12 8 1 1.34 -0.35
 13 8 1 0.66 0.77
 14 8 1 0.24 0.10
 -15 9 1 -0.35 -0.37
 -14 9 1 0.22 0.59
 -13 9 1 0.20 0.27
 11 9 1 -0.67 -1.23
 12 9 1 -0.60 0.13
 13 9 1 -0.44 -0.47
 -15 10 1 0.19 0.57
 -14 10 1 0.08 -0.14
 -13 10 1 -0.31 0.70
 -12 10 1 -1.18 -1.10
 10 10 1 2.97 -0.08
 11 10 1 0.28 1.25
 12 10 1 -0.06 0.30
 -14 11 1 -0.39 0.33
 -13 11 1 -0.52 -0.26
 -12 11 1 0.35 -0.86
 9 11 1 0.81 0.48
 10 11 1 -1.63 0.49
 11 11 1 -0.09 -0.44
 -13 12 1 0.00 -0.02
 -12 12 1 -0.20 0.69
 -11 12 1 0.73 -1.19
 7 12 1 1.38 -0.04
 8 12 1 0.70 1.37
 9 12 1 -1.04 0.04
 10 12 1 0.32 -0.03
 -12 13 1 -0.28 -0.60
 -11 13 1 -0.59 -0.05
 -10 13 1 0.89 0.17
 -9 13 1 -1.31 0.35
 6 13 1 -0.43 0.75
 7 13 1 0.31 0.39
 8 13 1 -0.74 0.10
 9 13 1 0.21 -0.16
 -11 14 1 0.32 -0.07
 -10 14 1 0.21 -0.04
 -9 14 1 0.36 0.53
 -8 14 1 0.33 0.20
 -7 14 1 0.02 -0.02
 3 14 1 1.50 1.40
 4 14 1 -0.52 1.07
 5 14 1 -0.04 -0.75
 6 14 1 -0.07 0.36
 7 14 1 -0.83 0.00
 -10 15 1 -0.11 -0.18
 -9 15 1 0.09 0.15
 -8 15 1 -0.42 -0.09
 -7 15 1 -0.62 -0.28
 -6 15 1 0.51 -0.30
 -5 15 1 -0.54 0.37
 -4 15 1 0.07 -1.03
 -3 15 1 -0.33 0.48
 -2 15 1 -0.26 0.87
 -1 15 1 0.25 0.36
 0 15 1 -0.76 1.79
 1 15 1 -0.96 -1.11
 2 15 1 -0.30 1.05
 3 15 1 -0.92 -0.15
 4 15 1 -0.66 -0.48
 5 15 1 -0.27 0.57
 -7 16 1 0.77 0.13
 -6 16 1 -0.13 0.58
 -5 16 1 -0.20 0.16
 -4 16 1 -0.08 0.64
 -3 16 1 0.28 0.55
 -2 16 1 -0.57 0.03
 -1 16 1 -0.65 -0.40
 0 16 1 0.02 -0.99
 1 16 1 0.17 -0.58
 2 16 1 0.79 -0.31
 3 16 1 -0.03 0.30
 -6 -16 2 -0.04 -0.16
 -5 -16 2 0.53 0.01
 -4 -16 2 -0.49 -0.11
 -3 -16 2 0.80 -0.17
 -2 -16 2 0.19 0.04
 -1 -16 2 0.40 -0.33
 0 -16 2 0.22 0.09
 1 -16 2 0.23 -0.02
 2 -16 2 -0.24 -0.60
 3 -16 2 0.51 -0.32
 4 -16 2 -0.09 1.26
 5 -16 2 -0.14 -0.19
 6 -16 2 -0.02 -0.06
 7 -16 2 -0.01 0.34
 8 -16 2 0.28 -0.20
 9 -16 2 -0.05 -0.17
 -8 -15 2 -0.52 -0.49
 -7 -15 2 0.98 -0.85
 -6 -15 2 0.37 1.36
 -5 -15 2 -1.45 0.27
 -4 -15 2 0.92 0.35
 -3 -15 2 -0.89 0.15
 6 -15 2 0.48 -0.40
 7 -15 2 0.16 -0.39
 8 -15 2 -0.89 -0.02
 9 -15 2 0.65 -0.29
 10 -15 2 -0.53 0.16
 -9 -14 2 0.50 -0.54
 -8 -14 2 1.06 0.54
 -7 -14 2 0.09 1.27
 -6 -14 2 -0.65 -0.08
 9 -14 2 -0.46 0.38
 10 -14 2 0.66 0.47
 11 -14 2 -0.38 0.16
 12 -14 2 0.33 0.15
 -10 -13 2 -0.07 -0.10
 -9 -13 2 -0.41 0.36
 -8 -13 2 -0.93 0.33
 9 -13 2 -0.32 -0.95
 10 -13 2 0.33 -1.09
 11 -13 2 0.58 0.19
 12 -13 2 -0.19 -0.38
 13 -13 2 -0.08 -0.05
 -12 -12 2 -0.50 0.21
 -11 -12 2 1.14 -1.89
 -10 -12 2 1.78 0.75
 -9 -12 2 -0.80 0.76
 8 -12 2 -0.34 -1.15
 9 -12 2 0.96 -0.43
 10 -12 2 0.78 0.69
 11 -12 2 0.27 0.38
 12 -12 2 0.33 0.78
 13 -12 2 0.07 0.54
 14 -12 2 0.02 -0.04
 -12 -11 2 -0.16 -0.07
 -11 -11 2 -2.09 0.94
 8 -11 2 1.23 -0.50
 9 -11 2 0.06 -0.10
 10 -11 2 0.70 0.76
 11 -11 2 -0.57 0.07
 12 -11 2 0.18 0.06
 13 -11 2 -0.39 -0.06
 14 -11 2 0.21 0.18
 -13 -10 2 0.15 -0.10
 -12 -10 2 0.94 -0.77
 8 -10 2 1.24 1.96
 9 -10 2 -0.27 2.54
 10 -10 2 -1.22 -0.15
 11 -10 2 -0.41 0.85
 12 -10 2 -0.67 -0.15
 13 -10 2 -0.37 0.16
 14 -10 2 -1.00 -0.30
 15 -10 2 0.12 -0.06
 -14 -9 2 -0.58 -0.04
 -13 -9 2 0.27 -0.89
 -12 -9 2 0.81 0.09
 7 -9 2 -1.40 -0.13
 8 -9 2 0.70 1.52
 9 -9 2 -1.94 0.16
 10 -9 2 -0.23 0.15
 11 -9 2 -0.61 -0.29
 12 -9 2 -0.11 -0.89
 13 -9 2 0.30 0.30
 14 -9 2 0.93 -0.59
 15 -9 2 0.46 0.07
 -15 -8 2 -0.12 0.29
 -14 -8 2 -0.98 0.27
 -13 -8 2 -0.03 -0.07
 6 -8 2 0.35 0.95
 7 -8 2 0.71 -0.94
 8 -8 2 -0.92 -1.26
 9 -8 2 -0.11 -1.23
 10 -8 2 2.20 -1.76
 11 -8 2 0.87 1.37
 12 -8 2 -0.10 0.45
 13 -8 2 0.59 -0.53
 14 -8 2 -1.05 0.60
 15 -8 2 -0.14 -0.09
 -15 -7 2 0.01 -1.58
 -14 -7 2 2.30 -1.06
 6 -7 2 0.43 -1.11
 7 -7 2 -0.95 2.21
 8 -7 2 -0.54 0.46
 9 -7 2 -0.51 0.68
 10 -7 2 -1.42 0.25
 11 -7 2 0.10 0.25
 12 -7 2 -1.01 0.20
 13 -7 2 -1.37 1.05
 14 -7 2 -0.06 -0.40
 15 -7 2 0.24 -0.44
 -15 -6 2 0.58 -0.20
 -14 -6 2 0.08 1.30
 5 -6 2 -5.18 -2.59
 6 -6 2 -1.05 0.55
 7 -6 2 1.07 -0.27
 8 -6 2 -0.55 1.77
 9 -6 2 -1.07 1.51
 10 -6 2 -2.41 -0.18
 11 -6 2 -1.15 -0.95
 12 -6 2 -0.13 -0.15
 15 -6 2 -0.59 0.55
 -15 -5 2 -1.39 0.39
 1 -5 2 22.31 -6.21
 4 -5 2 2.00 -5.28
 5 -5 2 3.06 -2.95
 6 -5 2 3.21 -4.20
 7 -5 2 1.09 -1.40
 8 -5 2 1.45 -2.58
 15 -5 2 1.54 0.22
 -15 -4 2 1.16 0.34
 3 -4 2 0.84 -2.56
 4 -4 2 0.18 8.82
 5 -4 2 -0.43 1.95
 6 -4 2 -1.58 5.14
 15 -4 2 -1.01 0.18
 1 -3 2 0.38 18.83
 3 -3 2 5.44 -4.45
 15 -3 2 -0.46 0.39
 15 -2 2 0.78 -0.79
 1 -1 2 14.61 35.25
 15 -1 2 1.09 -0.45
 0 0 2 43.29 27.21
 15 0 2 0.03 -0.42
 -2 1 2 -11.46 -15.05
 15 1 2 -0.25 -0.44
 -1 2 2 -22.04 16.12
 15 2 2 0.40 0.95
 14 3 2 -1.37 -0.69
 15 3 2 0.25 -0.79
 14 4 2 0.23 -0.53
 15 4 2 0.20 0.54
 13 5 2 0.14 -0.24
 14 5 2 -0.48 -0.17
 15 5 2 0.53 -0.20
 -15 6 2 0.28 -0.04
 13 6 2 -0.29 0.62
 14 6 2 -0.11 0.05
 -15 7 2 -0.09 -0.02
 12 7 2 -0.34 -0.09
 13 7 2 -0.18 -1.18
 14 7 2 0.46 -0.20
 -15 8 2 0.02 -0.05
 -14 8 2 -0.06 0.78
 11 8 2 0.61 -0.24
 12 8 2 0.64 1.36
 13 8 2 -0.48 0.74
 -15 9 2 0.68 0.43
 -14 9 2 -0.03 -0.15
 10 9 2 1.86 0.81
 11 9 2 -1.21 1.06
 12 9 2 -0.29 -1.16
 -15 10 2 0.00 -0.13
 -14 10 2 -0.40 0.60
 -13 10 2 -0.44 -0.19
 9 10 2 -0.43 1.52
 10 10 2 -0.75 -0.51
 11 10 2 0.48 0.00
 -14 11 2 -0.22 -0.15
 -13 11 2 0.18 -0.44
 -12 11 2 -0.06 0.27
 8 11 2 0.95 -0.44
 9 11 2 -0.52 0.73
 10 11 2 0.37 -0.35
 -13 12 2 0.19 0.49
 -12 12 2 -0.33 0.44
 -11 12 2 -1.74 1.20
 7 12 2 0.84 0.70
 8 12 2 -0.92 0.05
 9 12 2 0.15 -0.60
 -12 13 2 -0.24 0.00
 -11 13 2 0.73 -0.81
 -10 13 2 -0.23 -0.78
 -9 13 2 1.20 -0.49
 5 13 2 -0.43 -0.32
 6 13 2 1.49 -0.08
 7 13 2 -0.45 0.93
 8 13 2 0.30 0.15
 -11 14 2 -0.11 0.06
 -10 14 2 -0.16 -0.02
 -9 14 2 0.01 -0.02
 -8 14 2 -0.70 0.35
 -7 14 2 -0.76 -0.18
 -6 14 2 0.66 -0.02
 1 14 2 -0.45 0.76
 2 14 2 0.03 0.43
 3 14 2 0.65 0.88
 4 14 2 -0.62 0.67
 5 14 2 0.05 0.96
 6 14 2 -0.97 0.63
 -9 15 2 -0.01 -0.01
 -8 15 2 -0.03 0.25
 -7 15 2 0.22 -0.51
 -6 15 2 0.24 -0.36
 -5 15 2 1.07 -0.18
 -4 15 2 1.43 1.35
 -3 15 2 0.46 1.84
 -2 15 2 -1.18 -0.45
 -1 15 2 0.08 0.69
 0 15 2 -1.25 -0.45
 1 15 2 -0.41 0.35
 2 15 2 -0.56 -0.07
 3 15 2 -0.85 -0.49
 4 15 2 0.58 -0.48
 -6 16 2 -0.22 -0.03
 -5 16 2 0.35 -0.15
 -4 16 2 -0.37 -0.10
 -3 16 2 -0.55 -0.97
 -2 16 2 0.69 0.28
 -1 16 2 -0.23 0.04
 0 16 2 -0.17 0.04
 1 16 2 0.29 -0.27
 -6 -16 3 0.59 0.29
 -5 -16 3 -0.27 0.50
 -4 -16 3 0.33 0.11
 -3 -16 3 0.28 0.14
 -2 -16 3 -0.09 0.84
 -1 -16 3 -0.86 -0.32
 0 -16 3 0.84 0.15
 1 -16 3 -0.29 0.81
 2 -16 3 0.15 -0.30
 3 -16 3 0.73 0.46
 4 -16 3 0.01 0.12
 5 -16 3 -0.35 0.04
 6 -16 3 -0.36 0.61
 7 -16 3 -0.35 -0.68
 8 -16 3 -0.13 0.68
 9 -16 3 -0.35 0.00
 -8 -15 3 0.17 -0.27
 -7 -15 3 -0.32 0.78
 -6 -15 3 -1.30 -0.87
 -5 -15 3 0.47 -0.92
 -4 -15 3 -0.09 -0.71
 7 -15 3 -0.53 0.68
 8 -15 3 0.42 -1.32
 9 -15 3 0.28 -0.07
 10 -15 3 0.29 -0.10
 11 -15 3 0.29 0.02
 -10 -14 3 0.23 0.57
 -9 -14 3 -0.13 -0.36
 -8 -14 3 0.64 0.33
 -7 -14 3 -1.11 -0.20
 8 -14 3 -0.25 1.36
 9 -14 3 -0.36 0.37
 10 -14 3 -0.76 -0.73
 11 -14 3 0.26 -0.26
 12 -14 3 -0.11 -0.09
 -11 -13 3 0.13 -0.47
 -10 -13 3 0.12 -0.32
 -9 -13 3 -0.65 0.60
 -8 -13 3 -0.40 -0.37
 8 -13 3 -0.83 -2.14
 9 -13 3 0.38 -0.69
 10 -13 3 0.07 0.55
 11 -13 3 -0.34 -0.36
 12 -13 3 0.34 -0.28
 13 -13 3 0.36 -0.08
 -12 -12 3 0.28 -0.35
 -11 -12 3 0.12 1.27
 -10 -12 3 -0.59 1.26
 8 -12 3 0.29 -0.45
 9 -12 3 1.45 -0.14
 10 -12 3 0.82 0.39
 11 -12 3 0.20 0.23
 12 -12 3 0.20 0.16
 13 -12 3 0.16 0.24
 14 -12 3 0.18 0.26
 -13 -11 3 -0.56 0.56
 -12 -11 3 -0.82 -1.09
 -11 -11 3 1.35 -1.03
 7 -11 3 0.24 -0.81
 8 -11 3 -0.69 -0.52
 9 -11 3 1.05 -0.55
 10 -11 3 0.12 0.12
 11 -11 3 0.91 0.38
 12 -11 3 0.06 0.89
 13 -11 3 -0.36 -0.01
 14 -11 3 -0.04 0.12
 -14 -10 3 -0.27 0.19
 -13 -10 3 -0.52 -0.29
 -12 -10 3 -0.74 -0.84
 7 -10 3 0.22 0.87
 8 -10 3 0.47 0.72
 9 -10 3 -0.36 0.44
 10 -10 3 0.19 0.53
 11 -10 3 -0.50 1.00
 12 -10 3 -1.50 -0.50
 13 -10 3 0.12 -0.15
 14 -10 3 -0.18 -0.35
 15 -10 3 0.03 -0.44
 -14 -9 3 0.50 -0.12
 -13 -9 3 1.15 0.04
 6 -9 3 0.43 0.74
 7 -9 3 1.42 -1.16
 8 -9 3 1.11 0.69
 9 -9 3 0.40 1.54
 10 -9 3 -1.09 0.72
 11 -9 3 -0.50 -1.17
 12 -9 3 0.81 0.49
 13 -9 3 0.36 -0.90
 14 -9 3 0.30 0.78
 15 -9 3 -0.02 0.31
 -15 -8 3 -0.73 0.02
 -14 -8 3 -1.01 -0.52
 6 -8 3 -2.25 -0.95
 7 -8 3 -2.87 -1.02
 8 -8 3 0.48 -1.18
 9 -8 3 0.46 0.32
 10 -8 3 -1.13 0.39
 11 -8 3 0.26 -0.09
 12 -8 3 -0.25 0.20
 13 -8 3 -1.48 1.11
 14 -8 3 -0.02 -0.82
 15 -8 3 -0.15 -0.29
 -15 -7 3 0.27 0.27
 -14 -7 3 -0.35 -0.19
 5 -7 3 0.28 1.51
 6 -7 3 1.64 3.96
 7 -7 3 1.13 2.02
 8 -7 3 -0.06 0.79
 9 -7 3 0.61 1.42
 10 -7 3 0.16 0.29
 11 -7 3 0.74 0.68
 12 -7 3 -0.20 1.89
 13 -7 3 -0.17 -0.95
 14 -7 3 -0.20 -0.16
 15 -7 3 0.00 0.34
 -15 -6 3 0.40 -0.52
 4 -6 3 -3.14 -6.18
 5 -6 3 -1.63 -6.38
 6 -6 3 1.50 -3.76
 7 -6 3 -2.50 -1.47
 8 -6 3 -0.79 -1.26
 9 -6 3 -2.40 -1.72
 10 -6 3 -0.90 -1.09
 11 -6 3 -0.82 -1.51
 12 -6 3 -0.95 -1.55
 13 -6 3 -0.85 -0.21
 14 -6 3 0.50 -0.60
 15 -6 3 0.73 -0.20
 -15 -5 3 0.83 0.18
 4 -5 3 -0.66 2.22
 5 -5 3 1.79 1.93
 6 -5 3 -0.63 2.36
 7 -5 3 2.76 1.26
 8 -5 3 1.50 1.71
 15 -5 3 -0.04 0.13
 -15 -4 3 -1.13 -1.04
 1 -4 3 15.92 6.92
 3 -4 3 2.65 -5.15
 4 -4 3 7.91 3.21
 5 -4 3 -6.46 2.31
 15 -4 3 -0.58 0.28
 0 -3 3 -22.62 -14.82
 15 -3 3 -0.44 -0.67
 15 -2 3 -1.46 0.84
 -1 -1 3 -20.97 1.61
 15 -1 3 0.31 0.47
 15 0 3 -0.40 -0.41
 15 1 3 0.72 0.13
 14 2 3 0.66 0.89
 15 2 3 0.00 0.00
 14 3 3 0.91 -0.83
 15 3 3 0.07 0.38
 13 4 3 0.87 1.10
 14 4 3 -0.60 1.37
 15 4 3 -0.47 -0.07
 13 5 3 -0.32 -0.82
 14 5 3 0.79 -0.63
 -15 6 3 -0.63 0.35
 12 6 3 -0.10 -1.05
 13 6 3 0.27 0.23
 14 6 3 -0.26 0.37
 -15 7 3 0.19 -0.49
 12 7 3 -0.42 -0.45
 13 7 3 0.40 0.28
 -15 8 3 0.45 -0.26
 -14 8 3 0.50 0.01
 11 8 3 1.56 -0.51
 12 8 3 0.03 0.04
 13 8 3 0.30 -0.36
 -15 9 3 -0.11 0.04
 -14 9 3 0.22 0.42
 10 9 3 -0.93 -0.86
 11 9 3 0.82 -0.24
 12 9 3 0.02 0.47
 -15 10 3 -0.12 0.11
 -14 10 3 0.31 -0.24
 -13 10 3 -0.46 0.55
 9 10 3 1.16 0.26
 10 10 3 -0.64 0.85
 11 10 3 -0.36 -0.64
 -14 11 3 -0.31 0.07
 -13 11 3 0.11 -0.56
 -12 11 3 0.86 -0.67
 -11 11 3 1.06 1.40
 7 11 3 1.88 -0.60
 8 11 3 -0.55 0.78
 9 11 3 0.22 -0.68
 10 11 3 0.26 0.29
 -13 12 3 -0.01 0.21
 -12 12 3 0.23 0.47
 -11 12 3 0.10 -0.01
 -10 12 3 -0.88 -0.82
 6 12 3 0.71 -0.72
 7 12 3 -0.05 -0.02
 8 12 3 0.15 0.06
 -12 13 3 -0.52 -0.38
 -11 13 3 -0.61 0.05
 -10 13 3 -0.25 -0.21
 -9 13 3 -0.26 0.07
 -8 13 3 -0.31 0.66
 3 13 3 0.05 0.80
 4 13 3 -0.14 -0.23
 5 13 3 1.00 -0.04
 6 13 3 0.07 0.88
 7 13 3 0.60 0.17
 -10 14 3 0.10 -0.02
 -9 14 3 0.32 -0.40
 -8 14 3 0.79 -0.55
 -7 14 3 0.99 -0.07
 -6 14 3 -0.67 -0.01
 -5 14 3 0.80 -0.94
 -4 14 3 0.90 0.12
 -3 14 3 2.15 -0.45
 -2 14 3 0.37 0.89
 -1 14 3 0.49 0.21
 0 14 3 -0.29 0.45
 1 14 3 -0.05 0.31
 2 14 3 0.05 0.51
 3 14 3 -0.65 -0.31
 4 14 3 0.69 0.09
 5 14 3 -0.46 0.51
 -8 15 3 -0.25 0.20
 -7 15 3 -0.79 -0.19
 -6 15 3 0.13 -0.76
 -5 15 3 0.56 -0.25
 -4 15 3 -0.22 -0.25
 -3 15 3 -0.57 -0.37
 -2 15 3 0.27 0.75
 -1 15 3 -0.49 0.36
 0 15 3 -0.52 0.60
 1 15 3 -0.21 -0.28
 2 15 3 0.07 -0.15
 3 15 3 0.23 -0.01
 -4 16 3 0.35 0.32
 -3 16 3 0.55 0.58
 -2 16 3 -0.23 0.04
 -7 -16 4 0.38 -0.11
 -6 -16 4 -0.20 0.21
 -5 -16 4 -0.21 -0.35
 -4 -16 4 0.55 -0.26
 -3 -16 4 -0.25 0.30
 -2 -16 4 -0.12 -0.68
 -1 -16 4 0.38 0.21
 0 -16 4 -0.54 -1.38
 1 -16 4 0.97 -0.71
 2 -16 4 0.46 0.64
 3 -16 4 -0.41 0.41
 4 -16 4 0.06 -0.15
 5 -16 4 0.12 0.59
 6 -16 4 0.07 -0.49
 7 -16 4 0.21 0.94
 8 -16 4 -0.58 -0.40
 9 -16 4 0.31 -0.25
 -9 -15 4 -0.45 0.18
 -8 -15 4 -0.53 -0.52
 -7 -15 4 0.16 0.48
 -6 -15 4 -1.49 0.97
 -5 -15 4 -0.82 -1.01
 7 -15 4 -1.12 -0.92
 8 -15 4 0.21 -0.11
 9 -15 4 -0.03 0.24
 10 -15 4 -0.26 0.06
 11 -15 4 -0.45 -0.15
 -10 -14 4 -0.06 -0.78
 -9 -14 4 0.52 -0.23
 -8 -14 4 0.17 0.03
 -7 -14 4 0.97 -1.18
 8 -14 4 0.01 0.76
 9 -14 4 -0.67 -0.18
 10 -14 4 -0.06 -0.05
 11 -14 4 0.25 -0.31
 12 -14 4 0.30 -0.13
 -11 -13 4 0.04 0.74
 -10 -13 4 0.03 1.24
 -9 -13 4 0.11 0.66
 7 -13 4 -0.23 0.11
 8 -13 4 -1.03 0.24
 9 -13 4 -0.34 -0.70
 10 -13 4 0.28 -0.53
 11 -13 4 -0.13 -0.26
 12 -13 4 0.11 0.03
 13 -13 4 -0.10 -0.01
 -12 -12 4 -0.03 -0.05
 -11 -12 4 -0.16 -0.45
 -10 -12 4 -1.44 -1.72
 7 -12 4 0.31 -1.55
 8 -12 4 1.84 -0.33
 9 -12 4 -0.09 0.41
 10 -12 4 0.06 -0.72
 11 -12 4 0.81 0.13
 12 -12 4 0.41 0.13
 13 -12 4 -0.07 0.13
 -13 -11 4 -0.12 0.22
 -12 -11 4 -0.02 0.92
 -11 -11 4 -1.10 0.44
 7 -11 4 -2.54 -2.43
 8 -11 4 1.34 -0.69
 9 -11 4 -0.06 0.36
 10 -11 4 0.58 -0.26
 11 -11 4 0.64 0.56
 12 -11 4 -0.51 0.44
 13 -11 4 0.09 0.29
 14 -11 4 -0.08 -0.18
 -14 -10 4 -0.21 0.50
 -13 -10 4 -1.13 -1.08
 -12 -10 4 0.86 -1.55
 6 -10 4 3.64 -3.05
 7 -10 4 0.54 1.45
 8 -10 4 -0.05 -0.56
 9 -10 4 0.58 -0.38
 10 -10 4 0.76 0.93
 11 -10 4 -1.12 0.21
 12 -10 4 0.25 -0.08
 13 -10 4 -0.23 -0.53
 14 -10 4 0.09 0.30
 15 -10 4 -0.30 -0.03
 -15 -9 4 -0.22 0.24
 -14 -9 4 0.04 -0.84
 -13 -9 4 1.16 0.89
 6 -9 4 0.09 -0.27
 7 -9 4 1.92 2.17
 8 -9 4 -1.46 1.65
 9 -9 4 0.34 -0.29
 10 -9 4 0.35 0.42
 11 -9 4 0.34 0.68
 12 -9 4 0.31 -0.33
 13 -9 4 0.13 1.07
 14 -9 4 0.26 -0.12
 15 -9 4 0.12 0.34
 -15 -8 4 0.04 -0.25
 -14 -8 4 0.35 0.51
 5 -8 4 -0.99 1.60
 6 -8 4 1.06 -0.14
 7 -8 4 0.54 -0.34
 8 -8 4 1.24 -0.10
 9 -8 4 -0.48 0.66
 10 -8 4 -0.09 0.16
 11 -8 4 -0.86 -0.13
 12 -8 4 -0.20 0.37
 13 -8 4 -0.26 -0.06
 14 -8 4 -0.97 -0.34
 15 -8 4 0.14 -0.25
 -15 -7 4 -0.45 0.26
 -14 -7 4 -1.79 -0.92
 5 -7 4 -2.22 0.52
 6 -7 4 -4.48 -2.66
 7 -7 4 -1.09 -1.44
 8 -7 4 -1.13 -0.41
 9 -7 4 0.35 -1.05
 10 -7 4 1.06 0.66
 11 -7 4 0.31 1.33
 12 -7 4 -1.14 0.41
 13 -7 4 -0.92 -0.29
 14 -7 4 0.15 0.06
 15 -7 4 -0.20 -0.65
 -15 -6 4 0.32 -0.05
 4 -6 4 4.75 -0.65
 5 -6 4 2.50 3.93
 6 -6 4 1.14 2.59
 7 -6 4 2.02 1.91
 8 -6 4 -0.72 1.34
 9 -6 4 -0.24 -0.23
 10 -6 4 0.48 -0.33
 11 -6 4 -0.37 1.56
 12 -6 4 -0.18 -0.01
 13 -6 4 0.47 -0.02
 14 -6 4 -0.36 -0.52
 15 -6 4 0.47 0.08
 -15 -5 4 -0.73 -0.20
 4 -5 4 -2.76 -5.29
 5 -5 4 2.32 -2.46
 6 -5 4 -0.55 -1.56
 7 -5 4 -0.13 -2.40
 15 -5 4 0.10 0.82
 15 -4 4 0.26 0.42
 15 -3 4 0.39 -0.36
 15 -2 4 0.16 -0.65
 15 -1 4 -1.22 0.12
 14 0 4 -1.08 -0.64
 15 0 4 0.41 -0.88
 14 1 4 0.25 -0.42
 15 1 4 0.01 -0.61
 14 2 4 -0.71 0.52
 15 2 4 -0.38 0.41
 13 3 4 0.40 -0.33
 14 3 4 -0.14 -0.24
 15 3 4 0.27 -0.93
 13 4 4 -0.67 0.82
 14 4 4 -0.60 -0.67
 12 5 4 -0.89 0.67
 13 5 4 -0.86 -0.26
 14 5 4 0.28 0.01
 -15 6 4 -0.20 -1.20
 12 6 4 0.32 0.36
 13 6 4 0.49 -0.31
 -15 7 4 0.08 0.14
 11 7 4 0.46 -0.78
 12 7 4 -0.20 0.40
 13 7 4 -0.45 -0.15
 -15 8 4 0.08 -0.17
 -14 8 4 0.72 0.16
 10 8 4 2.11 0.10
 11 8 4 -0.94 0.15
 12 8 4 0.20 -0.50
 -15 9 4 0.28 -0.07
 -14 9 4 0.06 -0.01
 -13 9 4 0.52 0.12
 9 9 4 -0.35 0.38
 10 9 4 -0.34 0.13
 11 9 4 -0.05 0.18
 -15 10 4 0.03 -0.06
 -14 10 4 0.00 0.00
 -13 10 4 0.17 0.34
 -12 10 4 0.02 0.78
 8 10 4 0.03 0.00
 9 10 4 -0.10 -0.81
 10 10 4 0.88 -0.03
 -14 11 4 0.04 -0.09
 -13 11 4 -0.12 -0.07
 -12 11 4 0.20 -0.70
 -11 11 4 0.88 -0.50
 6 11 4 -0.62 -1.42
 7 11 4 0.00 -0.36
 8 11 4 0.63 0.14
 9 11 4 -0.19 0.43
 -13 12 4 0.08 0.43
 -12 12 4 -0.86 0.18
 -11 12 4 0.14 0.35
 -10 12 4 -0.38 0.71
 -9 12 4 0.42 0.44
 4 12 4 1.22 0.37
 5 12 4 -0.32 -0.25
 6 12 4 0.27 0.68
 7 12 4 -0.06 -0.03
 8 12 4 -0.06 -0.21
 -11 13 4 -0.24 -0.27
 -10 13 4 0.22 -0.04
 -9 13 4 -0.23 -0.52
 -8 13 4 0.97 -0.76
 -7 13 4 0.21 0.11
 -6 13 4 -0.53 0.15
 1 13 4 -0.39 1.44
 2 13 4 -1.35 -0.99
 3 13 4 0.07 0.10
 4 13 4 -0.36 -0.54
 5 13 4 0.50 0.11
 6 13 4 0.50 -0.35
 -10 14 4 0.13 -0.40
 -9 14 4 0.08 0.03
 -8 14 4 -0.17 0.50
 -7 14 4 -0.77 0.60
 -6 14 4 -0.67 -0.29
 -5 14 4 -0.68 -0.09
 -4 14 4 -0.38 -0.62
 -3 14 4 -0.74 -0.25
 -2 14 4 0.53 0.28
 -1 14 4 0.29 0.17
 0 14 4 0.40 0.76
 1 14 4 0.14 -0.23
 2 14 4 1.04 -0.18
 3 14 4 0.48 0.90
 4 14 4 -0.66 -0.04
 -7 15 4 0.52 -0.38
 -6 15 4 0.44 0.20
 -5 15 4 0.18 -0.09
 -4 15 4 0.26 0.45
 -3 15 4 0.31 0.10
 -2 15 4 0.37 -0.39
 -1 15 4 0.04 0.47
 0 15 4 -0.28 -0.06
 1 15 4 -0.47 -0.21
 -7 -16 5 0.13 0.72
 -6 -16 5 -1.10 0.91
 -5 -16 5 -0.08 -1.27
 -4 -16 5 -0.44 0.43
 -3 -16 5 -0.48 -0.76
 -2 -16 5 0.46 0.02
 3 -16 5 -0.46 0.27
 4 -16 5 -0.01 -0.43
 5 -16 5 0.86 -0.08
 6 -16 5 0.42 1.08
 7 -16 5 -0.15 0.39
 8 -16 5 0.01 0.75
 9 -16 5 -0.44 0.35
 -9 -15 5 -1.01 -0.29
 -8 -15 5 0.64 0.18
 -7 -15 5 -0.82 0.07
 -6 -15 5 1.38 -0.80
 7 -15 5 0.01 0.02
 8 -15 5 0.11 -0.66
 9 -15 5 0.37 -0.02
 10 -15 5 -0.01 0.18
 11 -15 5 -0.16 0.14
 -10 -14 5 0.46 0.15
 -9 -14 5 1.11 -0.33
 -8 -14 5 -0.12 -0.29
 7 -14 5 -0.05 0.88
 8 -14 5 -0.64 -0.08
 9 -14 5 -0.15 -0.08
 10 -14 5 0.09 -0.30
 11 -14 5 -0.13 -0.12
 12 -14 5 0.08 -0.15
 -12 -13 5 0.08 -0.06
 -11 -13 5 -0.29 0.60
 -10 -13 5 -0.90 0.41
 -9 -13 5 -1.39 0.15
 7 -13 5 -1.24 0.10
 8 -13 5 -0.48 -0.54
 9 -13 5 0.11 -0.39
 10 -13 5 -0.48 -0.11
 11 -13 5 0.27 -0.16
 12 -13 5 -0.11 -0.07
 13 -13 5 -0.01 -0.25
 -13 -12 5 0.25 0.17
 -12 -12 5 -0.27 -0.26
 -11 -12 5 0.55 0.07
 -10 -12 5 -0.14 0.67
 6 -12 5 0.79 0.30
 7 -12 5 0.27 0.81
 8 -12 5 -0.53 0.04
 9 -12 5 -0.08 0.11
 10 -12 5 -0.10 0.00
 11 -12 5 0.01 -0.43
 12 -12 5 0.04 0.15
 13 -12 5 -0.15 0.18
 -13 -11 5 0.04 0.09
 -12 -11 5 0.08 0.04
 6 -11 5 -0.24 -3.41
 7 -11 5 1.38 -0.27
 8 -11 5 0.19 -0.16
 9 -11 5 0.31 -0.78
 10 -11 5 1.10 -0.37
 11 -11 5 0.70 0.57
 12 -11 5 0.46 0.54
 13 -11 5 0.06 -0.04
 14 -11 5 -0.02 0.33
 -14 -10 5 -0.35 0.05
 -13 -10 5 -0.57 0.14
 -12 -10 5 -0.43 -0.51
 6 -10 5 -3.19 1.09
 7 -10 5 -0.29 -1.69
 8 -10 5 -0.17 -0.65
 9 -10 5 1.03 -0.37
 10 -10 5 -0.29 0.19
 11 -10 5 0.10 -0.39
 12 -10 5 -0.16 -0.24
 13 -10 5 -0.22 0.19
 14 -10 5 0.12 -0.44
 -15 -9 5 0.82 -0.76
 -14 -9 5 0.70 0.97
 -13 -9 5 -0.07 -0.08
 5 -9 5 5.81 0.68
 6 -9 5 2.86 1.89
 7 -9 5 0.06 0.90
 8 -9 5 1.40 -0.23
 9 -9 5 0.33 1.55
 10 -9 5 -0.51 0.38
 11 -9 5 0.33 -0.15
 12 -9 5 0.47 0.41
 13 -9 5 0.73 0.23
 14 -9 5 -0.38 0.74
 15 -9 5 -0.15 -0.13
 -15 -8 5 -0.35 1.79
 -14 -8 5 -2.59 -0.37
 5 -8 5 -3.76 -2.28
 6 -8 5 -2.20 0.91
 7 -8 5 -2.19 -0.09
 8 -8 5 -1.05 -0.10
 9 -8 5 0.19 0.28
 10 -8 5 -0.80 0.33
 11 -8 5 -0.04 -0.20
 12 -8 5 0.05 0.18
 13 -8 5 -0.26 0.48
 14 -8 5 -0.14 0.39
 15 -8 5 -0.24 -0.17
 -15 -7 5 -1.07 -1.29
 5 -7 5 1.24 0.28
 6 -7 5 2.16 0.16
 7 -7 5 1.83 -0.75
 8 -7 5 1.66 -0.55
 9 -7 5 1.35 0.10
 10 -7 5 0.22 0.47
 11 -7 5 0.18 0.02
 12 -7 5 0.22 0.17
 13 -7 5 -0.46 -0.03
 14 -7 5 -0.44 -1.05
 15 -7 5 0.29 0.03
 -15 -6 5 0.05 0.66
 5 -6 5 -0.78 -1.62
 6 -6 5 -0.85 -1.08
 7 -6 5 -1.52 -0.31
 8 -6 5 0.21 -0.24
 9 -6 5 0.41 0.33
 10 -6 5 0.81 1.52
 11 -6 5 -0.60 1.04
 12 -6 5 -1.67 1.14
 13 -6 5 -1.18 -0.40
 14 -6 5 0.68 -0.16
 15 -6 5 0.15 0.24
 -15 -5 5 0.79 -0.10
 14 -5 5 -0.36 0.52
 15 -5 5 -0.19 -0.28
 14 -4 5 0.32 0.62
 15 -4 5 -0.46 -0.06
 14 -3 5 0.97 -0.13
 15 -3 5 0.21 0.28
 14 -2 5 0.88 -0.96
 15 -2 5 0.08 0.68
 14 -1 5 -1.55 0.08
 15 -1 5 -0.01 -0.09
 14 0 5 0.38 -0.33
 15 0 5 -0.07 0.01
 14 1 5 -0.25 0.00
 15 1 5 0.11 -0.02
 13 2 5 0.31 0.42
 14 2 5 -0.11 -0.07
 15 2 5 0.11 -0.06
 13 3 5 -0.05 -1.24
 14 3 5 0.21 -0.22
 12 4 5 0.14 0.89
 13 4 5 -0.29 0.55
 14 4 5 0.50 0.22
 -15 5 5 -0.05 -0.08
 12 5 5 -1.03 -0.35
 13 5 5 0.56 -0.87
 -15 6 5 -0.23 0.67
 11 6 5 0.88 -0.44
 12 6 5 0.90 0.23
 13 6 5 -0.49 0.20
 -15 7 5 -0.44 -1.25
 -14 7 5 2.01 -1.36
 10 7 5 -1.34 0.18
 11 7 5 -1.11 0.04
 12 7 5 -0.63 -0.42
 -15 8 5 -0.14 0.45
 -14 8 5 -0.70 0.11
 9 8 5 -0.11 0.57
 10 8 5 -0.83 -0.45
 11 8 5 0.81 -0.21
 -15 9 5 0.15 0.10
 -14 9 5 -0.40 -0.08
 -13 9 5 -0.33 -0.14
 8 9 5 -0.77 -0.63
 9 9 5 0.26 -1.08
 10 9 5 0.99 -0.04
 -14 10 5 0.66 0.10
 -13 10 5 0.26 0.61
 -12 10 5 -0.78 -0.77
 7 10 5 0.35 -0.35
 8 10 5 0.43 0.83
 9 10 5 -0.57 0.54
 -13 11 5 -0.25 -0.08
 -12 11 5 0.04 0.33
 -11 11 5 -0.24 0.51
 -10 11 5 -0.13 -0.06
 5 11 5 0.06 -0.39
 6 11 5 0.23 0.65
 7 11 5 0.39 -0.12
 8 11 5 -0.16 0.07
 -12 12 5 0.71 0.25
 -11 12 5 -0.23 0.09
 -10 12 5 0.45 0.19
 -9 12 5 -0.46 0.14
 -8 12 5 -1.14 -1.06
 3 12 5 0.92 3.16
 4 12 5 -2.24 0.29
 5 12 5 0.42 -0.59
 6 12 5 0.51 -0.37
 7 12 5 -0.27 0.27
 -11 13 5 -0.65 0.05
 -10 13 5 -0.29 -0.99
 -9 13 5 0.36 0.30
 -8 13 5 -0.60 0.70
 -7 13 5 0.15 0.17
 -6 13 5 0.29 0.79
 -5 13 5 -0.55 1.08
 -4 13 5 -1.15 0.96
 -3 13 5 -1.51 -0.78
 -2 13 5 0.73 -0.79
 -1 13 5 1.31 0.48
 0 13 5 0.16 0.95
 1 13 5 -0.45 0.10
 2 13 5 -0.25 -0.04
 3 13 5 -0.15 -1.52
 4 13 5 0.60 -0.06
 5 13 5 -0.30 -0.28
 -9 14 5 0.49 0.03
 -8 14 5 0.36 0.12
 -7 14 5 -0.18 0.00
 -6 14 5 -0.15 0.04
 -5 14 5 -0.49 -0.52
 -4 14 5 -0.18 -0.99
 -3 14 5 1.22 -0.34
 -2 14 5 0.44 -0.09
 -1 14 5 -0.18 0.26
 0 14 5 -0.39 -0.93
 1 14 5 1.18 -0.42
 2 14 5 -0.16 1.09
 3 14 5 -0.49 -0.07
 -4 15 5 0.22 -0.52
 -3 15 5 0.08 -0.03
 -2 15 5 -0.12 0.15
 -8 -16 6 -0.01 -0.55
 -7 -16 6 0.97 -0.46
 -6 -16 6 0.99 -0.53
 -5 -16 6 0.28 0.80
 -4 -16 6 0.90 -0.52
 -3 -16 6 1.16 0.56
 4 -16 6 -0.03 0.74
 5 -16 6 -0.69 -0.39
 6 -16 6 0.69 -0.48
 7 -16 6 0.43 0.91
 8 -16 6 -0.50 -0.23
 9 -16 6 0.38 -0.26
 -9 -15 6 0.48 -0.21
 -8 -15 6 -0.21 0.45
 -7 -15 6 -0.76 0.68
 -6 -15 6 -1.67 1.04
 7 -15 6 -0.26 -0.88
 8 -15 6 0.06 0.74
 9 -15 6 -0.62 0.08
 10 -15 6 -0.08 0.42
 -11 -14 6 0.33 0.22
 -10 -14 6 -0.48 -0.20
 -9 -14 6 0.15 0.48
 -8 -14 6 -0.82 0.98
 7 -14 6 0.57 -0.17
 8 -14 6 0.63 -0.05
 9 -14 6 0.46 0.29
 10 -14 6 -0.29 -0.30
 11 -14 6 0.38 0.16
 -12 -13 6 -0.13 0.32
 -11 -13 6 0.02 -0.21
 -10 -13 6 0.38 0.36
 -9 -13 6 0.87 -1.25
 6 -13 6 -0.65 1.79
 7 -13 6 -0.64 0.43
 8 -13 6 -0.44 0.59
 9 -13 6 -1.36 0.01
 10 -13 6 0.01 -0.55
 11 -13 6 -0.19 -0.54
 12 -13 6 0.31 -0.15
 -13 -12 6 0.09 -0.09
 -12 -12 6 0.15 0.47
 -11 -12 6 -1.38 0.12
 6 -12 6 0.49 0.21
 7 -12 6 -1.25 -0.43
 8 -12 6 0.26 -0.87
 9 -12 6 0.33 -0.30
 10 -12 6 0.12 -0.09
 11 -12 6 0.32 0.07
 12 -12 6 0.17 0.12
 13 -12 6 0.07 -0.13
 -14 -11 6 0.53 0.64
 -13 -11 6 -0.61 0.29
 -12 -11 6 -0.32 -0.01
 6 -11 6 -0.50 -0.17
 7 -11 6 1.28 0.19
 8 -11 6 -1.00 0.25
 9 -11 6 0.50 -0.48
 10 -11 6 -0.03 0.05
 11 -11 6 -0.08 -0.10
 12 -11 6 -0.33 -0.04
 13 -11 6 -0.20 -0.25
 14 -11 6 0.36 -0.28
 -14 -10 6 -0.89 -0.93
 -13 -10 6 1.02 -0.88
 5 -10 6 -0.23 -0.64
 6 -10 6 0.80 -0.38
 7 -10 6 -0.51 -0.66
 8 -10 6 0.79 -0.17
 9 -10 6 -0.29 -0.29
 10 -10 6 0.53 0.35
 11 -10 6 -0.16 0.44
 12 -10 6 0.01 -0.09
 13 -10 6 0.31 -0.06
 14 -10 6 -0.08 0.46
 -15 -9 6 0.17 0.71
 -14 -9 6 0.16 0.77
 -13 -9 6 -0.89 0.38
 5 -9 6 -0.96 0.00
 6 -9 6 0.48 0.60
 7 -9 6 0.05 1.02
 8 -9 6 -0.13 0.70
 9 -9 6 -0.19 -0.59
 10 -9 6 1.25 -0.68
 11 -9 6 0.39 -0.12
 12 -9 6 0.50 -0.03
 13 -9 6 0.13 0.34
 14 -9 6 0.01 -0.16
 -15 -8 6 0.12 0.03
 -14 -8 6 0.40 0.59
 5 -8 6 2.06 2.15
 6 -8 6 -0.08 0.63
 7 -8 6 0.06 -0.36
 8 -8 6 -0.28 -0.12
 9 -8 6 -0.50 0.01
 10 -8 6 -0.52 -0.20
 11 -8 6 0.35 0.32
 12 -8 6 0.18 0.14
 13 -8 6 -0.12 -0.03
 14 -8 6 0.24 0.09
 15 -8 6 0.00 0.18
 -15 -7 6 -0.26 0.55
 5 -7 6 -1.83 1.02
 6 -7 6 -1.85 -2.57
 7 -7 6 -0.27 -1.41
 8 -7 6 2.28 -0.54
 9 -7 6 -0.02 1.30
 10 -7 6 0.04 -0.22
 11 -7 6 0.27 -0.51
 12 -7 6 -0.07 1.15
 13 -7 6 -0.46 0.71
 14 -7 6 -0.58 -0.03
 15 -7 6 -0.06 -0.46
 -15 -6 6 -1.01 -0.65
 7 -6 6 0.85 -0.77
 8 -6 6 0.40 0.50
 9 -6 6 0.57 0.02
 14 -6 6 -0.08 -0.13
 15 -6 6 0.10 0.01
 -15 -5 6 -0.46 0.26
 14 -5 6 -0.18 0.03
 15 -5 6 -0.57 -0.24
 14 -4 6 -0.36 0.00
 15 -4 6 0.13 0.14
 14 -3 6 0.19 -0.20
 15 -3 6 0.39 -0.23
 14 -2 6 -0.62 0.71
 15 -2 6 -0.02 0.24
 14 -1 6 -0.02 0.55
 15 -1 6 -0.53 -0.65
 13 0 6 0.58 -0.07
 14 0 6 0.22 0.57
 15 0 6 -0.17 0.44
 13 1 6 -1.40 -0.02
 14 1 6 -0.10 -0.91
 15 1 6 -0.01 -0.26
 13 2 6 -0.70 0.50
 14 2 6 -0.16 0.31
 12 3 6 0.22 -0.43
 13 3 6 -0.45 0.03
 14 3 6 0.12 -0.84
 12 4 6 1.31 0.32
 13 4 6 0.03 0.01
 -15 5 6 -0.42 0.75
 11 5 6 -0.11 2.60
 12 5 6 -0.32 -0.18
 13 5 6 -0.34 0.57
 -15 6 6 -0.75 0.43
 10 6 6 -0.70 -0.89
 11 6 6 0.10 -0.13
 12 6 6 -0.74 -0.26
 -15 7 6 0.32 -0.21
 -14 7 6 -0.20 -0.34
 9 7 6 -0.44 -0.77
 10 7 6 1.18 0.48
 11 7 6 -0.01 0.73
 -15 8 6 0.09 0.12
 -14 8 6 -0.05 0.01
 -13 8 6 0.09 0.66
 8 8 6 -0.42 -0.12
 9 8 6 -0.81 -0.68
 10 8 6 0.04 -0.73
 -15 9 6 -0.30 -0.08
 -14 9 6 0.09 -0.25
 -13 9 6 0.41 -0.73
 -12 9 6 -0.32 -1.37
 7 9 6 -1.21 0.11
 8 9 6 0.55 -0.83
 9 9 6 0.86 0.42
 10 9 6 0.06 0.44
 -14 10 6 0.33 -0.07
 -13 10 6 -0.42 0.64
 -12 10 6 -0.24 0.78
 -11 10 6 -0.25 -0.79
 6 10 6 0.68 -0.53
 7 10 6 0.53 0.48
 8 10 6 -0.48 -0.09
 -13 11 6 0.11 -0.12
 -12 11 6 0.50 -0.57
 -11 11 6 0.42 0.42
 -10 11 6 -0.54 0.54
 -9 11 6 0.41 -1.12
 4 11 6 0.08 0.13
 5 11 6 0.25 -0.24
 6 11 6 0.57 -0.59
 7 11 6 -0.08 0.41
 -11 12 6 -0.47 0.72
 -10 12 6 -0.55 -0.79
 -9 12 6 -0.03 0.34
 -8 12 6 0.58 0.25
 -7 12 6 -0.51 0.38
 -6 12 6 1.26 -0.65
 0 12 6 -0.24 -0.20
 1 12 6 0.57 -0.49
 2 12 6 0.46 0.47
 3 12 6 -0.23 -1.17
 4 12 6 0.24 0.45
 5 12 6 -0.65 0.15
 6 12 6 -0.35 0.15
 -10 13 6 -0.22 0.61
 -9 13 6 -0.17 -0.61
 -8 13 6 0.37 -0.50
 -7 13 6 -0.14 -0.31
 -6 13 6 0.23 -0.35
 -5 13 6 0.33 0.28
 -4 13 6 -0.41 -0.11
 -3 13 6 -0.50 0.17
 -2 13 6 -0.19 -0.67
 -1 13 6 -0.41 -0.26
 0 13 6 -0.11 0.11
 1 13 6 -0.49 -0.50
 2 13 6 -0.13 -0.34
 3 13 6 -0.09 0.21
 4 13 6 0.30 -0.31
 -7 14 6 0.13 0.45
 -6 14 6 -0.53 0.33
 -5 14 6 -0.61 -0.34
 -4 14 6 0.36 -0.74
 -3 14 6 0.88 -0.43
 -2 14 6 0.10 0.77
 -1 14 6 0.18 -0.01
 0 14 6 0.36 0.31
 1 14 6 -0.13 0.48
 -8 -16 7 0.15 0.01
 -7 -16 7 -0.99 -0.37
 -6 -16 7 0.26 -0.56
 -5 -16 7 0.37 0.34
 -4 -16 7 -1.00 0.21
 -3 -16 7 -0.47 0.36
 4 -16 7 0.24 0.39
 5 -16 7 0.15 0.11
 6 -16 7 0.06 0.45
 7 -16 7 -0.46 -0.39
 8 -16 7 0.58 0.03
 9 -16 7 -0.12 0.37
 -10 -15 7 0.04 0.25
 -9 -15 7 0.61 0.47
 -8 -15 7 1.53 1.65
 -7 -15 7 0.00 2.64
 -6 -15 7 -1.68 0.72
 6 -15 7 0.21 -0.08
 7 -15 7 -0.15 0.11
 8 -15 7 0.01 -0.32
 9 -15 7 0.27 0.13
 10 -15 7 -0.15 -0.28
 -11 -14 7 -0.36 -0.60
 -10 -14 7 0.62 -0.18
 -9 -14 7 -1.68 -0.25
 -8 -14 7 -1.36 -3.24
 6 -14 7 1.56 -0.78
 7 -14 7 1.01 0.94
 8 -14 7 0.00 0.58
 9 -14 7 -0.40 0.27
 10 -14 7 -0.24 0.70
 11 -14 7 -0.40 -0.25
 -12 -13 7 0.25 0.10
 -11 -13 7 0.33 0.79
 -10 -13 7 -0.51 -0.07
 6 -13 7 -1.06 0.46
 7 -13 7 -1.03 -0.16
 8 -13 7 -0.43 -1.07
 9 -13 7 0.91 -0.28
 10 -13 7 -0.06 -0.28
 11 -13 7 0.21 -0.10
 12 -13 7 0.15 -0.15
 -13 -12 7 -0.31 -0.41
 -12 -12 7 0.58 -0.36
 -11 -12 7 -0.62 1.17
 6 -12 7 -1.50 1.04
 7 -12 7 -0.26 -1.03
 8 -12 7 0.11 0.65
 9 -12 7 -0.63 0.35
 10 -12 7 -0.60 0.05
 11 -12 7 -0.47 -0.56
 12 -12 7 0.20 -0.12
 13 -12 7 -0.25 0.11
 -14 -11 7 -0.39 -0.47
 -13 -11 7 0.24 0.39
 -12 -11 7 -0.11 0.14
 6 -11 7 2.13 -1.10
 7 -11 7 0.70 0.64
 8 -11 7 0.84 0.07
 9 -11 7 -0.19 0.01
 10 -11 7 0.63 -0.02
 11 -11 7 0.56 0.49
 12 -11 7 -0.10 0.11
 13 -11 7 0.21 -0.22
 -15 -10 7 0.39 -0.27
 -14 -10 7 0.13 0.69
 -13 -10 7 0.13 -0.72
 6 -10 7 -0.52 -1.39
 7 -10 7 0.60 -0.09
 8 -10 7 -0.35 0.18
 9 -10 7 -0.22 0.29
 10 -10 7 -0.40 -0.65
 11 -10 7 -0.36 0.22
 12 -10 7 -0.69 -0.06
 13 -10 7 -0.16 -0.07
 14 -10 7 0.00 -0.34
 -15 -9 7 0.07 0.33
 -14 -9 7 -0.24 -0.52
 5 -9 7 0.86 -0.47
 6 -9 7 1.10 0.14
 7 -9 7 -0.41 1.12
 8 -9 7 -0.97 -1.42
 9 -9 7 1.04 -0.98
 10 -9 7 0.55 0.18
 11 -9 7 0.27 0.16
 12 -9 7 0.23 -0.77
 13 -9 7 0.47 -0.14
 14 -9 7 -0.06 0.40
 -15 -8 7 -0.19 -0.47
 -14 -8 7 0.86 0.45
 6 -8 7 -1.22 1.02
 7 -8 7 0.06 0.49
 8 -8 7 -0.73 0.45
 9 -8 7 0.32 -0.18
 10 -8 7 -0.06 0.50
 11 -8 7 0.46 -1.08
 12 -8 7 0.77 1.17
 13 -8 7 -0.01 0.37
 14 -8 7 0.19 -0.27
 -15 -7 7 -0.06 0.00
 7 -7 7 -0.16 0.45
 8 -7 7 -1.78 0.40
 9 -7 7 -1.17 -1.52
 10 -7 7 0.36 -1.94
 11 -7 7 0.65 0.56
 12 -7 7 0.64 -0.67
 13 -7 7 -0.12 0.29
 14 -7 7 -0.13 0.33
 15 -7 7 -0.26 0.46
 -15 -6 7 0.19 -0.94
 13 -6 7 0.50 -0.42
 14 -6 7 0.70 0.34
 15 -6 7 -0.07 0.22
 -15 -5 7 -0.55 0.77
 13 -5 7 -0.41 -0.43
 14 -5 7 -0.47 -0.09
 15 -5 7 0.04 -0.16
 13 -4 7 -0.19 0.45
 14 -4 7 -0.49 0.28
 15 -4 7 -0.27 -0.62
 13 -3 7 0.27 0.36
 14 -3 7 0.04 0.16
 15 -3 7 0.14 0.11
 13 -2 7 -0.62 -0.25
 14 -2 7 0.35 -0.19
 15 -2 7 -0.19 -0.07
 13 -1 7 -0.08 0.45
 14 -1 7 0.09 -0.48
 15 -1 7 0.37 0.50
 13 0 7 -0.60 1.35
 14 0 7 -0.59 -0.24
 13 1 7 1.03 0.22
 14 1 7 -0.54 0.48
 12 2 7 0.08 -0.12
 13 2 7 -0.13 0.12
 14 2 7 -0.21 -0.21
 12 3 7 -1.55 0.78
 13 3 7 -0.19 -0.76
 -15 4 7 1.80 -0.30
 11 4 7 1.23 1.54
 12 4 7 -0.47 -0.71
 13 4 7 0.37 -0.53
 -15 5 7 0.26 0.61
 10 5 7 -1.84 1.27
 11 5 7 0.08 -0.77
 12 5 7 -0.16 0.79
 -15 6 7 -0.49 -0.08
 -14 6 7 -0.90 0.47
 10 6 7 -0.79 -0.56
 11 6 7 0.61 -0.71
 -15 7 7 0.18 -0.09
 -14 7 7 0.59 0.18
 9 7 7 -0.55 -0.55
 10 7 7 0.03 0.20
 11 7 7 -0.38 0.05
 -15 8 7 -0.23 -0.15
 -14 8 7 0.21 -0.43
 -13 8 7 1.28 -0.24
 7 8 7 0.33 1.03
 8 8 7 -1.26 -0.36
 9 8 7 0.18 -0.56
 10 8 7 0.35 0.16
 -14 9 7 -0.38 -0.36
 -13 9 7 -0.37 0.54
 -12 9 7 -0.51 1.36
 6 9 7 -0.47 -1.27
 7 9 7 0.79 -0.93
 8 9 7 0.98 0.13
 9 9 7 0.16 0.30
 -13 10 7 0.48 -0.39
 -12 10 7 0.40 -1.21
 -11 10 7 0.43 -0.10
 -10 10 7 0.70 -0.16
 4 10 7 0.15 -1.27
 5 10 7 1.79 0.10
 6 10 7 -0.37 0.82
 7 10 7 -0.29 0.15
 -12 11 7 0.06 0.60
 -11 11 7 -0.13 0.35
 -10 11 7 -0.10 -0.13
 -9 11 7 -0.14 0.84
 -8 11 7 1.13 0.37
 2 11 7 1.22 -1.20
 3 11 7 -0.90 0.15
 4 11 7 -1.06 -0.25
 5 11 7 -0.08 -0.61
 6 11 7 0.27 0.29
 -11 12 7 0.25 -0.33
 -10 12 7 0.32 0.45
 -9 12 7 0.05 -0.20
 -8 12 7 -0.71 -0.47
 -7 12 7 -0.17 -0.27
 -6 12 7 -0.64 -0.39
 -5 12 7 0.58 0.24
 -4 12 7 0.01 0.27
 -3 12 7 -1.35 0.52
 -2 12 7 -1.27 -0.95
 -1 12 7 0.50 -1.33
 0 12 7 0.69 0.40
 1 12 7 0.19 -0.13
 2 12 7 -0.21 0.16
 3 12 7 0.10 0.55
 4 12 7 0.27 -0.31
 -9 13 7 -0.30 0.37
 -8 13 7 -0.13 -0.15
 -7 13 7 0.82 0.09
 -6 13 7 0.19 0.67
 -5 13 7 -0.39 0.06
 -4 13 7 -0.49 0.04
 -3 13 7 0.04 -1.04
 -2 13 7 0.52 -0.31
 -1 13 7 0.48 0.32
 0 13 7 -0.28 -0.21
 1 13 7 0.13 0.02
 2 13 7 0.23 0.10
 -8 -16 8 0.47 -0.72
 -7 -16 8 1.18 -0.21
 -6 -16 8 0.76 0.47
 -5 -16 8 -0.01 0.33
 -4 -16 8 0.82 0.04
 -3 -16 8 0.55 0.26
 3 -16 8 0.62 0.15
 4 -16 8 -0.91 0.16
 5 -16 8 -0.38 -0.31
 6 -16 8 -0.12 -0.32
 7 -16 8 0.33 -0.05
 8 -16 8 -0.15 0.11
 9 -16 8 -0.11 -0.21
 -10 -15 8 -0.44 -0.19
 -9 -15 8 0.85 -0.25
 -8 -15 8 -0.74 0.98
 -7 -15 8 -0.34 0.18
 -6 -15 8 -1.72 0.31
 6 -15 8 -0.06 -0.24
 7 -15 8 0.26 0.02
 8 -15 8 -0.03 0.09
 9 -15 8 0.02 0.11
 10 -15 8 -0.15 0.21
 -11 -14 8 0.24 0.21
 -10 -14 8 -0.44 0.84
 -9 -14 8 -1.76 0.49
 -8 -14 8 0.12 -0.07
 6 -14 8 0.67 0.71
 7 -14 8 -0.08 0.12
 8 -14 8 -0.05 0.06
 9 -14 8 0.32 0.02
 10 -14 8 0.24 -0.07
 11 -14 8 -0.08 0.23
 -12 -13 8 0.25 -0.26
 -11 -13 8 0.33 0.26
 -10 -13 8 -0.54 -0.33
 6 -13 8 -0.33 0.62
 7 -13 8 -0.55 0.17
 8 -13 8 -0.03 -0.02
 9 -13 8 -0.57 0.06
 10 -13 8 -0.40 -0.06
 11 -13 8 0.04 -0.30
 12 -13 8 -0.08 0.05
 -13 -12 8 0.37 0.30
 -12 -12 8 -0.41 1.64
 -11 -12 8 -1.51 -1.33
 6 -12 8 -1.04 -2.33
 7 -12 8 1.20 -0.78
 8 -12 8 0.23 -0.03
 9 -12 8 0.62 -0.34
 10 -12 8 0.42 -0.14
 11 -12 8 0.64 0.34
 12 -12 8 -0.10 0.41
 -14 -11 8 -0.31 0.38
 -13 -11 8 -0.16 -0.52
 -12 -11 8 -1.63 -1.42
 6 -11 8 0.37 0.76
 7 -11 8 -0.82 0.42
 8 -11 8 -0.52 -0.13
 9 -11 8 -0.67 0.17
 10 -11 8 -0.15 -0.41
 11 -11 8 -0.16 -0.06
 12 -11 8 -0.08 -0.19
 13 -11 8 0.44 -0.10
 -15 -10 8 -0.76 0.51
 -14 -10 8 0.29 -1.20
 -13 -10 8 0.03 0.30
 6 -10 8 -1.54 0.94
 7 -10 8 0.61 -0.92
 8 -10 8 0.72 0.30
 9 -10 8 0.61 0.45
 10 -10 8 -0.44 0.89
 11 -10 8 -0.41 -0.24
 12 -10 8 0.22 0.10
 13 -10 8 -0.59 0.02
 -15 -9 8 0.65 -1.02
 -14 -9 8 1.27 0.44
 6 -9 8 2.03 0.28
 7 -9 8 -0.48 -0.79
 8 -9 8 0.67 0.05
 9 -9 8 -0.36 -0.56
 10 -9 8 -0.17 -0.13
 11 -9 8 -0.06 -0.74
 12 -9 8 -0.37 0.16
 13 -9 8 -0.15 -0.50
 14 -9 8 0.19 -0.40
 -15 -8 8 -1.09 1.71
 -14 -8 8 -1.33 -1.56
 7 -8 8 -1.26 1.39
 8 -8 8 0.14 -0.21
 9 -8 8 -0.28 1.45
 10 -8 8 -0.08 -0.62
 11 -8 8 -0.35 0.32
 12 -8 8 0.74 -1.13
 13 -8 8 0.67 -0.12
 14 -8 8 0.30 0.53
 -15 -7 8 0.26 0.69
 10 -7 8 0.37 0.11
 11 -7 8 0.61 -0.36
 12 -7 8 -0.46 0.22
 13 -7 8 0.81 0.22
 14 -7 8 0.23 0.21
 -15 -6 8 -0.02 -0.70
 13 -6 8 -0.38 -0.39
 14 -6 8 -0.18 0.44
 -15 -5 8 -0.37 0.70
 13 -5 8 -0.07 0.83
 14 -5 8 0.19 -0.36
 13 -4 8 0.39 0.12
 14 -4 8 -0.31 -0.08
 13 -3 8 -0.45 0.91
 14 -3 8 -0.50 -0.16
 13 -2 8 0.52 -0.11
 14 -2 8 0.22 -0.02
 12 -1 8 -0.34 -0.06
 13 -1 8 -0.08 -0.35
 14 -1 8 -0.28 0.16
 12 0 8 0.40 1.07
 13 0 8 0.32 0.11
 14 0 8 0.55 0.57
 12 1 8 0.15 0.62
 13 1 8 -0.62 -0.26
 11 2 8 1.55 -0.64
 12 2 8 -0.04 2.44
 13 2 8 -1.06 0.13
 -15 3 8 0.83 -0.16
 11 3 8 -2.57 0.99
 12 3 8 0.27 -1.23
 -15 4 8 0.23 -0.33
 10 4 8 0.91 0.45
 11 4 8 0.07 -0.67
 12 4 8 -0.12 -0.11
 -15 5 8 0.17 0.26
 9 5 8 -0.09 1.65
 10 5 8 -0.31 -0.07
 11 5 8 -0.50 0.40
 -15 6 8 -0.32 0.71
 -14 6 8 -0.75 0.21
 9 6 8 -1.42 -1.85
 10 6 8 0.70 0.02
 11 6 8 -0.38 0.36
 -15 7 8 0.03 0.13
 -14 7 8 -0.84 -0.68
 -13 7 8 0.20 -0.68
 8 7 8 0.11 -0.51
 9 7 8 0.33 0.31
 10 7 8 0.23 -0.01
 -15 8 8 0.51 0.19
 -14 8 8 0.21 0.98
 -13 8 8 -0.53 0.16
 -12 8 8 1.49 1.19
 6 8 8 -0.28 0.29
 7 8 8 -0.71 -0.05
 8 8 8 -0.22 -0.08
 9 8 8 0.17 -0.12
 -14 9 8 -0.01 -0.14
 -13 9 8 0.08 -0.11
 -12 9 8 -0.31 -1.11
 -11 9 8 -0.64 0.29
 5 9 8 -0.78 -0.76
 6 9 8 0.09 0.12
 7 9 8 0.02 -0.25
 8 9 8 0.00 -0.13
 -13 10 8 -0.64 -0.20
 -12 10 8 0.15 -0.15
 -11 10 8 1.36 0.02
 -10 10 8 0.17 1.19
 -9 10 8 -0.96 0.73
 3 10 8 -1.12 1.17
 4 10 8 -0.86 0.17
 5 10 8 0.34 0.20
 6 10 8 0.04 0.15
 -11 11 8 -0.42 -0.14
 -10 11 8 0.14 -0.55
 -9 11 8 0.60 -0.27
 -8 11 8 -0.51 0.13
 -7 11 8 -0.14 1.19
 -6 11 8 -0.92 0.90
 -5 11 8 -0.85 0.93
 -4 11 8 0.69 -1.09
 -3 11 8 -0.70 0.43
 -2 11 8 -0.03 0.02
 -1 11 8 0.49 0.48
 0 11 8 0.11 0.44
 1 11 8 -0.88 0.82
 2 11 8 -1.79 -0.24
 3 11 8 0.47 -0.67
 4 11 8 0.34 -0.18
 5 11 8 -0.41 -0.03
 -10 12 8 0.23 0.12
 -9 12 8 -0.06 0.34
 -8 12 8 0.30 0.42
 -7 12 8 -0.02 -0.41
 -6 12 8 0.21 -0.09
 -5 12 8 -0.33 -0.51
 -4 12 8 -0.70 0.21
 -3 12 8 -0.01 -0.08
 -2 12 8 -0.70 -0.61
 -1 12 8 -0.10 -0.64
 0 12 8 -0.01 -0.87
 1 12 8 0.54 0.06
 2 12 8 0.44 0.14
 3 12 8 -0.14 -0.16
 -7 13 8 0.10 0.10
 -6 13 8 0.32 0.24
 -5 13 8 -0.20 0.84
 -4 13 8 -0.55 -0.31
 -3 13 8 0.00 -0.60
 -2 13 8 0.65 0.26
 -1 13 8 -0.30 0.30
 -8 -16 9 -0.12 0.00
 -7 -16 9 0.05 0.11
 -6 -16 9 -0.32 0.13
 -5 -16 9 -0.69 0.12
 -4 -16 9 -0.26 0.22
 -3 -16 9 -0.59 0.59
 3 -16 9 -0.16 0.50
 4 -16 9 -0.50 0.11
 5 -16 9 0.04 -0.61
 6 -16 9 0.36 -0.03
 7 -16 9 -0.24 -0.13
 8 -16 9 0.01 -0.11
 -10 -15 9 0.40 0.28
 -9 -15 9 -0.14 0.67
 -8 -15 9 1.05 0.00
 -7 -15 9 0.28 0.78
 -6 -15 9 0.59 0.73
 6 -15 9 -0.45 -0.52
 7 -15 9 0.07 0.17
 8 -15 9 -0.20 -0.32
 9 -15 9 0.36 -0.29
 10 -15 9 -0.07 0.01
 -11 -14 9 0.25 -0.30
 -10 -14 9 0.62 0.33
 -9 -14 9 0.71 0.70
 -8 -14 9 -2.00 1.16
 6 -14 9 1.07 0.69
 7 -14 9 -0.17 0.33
 8 -14 9 0.24 0.17
 9 -14 9 -0.14 0.56
 10 -14 9 -0.20 0.30
 -12 -13 9 0.76 0.53
 -11 -13 9 -0.95 0.88
 -10 -13 9 -1.41 -2.24
 6 -13 9 -0.91 0.45
 7 -13 9 -0.08 -0.51
 8 -13 9 -0.10 0.22
 9 -13 9 -0.18 -0.77
 10 -13 9 0.51 -0.34
 11 -13 9 -0.15 0.01
 -13 -12 9 -0.33 0.41
 -12 -12 9 -0.72 -0.53
 -11 -12 9 0.64 0.58
 6 -12 9 -0.90 -0.30
 7 -12 9 -0.56 -0.40
 8 -12 9 0.13 -0.24
 9 -12 9 -0.51 0.49
 10 -12 9 0.00 -0.04
 11 -12 9 0.22 -0.03
 12 -12 9 0.10 0.21
 -14 -11 9 0.19 -0.01
 -13 -11 9 -0.53 -0.29
 -12 -11 9 1.04 0.16
 6 -11 9 -0.51 0.47
 7 -11 9 0.45 -0.98
 8 -11 9 0.76 0.21
 9 -11 9 0.39 -0.23
 10 -11 9 -0.04 -0.59
 11 -11 9 0.44 -0.12
 12 -11 9 0.19 0.15
 -15 -10 9 -0.29 -0.63
 -14 -10 9 0.02 -1.08
 -13 -10 9 1.39 0.31
 6 -10 9 2.54 -3.38
 7 -10 9 1.09 1.12
 8 -10 9 -0.37 0.58
 9 -10 9 -1.03 0.33
 10 -10 9 -0.15 0.29
 11 -10 9 -0.23 0.38
 12 -10 9 -0.46 0.22
 13 -10 9 -0.03 -0.33
 -15 -9 9 0.03 0.15
 -14 -9 9 0.45 0.80
 7 -9 9 1.49 1.11
 8 -9 9 -0.51 0.33
 9 -9 9 0.75 0.49
 10 -9 9 0.06 0.05
 11 -9 9 -0.59 0.52
 12 -9 9 -0.58 -0.42
 13 -9 9 -0.15 -0.10
 -15 -8 9 1.13 -0.81
 -14 -8 9 -0.68 0.56
 8 -8 9 0.08 -0.35
 9 -8 9 0.29 -0.74
 10 -8 9 -0.57 0.26
 11 -8 9 0.49 -0.93
 12 -8 9 0.04 -0.58
 13 -8 9 0.54 -0.46
 14 -8 9 0.18 -0.40
 -15 -7 9 -0.49 -0.77
 12 -7 9 0.42 0.64
 13 -7 9 -0.46 0.07
 14 -7 9 -0.02 0.20
 -15 -6 9 -0.49 -0.22
 12 -6 9 -0.05 -0.78
 13 -6 9 0.65 0.80
 14 -6 9 -0.24 0.03
 -15 -5 9 0.68 -1.09
 12 -5 9 0.25 -1.28
 13 -5 9 1.14 -0.53
 14 -5 9 0.13 0.39
 12 -4 9 0.04 0.96
 13 -4 9 -0.43 0.19
 14 -4 9 -0.15 -0.01
 12 -3 9 -0.08 0.35
 13 -3 9 -0.08 -0.25
 14 -3 9 0.41 0.22
 12 -2 9 0.82 -0.27
 13 -2 9 -0.02 0.11
 14 -2 9 -0.11 -0.03
 12 -1 9 -0.08 -0.32
 13 -1 9 0.09 0.21
 11 0 9 0.36 1.13
 12 0 9 0.22 -0.41
 13 0 9 0.32 0.13
 11 1 9 0.45 -1.08
 12 1 9 0.78 0.45
 13 1 9 0.20 0.69
 -15 2 9 0.54 0.27
 11 2 9 0.36 1.38
 12 2 9 -0.33 -0.27
 -15 3 9 -0.64 -0.60
 10 3 9 0.31 0.20
 11 3 9 0.98 0.59
 12 3 9 -0.49 0.83
 -15 4 9 0.34 0.42
 9 4 9 1.11 1.37
 10 4 9 -1.06 -0.20
 11 4 9 -0.61 -0.12
 -15 5 9 0.57 -0.08
 -14 5 9 0.69 0.60
 8 5 9 -0.54 2.41
 9 5 9 -0.14 0.00
 10 5 9 -0.15 0.48
 -15 6 9 -0.15 0.18
 -14 6 9 -0.23 -0.30
 -13 6 9 0.71 1.10
 8 6 9 -0.49 0.09
 9 6 9 -0.78 0.03
 10 6 9 0.11 -0.40
 -15 7 9 -0.12 -0.14
 -14 7 9 -0.01 0.02
 -13 7 9 -0.03 -1.19
 -12 7 9 1.86 0.06
 6 7 9 0.63 -1.37
 7 7 9 -0.24 -0.17
 8 7 9 -0.21 0.57
 9 7 9 0.11 -0.48
 -14 8 9 0.04 -0.22
 -13 8 9 0.36 0.43
 -12 8 9 -1.20 0.01
 -11 8 9 -1.20 -0.91
 5 8 9 -0.60 -1.07
 6 8 9 0.65 1.70
 7 8 9 -0.95 0.77
 8 8 9 -0.21 -0.67
 -13 9 9 -0.07 0.54
 -12 9 9 -0.48 0.70
 -11 9 9 0.22 -0.12
 -10 9 9 0.29 -0.52
 3 9 9 -0.81 0.76
 4 9 9 -1.11 -0.58
 5 9 9 1.51 0.22
 6 9 9 -0.06 -0.03
 7 9 9 -0.10 -0.03
 -12 10 9 -0.19 0.03
 -11 10 9 -0.60 -0.73
 -10 10 9 0.58 -0.28
 -9 10 9 0.19 -0.29
 -8 10 9 -0.47 -0.12
 -7 10 9 -0.14 0.64
 0 10 9 -0.04 -1.93
 1 10 9 -0.04 0.72
 2 10 9 -0.81 -0.06
 3 10 9 0.89 0.19
 4 10 9 -0.13 0.08
 5 10 9 -0.66 0.08
 -10 11 9 -0.17 -0.16
 -9 11 9 0.33 0.22
 -8 11 9 0.30 0.72
 -7 11 9 -0.19 -0.48
 -6 11 9 -0.23 -0.82
 -5 11 9 1.13 -0.24
 -4 11 9 -1.21 1.74
 -3 11 9 0.40 0.40
 -2 11 9 -0.91 0.19
 -1 11 9 -0.22 -0.18
 0 11 9 -0.79 0.50
 1 11 9 0.41 -0.42
 2 11 9 0.01 0.43
 3 11 9 -0.57 -0.63
 -8 12 9 -0.25 -0.51
 -7 12 9 0.19 0.02
 -6 12 9 0.30 0.19
 -5 12 9 0.19 0.37
 -4 12 9 0.43 0.24
 -3 12 9 -0.93 -0.15
 -2 12 9 0.20 -0.46
 -1 12 9 0.28 0.10
 0 12 9 0.34 -0.09
 1 12 9 0.30 -0.05
 -9 -16 10 -0.15 -0.68
 -8 -16 10 0.89 -0.71
 -7 -16 10 0.84 0.46
 -6 -16 10 -0.22 0.77
 -5 -16 10 0.80 0.00
 -4 -16 10 -0.25 0.43
 -3 -16 10 -0.63 -0.46
 -2 -16 10 0.27 -0.50
 2 -16 10 0.49 -1.05
 3 -16 10 0.57 0.30
 4 -16 10 -0.14 -0.04
 5 -16 10 0.17 0.03
 6 -16 10 -0.53 0.18
 7 -16 10 -0.09 -0.03
 8 -16 10 -0.12 -0.06
 -10 -15 10 1.16 -0.18
 -9 -15 10 0.78 0.67
 -8 -15 10 -0.49 0.16
 -7 -15 10 0.24 -0.34
 -6 -15 10 -0.20 -0.27
 5 -15 10 -0.25 0.13
 6 -15 10 0.32 -0.49
 7 -15 10 0.48 -0.50
 8 -15 10 0.25 0.18
 9 -15 10 -0.24 0.09
 -11 -14 10 -0.14 0.62
 -10 -14 10 -1.90 0.50
 -9 -14 10 -1.81 -0.33
 -8 -14 10 -0.08 0.11
 6 -14 10 -0.37 0.66
 7 -14 10 -0.22 0.40
 8 -14 10 0.13 0.23
 9 -14 10 0.01 0.09
 10 -14 10 -0.10 -0.21
 -12 -13 10 -0.09 0.09
 -11 -13 10 -0.04 -0.58
 -10 -13 10 1.42 -0.60
 6 -13 10 -0.02 0.86
 7 -13 10 -0.64 -0.04
 8 -13 10 0.02 -0.45
 9 -13 10 -0.05 0.60
 10 -13 10 -0.55 0.36
 11 -13 10 0.02 -0.47
 -13 -12 10 0.30 -0.11
 -12 -12 10 -0.07 0.92
 -11 -12 10 -0.09 -1.05
 6 -12 10 -0.01 -0.63
 7 -12 10 -0.05 0.18
 8 -12 10 -0.22 -0.56
 9 -12 10 0.83 -0.05
 10 -12 10 -0.34 -0.32
 11 -12 10 -0.04 0.16
 -14 -11 10 -0.47 -0.87
 -13 -11 10 0.36 0.31
 -12 -11 10 -0.99 -1.49
 6 -11 10 -0.06 -0.93
 7 -11 10 -0.60 0.06
 8 -11 10 -0.79 -0.95
 9 -11 10 0.38 -1.08
 10 -11 10 0.80 1.11
 11 -11 10 0.13 0.05
 12 -11 10 0.13 0.37
 -15 -10 10 0.00 0.07
 -14 -10 10 0.24 0.85
 -13 -10 10 -0.39 -0.49
 7 -10 10 0.24 -0.32
 8 -10 10 0.41 0.14
 9 -10 10 0.58 0.25
 10 -10 10 0.38 -0.62
 11 -10 10 0.22 0.20
 12 -10 10 -0.17 0.09
 -15 -9 10 1.05 0.63
 -14 -9 10 -1.86 0.75
 -13 -9 10 0.07 -1.59
 8 -9 10 0.51 0.14
 9 -9 10 -0.37 -0.02
 10 -9 10 -0.74 0.57
 11 -9 10 -0.42 0.36
 12 -9 10 -0.58 -0.20
 13 -9 10 -0.31 -0.33
 -15 -8 10 -1.92 0.06
 -14 -8 10 0.72 -2.24
 10 -8 10 0.81 -0.13
 11 -8 10 -0.46 -0.19
 12 -8 10 0.06 0.14
 13 -8 10 0.09 -0.13
 -15 -7 10 0.82 0.46
 -14 -7 10 0.01 -0.01
 11 -7 10 0.89 0.27
 12 -7 10 -0.06 -0.17
 13 -7 10 0.05 0.03
 -15 -6 10 0.05 0.95
 12 -6 10 -0.41 -0.29
 13 -6 10 -0.07 -0.21
 -15 -5 10 0.19 -0.09
 12 -5 10 0.37 0.18
 13 -5 10 0.09 -0.17
 -15 -4 10 0.71 -2.07
 12 -4 10 0.53 -0.83
 13 -4 10 0.16 -0.02
 12 -3 10 0.30 0.59
 13 -3 10 -0.18 0.34
 11 -2 10 1.40 -0.82
 12 -2 10 -0.55 0.34
 13 -2 10 -0.01 -0.16
 11 -1 10 -0.64 -0.32
 12 -1 10 0.00 0.08
 13 -1 10 -0.07 -0.39
 -15 0 10 -0.21 -0.26
 11 0 10 0.56 -0.86
 12 0 10 0.24 0.29
 -15 1 10 -0.25 0.43
 10 1 10 0.31 -0.39
 11 1 10 0.10 0.03
 12 1 10 0.24 -0.21
 -15 2 10 -0.16 0.25
 10 2 10 2.37 0.28
 11 2 10 -0.24 0.32
 -15 3 10 -0.07 -1.59
 9 3 10 0.81 1.04
 10 3 10 -0.04 0.79
 11 3 10 0.00 0.41
 -15 4 10 0.52 0.63
 -14 4 10 -0.83 1.01
 8 4 10 1.94 -0.17
 9 4 10 0.19 -0.22
 10 4 10 0.17 0.10
 -15 5 10 0.47 0.13
 -14 5 10 -0.40 0.43
 -13 5 10 -0.61 -0.28
 7 5 10 2.48 0.13
 8 5 10 0.77 0.75
 9 5 10 -0.25 0.38
 10 5 10 0.07 0.14
 -15 6 10 0.04 -0.56
 -14 6 10 0.87 0.10
 -13 6 10 0.18 -0.62
 6 6 10 0.49 0.67
 7 6 10 -2.06 0.37
 8 6 10 -0.51 0.44
 9 6 10 -0.21 0.08
 -14 7 10 -0.09 0.24
 -13 7 10 -0.59 0.61
 -12 7 10 -0.04 -0.26
 -11 7 10 0.06 1.11
 5 7 10 -0.27 -2.23
 6 7 10 0.56 0.70
 7 7 10 0.33 0.60
 8 7 10 0.17 -0.71
 -13 8 10 0.43 -0.26
 -12 8 10 0.34 0.26
 -11 8 10 0.37 0.22
 -10 8 10 -0.08 -0.19
 3 8 10 1.91 -1.77
 4 8 10 1.50 0.72
 5 8 10 1.20 1.55
 6 8 10 -0.20 -0.23
 7 8 10 -0.11 -0.30
 -12 9 10 -0.33 0.19
 -11 9 10 -0.64 -0.87
 -10 9 10 0.53 0.01
 -9 9 10 0.05 -0.40
 -8 9 10 -0.09 0.11
 1 9 10 -1.51 0.53
 2 9 10 0.22 1.26
 3 9 10 -0.70 0.55
 4 9 10 -0.28 0.25
 5 9 10 -0.97 -0.15
 -11 10 10 -0.06 0.70
 -10 10 10 -0.76 -0.15
 -9 10 10 -0.18 -0.27
 -8 10 10 0.53 -0.28
 -7 10 10 0.64 -0.97
 -6 10 10 -0.24 -0.02
 -5 10 10 0.55 -0.23
 -4 10 10 -0.92 2.30
 -3 10 10 -0.69 -0.76
 -2 10 10 0.75 -1.32
 -1 10 10 0.13 0.62
 0 10 10 -0.47 0.41
 1 10 10 0.92 -1.01
 2 10 10 0.54 0.25
 3 10 10 -0.41 -0.27
 4 10 10 0.43 0.42
 -9 11 10 -0.20 -0.31
 -8 11 10 0.24 -0.35
 -7 11 10 -0.19 0.63
 -6 11 10 0.30 -0.10
 -5 11 10 0.27 -0.32
 -4 11 10 1.28 -0.17
 -3 11 10 -0.77 0.32
 -2 11 10 0.03 0.32
 -1 11 10 -0.26 -0.10
 0 11 10 0.22 -0.56
 1 11 10 -0.07 0.00
 -8 -16 11 -0.30 -0.08
 -7 -16 11 -0.28 -0.85
 -6 -16 11 0.80 -0.12
 -5 -16 11 -1.17 0.56
 -4 -16 11 -0.87 -0.32
 -3 -16 11 0.74 -0.43
 -2 -16 11 -0.75 0.42
 -1 -16 11 -0.05 -0.69
 0 -16 11 0.07 0.03
 1 -16 11 -0.32 0.63
 2 -16 11 -0.74 0.31
 3 -16 11 -0.27 -0.45
 4 -16 11 0.71 -0.03
 5 -16 11 -0.47 0.50
 6 -16 11 0.01 -0.63
 7 -16 11 0.17 -0.27
 -10 -15 11 -0.17 -0.03
 -9 -15 11 0.33 0.54
 -8 -15 11 0.63 0.54
 -7 -15 11 0.46 1.71
 -6 -15 11 -0.44 0.99
 4 -15 11 -1.73 0.63
 5 -15 11 -0.08 -1.65
 6 -15 11 0.38 -0.08
 7 -15 11 -0.14 0.27
 8 -15 11 0.21 -0.18
 9 -15 11 0.09 -0.14
 -11 -14 11 0.47 0.45
 -10 -14 11 -0.50 1.24
 -9 -14 11 -1.10 -1.65
 -8 -14 11 0.58 -1.49
 6 -14 11 0.52 0.51
 7 -14 11 0.46 0.06
 8 -14 11 -0.06 0.23
 9 -14 11 0.06 0.14
 10 -14 11 0.33 0.40
 -12 -13 11 -0.12 -0.43
 -11 -13 11 0.06 -1.08
 -10 -13 11 0.27 -0.83
 6 -13 11 -0.52 -0.41
 7 -13 11 -0.05 0.56
 8 -13 11 -1.01 0.72
 9 -13 11 -0.27 -0.55
 10 -13 11 -0.38 -0.30
 -13 -12 11 -0.37 0.35
 -12 -12 11 0.11 0.21
 -11 -12 11 -0.76 1.50
 6 -12 11 -0.84 0.49
 7 -12 11 -0.36 -0.25
 8 -12 11 0.37 -0.51
 9 -12 11 -0.25 -0.35
 10 -12 11 0.91 0.35
 11 -12 11 0.24 0.18
 -14 -11 11 -0.12 0.43
 -13 -11 11 0.07 -0.88
 -12 -11 11 1.00 0.50
 7 -11 11 0.07 -1.19
 8 -11 11 -0.05 0.20
 9 -11 11 0.13 0.25
 10 -11 11 -0.43 -0.89
 11 -11 11 -0.10 0.07
 -15 -10 11 0.05 -0.50
 -14 -10 11 0.53 -0.15
 -13 -10 11 -0.10 0.51
 8 -10 11 1.36 -0.56
 9 -10 11 -0.55 0.06
 10 -10 11 0.09 -0.35
 11 -10 11 0.90 0.21
 12 -10 11 0.00 0.30
 -15 -9 11 -1.13 -0.35
 -14 -9 11 1.15 -0.09
 -13 -9 11 -1.01 1.99
 9 -9 11 0.62 -0.04
 10 -9 11 1.00 0.92
 11 -9 11 -0.95 0.50
 12 -9 11 -0.18 -0.27
 -15 -8 11 0.46 -0.25
 -14 -8 11 0.30 -0.52
 11 -8 11 0.37 -0.19
 12 -8 11 0.08 -0.19
 -15 -7 11 -0.15 -0.25
 -14 -7 11 0.25 0.82
 11 -7 11 -0.40 0.53
 12 -7 11 -0.31 0.21
 13 -7 11 -0.02 -0.01
 -15 -6 11 -1.05 0.17
 11 -6 11 -0.76 -0.14
 12 -6 11 -0.34 -0.25
 13 -6 11 -0.30 -0.10
 -15 -5 11 -1.90 -0.39
 11 -5 11 -0.16 -0.82
 12 -5 11 0.66 0.15
 13 -5 11 -0.24 0.03
 -15 -4 11 0.93 1.15
 11 -4 11 1.21 -0.44
 12 -4 11 0.32 -0.33
 13 -4 11 0.35 0.00
 -15 -3 11 -0.81 -0.53
 11 -3 11 -0.78 -0.33
 12 -3 11 -0.51 -0.09
 -15 -2 11 0.10 0.69
 11 -2 11 -0.06 0.25
 12 -2 11 0.48 0.09
 -15 -1 11 0.21 -1.19
 10 -1 11 0.89 0.02
 11 -1 11 -0.80 0.34
 12 -1 11 0.05 -0.59
 -15 0 11 1.07 1.08
 10 0 11 -0.11 0.17
 11 0 11 -0.47 -0.04
 12 0 11 -0.03 -0.43
 -15 1 11 -0.58 0.08
 9 1 11 -1.37 1.44
 10 1 11 -1.01 -1.41
 11 1 11 0.66 -0.52
 -15 2 11 0.27 -0.57
 -14 2 11 -0.16 0.52
 9 2 11 -0.13 0.49
 10 2 11 -0.21 -0.94
 11 2 11 0.72 -0.35
 -15 3 11 0.44 0.16
 -14 3 11 -0.08 -0.16
 8 3 11 0.35 -0.59
 9 3 11 0.93 -0.47
 10 3 11 0.55 0.27
 -15 4 11 -0.63 0.09
 -14 4 11 0.69 -1.06
 -13 4 11 2.41 1.43
 7 4 11 1.43 -1.27
 8 4 11 0.16 -0.41
 9 4 11 -0.43 -0.02
 -15 5 11 -0.49 -0.45
 -14 5 11 -0.20 -0.34
 -13 5 11 -1.50 -0.58
 6 5 11 1.79 -0.37
 7 5 11 -0.17 0.43
 8 5 11 0.46 0.66
 9 5 11 0.19 0.36
 -14 6 11 0.15 0.07
 -13 6 11 0.44 0.35
 -12 6 11 0.89 0.07
 5 6 11 -0.08 0.35
 6 6 11 0.00 0.47
 7 6 11 0.69 1.55
 8 6 11 -0.58 -0.28
 -14 7 11 -0.26 -0.12
 -13 7 11 0.74 -0.54
 -12 7 11 0.13 0.60
 -11 7 11 0.39 0.34
 -10 7 11 -0.75 0.21
 3 7 11 0.19 -1.14
 4 7 11 -0.83 0.14
 5 7 11 -0.54 -0.63
 6 7 11 0.45 -0.90
 7 7 11 -0.30 -0.64
 -13 8 11 0.36 -0.02
 -12 8 11 0.28 0.68
 -11 8 11 -0.78 0.40
 -10 8 11 -0.55 0.26
 -9 8 11 -0.45 -0.95
 -8 8 11 0.01 0.09
 1 8 11 0.73 1.68
 2 8 11 1.72 0.54
 3 8 11 -0.68 0.74
 4 8 11 0.81 -0.90
 5 8 11 0.31 0.19
 -11 9 11 0.10 0.08
 -10 9 11 -0.06 -0.05
 -9 9 11 -0.30 0.30
 -8 9 11 0.54 0.06
 -7 9 11 0.01 0.05
 -6 9 11 -1.30 0.54
 -5 9 11 -1.05 -0.86
 -4 9 11 0.82 0.00
 -3 9 11 0.88 -0.43
 -2 9 11 1.64 -1.04
 -1 9 11 0.96 2.07
 0 9 11 -0.86 1.81
 1 9 11 -0.23 -0.79
 2 9 11 -0.30 -0.53
 3 9 11 0.28 0.17
 4 9 11 -0.02 0.33
 -9 10 11 0.21 -0.36
 -8 10 11 -0.12 -0.15
 -7 10 11 -0.72 0.70
 -6 10 11 -0.20 -1.00
 -5 10 11 0.57 -0.44
 -4 10 11 0.41 -0.43
 -3 10 11 -1.06 0.79
 -2 10 11 -0.73 -0.20
 -1 10 11 0.04 -0.43
 0 10 11 -0.34 -1.02
 1 10 11 0.12 -0.09
 2 10 11 0.25 0.23
 -6 11 11 0.39 0.23
 -5 11 11 -0.31 0.51
 -4 11 11 -0.04 -0.29
 -3 11 11 0.82 0.43
 -2 11 11 -0.45 0.02
 -8 -16 12 0.39 0.55
 -7 -16 12 0.18 0.41
 -6 -16 12 0.40 -0.14
 -5 -16 12 0.79 0.30
 -4 -16 12 0.23 0.12
 -3 -16 12 -1.44 0.16
 -2 -16 12 0.06 -0.74
 -1 -16 12 -0.13 0.67
 0 -16 12 -1.37 0.82
 1 -16 12 -1.31 -1.10
 2 -16 12 0.41 -0.64
 3 -16 12 0.10 -0.03
 4 -16 12 -0.10 0.21
 5 -16 12 -0.02 0.20
 6 -16 12 -0.52 -0.13
 7 -16 12 0.06 -0.15
 -10 -15 12 0.01 -0.17
 -9 -15 12 -0.23 -0.94
 -8 -15 12 -0.01 -0.28
 -7 -15 12 -0.67 -0.76
 -6 -15 12 -0.54 -1.26
 -5 -15 12 0.69 -0.87
 3 -15 12 -1.00 0.77
 4 -15 12 0.29 -1.18
 5 -15 12 0.48 -0.32
 6 -15 12 0.89 0.14
 7 -15 12 0.17 -0.02
 8 -15 12 0.00 0.09
 -11 -14 12 -0.58 0.47
 -10 -14 12 -0.79 -0.39
 -9 -14 12 -0.17 0.62
 -8 -14 12 -0.32 0.26
 5 -14 12 -0.23 -0.27
 6 -14 12 -0.04 -0.45
 7 -14 12 -0.09 0.50
 8 -14 12 0.07 0.14
 9 -14 12 0.19 0.04
 -12 -13 12 0.46 -0.15
 -11 -13 12 0.10 0.59
 -10 -13 12 0.38 -0.91
 -9 -13 12 1.49 0.38
 6 -13 12 0.10 1.00
 7 -13 12 -0.12 0.47
 8 -13 12 -0.29 -0.58
 9 -13 12 -0.17 0.20
 10 -13 12 -0.14 -0.30
 -13 -12 12 0.52 0.17
 -12 -12 12 -0.42 -0.02
 -11 -12 12 0.78 -0.60
 -10 -12 12 0.00 0.36
 7 -12 12 -0.64 -0.53
 8 -12 12 0.00 0.64
 9 -12 12 -0.33 0.21
 10 -12 12 -0.40 -0.22
 -14 -11 12 0.28 -0.42
 -13 -11 12 -0.20 0.36
 -12 -11 12 -1.07 0.63
 -11 -11 12 -0.76 -0.72
 7 -11 12 0.19 0.98
 8 -11 12 0.36 -0.41
 9 -11 12 -0.32 0.35
 10 -11 12 -0.35 -0.07
 11 -11 12 0.21 -0.02
 -14 -10 12 0.21 0.67
 -13 -10 12 -0.48 -0.05
 -12 -10 12 1.22 -1.51
 9 -10 12 0.83 -0.90
 10 -10 12 0.98 0.04
 11 -10 12 0.03 -0.14
 -15 -9 12 0.89 1.11
 -14 -9 12 -2.03 0.27
 -13 -9 12 -0.34 -2.11
 10 -9 12 -0.92 -0.14
 11 -9 12 0.16 -0.15
 12 -9 12 0.17 0.30
 -15 -8 12 0.07 -0.19
 -14 -8 12 -0.85 0.49
 -13 -8 12 1.68 -0.40
 10 -8 12 0.64 -0.44
 11 -8 12 0.63 0.00
 12 -8 12 0.02 0.16
 -15 -7 12 0.58 0.53
 -14 -7 12 -0.54 0.42
 10 -7 12 0.77 0.11
 11 -7 12 -0.33 0.62
 12 -7 12 -0.25 0.04
 -15 -6 12 -0.38 -0.23
 -14 -6 12 -0.69 0.07
 10 -6 12 -0.13 0.73
 11 -6 12 -0.02 0.39
 12 -6 12 -0.16 0.39
 -15 -5 12 0.35 -0.52
 10 -5 12 -0.41 -0.70
 11 -5 12 -0.45 -0.14
 12 -5 12 -0.57 -0.68
 -15 -4 12 0.68 -1.23
 10 -4 12 -0.45 0.55
 11 -4 12 -0.11 -0.52
 12 -4 12 0.38 0.15
 -15 -3 12 -0.97 0.07
 10 -3 12 0.53 -0.44
 11 -3 12 0.28 0.33
 12 -3 12 -0.18 0.08
 -15 -2 12 -0.72 0.21
 10 -2 12 0.75 -1.17
 11 -2 12 0.35 0.22
 -15 -1 12 0.69 -0.59
 9 -1 12 -0.80 1.46
 10 -1 12 -0.68 0.11
 11 -1 12 0.20 0.04
 -15 0 12 -0.48 -0.13
 9 0 12 0.63 0.63
 10 0 12 -0.45 -0.19
 11 0 12 0.04 -0.02
 -15 1 12 0.21 0.66
 -14 1 12 -1.22 -0.36
 8 1 12 -0.66 1.62
 9 1 12 -0.69 -0.51
 10 1 12 0.51 0.16
 -15 2 12 -0.77 0.12
 -14 2 12 0.15 -0.32
 8 2 12 -1.80 -0.71
 9 2 12 0.51 -1.36
 10 2 12 -0.07 0.11
 -15 3 12 -0.55 -0.23
 -14 3 12 -0.19 -1.37
 -13 3 12 1.92 -0.30
 7 3 12 -1.62 -0.32
 8 3 12 0.12 -0.94
 9 3 12 -0.02 0.32
 -15 4 12 0.47 -0.36
 -14 4 12 0.73 0.60
 -13 4 12 -1.12 0.84
 6 4 12 -1.00 -1.18
 7 4 12 0.46 -0.51
 8 4 12 0.39 -0.01
 -14 5 12 -0.68 0.36
 -13 5 12 -0.08 -0.81
 -12 5 12 1.07 -0.81
 5 5 12 -0.17 -1.02
 6 5 12 0.06 -0.58
 7 5 12 1.09 -0.17
 -14 6 12 -0.39 -0.47
 -13 6 12 0.04 -1.12
 -12 6 12 0.06 -0.58
 -11 6 12 1.47 -0.20
 -10 6 12 -0.46 1.05
 3 6 12 1.09 1.29
 4 6 12 -0.30 0.50
 5 6 12 -0.13 0.97
 6 6 12 -0.09 0.15
 -13 7 12 -0.03 0.11
 -12 7 12 1.03 0.59
 -11 7 12 -1.11 0.65
 -10 7 12 0.79 -0.56
 -9 7 12 -0.52 -0.28
 -8 7 12 0.90 -0.91
 1 7 12 0.26 0.47
 2 7 12 -0.01 1.14
 3 7 12 -1.68 -0.53
 4 7 12 -0.12 -1.22
 5 7 12 0.44 -0.34
 -12 8 12 -0.38 0.23
 -11 8 12 0.09 -0.12
 -10 8 12 -0.47 0.44
 -9 8 12 -0.80 0.18
 -8 8 12 -0.22 -0.70
 -7 8 12 0.47 -1.09
 -6 8 12 -0.03 1.17
 -5 8 12 -0.81 -0.19
 -4 8 12 0.56 0.50
 -3 8 12 -1.02 -0.68
 -2 8 12 -0.06 -2.50
 -1 8 12 1.45 -0.70
 0 8 12 0.27 1.34
 1 8 12 -0.66 -1.45
 2 8 12 0.00 -1.10
 3 8 12 0.91 -0.17
 4 8 12 0.19 0.52
 -10 9 12 0.24 0.03
 -9 9 12 0.17 0.09
 -8 9 12 -0.50 0.01
 -7 9 12 -0.21 0.61
 -6 9 12 -0.23 -0.78
 -5 9 12 1.02 -0.24
 -4 9 12 -0.16 0.44
 -3 9 12 -0.78 0.62
 -2 9 12 0.06 0.41
 -1 9 12 0.31 0.40
 0 9 12 -0.92 -0.25
 1 9 12 0.05 -0.09
 2 9 12 0.55 0.36
 -7 10 12 0.19 -0.50
 -6 10 12 0.16 0.32
 -5 10 12 -0.38 0.27
 -4 10 12 -0.05 -0.13
 -3 10 12 0.83 -0.45
 -2 10 12 0.16 0.42
 -1 10 12 -0.67 0.20
 -8 -16 13 -0.41 -0.42
 -7 -16 13 0.06 -0.07
 -6 -16 13 -0.44 0.27
 -5 -16 13 -0.69 0.11
 -4 -16 13 -0.48 -0.47
 -3 -16 13 0.67 0.57
 -2 -16 13 -0.67 0.15
 -1 -16 13 0.25 0.17
 0 -16 13 0.04 0.46
 1 -16 13 -0.43 0.52
 2 -16 13 -0.41 -0.83
 3 -16 13 0.32 -0.11
 4 -16 13 -0.12 -0.20
 5 -16 13 -0.16 -0.44
 6 -16 13 0.22 -0.09
 -10 -15 13 0.22 0.23
 -9 -15 13 0.14 0.78
 -8 -15 13 -0.16 0.58
 -7 -15 13 -0.21 0.15
 -6 -15 13 0.48 0.87
 -5 -15 13 -0.41 -0.54
 -4 -15 13 1.76 -1.32
 2 -15 13 1.25 0.77
 3 -15 13 0.37 0.40
 4 -15 13 -0.56 0.31
 5 -15 13 0.22 0.13
 6 -15 13 -0.40 -0.29
 7 -15 13 0.55 -0.06
 -11 -14 13 0.38 0.12
 -10 -14 13 -0.45 0.32
 -9 -14 13 -0.41 -1.24
 -8 -14 13 0.72 -1.37
 -7 -14 13 1.13 0.08
 4 -14 13 0.92 -1.38
 5 -14 13 0.58 0.39
 6 -14 13 0.17 0.50
 7 -14 13 0.11 -0.09
 8 -14 13 0.15 0.04
 -12 -13 13 0.23 0.24
 -11 -13 13 -1.14 -0.15
 -10 -13 13 -0.66 -1.00
 -9 -13 13 1.04 -1.23
 6 -13 13 -0.03 -0.24
 7 -13 13 -0.64 -0.10
 8 -13 13 -0.21 0.39
 9 -13 13 -0.27 0.07
 -13 -12 13 -0.36 -0.57
 -12 -12 13 0.57 0.54
 -11 -12 13 0.14 -0.52
 -10 -12 13 3.33 0.65
 7 -12 13 0.78 1.03
 8 -12 13 -0.21 -0.20
 9 -12 13 0.14 -0.31
 10 -12 13 -0.02 0.22
 -14 -11 13 0.08 0.08
 -13 -11 13 0.37 1.23
 -12 -11 13 -1.47 -0.08
 -11 -11 13 -0.77 -0.57
 8 -11 13 -0.38 -0.41
 9 -11 13 0.16 0.14
 10 -11 13 0.12 -0.08
 -14 -10 13 0.16 -1.05
 -13 -10 13 0.28 -0.51
 -12 -10 13 0.55 0.40
 8 -10 13 0.32 1.51
 9 -10 13 -1.25 -0.51
 10 -10 13 -0.06 -0.49
 11 -10 13 0.17 0.12
 -15 -9 13 0.14 0.29
 -14 -9 13 0.33 0.65
 -13 -9 13 1.25 1.25
 9 -9 13 0.28 0.11
 10 -9 13 0.63 0.20
 11 -9 13 -0.18 0.01
 -15 -8 13 -1.13 -0.44
 -14 -8 13 0.86 -0.83
 -13 -8 13 -2.04 0.61
 9 -8 13 1.00 -0.36
 10 -8 13 -0.66 -0.19
 11 -8 13 0.32 -0.50
 -15 -7 13 -0.37 0.93
 -14 -7 13 0.48 -0.22
 9 -7 13 0.24 0.25
 10 -7 13 0.39 0.57
 11 -7 13 -0.04 0.18
 -15 -6 13 0.18 0.22
 -14 -6 13 -0.36 -0.58
 9 -6 13 1.16 0.38
 10 -6 13 -0.37 0.54
 11 -6 13 -0.46 0.06
 -15 -5 13 -0.71 0.67
 -14 -5 13 -1.05 -0.83
 9 -5 13 -1.18 0.47
 10 -5 13 -0.30 0.41
 11 -5 13 -0.19 0.26
 -15 -4 13 -0.04 1.02
 -14 -4 13 -0.39 0.15
 9 -4 13 0.03 -0.84
 10 -4 13 0.80 -1.04
 11 -4 13 0.53 0.02
 -15 -3 13 1.06 -0.35
 -14 -3 13 -0.88 0.79
 9 -3 13 -0.94 -0.18
 10 -3 13 -1.01 -0.28
 11 -3 13 -0.42 -0.26
 -15 -2 13 -0.13 -0.05
 -14 -2 13 0.33 0.79
 9 -2 13 1.07 0.29
 10 -2 13 -0.19 0.96
 11 -2 13 -0.03 -0.35
 -15 -1 13 -0.35 -0.36
 -14 -1 13 0.00 -1.32
 8 -1 13 1.16 -1.09
 9 -1 13 0.33 -0.35
 10 -1 13 0.29 -0.24
 -15 0 13 0.24 0.09
 -14 0 13 1.24 0.89
 8 0 13 -0.74 -1.20
 9 0 13 0.81 0.04
 10 0 13 -0.34 0.46
 -15 1 13 0.00 -0.54
 -14 1 13 0.08 0.01
 7 1 13 0.82 0.91
 8 1 13 0.75 1.31
 9 1 13 -0.83 0.43
 -15 2 13 -0.25 0.67
 -14 2 13 -0.89 0.38
 -13 2 13 -0.73 -1.06
 6 2 13 -0.88 0.31
 7 2 13 -0.29 -0.13
 8 2 13 -0.70 0.35
 9 2 13 -0.50 -0.15
 -15 3 13 -0.01 0.27
 -14 3 13 -0.80 -0.56
 -13 3 13 0.01 -0.68
 -12 3 13 0.98 0.83
 5 3 13 0.59 0.54
 6 3 13 -0.55 -0.21
 7 3 13 0.42 -0.38
 8 3 13 0.08 -0.16
 -14 4 13 0.42 0.73
 -13 4 13 0.12 0.32
 -12 4 13 -0.43 -0.34
 -11 4 13 -0.81 -0.45
 4 4 13 -0.37 1.42
 5 4 13 -0.17 -0.35
 6 4 13 0.01 0.56
 7 4 13 -0.52 -0.26
 -14 5 13 -0.13 -0.24
 -13 5 13 -1.08 -0.05
 -12 5 13 -0.51 -0.88
 -11 5 13 1.02 -0.19
 -10 5 13 -0.46 0.95
 3 5 13 0.62 0.47
 4 5 13 -0.47 -0.03
 5 5 13 -0.01 -0.09
 6 5 13 0.22 -0.34
 -13 6 13 0.30 -0.35
 -12 6 13 0.98 -0.21
 -11 6 13 0.46 0.16
 -10 6 13 1.31 0.21
 -9 6 13 -0.53 -0.39
 -8 6 13 1.36 -0.61
 1 6 13 -0.76 -1.33
 2 6 13 1.68 -0.51
 3 6 13 0.29 -0.61
 4 6 13 0.61 0.49
 5 6 13 -0.23 -0.05
 -12 7 13 -0.77 -0.13
 -11 7 13 0.33 -0.52
 -10 7 13 -0.32 0.68
 -9 7 13 -0.30 0.96
 -8 7 13 -0.84 1.04
 -7 7 13 -1.88 -0.51
 -6 7 13 0.04 -0.49
 -5 7 13 0.81 0.66
 -4 7 13 -0.05 0.69
 -3 7 13 -0.73 0.42
 -2 7 13 -0.77 -0.20
 -1 7 13 -0.31 0.55
 0 7 13 -0.11 0.63
 1 7 13 -0.60 0.86
 2 7 13 -0.82 0.07
 3 7 13 -0.28 0.72
 4 7 13 -0.41 0.09
 -10 8 13 0.15 0.01
 -9 8 13 -0.13 -0.38
 -8 8 13 -0.12 -0.64
 -7 8 13 0.89 0.07
 -6 8 13 0.66 0.06
 -5 8 13 -0.32 1.30
 -4 8 13 -1.55 -0.57
 -3 8 13 -0.13 -0.50
 -2 8 13 0.44 -0.61
 -1 8 13 0.64 -0.23
 0 8 13 -0.26 -0.49
 1 8 13 -0.09 -0.10
 2 8 13 0.34 -0.35
 -8 9 13 0.55 -0.03
 -7 9 13 -0.01 -0.25
 -6 9 13 0.15 0.12
 -5 9 13 0.04 -0.10
 -4 9 13 0.35 0.10
 -3 9 13 0.65 -0.09
 -2 9 13 0.11 0.62
 -1 9 13 -0.62 0.56
 -8 -16 14 -0.04 0.41
 -7 -16 14 -0.08 -0.06
 -6 -16 14 0.34 0.07
 -5 -16 14 0.25 0.24
 -4 -16 14 -0.23 0.16
 -3 -16 14 -0.13 -0.93
 -2 -16 14 0.71 0.36
 -1 -16 14 -0.51 0.37
 0 -16 14 -0.78 0.29
 1 -16 14 -0.77 -0.87
 2 -16 14 0.26 0.08
 3 -16 14 0.19 -0.09
 4 -16 14 0.01 0.32
 5 -16 14 -0.07 0.00
 -9 -15 14 -0.20 -0.19
 -8 -15 14 -0.32 -0.45
 -7 -15 14 0.31 -0.43
 -6 -15 14 -0.12 -0.30
 -5 -15 14 -0.32 -0.17
 -4 -15 14 -0.60 0.55
 -3 -15 14 -0.03 0.11
 -2 -15 14 0.07 0.08
 -1 -15 14 -0.13 1.35
 0 -15 14 -0.54 -0.09
 1 -15 14 0.13 0.43
 2 -15 14 -0.02 -1.09
 3 -15 14 0.42 -0.20
 4 -15 14 0.59 0.37
 5 -15 14 -0.43 -0.19
 6 -15 14 0.28 -0.03
 -11 -14 14 -0.86 -0.06
 -10 -14 14 -0.13 -0.46
 -9 -14 14 0.12 -0.15
 -8 -14 14 0.36 0.08
 -7 -14 14 -0.22 1.12
 -6 -14 14 -0.92 0.46
 3 -14 14 0.72 -0.34
 4 -14 14 -0.45 0.43
 5 -14 14 -0.22 0.10
 6 -14 14 0.19 -0.28
 7 -14 14 0.09 0.33
 -12 -13 14 -0.17 -0.11
 -11 -13 14 0.73 0.12
 -10 -13 14 0.10 -0.48
 -9 -13 14 1.08 -0.33
 -8 -13 14 1.02 1.36
 5 -13 14 -0.02 -0.46
 6 -13 14 0.21 -0.01
 7 -13 14 0.32 0.17
 8 -13 14 0.15 -0.22
 -12 -12 14 0.32 -0.32
 -11 -12 14 0.28 0.17
 -10 -12 14 -0.32 0.82
 6 -12 14 -0.62 0.45
 7 -12 14 -0.88 -1.07
 8 -12 14 0.01 -0.10
 9 -12 14 -0.02 -0.02
 -13 -11 14 -0.99 0.14
 -12 -11 14 -0.12 -0.12
 -11 -11 14 1.26 0.62
 7 -11 14 0.61 0.80
 8 -11 14 0.26 0.83
 9 -11 14 -0.52 0.30
 -14 -10 14 -0.28 0.57
 -13 -10 14 -0.04 -0.93
 -12 -10 14 0.48 -0.58
 -11 -10 14 -1.14 -0.82
 7 -10 14 0.01 0.64
 8 -10 14 -0.78 -0.57
 9 -10 14 0.58 -0.05
 10 -10 14 -0.20 0.05
 -14 -9 14 0.28 0.21
 -13 -9 14 -0.52 0.00
 -12 -9 14 1.11 0.36
 8 -9 14 0.53 -0.10
 9 -9 14 -0.26 0.24
 10 -9 14 -0.43 -0.03
 -15 -8 14 0.10 0.30
 -14 -8 14 -0.44 0.00
 -13 -8 14 1.10 0.62
 8 -8 14 -0.49 1.59
 9 -8 14 -1.08 -0.72
 10 -8 14 0.83 -0.79
 -15 -7 14 0.64 -0.69
 -14 -7 14 -0.44 0.54
 -13 -7 14 -0.32 -1.59
 8 -7 14 0.24 0.02
 9 -7 14 0.03 -0.40
 10 -7 14 0.30 -0.18
 -15 -6 14 -0.36 -0.20
 -14 -6 14 0.47 0.23
 -13 -6 14 -0.56 1.10
 8 -6 14 0.26 -0.14
 9 -6 14 -0.03 0.15
 10 -6 14 -0.01 0.17
 -15 -5 14 0.48 -0.41
 -14 -5 14 0.70 1.40
 8 -5 14 0.23 0.55
 9 -5 14 0.20 1.00
 10 -5 14 -0.37 0.16
 -15 -4 14 -0.09 0.20
 -14 -4 14 -0.64 -0.34
 8 -4 14 -0.14 -1.25
 9 -4 14 -0.37 -0.17
 10 -4 14 -0.44 0.00
 -15 -3 14 -0.55 0.40
 -14 -3 14 -0.03 -0.19
 8 -3 14 0.49 1.92
 9 -3 14 0.21 0.63
 10 -3 14 0.07 0.57
 -15 -2 14 -0.52 -0.10
 -14 -2 14 0.25 -1.16
 7 -2 14 -0.94 -0.89
 8 -2 14 0.77 -1.11
 9 -2 14 -1.38 -0.17
 10 -2 14 0.06 -1.21
 -15 -1 14 0.10 -0.21
 -14 -1 14 -0.08 -0.30
 -13 -1 14 1.89 -1.39
 7 -1 14 -0.48 0.33
 8 -1 14 -1.35 0.14
 9 -1 14 0.41 -0.64
 -15 0 14 1.06 0.73
 -14 0 14 -0.65 1.63
 -13 0 14 -1.19 0.40
 6 0 14 -1.19 -0.78
 7 0 14 1.08 -0.51
 8 0 14 0.76 0.47
 9 0 14 -0.52 0.28
 -15 1 14 0.05 0.36
 -14 1 14 -0.62 0.37
 -13 1 14 -1.38 -0.91
 6 1 14 0.26 -0.31
 7 1 14 0.98 -0.27
 8 1 14 0.14 0.58
 -15 2 14 0.01 0.14
 -14 2 14 -0.19 -0.37
 -13 2 14 1.03 -0.11
 -12 2 14 0.83 1.09
 5 2 14 -1.59 -1.42
 6 2 14 1.11 0.34
 7 2 14 -0.91 1.03
 8 2 14 -0.57 -0.62
 -14 3 14 -0.16 0.57
 -13 3 14 -0.41 -0.08
 -12 3 14 -0.27 -0.16
 -11 3 14 -1.59 -1.34
 4 3 14 -1.16 -0.51
 5 3 14 0.62 0.24
 6 3 14 -0.34 0.04
 7 3 14 -0.24 -0.31
 -14 4 14 -0.13 -0.35
 -13 4 14 -0.33 0.15
 -12 4 14 -1.00 0.54
 -11 4 14 -0.12 -0.14
 -10 4 14 0.02 1.04
 2 4 14 0.18 -1.99
 3 4 14 1.74 -1.37
 4 4 14 2.40 -0.27
 5 4 14 0.40 0.96
 6 4 14 -0.14 0.28
 -13 5 14 0.14 0.05
 -12 5 14 0.20 -0.93
 -11 5 14 0.49 -0.73
 -10 5 14 0.27 -1.09
 -9 5 14 0.11 -2.13
 -8 5 14 0.56 -0.94
 0 5 14 -0.31 -0.42
 1 5 14 -0.68 -0.03
 2 5 14 -0.48 0.66
 3 5 14 -1.05 -0.15
 4 5 14 -0.77 0.10
 5 5 14 -0.50 -0.19
 -12 6 14 0.07 0.61
 -11 6 14 -0.32 0.48
 -10 6 14 -0.41 0.46
 -9 6 14 0.42 1.11
 -8 6 14 -0.14 0.77
 -7 6 14 0.52 0.00
 -6 6 14 -0.01 1.00
 -5 6 14 1.54 -0.06
 -4 6 14 0.28 0.89
 -3 6 14 -0.09 0.92
 -2 6 14 -1.58 0.10
 -1 6 14 0.84 -0.57
 0 6 14 0.60 -0.09
 1 6 14 0.55 0.31
 2 6 14 0.78 -0.36
 3 6 14 0.46 0.77
 -10 7 14 0.42 0.24
 -9 7 14 -0.32 -0.06
 -8 7 14 -0.49 0.04
 -7 7 14 0.04 -0.35
 -6 7 14 0.25 -0.32
 -5 7 14 -0.53 0.00
 -4 7 14 -0.04 -0.40
 -3 7 14 0.80 -0.23
 -2 7 14 0.36 0.54
 -1 7 14 -0.09 0.10
 0 7 14 -0.84 0.21
 1 7 14 -0.02 -0.27
 2 7 14 -0.24 0.20
 -8 8 14 -0.10 -0.10
 -7 8 14 -0.40 -0.38
 -6 8 14 -0.32 0.08
 -5 8 14 0.33 -0.97
 -4 8 14 0.69 0.54
 -3 8 14 -0.42 -0.01
 -2 8 14 0.19 -0.19
 -1 8 14 0.01 0.22
 -7 -16 15 -0.09 -0.12
 -6 -16 15 0.03 0.06
 -5 -16 15 -0.31 -0.07
 -4 -16 15 0.25 0.31
 -3 -16 15 0.18 0.73
 -2 -16 15 0.24 0.39
 -1 -16 15 0.55 0.93
 0 -16 15 -0.24 0.92
 1 -16 15 -0.59 0.24
 2 -16 15 -0.12 -0.67
 3 -16 15 -0.15 0.14
 4 -16 15 -0.19 -0.31
 -9 -15 15 -0.48 0.27
 -8 -15 15 -0.25 -0.40
 -7 -15 15 0.47 0.31
 -6 -15 15 -0.73 0.69
 -5 -15 15 -0.26 -0.40
 -4 -15 15 0.76 -1.12
 -3 -15 15 -0.56 0.05
 -2 -15 15 -0.43 -0.97
 -1 -15 15 0.60 -0.76
 0 -15 15 -1.01 -0.21
 1 -15 15 0.01 -1.64
 2 -15 15 0.60 0.92
 3 -15 15 -0.48 0.00
 4 -15 15 -0.01 -0.56
 5 -15 15 0.34 0.32
 -10 -14 15 -0.05 -0.44
 -9 -14 15 0.01 -0.48
 -8 -14 15 0.85 -0.08
 -7 -14 15 -0.12 -0.67
 -6 -14 15 1.50 -1.33
 -5 -14 15 0.89 0.68
 -4 -14 15 -1.17 1.59
 1 -14 15 0.65 0.10
 2 -14 15 0.15 -0.42
 3 -14 15 0.62 -0.49
 4 -14 15 0.59 0.73
 5 -14 15 -0.02 -0.36
 6 -14 15 0.11 0.36
 7 -14 15 0.12 -0.04
 -11 -13 15 -1.18 -0.69
 -10 -13 15 0.25 -1.03
 -9 -13 15 1.62 0.40
 -8 -13 15 -0.15 0.55
 -7 -13 15 -0.38 1.69
 3 -13 15 -1.01 0.96
 4 -13 15 -0.88 -0.56
 5 -13 15 0.07 -0.18
 6 -13 15 0.18 0.08
 7 -13 15 -0.44 -0.02
 -12 -12 15 0.14 0.36
 -11 -12 15 1.05 0.06
 -10 -12 15 0.43 -0.06
 -9 -12 15 0.67 -0.33
 5 -12 15 -0.52 0.66
 6 -12 15 -0.52 -0.34
 7 -12 15 0.54 0.16
 8 -12 15 0.16 0.03
 -13 -11 15 -0.09 0.10
 -12 -11 15 0.03 -0.32
 -11 -11 15 -0.51 0.28
 -10 -11 15 -0.14 0.48
 5 -11 15 0.78 -0.07
 6 -11 15 0.63 -0.32
 7 -11 15 0.20 -0.56
 8 -11 15 0.40 0.25
 -13 -10 15 0.18 -0.12
 -12 -10 15 -0.93 0.70
 -11 -10 15 -0.34 -1.12
 6 -10 15 -1.81 0.42
 7 -10 15 -0.35 0.11
 8 -10 15 -0.56 0.17
 9 -10 15 -0.32 -0.20
 -14 -9 15 0.52 -0.66
 -13 -9 15 1.32 0.09
 -12 -9 15 1.20 -0.22
 -11 -9 15 1.40 0.33
 7 -9 15 0.43 0.68
 8 -9 15 0.16 0.01
 9 -9 15 0.30 0.14
 -14 -8 15 0.06 0.46
 -13 -8 15 -0.92 0.84
 -12 -8 15 -1.02 0.45
 7 -8 15 -0.79 0.45
 8 -8 15 -0.42 -0.52
 9 -8 15 0.05 -0.07
 -15 -7 15 -0.02 -0.05
 -14 -7 15 0.06 -0.03
 -13 -7 15 -0.26 -0.36
 -12 -7 15 -0.02 -0.34
 7 -7 15 0.10 0.48
 8 -7 15 -0.12 -0.21
 9 -7 15 0.16 -0.31
 -15 -6 15 0.22 0.32
 -14 -6 15 0.40 -0.04
 -13 -6 15 0.09 0.65
 7 -6 15 0.52 0.60
 8 -6 15 0.05 -0.30
 9 -6 15 0.19 0.32
 -15 -5 15 0.70 -0.15
 -14 -5 15 -0.11 0.61
 -13 -5 15 -0.62 0.24
 7 -5 15 0.96 -0.51
 8 -5 15 -0.09 1.13
 9 -5 15 -0.26 0.09
 -15 -4 15 -0.39 -0.17
 -14 -4 15 0.33 0.31
 -13 -4 15 0.28 -0.13
 7 -4 15 0.14 0.37
 8 -4 15 -0.03 -0.32
 9 -4 15 0.71 -0.22
 -15 -3 15 0.10 0.08
 -14 -3 15 0.12 -0.75
 -13 -3 15 -0.56 1.61
 7 -3 15 0.04 1.55
 8 -3 15 -0.96 -0.31
 9 -3 15 -0.38 0.19
 -15 -2 15 -0.05 0.23
 -14 -2 15 -0.75 0.55
 -13 -2 15 -0.16 -2.06
 6 -2 15 -0.16 0.24
 7 -2 15 -0.63 0.05
 8 -2 15 -0.69 0.57
 9 -2 15 0.00 -0.38
 -15 -1 15 -0.54 0.12
 -14 -1 15 0.49 -1.57
 -13 -1 15 2.27 0.69
 6 -1 15 0.00 -0.28
 7 -1 15 0.89 0.35
 8 -1 15 0.07 -0.12
 -15 0 15 -0.05 -0.25
 -14 0 15 0.61 0.17
 -13 0 15 -0.22 1.27
 -12 0 15 -2.31 -0.27
 5 0 15 0.62 -0.45
 6 0 15 0.14 0.64
 7 0 15 -1.24 -0.81
 8 0 15 0.34 -0.31
 -14 1 15 0.54 0.58
 -13 1 15 -1.37 0.77
 -12 1 15 -0.31 -1.30
 -11 1 15 1.14 -0.85
 4 1 15 0.52 0.82
 5 1 15 -1.02 0.02
 6 1 15 -0.36 -0.60
 7 1 15 0.66 0.16
 -14 2 15 0.28 0.23
 -13 2 15 0.58 -0.09
 -12 2 15 0.21 0.71
 -11 2 15 -1.44 0.62
 3 2 15 -0.89 1.50
 4 2 15 -1.04 -0.11
 5 2 15 0.83 0.23
 6 2 15 0.42 0.34
 -13 3 15 -0.49 0.46
 -12 3 15 -0.35 0.02
 -11 3 15 1.28 0.21
 -10 3 15 0.45 2.05
 -9 3 15 -1.67 0.83
 1 3 15 -0.58 0.82
 2 3 15 -3.05 -1.34
 3 3 15 0.28 -2.16
 4 3 15 0.45 -0.67
 5 3 15 -0.24 -0.65
 -12 4 15 -0.61 -0.59
 -11 4 15 -0.23 -0.86
 -10 4 15 0.03 -0.91
 -9 4 15 0.54 -0.63
 -8 4 15 -0.88 0.69
 -7 4 15 -1.48 0.57
 -1 4 15 -0.04 1.67
 0 4 15 -0.91 -0.61
 1 4 15 0.72 0.05
 2 4 15 0.09 0.94
 3 4 15 0.11 -0.34
 4 4 15 0.03 0.72
 -11 5 15 -0.25 -0.42
 -10 5 15 0.30 0.57
 -9 5 15 -0.48 0.40
 -8 5 15 0.75 0.10
 -7 5 15 0.39 -0.32
 -6 5 15 1.46 0.70
 -5 5 15 0.55 0.94
 -4 5 15 -0.82 0.58
 -3 5 15 -0.09 -1.05
 -2 5 15 0.14 1.25
 -1 5 15 0.12 0.40
 0 5 15 -0.14 0.68
 1 5 15 -0.58 0.14
 2 5 15 0.38 -0.61
 3 5 15 0.05 0.36
 -10 6 15 0.47 -0.45
 -9 6 15 0.44 -0.07
 -8 6 15 0.01 0.01
 -7 6 15 -0.27 0.21
 -6 6 15 -0.46 -0.68
 -5 6 15 -0.39 -0.30
 -4 6 15 -0.12 0.08
 -3 6 15 -0.16 -0.73
 -2 6 15 0.72 -0.39
 -1 6 15 -0.42 -0.32
 0 6 15 -0.44 -0.14
 1 6 15 0.08 -0.59
 -8 7 15 -0.39 0.11
 -7 7 15 -0.60 -0.37
 -6 7 15 0.34 -0.03
 -5 7 15 0.20 -0.01
 -4 7 15 0.32 0.04
 -3 7 15 -0.74 0.56
 -2 7 15 -0.12 -0.53
 -1 7 15 0.20 0.30
 -6 -16 16 0.18 0.30
 -5 -16 16 -0.22 0.37
 -4 -16 16 -0.11 -0.31
 -3 -16 16 -0.23 -0.67
 -2 -16 16 0.51 0.23
 -1 -16 16 -0.39 0.20
 0 -16 16 -0.26 -0.23
 1 -16 16 0.00 0.30
 2 -16 16 -0.68 0.51
 3 -16 16 -0.33 -0.48
 -8 -15 16 -0.01 -0.16
 -7 -15 16 -0.43 -0.21
 -6 -15 16 -0.12 -1.04
 -5 -15 16 0.47 -0.62
 -4 -15 16 -0.37 0.24
 -3 -15 16 1.07 0.11
 -2 -15 16 0.41 0.74
 -1 -15 16 -1.51 0.90
 0 -15 16 -0.21 -0.75
 1 -15 16 0.62 -0.14
 2 -15 16 0.07 -0.62
 3 -15 16 0.32 -0.30
 4 -15 16 0.18 0.12
 -10 -14 16 -0.99 0.40
 -9 -14 16 0.26 -0.92
 -8 -14 16 0.58 -0.23
 -7 -14 16 0.75 0.45
 -6 -14 16 0.72 1.37
 -5 -14 16 0.26 1.54
 -4 -14 16 -0.38 0.07
 -3 -14 16 -1.12 -1.34
 -2 -14 16 1.83 -0.43
 -1 -14 16 1.63 0.79
 0 -14 16 0.44 0.19
 1 -14 16 -0.79 0.69
 2 -14 16 0.29 0.06
 3 -14 16 0.10 0.97
 4 -14 16 -0.29 -0.20
 5 -14 16 0.20 0.36
 -11 -13 16 0.03 -0.38
 -10 -13 16 0.69 -0.86
 -9 -13 16 0.03 -0.26
 -8 -13 16 -0.11 0.25
 -7 -13 16 0.94 -0.80
 -6 -13 16 -0.16 0.98
 -5 -13 16 -2.25 -1.17
 1 -13 16 0.51 -0.14
 2 -13 16 -0.83 -0.18
 3 -13 16 0.22 -0.45
 4 -13 16 -0.24 -0.01
 5 -13 16 0.33 -0.16
 6 -13 16 -0.27 0.31
 -12 -12 16 -0.01 0.33
 -11 -12 16 -0.54 -0.32
 -10 -12 16 0.50 0.34
 -9 -12 16 0.01 0.02
 -8 -12 16 1.96 -0.79
 3 -12 16 -0.66 -0.90
 4 -12 16 0.44 -0.45
 5 -12 16 -0.21 -0.28
 6 -12 16 0.28 -1.01
 7 -12 16 0.45 -0.17
 -12 -11 16 0.24 0.25
 -11 -11 16 0.14 0.70
 -10 -11 16 0.13 -0.56
 -9 -11 16 0.64 0.90
 4 -11 16 -0.07 1.13
 5 -11 16 -0.62 0.61
 6 -11 16 -0.72 0.84
 7 -11 16 -0.42 0.46
 8 -11 16 -0.24 0.26
 -13 -10 16 -0.20 -0.17
 -12 -10 16 -0.45 -0.87
 -11 -10 16 -0.20 -1.24
 -10 -10 16 0.85 -0.60
 5 -10 16 0.19 0.00
 6 -10 16 1.06 -0.72
 7 -10 16 0.22 -0.38
 8 -10 16 0.36 -0.45
 -13 -9 16 0.43 0.19
 -12 -9 16 0.18 0.42
 -11 -9 16 0.48 0.31
 5 -9 16 0.32 -0.69
 6 -9 16 -1.08 0.33
 7 -9 16 0.24 -0.34
 8 -9 16 0.19 0.80
 -14 -8 16 -0.29 0.50
 -13 -8 16 -0.48 -0.33
 -12 -8 16 0.42 0.35
 -11 -8 16 0.58 0.25
 6 -8 16 -0.12 0.01
 7 -8 16 0.03 0.11
 8 -8 16 -0.03 -0.14
 -14 -7 16 0.31 -0.76
 -13 -7 16 0.45 0.85
 -12 -7 16 -1.91 -0.50
 6 -7 16 -0.49 -0.66
 7 -7 16 0.67 -0.70
 8 -7 16 0.06 -0.16
 -14 -6 16 0.68 0.29
 -13 -6 16 -0.32 0.12
 -12 -6 16 0.57 -0.47
 6 -6 16 0.56 1.17
 7 -6 16 -1.13 -0.20
 8 -6 16 0.25 -0.28
 -15 -5 16 -0.16 0.43
 -14 -5 16 -0.45 -0.08
 -13 -5 16 0.78 0.12
 -12 -5 16 0.28 0.88
 6 -5 16 -0.23 0.80
 7 -5 16 0.37 0.27
 8 -5 16 0.30 0.31
 -15 -4 16 0.32 0.91
 -14 -4 16 -1.08 0.05
 -13 -4 16 -0.41 -0.58
 -12 -4 16 -0.10 -0.17
 5 -4 16 -0.38 -1.26
 6 -4 16 1.52 0.09
 7 -4 16 -0.23 -0.45
 8 -4 16 0.39 0.08
 -15 -3 16 -0.27 -0.31
 -14 -3 16 -0.50 0.35
 -13 -3 16 -0.60 -1.82
 -12 -3 16 1.33 -0.27
 5 -3 16 0.91 -0.08
 6 -3 16 -0.64 0.68
 7 -3 16 -0.10 -0.09
 8 -3 16 0.43 0.76
 -15 -2 16 0.77 0.01
 -14 -2 16 0.37 0.68
 -13 -2 16 -0.23 0.12
 -12 -2 16 0.90 -0.24
 5 -2 16 -0.62 0.61
 6 -2 16 0.00 0.11
 7 -2 16 0.26 0.00
 -14 -1 16 0.10 0.01
 -13 -1 16 -0.37 0.09
 -12 -1 16 -0.17 -0.25
 -11 -1 16 -0.39 1.33
 4 -1 16 0.90 -0.24
 5 -1 16 -0.07 0.60
 6 -1 16 -0.40 -0.35
 7 -1 16 -0.49 -0.28
 -14 0 16 0.48 0.64
 -13 0 16 -0.72 0.29
 -12 0 16 0.61 -0.88
 -11 0 16 1.32 0.80
 3 0 16 0.49 -0.66
 4 0 16 0.16 -0.35
 5 0 16 0.02 0.31
 6 0 16 -0.73 0.38
 -14 1 16 -0.34 -0.53
 -13 1 16 0.76 -0.68
 -12 1 16 0.25 0.28
 -11 1 16 -0.18 -0.21
 -10 1 16 0.43 0.80
 2 1 16 0.20 1.22
 3 1 16 -0.42 0.13
 4 1 16 -0.11 0.19
 5 1 16 -0.05 -0.39
 6 1 16 0.89 -0.43
 -13 2 16 0.40 0.36
 -12 2 16 -0.02 1.20
 -11 2 16 -0.64 0.55
 -10 2 16 -0.03 -0.73
 -9 2 16 1.79 0.39
 -8 2 16 1.65 2.20
 0 2 16 -2.28 1.23
 1 2 16 -1.70 -0.92
 2 2 16 -0.87 -0.18
 3 2 16 -0.07 -0.18
 4 2 16 0.15 0.28
 5 2 16 -0.57 -0.03
 -12 3 16 -0.05 0.26
 -11 3 16 -0.98 -0.60
 -10 3 16 0.03 -0.87
 -9 3 16 -0.50 -0.04
 -8 3 16 -2.06 -0.98
 -7 3 16 -0.34 -0.82
 -6 3 16 -0.35 0.98
 -5 3 16 -1.44 0.34
 -4 3 16 -1.81 -0.98
 -3 3 16 0.15 -1.29
 -2 3 16 -0.25 -2.09
 -1 3 16 1.88 -0.43
 0 3 16 0.74 0.66
 1 3 16 -0.34 0.46
 2 3 16 0.57 0.45
 3 3 16 -0.90 0.37
 4 3 16 -0.37 -0.31
 -11 4 16 0.62 0.48
 -10 4 16 0.01 0.91
 -9 4 16 -0.04 0.45
 -8 4 16 0.68 0.64
 -7 4 16 -0.01 -0.67
 -6 4 16 1.25 -0.26
 -5 4 16 -0.14 -0.66
 -4 4 16 1.91 -0.48
 -3 4 16 0.19 0.79
 -2 4 16 -0.20 0.63
 -1 4 16 0.18 -0.11
 0 4 16 -0.26 -0.18
 1 4 16 0.44 -1.00
 2 4 16 0.74 -0.39
 -10 5 16 -0.18 -0.56
 -9 5 16 0.35 -0.39
 -8 5 16 -0.45 -0.06
 -7 5 16 -0.09 -0.03
 -6 5 16 -0.39 -0.08
 -5 5 16 -0.30 0.15
 -4 5 16 0.00 -0.29
 -3 5 16 0.59 0.82
 -2 5 16 -0.25 0.54
 -1 5 16 -0.69 0.04
 0 5 16 -0.03 0.42
 1 5 16 -0.42 0.61
 -7 6 16 -0.49 0.40
 -6 6 16 -0.13 0.04
 -5 6 16 0.03 0.14
 -4 6 16 -0.22 -0.20
 -3 6 16 -0.41 -0.03
 -2 6 16 -0.38 -0.46
 -5 -16 17 0.16 -0.11
 -4 -16 17 -0.17 0.05
 -3 -16 17 0.33 0.40
 -2 -16 17 -0.40 -0.62
 -1 -16 17 0.77 -0.22
 0 -16 17 -0.03 0.80
 1 -16 17 -0.19 -0.28
 -7 -15 17 0.04 -0.30
 -6 -15 17 0.68 -0.32
 -5 -15 17 0.58 0.46
 -4 -15 17 0.43 0.05
 -3 -15 17 -0.42 -0.43
 -2 -15 17 0.25 0.14
 -1 -15 17 0.77 -0.02
 0 -15 17 0.16 -0.30
 1 -15 17 -0.09 0.22
 2 -15 17 -0.16 0.24
 3 -15 17 0.09 -0.12
 -9 -14 17 -0.80 -0.38
 -8 -14 17 -0.32 -0.49
 -7 -14 17 0.65 -0.19
 -6 -14 17 0.11 0.93
 -5 -14 17 -1.37 0.44
 -4 -14 17 -1.04 -0.31
 -3 -14 17 1.21 -0.13
 -2 -14 17 -0.12 0.13
 -1 -14 17 -0.62 -0.47
 0 -14 17 0.45 1.06
 1 -14 17 0.19 0.59
 2 -14 17 -0.40 -0.18
 3 -14 17 0.13 -0.20
 4 -14 17 -0.07 0.38
 -10 -13 17 -0.07 -0.12
 -9 -13 17 0.36 -0.12
 -8 -13 17 0.99 -1.29
 -7 -13 17 0.67 0.60
 -6 -13 17 -0.27 0.14
 -5 -13 17 0.62 0.61
 -4 -13 17 -0.57 -0.78
 -3 -13 17 -0.43 -0.34
 -2 -13 17 0.40 1.57
 -1 -13 17 -0.45 0.88
 0 -13 17 -0.44 -0.42
 1 -13 17 -1.07 -0.63
 2 -13 17 0.36 0.59
 3 -13 17 -1.00 0.05
 4 -13 17 0.30 -0.59
 5 -13 17 -0.01 0.26
 -11 -12 17 0.10 -0.04
 -10 -12 17 0.08 -0.62
 -9 -12 17 1.34 0.03
 -8 -12 17 -0.57 1.91
 -7 -12 17 0.07 -0.47
 -6 -12 17 0.69 -0.08
 -5 -12 17 -0.21 0.15
 0 -12 17 0.21 0.31
 1 -12 17 0.07 0.60
 2 -12 17 -0.30 -0.80
 3 -12 17 0.20 -0.21
 4 -12 17 -0.07 -0.07
 5 -12 17 0.27 0.04
 6 -12 17 0.01 0.53
 -12 -11 17 0.07 0.24
 -11 -11 17 -0.72 0.06
 -10 -11 17 -0.48 -0.55
 -9 -11 17 0.70 -0.01
 -8 -11 17 -0.09 0.92
 -7 -11 17 -1.50 -0.23
 2 -11 17 -0.01 -0.92
 3 -11 17 1.15 0.31
 4 -11 17 0.11 0.28
 5 -11 17 -0.03 -0.57
 6 -11 17 0.27 -0.43
 -12 -10 17 -0.31 -0.29
 -11 -10 17 0.76 -0.77
 -10 -10 17 0.60 1.02
 -9 -10 17 -0.06 -0.71
 3 -10 17 0.31 0.52
 4 -10 17 -0.97 0.93
 5 -10 17 -1.07 0.15
 6 -10 17 -0.11 -0.37
 7 -10 17 -0.07 0.46
 -13 -9 17 -0.10 -0.14
 -12 -9 17 0.37 -0.21
 -11 -9 17 0.32 -0.13
 -10 -9 17 0.69 -0.10
 -9 -9 17 -1.69 0.82
 4 -9 17 0.42 0.33
 5 -9 17 0.12 0.05
 6 -9 17 0.26 0.20
 7 -9 17 -0.03 -0.04
 -13 -8 17 0.19 0.65
 -12 -8 17 -0.22 0.81
 -11 -8 17 -2.19 0.97
 -10 -8 17 -0.83 -1.22
 4 -8 17 0.44 0.31
 5 -8 17 -0.37 -0.51
 6 -8 17 0.13 -0.16
 7 -8 17 0.01 0.12
 -14 -7 17 -0.32 -0.40
 -13 -7 17 -0.09 -0.86
 -12 -7 17 -0.17 -0.46
 -11 -7 17 1.75 -0.77
 -10 -7 17 -0.08 0.57
 4 -7 17 -1.08 -1.61
 5 -7 17 -0.40 -0.71
 6 -7 17 0.64 -0.50
 7 -7 17 -0.20 0.01
 -14 -6 17 0.48 0.38
 -13 -6 17 -0.14 0.05
 -12 -6 17 1.54 -0.98
 -11 -6 17 -0.43 0.90
 4 -6 17 0.64 0.86
 5 -6 17 0.71 0.85
 6 -6 17 -0.63 -0.09
 7 -6 17 0.73 -0.22
 -14 -5 17 0.10 -0.05
 -13 -5 17 0.25 0.30
 -12 -5 17 -0.65 0.83
 -11 -5 17 0.59 0.89
 4 -5 17 0.71 -0.89
 5 -5 17 -1.11 -0.35
 6 -5 17 1.27 -0.71
 7 -5 17 0.07 0.76
 -14 -4 17 0.05 0.20
 -13 -4 17 0.03 0.51
 -12 -4 17 -1.42 1.81
 -11 -4 17 -2.98 -2.01
 4 -4 17 0.67 -0.09
 5 -4 17 0.17 0.57
 6 -4 17 -0.88 -0.76
 7 -4 17 0.52 0.05
 -14 -3 17 0.38 -0.48
 -13 -3 17 -0.30 -0.10
 -12 -3 17 0.68 -2.39
 -11 -3 17 2.03 -0.43
 3 -3 17 0.59 1.25
 4 -3 17 -0.01 0.06
 5 -3 17 0.29 0.31
 6 -3 17 0.71 0.69
 7 -3 17 -0.12 0.21
 -14 -2 17 -0.17 -0.04
 -13 -2 17 0.09 0.55
 -12 -2 17 -0.77 -0.07
 -11 -2 17 1.30 0.38
 -10 -2 17 0.21 1.64
 3 -2 17 0.34 0.60
 4 -2 17 -0.25 0.42
 5 -2 17 0.49 0.03
 6 -2 17 -0.45 0.08
 -13 -1 17 0.54 0.06
 -12 -1 17 -0.22 0.68
 -11 -1 17 -0.56 -0.23
 -10 -1 17 -1.06 -1.05
 2 -1 17 -0.46 1.47
 3 -1 17 -0.69 -0.69
 4 -1 17 -0.51 -0.44
 5 -1 17 -0.31 -0.48
 6 -1 17 0.29 0.09
 -13 0 17 0.28 -0.51
 -12 0 17 0.14 0.46
 -11 0 17 -1.13 -0.29
 -10 0 17 0.98 -0.27
 -9 0 17 -0.49 2.23
 0 0 17 -1.38 -1.08
 1 0 17 1.46 -1.50
 2 0 17 0.27 -0.08
 3 0 17 -0.36 -0.30
 4 0 17 0.65 0.10
 5 0 17 -0.13 0.46
 -12 1 17 0.48 -0.04
 -11 1 17 0.96 -0.27
 -10 1 17 0.40 0.26
 -9 1 17 0.45 -1.15
 -8 1 17 1.89 -0.47
 -7 1 17 1.88 -0.13
 -6 1 17 -0.55 -0.70
 -2 1 17 0.19 0.43
 -1 1 17 0.40 -0.01
 0 1 17 0.01 1.19
 1 1 17 -1.01 1.10
 2 1 17 -0.55 0.20
 3 1 17 0.50 0.17
 4 1 17 0.04 0.28
 -12 2 17 -0.16 -0.15
 -11 2 17 -0.08 0.05
 -10 2 17 0.57 0.53
 -9 2 17 -0.49 1.42
 -8 2 17 -1.38 0.37
 -7 2 17 -1.13 0.60
 -6 2 17 -0.17 0.86
 -5 2 17 -0.80 -0.64
 -4 2 17 -0.29 -0.93
 -3 2 17 1.45 0.13
 -2 2 17 -1.08 0.41
 -1 2 17 -0.76 -0.31
 0 2 17 0.29 -0.94
 1 2 17 0.80 -0.13
 2 2 17 0.32 0.32
 3 2 17 -0.28 -0.02
 -11 3 17 -0.33 0.02
 -10 3 17 -0.67 -0.38
 -9 3 17 0.35 -1.10
 -8 3 17 1.39 0.72
 -7 3 17 -0.05 0.39
 -6 3 17 0.09 0.16
 -5 3 17 -1.02 0.91
 -4 3 17 -0.73 -0.35
 -3 3 17 -0.74 -0.94
 -2 3 17 0.20 -0.11
 -1 3 17 0.20 -0.52
 0 3 17 -0.17 0.21
 1 3 17 -0.20 -0.14
 2 3 17 -0.33 -0.09
 -9 4 17 -0.18 -0.15
 -8 4 17 0.01 -0.30
 -7 4 17 -0.58 0.17
 -6 4 17 -0.45 -1.05
 -5 4 17 1.06 -0.29
 -4 4 17 0.04 0.32
 -3 4 17 0.36 0.32
 -2 4 17 0.44 0.02
 -1 4 17 0.14 0.07
 0 4 17 0.52 0.24
 -6 5 17 0.01 0.25
 -5 5 17 0.16 -0.09
 -4 5 17 0.01 0.36
 -3 5 17 -0.35 -0.33
 -6 -15 18 -0.02 0.32
 -5 -15 18 0.02 -0.01
 -4 -15 18 0.23 0.78
 -3 -15 18 -0.35 0.41
 -2 -15 18 0.36 -0.10
 -1 -15 18 -0.77 -0.28
 0 -15 18 0.54 0.17
 1 -15 18 0.26 0.28
 -8 -14 18 -0.17 -0.54
 -7 -14 18 0.25 -0.68
 -6 -14 18 -0.24 0.03
 -5 -14 18 0.03 -0.31
 -4 -14 18 0.05 -0.61
 -3 -14 18 -0.15 -0.06
 -2 -14 18 -0.13 0.13
 -1 -14 18 1.05 0.69
 0 -14 18 -0.10 -0.08
 1 -14 18 -0.36 0.27
 2 -14 18 -0.10 0.17
 3 -14 18 0.28 0.19
 -9 -13 18 -0.25 -1.01
 -8 -13 18 0.76 -0.31
 -7 -13 18 0.87 0.34
 -6 -13 18 0.61 0.75
 -5 -13 18 -0.84 -0.12
 -4 -13 18 0.22 0.34
 -3 -13 18 0.07 -0.23
 -2 -13 18 0.28 -1.42
 -1 -13 18 0.30 -0.46
 0 -13 18 -0.08 0.64
 1 -13 18 0.40 0.29
 2 -13 18 -0.46 -0.03
 3 -13 18 -0.33 -0.38
 4 -13 18 0.27 -0.29
 -10 -12 18 -0.25 -0.31
 -9 -12 18 0.26 -0.09
 -8 -12 18 1.10 0.27
 -7 -12 18 -0.36 1.27
 -6 -12 18 -1.43 0.30
 -5 -12 18 -0.25 -0.69
 -4 -12 18 0.62 -1.00
 -3 -12 18 -0.31 0.70
 -2 -12 18 -0.31 0.63
 -1 -12 18 0.38 0.46
 0 -12 18 0.20 -0.01
 1 -12 18 -0.54 0.23
 2 -12 18 -0.77 -0.21
 3 -12 18 0.29 -0.54
 4 -12 18 -0.03 0.14
 5 -12 18 -0.17 -0.23
 -11 -11 18 -0.45 -0.90
 -10 -11 18 1.11 -0.60
 -9 -11 18 0.11 0.83
 -8 -11 18 -0.84 -0.12
 -7 -11 18 -0.34 -0.12
 -6 -11 18 0.64 -0.88
 -5 -11 18 0.64 0.51
 -4 -11 18 -0.07 0.63
 -3 -11 18 0.77 0.21
 -2 -11 18 -0.12 -0.12
 -1 -11 18 -0.10 0.19
 0 -11 18 -1.37 0.29
 1 -11 18 0.21 -0.68
 2 -11 18 0.48 0.36
 3 -11 18 -0.32 -0.05
 4 -11 18 0.05 -0.20
 5 -11 18 0.31 0.30
 -12 -10 18 -0.29 0.32
 -11 -10 18 -0.37 -0.03
 -10 -10 18 0.42 -0.64
 -9 -10 18 0.30 0.52
 -8 -10 18 -0.37 0.11
 -7 -10 18 0.96 -0.71
 -6 -10 18 0.15 0.88
 0 -10 18 0.89 0.53
 1 -10 18 -0.05 -0.54
 2 -10 18 0.72 -0.16
 3 -10 18 0.29 1.00
 4 -10 18 -0.10 0.09
 5 -10 18 0.32 -0.08
 6 -10 18 -0.23 0.51
 -12 -9 18 -0.02 -0.64
 -11 -9 18 1.23 0.60
 -10 -9 18 -1.34 1.63
 -9 -9 18 -0.36 -0.66
 -8 -9 18 -0.36 -0.52
 1 -9 18 0.52 0.59
 2 -9 18 -0.18 1.27
 3 -9 18 -1.00 -0.53
 4 -9 18 0.22 -0.57
 5 -9 18 -0.10 0.64
 6 -9 18 -0.34 -0.45
 -12 -8 18 -0.91 0.17
 -11 -8 18 0.36 -1.38
 -10 -8 18 0.73 0.10
 -9 -8 18 -1.07 -0.31
 -8 -8 18 1.38 -0.07
 2 -8 18 0.16 -0.56
 3 -8 18 -0.49 0.27
 4 -8 18 -0.13 -0.61
 5 -8 18 0.20 0.19
 6 -8 18 -0.38 0.30
 -13 -7 18 -0.07 -0.07
 -12 -7 18 0.18 -0.46
 -11 -7 18 -0.85 -0.48
 -10 -7 18 0.59 -0.38
 -9 -7 18 0.53 -0.18
 2 -7 18 0.23 0.74
 3 -7 18 0.36 0.34
 4 -7 18 -0.30 0.55
 5 -7 18 -0.06 -0.37
 6 -7 18 0.13 -0.42
 -13 -6 18 0.02 -0.08
 -12 -6 18 -0.15 -0.11
 -11 -6 18 1.56 0.32
 -10 -6 18 -0.12 1.19
 -9 -6 18 -0.98 0.48
 2 -6 18 -1.18 -1.50
 3 -6 18 0.97 -0.54
 4 -6 18 -0.34 0.24
 5 -6 18 -0.54 -0.46
 6 -6 18 0.00 -0.23
 -13 -5 18 -0.68 -0.12
 -12 -5 18 1.42 -0.01
 -11 -5 18 -0.52 1.46
 -10 -5 18 -1.12 -0.52
 -9 -5 18 0.61 -1.88
 2 -5 18 -0.74 -0.82
 3 -5 18 0.77 0.15
 4 -5 18 -0.35 0.89
 5 -5 18 0.30 -0.11
 6 -5 18 -0.04 0.49
 -13 -4 18 -0.36 0.17
 -12 -4 18 -1.47 -0.59
 -11 -4 18 -1.01 -1.76
 -10 -4 18 1.09 -1.10
 -9 -4 18 0.50 1.48
 1 -4 18 -0.41 -2.97
 2 -4 18 1.80 -1.09
 3 -4 18 0.81 0.44
 4 -4 18 -0.84 -0.56
 5 -4 18 0.28 -0.76
 -13 -3 18 0.60 0.12
 -12 -3 18 0.25 0.34
 -11 -3 18 1.23 0.12
 -10 -3 18 1.05 1.48
 -9 -3 18 -1.54 0.36
 1 -3 18 1.43 1.26
 2 -3 18 -0.10 1.09
 3 -3 18 -1.02 0.07
 4 -3 18 0.81 -0.51
 5 -3 18 0.76 0.08
 -13 -2 18 -0.14 -0.14
 -12 -2 18 -0.15 -0.09
 -11 -2 18 -0.20 -0.21
 -10 -2 18 -0.36 -0.25
 -9 -2 18 -0.25 0.48
 -8 -2 18 -2.32 -0.10
 0 -2 18 1.81 0.20
 1 -2 18 0.14 0.48
 2 -2 18 -0.07 0.96
 3 -2 18 0.21 -0.52
 4 -2 18 0.22 0.55
 5 -2 18 -0.72 0.62
 -12 -1 18 0.46 -0.13
 -11 -1 18 -0.15 0.32
 -10 -1 18 0.27 -0.32
 -9 -1 18 0.88 0.80
 -8 -1 18 -0.55 0.64
 -7 -1 18 -0.54 -1.36
 -6 -1 18 1.92 0.55
 -3 -1 18 1.42 -0.10
 -2 -1 18 0.22 -0.35
 -1 -1 18 0.85 0.89
 0 -1 18 -1.48 -0.26
 1 -1 18 0.66 -1.14
 2 -1 18 0.39 -0.02
 3 -1 18 -0.88 0.67
 4 -1 18 -0.17 -0.19
 -12 0 18 -0.32 -0.27
 -11 0 18 0.42 -0.47
 -10 0 18 -0.09 0.56
 -9 0 18 -0.74 -1.25
 -8 0 18 1.63 -0.92
 -7 0 18 1.62 1.29
 -6 0 18 -2.35 -0.73
 -5 0 18 1.58 -1.10
 -4 0 18 2.03 1.12
 -3 0 18 -0.02 -0.17
 -2 0 18 2.17 0.70
 -1 0 18 -0.17 1.30
 0 0 18 0.38 -0.65
 1 0 18 0.32 1.01
 2 0 18 -0.20 0.57
 3 0 18 0.65 -0.36
 -11 1 18 0.02 0.69
 -10 1 18 -1.00 -0.01
 -9 1 18 -0.58 -1.26
 -8 1 18 0.70 -0.66
 -7 1 18 -0.56 0.56
 -6 1 18 0.76 0.97
 -5 1 18 -0.53 0.03
 -4 1 18 -1.27 0.86
 -3 1 18 -1.04 -0.52
 -2 1 18 -0.39 -1.18
 -1 1 18 0.59 -0.21
 0 1 18 0.35 1.37
 1 1 18 -0.93 -0.11
 2 1 18 0.16 -0.80
 -10 2 18 0.47 -0.29
 -9 2 18 1.04 0.75
 -8 2 18 0.20 1.10
 -7 2 18 0.12 -0.18
 -6 2 18 0.48 -0.74
 -5 2 18 0.45 1.15
 -4 2 18 0.59 0.12
 -3 2 18 -0.27 1.02
 -2 2 18 -0.91 0.73
 -1 2 18 -0.47 -0.86
 0 2 18 0.29 -0.37
 1 2 18 -0.09 0.47
 -8 3 18 -0.45 -0.24
 -7 3 18 0.01 0.18
 -6 3 18 -0.46 0.65
 -5 3 18 -0.57 -0.59
 -4 3 18 -0.05 -0.68
 -3 3 18 0.63 -0.17
 -2 3 18 0.75 -0.23
 -1 3 18 0.12 0.75
 -6 -14 19 0.80 -0.36
 -5 -14 19 0.02 0.69
 -4 -14 19 -0.61 -0.14
 -3 -14 19 -0.12 -0.36
 -2 -14 19 0.02 -0.75
 -1 -14 19 -0.22 -0.57
 0 -14 19 0.03 0.26
 -8 -13 19 0.29 0.14
 -7 -13 19 -0.18 0.33
 -6 -13 19 -0.68 -0.20
 -5 -13 19 0.57 -0.23
 -4 -13 19 0.07 0.15
 -3 -13 19 0.20 -0.19
 -2 -13 19 0.35 0.87
 -1 -13 19 0.30 0.44
 0 -13 19 0.24 -0.26
 1 -13 19 0.17 -0.03
 2 -13 19 0.17 0.39
 -9 -12 19 0.65 -0.41
 -8 -12 19 -0.05 0.16
 -7 -12 19 0.28 -0.04
 -6 -12 19 0.87 0.10
 -5 -12 19 -0.24 1.24
 -4 -12 19 -1.40 0.04
 -3 -12 19 0.23 -1.08
 -2 -12 19 0.67 -0.18
 -1 -12 19 -0.30 0.35
 0 -12 19 -0.22 0.63
 1 -12 19 -0.49 0.49
 2 -12 19 -0.40 -0.32
 3 -12 19 0.31 -0.12
 -10 -11 19 0.22 0.63
 -9 -11 19 -0.89 -0.09
 -8 -11 19 0.07 -0.46
 -7 -11 19 0.30 -0.44
 -6 -11 19 -0.24 -0.02
 -5 -11 19 0.33 -0.70
 -4 -11 19 0.85 0.02
 -3 -11 19 -0.34 0.39
 -2 -11 19 -0.13 -0.32
 -1 -11 19 0.40 -0.48
 0 -11 19 0.67 -0.08
 1 -11 19 -0.45 -0.02
 2 -11 19 -0.07 -0.52
 3 -11 19 -0.36 -0.29
 4 -11 19 0.43 -0.53
 -11 -10 19 0.47 -0.25
 -10 -10 19 0.18 0.36
 -9 -10 19 0.17 0.44
 -8 -10 19 0.03 -0.05
 -7 -10 19 -0.17 0.55
 -6 -10 19 -0.27 0.99
 -5 -10 19 -0.85 -0.34
 -4 -10 19 0.32 -0.19
 -3 -10 19 0.24 0.26
 -2 -10 19 0.24 0.63
 -1 -10 19 -0.39 0.47
 0 -10 19 -0.61 -0.13
 1 -10 19 0.61 -0.29
 2 -10 19 0.60 0.73
 3 -10 19 0.21 0.17
 4 -10 19 -0.22 0.51
 -11 -9 19 -0.65 0.62
 -10 -9 19 -0.71 -0.16
 -9 -9 19 -0.57 -0.69
 -8 -9 19 0.44 0.26
 -7 -9 19 -0.29 0.22
 -6 -9 19 0.26 -1.28
 -5 -9 19 -0.08 0.81
 -4 -9 19 0.02 -0.22
 -3 -9 19 -0.08 1.01
 -2 -9 19 -1.46 -0.36
 -1 -9 19 -0.25 -0.73
 0 -9 19 0.71 0.00
 1 -9 19 -0.19 0.33
 2 -9 19 -0.47 -0.19
 3 -9 19 -0.26 0.50
 4 -9 19 -0.30 0.12
 -11 -8 19 -0.88 -0.24
 -10 -8 19 -0.19 -1.36
 -9 -8 19 1.16 -0.40
 -8 -8 19 -0.39 -0.41
 -7 -8 19 0.33 -0.23
 -6 -8 19 -0.63 1.15
 -5 -8 19 -0.36 -0.76
 -4 -8 19 -0.81 -1.32
 -3 -8 19 0.93 -1.17
 -2 -8 19 0.71 0.73
 -1 -8 19 -0.54 -0.12
 0 -8 19 -0.37 -0.63
 1 -8 19 -0.47 -0.16
 2 -8 19 0.41 -0.56
 3 -8 19 1.12 -0.41
 4 -8 19 0.25 0.64
 -12 -7 19 -0.23 -0.53
 -11 -7 19 1.35 0.23
 -10 -7 19 0.32 0.43
 -9 -7 19 0.23 0.43
 -8 -7 19 1.04 0.98
 -7 -7 19 -0.10 0.27
 -6 -7 19 0.93 -0.75
 -2 -7 19 1.05 0.98
 -1 -7 19 -0.26 0.57
 0 -7 19 0.97 -0.08
 1 -7 19 1.22 0.80
 2 -7 19 -0.54 0.31
 3 -7 19 -0.73 -0.07
 4 -7 19 -0.19 -0.16
 -12 -6 19 0.71 0.24
 -11 -6 19 -0.66 0.51
 -10 -6 19 -1.05 -0.33
 -9 -6 19 0.30 -0.94
 -8 -6 19 -1.52 -0.33
 -7 -6 19 -0.09 -1.34
 -6 -6 19 0.42 0.18
 -2 -6 19 -0.39 -0.91
 -1 -6 19 0.40 -0.34
 0 -6 19 -0.81 0.34
 1 -6 19 -0.90 -0.40
 2 -6 19 -0.06 0.91
 3 -6 19 -0.45 0.18
 4 -6 19 -0.19 -0.29
 -12 -5 19 -0.07 0.89
 -11 -5 19 -1.34 0.33
 -10 -5 19 -0.07 -0.96
 -9 -5 19 -0.02 0.63
 -8 -5 19 0.76 -0.06
 -7 -5 19 0.58 0.13
 -6 -5 19 0.96 1.11
 -5 -5 19 -2.40 -0.15
 -3 -5 19 1.67 -0.89
 -2 -5 19 0.00 0.24
 -1 -5 19 -0.85 0.01
 0 -5 19 0.51 -0.03
 1 -5 19 0.70 -0.01
 2 -5 19 0.25 -0.10
 3 -5 19 -0.57 0.08
 4 -5 19 -0.09 -0.50
 -12 -4 19 -0.55 -0.40
 -11 -4 19 0.81 -1.09
 -10 -4 19 1.03 -0.21
 -9 -4 19 1.50 0.09
 -8 -4 19 -0.27 0.91
 -7 -4 19 -0.41 0.51
 -6 -4 19 -1.30 -0.52
 -5 -4 19 0.78 -0.05
 -4 -4 19 0.30 -0.11
 -3 -4 19 0.33 1.04
 -2 -4 19 -0.44 1.28
 -1 -4 19 -0.38 -0.39
 0 -4 19 -0.62 -1.38
 1 -4 19 -0.06 -0.90
 2 -4 19 0.63 0.48
 3 -4 19 -0.63 -0.13
 4 -4 19 0.29 -0.37
 -12 -3 19 0.01 0.16
 -11 -3 19 -0.39 0.34
 -10 -3 19 -0.85 -0.19
 -9 -3 19 0.21 -0.75
 -8 -3 19 0.66 0.86
 -7 -3 19 -0.63 0.85
 -6 -3 19 -0.54 -0.22
 -5 -3 19 -0.22 -0.58
 -4 -3 19 0.68 0.06
 -3 -3 19 -0.03 0.12
 -2 -3 19 -0.35 -0.46
 -1 -3 19 -0.51 -0.33
 0 -3 19 0.99 0.48
 1 -3 19 0.18 0.92
 2 -3 19 -0.79 -0.71
 3 -3 19 1.09 -0.53
 -11 -2 19 0.32 0.00
 -10 -2 19 0.13 0.51
 -9 -2 19 -0.53 0.69
 -8 -2 19 -0.96 -0.25
 -7 -2 19 0.17 -0.90
 -6 -2 19 0.08 0.81
 -5 -2 19 0.03 -0.68
 -4 -2 19 -0.11 0.44
 -3 -2 19 -0.98 0.88
 -2 -2 19 -0.81 -1.24
 -1 -2 19 1.22 0.08
 0 -2 19 -1.17 -0.28
 1 -2 19 0.29 -1.01
 2 -2 19 0.94 0.12
 3 -2 19 -0.40 0.92
 -11 -1 19 -0.19 -0.17
 -10 -1 19 0.63 -0.32
 -9 -1 19 0.09 -0.02
 -8 -1 19 -0.35 -0.73
 -7 -1 19 0.75 -0.94
 -6 -1 19 -0.16 -0.57
 -5 -1 19 -0.18 -0.11
 -4 -1 19 0.22 -0.01
 -3 -1 19 -0.99 -1.19
 -2 -1 19 0.53 -1.63
 -1 -1 19 1.51 -0.62
 0 -1 19 1.07 0.72
 1 -1 19 -0.29 0.37
 2 -1 19 -0.04 0.44
 -10 0 19 -0.17 0.21
 -9 0 19 -0.80 0.33
 -8 0 19 0.41 -0.16
 -7 0 19 -0.76 1.23
 -6 0 19 0.08 -0.05
 -5 0 19 0.43 -0.41
 -4 0 19 0.01 -0.29
 -3 0 19 1.58 0.52
 -2 0 19 -0.39 1.39
 -1 0 19 -0.97 -0.21
 0 0 19 0.09 -0.11
 1 0 19 0.47 0.21
 -9 1 19 0.85 -0.42
 -8 1 19 -0.07 0.38
 -7 1 19 0.40 -0.94
 -6 1 19 0.71 -0.20
 -5 1 19 -0.23 1.61
 -4 1 19 -0.71 -0.55
 -3 1 19 0.19 -0.54
 -2 1 19 0.51 0.25
 -1 1 19 0.32 0.32
 -6 2 19 0.32 0.04
 -5 2 19 0.45 -0.38
 -4 2 19 -0.14 0.47
 -3 2 19 0.03 -0.18
 0 0 0 0.00 0.00
# SQUEEZE RESULTS (Version = 120716)
# Note: Data are Listed for all Voids in the P1 Unit Cell
# i.e. Centre of Gravity, Solvent Accessible Volume,
# Recovered number of Electrons in the Void and
# Details about the Squeezed Material
;
_platon_squeeze_void_probe_radius 1.20
_olex2_submission_special_instructions 'No special instructions were received'
loop_
_space_group_symop_operation_xyz
'x, y, z'
loop_
_atom_site_label
_atom_site_type_symbol
_atom_site_fract_x
_atom_site_fract_y
_atom_site_fract_z
_atom_site_U_iso_or_equiv
_atom_site_adp_type
_atom_site_occupancy
_atom_site_site_symmetry_order
_atom_site_calc_flag
_atom_site_refinement_flags_posn
Zn4 Zn 0.72606(3) 0.13990(3) 0.57905(3) 0.01824(11) Uani 1 1 d .
Zn3 Zn 0.93798(3) 0.20543(3) 0.59651(3) 0.01986(11) Uani 1 1 d .
S005 S 0.67174(7) -0.24765(7) 0.37584(6) 0.0186(2) Uani 1 1 d .
S006 S 0.57063(7) 0.14393(7) 0.41372(7) 0.0217(2) Uani 1 1 d .
S007 S 1.06881(7) -0.11792(7) 0.41563(7) 0.0239(2) Uani 1 1 d .
S008 S 0.96522(8) 0.26966(7) 0.44404(7) 0.0262(2) Uani 1 1 d .
O3 O 0.87212(18) -0.10820(19) 0.47639(17) 0.0211(6) Uani 1 1 d .
O14 O 0.73739(19) 0.28464(19) 0.67292(18) 0.0258(6) Uani 1 1 d .
O4 O 0.98778(19) 0.08728(19) 0.50504(17) 0.0214(6) Uani 1 1 d .
O15 O 0.89452(19) 0.3298(2) 0.67968(18) 0.0248(6) Uani 1 1 d .
O10 O 0.69109(18) -0.21451(19) 0.47251(17) 0.0209(6) Uani 1 1 d .
O9 O 1.1425(2) -0.1732(2) 0.3775(2) 0.0322(7) Uani 1 1 d .
O7 O 1.0065(2) 0.3383(2) 0.4134(2) 0.0370(7) Uani 1 1 d .
O13 O 0.4768(2) 0.1668(2) 0.37159(19) 0.0298(7) Uani 1 1 d .
O8 O 1.08705(19) -0.0831(2) 0.51251(18) 0.0257(6) Uani 1 1 d .
O19 O 1.00878(19) 0.9231(2) 0.66206(19) 0.0298(7) Uani 1 1 d .
O11 O 0.61079(19) -0.34424(19) 0.32186(18) 0.0245(6) Uani 1 1 d .
O16 O 0.95770(19) 0.5170(2) 0.7346(2) 0.0274(6) Uani 1 1 d .
H16 H 0.959857 0.455089 0.712949 0.041 Uiso 1 1 calc GR
O6 O 0.9883(2) 0.3003(2) 0.54060(18) 0.0271(6) Uani 1 1 d .
O12 O 0.59216(19) 0.1716(2) 0.50983(17) 0.0249(6) Uani 1 1 d .
O17 O 0.80892(19) 0.7437(2) 0.70951(19) 0.0276(6) Uani 1 1 d .
H17 H 0.797106 0.778142 0.679701 0.041 Uiso 1 1 calc GR
O18 O 0.85130(19) 0.8600(2) 0.63547(19) 0.0259(6) Uani 1 1 d .
O2 O 0.68089(18) -0.01086(18) 0.48261(16) 0.0187(6) Uani 1 1 d .
O5 O 0.79902(19) 0.1764(2) 0.49664(17) 0.0226(6) Uani 1 1 d .
N034 N 0.7340(6) 0.0024(5) 0.1164(5) 0.110(2) Uani 1 1 d .
C59 C 0.8113(3) 0.3500(3) 0.6987(3) 0.0219(9) Uani 1 1 d .
C26 C 0.7008(3) 0.2716(3) 0.2854(3) 0.0307(10) Uani 1 1 d .
C6 C 0.9537(3) -0.1956(3) 0.3618(3) 0.0247(9) Uani 1 1 d .
C3 C 0.7803(3) -0.3249(3) 0.2581(3) 0.0219(9) Uani 1 1 d .
H3 H 0.721660 -0.369135 0.225107 0.026 Uiso 1 1 calc R
C77 C 0.9384(3) 0.7170(3) 0.8148(3) 0.0193(8) Uani 1 1 d .
C12 C 1.0558(3) -0.0133(3) 0.3842(3) 0.0272(9) Uani 1 1 d .
C24 C 0.6660(3) 0.2032(3) 0.3892(3) 0.0240(9) Uani 1 1 d .
C72 C 1.0727(3) 0.8480(3) 0.7952(3) 0.0302(10) Uani 1 1 d .
H72 H 1.117790 0.892229 0.789240 0.036 Uiso 1 1 calc R
C36 C 0.5149(3) -0.1322(3) 0.2105(3) 0.0217(9) Uani 1 1 d .
C22 C 0.8349(3) 0.2528(3) 0.4003(3) 0.0268(9) Uani 1 1 d .
C64 C 0.7848(3) 0.6624(3) 0.8503(3) 0.0237(9) Uani 1 1 d .
C31 C 0.5210(3) -0.0286(3) 0.2667(3) 0.0208(8) Uani 1 1 d .
H31 H 0.488592 0.015270 0.243365 0.025 Uiso 1 1 calc R
C1 C 0.8702(3) -0.1811(3) 0.3996(3) 0.0182(8) Uani 1 1 d .
C2 C 0.7855(3) -0.2526(3) 0.3445(3) 0.0201(8) Uani 1 1 d .
C21 C 0.8016(3) 0.2827(3) 0.3293(3) 0.0303(10) Uani 1 1 d .
H21 H 0.848228 0.311038 0.310605 0.036 Uiso 1 1 calc R
C23 C 0.7675(3) 0.2086(3) 0.4320(3) 0.0193(8) Uani 1 1 d .
C66 C 0.8657(3) 0.6380(3) 0.8136(3) 0.0185(8) Uani 1 1 d .
C5 C 0.9473(3) -0.2686(3) 0.2756(3) 0.0233(9) Uani 1 1 d .
H5 H 1.003661 -0.274928 0.253930 0.028 Uiso 1 1 calc R
C62 C 0.7134(3) 0.5860(3) 0.8386(3) 0.0245(9) Uani 1 1 d .
C33 C 0.6270(3) -0.0493(3) 0.3995(2) 0.0163(8) Uani 1 1 d .
C34 C 0.6133(3) -0.1548(3) 0.3426(3) 0.0187(8) Uani 1 1 d .
C25 C 0.6343(3) 0.2323(3) 0.3179(3) 0.0287(10) Uani 1 1 d .
H25 H 0.566339 0.225314 0.291300 0.034 Uiso 1 1 calc R
C75 C 1.0373(3) 0.7359(3) 0.8640(3) 0.0259(9) Uani 1 1 d .
C73 C 1.1056(3) 0.8041(4) 0.8545(3) 0.0374(11) Uani 1 1 d .
C39 C 0.3643(3) -0.2421(3) 0.0958(3) 0.0299(10) Uani 1 1 d .
H39A H 0.380675 -0.297886 0.112998 0.045 Uiso 1 1 calc GR
H39B H 0.328854 -0.268657 0.033327 0.045 Uiso 1 1 calc GR
H39C H 0.323127 -0.201624 0.131305 0.045 Uiso 1 1 calc GR
C40 C 0.5271(3) -0.2411(3) 0.0563(3) 0.0336(10) Uani 1 1 d .
H40A H 0.586929 -0.199335 0.065278 0.050 Uiso 1 1 calc GR
H40B H 0.491859 -0.269719 -0.006261 0.050 Uiso 1 1 calc GR
H40C H 0.544135 -0.295349 0.075438 0.050 Uiso 1 1 calc GR
C16 C 1.0688(4) 0.0444(4) 0.2673(4) 0.0462(13) Uani 1 1 d .
C65 C 0.7742(3) 0.7736(3) 0.9007(3) 0.0311(10) Uani 1 1 d .
H65A H 0.839206 0.812224 0.929697 0.047 Uiso 1 1 calc GR
H65B H 0.739132 0.779430 0.945102 0.047 Uiso 1 1 calc GR
H65C H 0.737628 0.799790 0.859200 0.047 Uiso 1 1 calc GR
C78 C 0.7916(3) -0.0494(4) 0.2493(3) 0.0424(12) Uani 1 1 d .
H78A H 0.798621 -0.121061 0.227917 0.064 Uiso 1 1 calc GR
H78B H 0.743141 -0.035248 0.283605 0.064 Uiso 1 1 calc GR
H78C H 0.854614 -0.010343 0.286633 0.064 Uiso 1 1 calc GR
C27 C 0.6631(4) 0.3029(4) 0.2060(3) 0.0421(12) Uani 1 1 d .
C38 C 0.4360(3) -0.0918(3) 0.0785(3) 0.0299(10) Uani 1 1 d .
H38A H 0.390160 -0.052139 0.108297 0.045 Uiso 1 1 calc GR
H38B H 0.406298 -0.121964 0.014781 0.045 Uiso 1 1 calc GR
H38C H 0.496086 -0.048125 0.091390 0.045 Uiso 1 1 calc GR
C7 C 0.8558(3) -0.4088(3) 0.1240(3) 0.0351(11) Uani 1 1 d .
C10 C 0.8838(4) -0.3479(4) 0.0724(3) 0.0578(16) Uani 1 1 d .
H10A H 0.878677 -0.393791 0.011404 0.087 Uiso 1 1 calc GR
H10B H 0.950980 -0.314670 0.100744 0.087 Uiso 1 1 calc GR
H10C H 0.839132 -0.297409 0.072982 0.087 Uiso 1 1 calc GR
C8 C 0.7506(4) -0.4664(4) 0.0734(3) 0.0436(11) Uani 1 1 d .
H8A H 0.702837 -0.418220 0.078357 0.065 Uiso 1 1 calc GR
H8B H 0.735422 -0.512643 0.099163 0.065 Uiso 1 1 calc GR
H8C H 0.747705 -0.504441 0.011198 0.065 Uiso 1 1 calc GR
C79 C 0.7593(4) -0.0220(4) 0.1743(4) 0.0515(13) Uani 1 1 d .
C63 C 0.6225(3) 0.6077(4) 0.8764(3) 0.0398(12) Uani 1 1 d .
H63A H 0.644145 0.646316 0.940261 0.060 Uiso 1 1 calc GR
H63B H 0.584779 0.544154 0.863576 0.060 Uiso 1 1 calc GR
H63C H 0.581537 0.646211 0.849001 0.060 Uiso 1 1 calc GR
C74 C 1.2130(3) 0.8253(5) 0.9072(4) 0.0588(17) Uani 1 1 d .
H74A H 1.251660 0.857137 0.881895 0.088 Uiso 1 1 calc GR
H74B H 1.237431 0.762114 0.904909 0.088 Uiso 1 1 calc GR
H74C H 1.218715 0.870133 0.968654 0.088 Uiso 1 1 calc GR
C9 C 0.9310(4) -0.4864(4) 0.1283(4) 0.0492(13) Uani 1 1 d .
H9A H 0.921595 -0.539791 0.069411 0.074 Uiso 1 1 calc GR
H9B H 0.920181 -0.515522 0.168899 0.074 Uiso 1 1 calc GR
H9C H 0.997774 -0.451964 0.149135 0.074 Uiso 1 1 calc GR
C11 C 1.0810(3) -0.0278(3) 0.3054(3) 0.0352(11) Uani 1 1 d .
H11 H 1.107037 -0.087474 0.276697 0.042 Uiso 1 1 calc R
C76 C 1.0744(3) 0.6839(3) 0.9268(3) 0.0341(11) Uani 1 1 d .
H76A H 1.018541 0.654707 0.937641 0.051 Uiso 1 1 calc GR
H76B H 1.115865 0.733153 0.982693 0.051 Uiso 1 1 calc GR
H76C H 1.112390 0.630687 0.899898 0.051 Uiso 1 1 calc GR
C32 C 0.5754(3) 0.0107(3) 0.3581(2) 0.0190(8) Uani 1 1 d .
C60 C 0.8050(3) 0.4577(3) 0.7555(3) 0.0209(8) Uani 1 1 d .
C70 C 0.9736(3) 0.8291(3) 0.7429(3) 0.0232(9) Uani 1 1 d .
C69 C 0.9053(3) 0.7649(3) 0.7554(3) 0.0199(8) Uani 1 1 d .
C67 C 0.8763(3) 0.5365(3) 0.7678(3) 0.0204(8) Uani 1 1 d .
C13 C 1.0156(3) 0.0766(3) 0.4324(3) 0.0207(8) Uani 1 1 d .
C71 C 0.9434(3) 0.8740(3) 0.6760(3) 0.0230(9) Uani 1 1 d .
C35 C 0.5594(3) -0.1938(3) 0.2520(3) 0.0185(8) Uani 1 1 d .
H35 H 0.553126 -0.263930 0.218165 0.022 Uiso 1 1 calc R
C61 C 0.7239(3) 0.4839(3) 0.7902(3) 0.0219(8) Uani 1 1 d .
H61 H 0.675312 0.432465 0.781189 0.026 Uiso 1 1 calc R
C14 C 1.0083(3) 0.1495(3) 0.3948(3) 0.0273(9) Uani 1 1 d .
C37 C 0.4606(3) -0.1753(3) 0.1116(3) 0.0244(9) Uani 1 1 d .
C15 C 1.0329(3) 0.1330(3) 0.3150(3) 0.0364(11) Uani 1 1 d .
H15 H 1.024958 0.183566 0.292712 0.044 Uiso 1 1 calc R
C4 C 0.8590(3) -0.3327(3) 0.2205(3) 0.0255(9) Uani 1 1 d .
C17 C 1.0915(5) 0.0235(4) 0.1764(4) 0.0665(19) Uani 1 1 d .
C18 C 1.2002(6) 0.0003(7) 0.1852(5) 0.107(3) Uani 1 1 d .
H18A H 1.242991 0.053711 0.237628 0.160 Uiso 1 1 calc GR
H18B H 1.219600 -0.003265 0.132781 0.160 Uiso 1 1 calc GR
H18C H 1.205798 -0.063917 0.190755 0.160 Uiso 1 1 calc GR
C20 C 1.0230(6) -0.0666(7) 0.1037(5) 0.099(3) Uani 1 1 d .
H20A H 1.039335 -0.127604 0.112441 0.148 Uiso 1 1 calc GR
H20B H 1.030408 -0.072880 0.046294 0.148 Uiso 1 1 calc GR
H20C H 0.955332 -0.057263 0.105811 0.148 Uiso 1 1 calc GR
C29 C 0.7418(6) 0.2954(7) 0.1561(5) 0.115(3) Uani 1 1 d .
H29A H 0.793679 0.351798 0.190634 0.172 Uiso 1 1 calc GR
H29B H 0.712397 0.297493 0.098883 0.172 Uiso 1 1 calc GR
H29C H 0.769541 0.232219 0.147049 0.172 Uiso 1 1 calc GR
C28 C 0.6475(8) 0.4119(6) 0.2402(5) 0.118(4) Uani 1 1 d .
H28A H 0.595344 0.421500 0.270405 0.177 Uiso 1 1 calc GR
H28B H 0.628840 0.432309 0.190874 0.177 Uiso 1 1 calc GR
H28C H 0.708062 0.452704 0.281645 0.177 Uiso 1 1 calc GR
C19 C 1.0806(10) 0.1105(7) 0.1513(7) 0.168(6) Uani 1 1 d .
H19A H 1.015275 0.130807 0.152163 0.251 Uiso 1 1 calc GR
H19B H 1.089089 0.091454 0.091897 0.251 Uiso 1 1 calc GR
H19C H 1.130072 0.166540 0.193197 0.251 Uiso 1 1 calc GR
Zn2 Zn 0.98572(3) -0.00214(3) 0.57994(3) 0.02008(11) Uani 1 1 d .
O1 O 0.86434(17) 0.08134(18) 0.61618(16) 0.0194(6) Uani 1 1 d .
O20 O 0.6535(2) 0.1077(2) 0.65780(18) 0.0260(6) Uani 1 1 d .
O22 O 0.5313(2) 0.2003(2) 0.74122(19) 0.0274(6) Uani 1 1 d .
H22 H 0.569238 0.191034 0.708780 0.041 Uiso 1 1 calc GR
O21 O 0.68877(18) -0.0462(2) 0.65071(17) 0.0217(6) Uani 1 1 d .
C42 C 0.5321(3) 0.1241(3) 0.7711(3) 0.0214(9) Uani 1 1 d .
C41 C 0.6476(3) 0.0335(3) 0.6812(3) 0.0209(9) Uani 1 1 d .
C49 C 0.4692(3) 0.1282(3) 0.8273(3) 0.0209(8) Uani 1 1 d .
C43 C 0.5883(3) 0.0422(3) 0.7448(3) 0.0228(9) Uani 1 1 d .
C44 C 0.5835(3) -0.0312(3) 0.7799(3) 0.0262(9) Uani 1 1 d .
H44 H 0.620151 -0.085988 0.762893 0.031 Uiso 1 1 calc R
C47 C 0.4019(3) 0.0577(4) 0.9217(3) 0.0344(10) Uani 1 1 d .
H47A H 0.396302 0.127915 0.956370 0.052 Uiso 1 1 calc GR
H47B H 0.429714 0.025690 0.961400 0.052 Uiso 1 1 calc GR
H47C H 0.337065 0.022537 0.885379 0.052 Uiso 1 1 calc GR
C48 C 0.4684(3) 0.0532(3) 0.8623(3) 0.0250(9) Uani 1 1 d .
C45 C 0.5277(3) -0.0266(3) 0.8380(3) 0.0295(10) Uani 1 1 d .
C46 C 0.5268(4) -0.1086(4) 0.8742(4) 0.0562(16) Uani 1 1 d .
H46A H 0.551315 -0.167823 0.837051 0.084 Uiso 1 1 calc GR
H46B H 0.459804 -0.126981 0.873783 0.084 Uiso 1 1 calc GR
H46C H 0.568616 -0.083128 0.934605 0.084 Uiso 1 1 calc GR
O23 O 0.27828(19) 0.06187(19) 0.73593(19) 0.0258(6) Uani 1 1 d .
H23 H 0.219371 0.046809 0.707605 0.039 Uiso 1 1 calc GR
C51 C 0.2983(3) 0.1651(3) 0.7827(2) 0.0195(8) Uani 1 1 d .
C50 C 0.3955(3) 0.2031(3) 0.8355(3) 0.0239(9) Uani 1 1 d .
C55 C 0.3480(3) 0.3760(3) 0.8800(3) 0.0345(11) Uani 1 1 d .
C56 C 0.4205(3) 0.3094(3) 0.8855(3) 0.0256(9) Uani 1 1 d .
C52 C 0.2263(3) 0.2302(3) 0.7745(3) 0.0246(9) Uani 1 1 d .
C57 C 0.5259(3) 0.3512(4) 0.9413(3) 0.0376(11) Uani 1 1 d .
H57A H 0.558416 0.298312 0.954666 0.056 Uiso 1 1 calc GR
H57B H 0.525220 0.407180 0.996340 0.056 Uiso 1 1 calc GR
H57C H 0.561334 0.374786 0.908448 0.056 Uiso 1 1 calc GR
C54 C 0.2543(3) 0.3354(3) 0.8242(3) 0.0302(10) Uani 1 1 d .
H54 H 0.207455 0.379743 0.819072 0.036 Uiso 1 1 calc R
C58 C 0.3736(4) 0.4885(4) 0.9346(4) 0.0570(15) Uani 1 1 d .
H58A H 0.382613 0.502494 0.997072 0.085 Uiso 1 1 calc GR
H58B H 0.320585 0.523578 0.915744 0.085 Uiso 1 1 calc GR
H58C H 0.434233 0.511901 0.926215 0.085 Uiso 1 1 calc GR
O26 O 0.8884(3) 0.1426(3) 0.7930(3) 0.0606(10) Uiso 1 1 d .
N2 N 0.8244(3) 0.1274(3) 0.9001(3) 0.0459(10) Uiso 1 1 d .
C80 C 0.8708(4) 0.0961(4) 0.8351(4) 0.0502(13) Uiso 1 1 d .
H80 H 0.891701 0.031508 0.820801 0.060 Uiso 1 1 calc R
C81 C 0.7866(5) 0.2224(5) 0.9234(5) 0.0726(18) Uiso 1 1 d .
H81A H 0.825573 0.269063 0.981713 0.109 Uiso 1 1 calc GR
H81B H 0.718463 0.213168 0.924576 0.109 Uiso 1 1 calc GR
H81C H 0.790112 0.249604 0.879764 0.109 Uiso 1 1 calc GR
C82 C 0.8141(6) 0.0654(6) 0.9490(6) 0.097(2) Uiso 1 1 d .
H82A H 0.840458 0.002074 0.923672 0.146 Uiso 1 1 calc GR
H82B H 0.744896 0.051565 0.944949 0.146 Uiso 1 1 calc GR
H82C H 0.850254 0.101404 1.010988 0.146 Uiso 1 1 calc GR
C30 C 0.5738(7) 0.2292(9) 0.1382(6) 0.170(6) Uani 1 1 d .
H30A H 0.586196 0.160225 0.128477 0.255 Uiso 1 1 calc GR
H30B H 0.562623 0.237138 0.082400 0.255 Uiso 1 1 calc GR
H30C H 0.515827 0.243383 0.160659 0.255 Uiso 1 1 calc GR
Zn1 Zn 0.77305(3) -0.07099(3) 0.56163(3) 0.01828(11) Uani 1 1 d .
O24 O 0.10457(19) 0.0932(2) 0.67565(18) 0.0262(6) Uani 1 1 d .
O25 O 0.06853(19) 0.2515(2) 0.69527(19) 0.0263(6) Uani 1 1 d .
C53 C 0.1241(3) 0.1912(3) 0.7102(3) 0.0273(10) Uani 1 1 d .
loop_
_atom_site_aniso_label
_atom_site_aniso_U_11
_atom_site_aniso_U_22
_atom_site_aniso_U_33
_atom_site_aniso_U_23
_atom_site_aniso_U_13
_atom_site_aniso_U_12
Zn4 0.0214(2) 0.0175(2) 0.0164(3) 0.0064(2) 0.00721(19) -0.00286(19)
Zn3 0.0214(2) 0.0170(2) 0.0215(3) 0.0065(2) 0.0089(2) -0.0006(2)
S005 0.0185(5) 0.0165(5) 0.0202(5) 0.0075(4) 0.0045(4) -0.0031(4)
S006 0.0246(5) 0.0208(5) 0.0199(5) 0.0080(4) 0.0066(4) 0.0035(4)
S007 0.0194(5) 0.0193(5) 0.0299(6) 0.0061(5) 0.0083(4) -0.0014(4)
S008 0.0345(6) 0.0203(5) 0.0296(6) 0.0110(5) 0.0176(5) -0.0005(5)
O3 0.0193(13) 0.0169(14) 0.0214(15) 0.0016(12) 0.0059(11) -0.0046(11)
O14 0.0292(15) 0.0191(14) 0.0294(17) 0.0068(13) 0.0137(13) -0.0040(13)
O4 0.0259(14) 0.0193(14) 0.0227(15) 0.0096(12) 0.0115(12) 0.0000(12)
O15 0.0217(14) 0.0202(14) 0.0289(16) 0.0042(13) 0.0104(12) -0.0027(12)
O10 0.0215(13) 0.0199(14) 0.0219(15) 0.0102(12) 0.0043(11) -0.0040(11)
O9 0.0265(15) 0.0299(16) 0.0363(18) 0.0072(14) 0.0120(13) 0.0014(13)
O7 0.0476(18) 0.0294(16) 0.046(2) 0.0181(15) 0.0293(16) 0.0016(14)
O13 0.0270(15) 0.0306(16) 0.0290(17) 0.0122(14) 0.0016(12) 0.0079(13)
O8 0.0214(14) 0.0250(15) 0.0269(16) 0.0067(13) 0.0063(12) 0.0014(12)
O19 0.0243(15) 0.0279(16) 0.0372(18) 0.0194(15) -0.0022(13) -0.0050(13)
O11 0.0244(14) 0.0168(14) 0.0253(16) 0.0036(12) 0.0031(12) -0.0041(12)
O16 0.0245(14) 0.0185(14) 0.0365(18) 0.0048(14) 0.0146(13) -0.0003(12)
O6 0.0324(15) 0.0221(15) 0.0300(17) 0.0104(13) 0.0151(13) -0.0053(12)
O12 0.0293(15) 0.0256(15) 0.0198(15) 0.0070(13) 0.0103(12) 0.0043(12)
O17 0.0226(14) 0.0343(17) 0.0276(17) 0.0197(14) -0.0022(12) -0.0036(13)
O18 0.0208(14) 0.0312(16) 0.0304(17) 0.0188(14) 0.0047(12) 0.0003(12)
O2 0.0220(13) 0.0150(13) 0.0124(14) 0.0007(11) 0.0010(11) -0.0031(11)
O5 0.0270(14) 0.0262(15) 0.0243(16) 0.0172(13) 0.0124(12) 0.0026(12)
N034 0.145(6) 0.097(5) 0.090(5) 0.052(4) 0.010(4) 0.041(5)
C59 0.032(2) 0.017(2) 0.019(2) 0.0075(18) 0.0100(18) -0.0024(19)
C26 0.046(3) 0.024(2) 0.025(2) 0.015(2) 0.007(2) -0.001(2)
C6 0.024(2) 0.020(2) 0.029(2) 0.0101(19) 0.0065(18) -0.0006(17)
C3 0.0196(19) 0.022(2) 0.018(2) 0.0051(18) 0.0007(16) -0.0032(17)
C77 0.024(2) 0.0159(19) 0.016(2) 0.0060(17) 0.0043(16) -0.0034(16)
C12 0.025(2) 0.021(2) 0.034(3) 0.009(2) 0.0109(19) -0.0042(18)
C24 0.040(2) 0.016(2) 0.018(2) 0.0081(18) 0.0082(18) 0.0031(18)
C72 0.028(2) 0.031(2) 0.029(3) 0.014(2) 0.0006(19) -0.0123(19)
C36 0.0154(18) 0.027(2) 0.022(2) 0.0102(19) 0.0041(16) 0.0004(17)
C22 0.040(2) 0.017(2) 0.023(2) 0.0063(18) 0.0120(19) 0.0042(19)
C64 0.030(2) 0.019(2) 0.020(2) 0.0056(18) 0.0069(17) 0.0016(18)
C31 0.0202(19) 0.028(2) 0.019(2) 0.0131(19) 0.0071(16) 0.0067(17)
C1 0.0234(19) 0.0131(19) 0.019(2) 0.0066(17) 0.0065(16) -0.0009(16)
C2 0.0204(19) 0.016(2) 0.027(2) 0.0120(18) 0.0073(17) 0.0016(16)
C21 0.049(3) 0.021(2) 0.026(2) 0.013(2) 0.014(2) 0.000(2)
C23 0.029(2) 0.0152(19) 0.015(2) 0.0038(17) 0.0122(17) 0.0002(17)
C66 0.0213(19) 0.0152(19) 0.017(2) 0.0064(17) 0.0027(16) -0.0026(16)
C5 0.027(2) 0.026(2) 0.021(2) 0.0094(19) 0.0122(17) 0.0008(18)
C62 0.030(2) 0.025(2) 0.019(2) 0.0065(19) 0.0127(18) 0.0037(18)
C33 0.0141(18) 0.022(2) 0.011(2) 0.0038(17) 0.0054(15) -0.0046(16)
C34 0.0192(19) 0.021(2) 0.020(2) 0.0112(18) 0.0078(16) -0.0007(17)
C25 0.045(3) 0.017(2) 0.022(2) 0.0039(19) 0.011(2) 0.0040(19)
C75 0.024(2) 0.025(2) 0.025(2) 0.0114(19) 0.0002(17) -0.0026(18)
C73 0.032(2) 0.043(3) 0.034(3) 0.022(2) -0.005(2) -0.014(2)
C39 0.031(2) 0.030(2) 0.025(2) 0.012(2) -0.0021(18) -0.0008(19)
C40 0.033(2) 0.039(3) 0.025(2) 0.009(2) 0.0082(19) 0.007(2)
C16 0.065(3) 0.040(3) 0.053(3) 0.022(3) 0.045(3) 0.012(3)
C65 0.034(2) 0.021(2) 0.036(3) 0.005(2) 0.014(2) 0.0069(19)
C78 0.039(3) 0.042(3) 0.044(3) 0.015(3) 0.013(2) -0.004(2)
C27 0.062(3) 0.040(3) 0.030(3) 0.022(2) 0.011(2) -0.001(3)
C38 0.031(2) 0.034(2) 0.024(2) 0.014(2) 0.0035(18) -0.0095(19)
C7 0.039(3) 0.033(3) 0.024(2) 0.001(2) 0.012(2) -0.011(2)
C10 0.066(4) 0.071(4) 0.024(3) 0.013(3) 0.005(2) -0.035(3)
C8 0.044(3) 0.046(3) 0.028(3) 0.002(2) 0.011(2) -0.012(2)
C79 0.059(3) 0.046(3) 0.056(4) 0.027(3) 0.016(3) 0.011(3)
C63 0.040(3) 0.036(3) 0.054(3) 0.019(2) 0.030(2) 0.013(2)
C74 0.034(3) 0.082(4) 0.067(4) 0.056(4) -0.018(3) -0.023(3)
C9 0.057(3) 0.044(3) 0.040(3) 0.000(3) 0.029(3) 0.008(3)
C11 0.037(2) 0.034(3) 0.042(3) 0.012(2) 0.029(2) 0.007(2)
C76 0.031(2) 0.037(3) 0.030(3) 0.017(2) -0.0041(19) -0.013(2)
C32 0.0156(18) 0.025(2) 0.018(2) 0.0088(18) 0.0063(16) -0.0015(16)
C60 0.026(2) 0.021(2) 0.017(2) 0.0097(18) 0.0062(17) 0.0018(17)
C70 0.028(2) 0.018(2) 0.018(2) 0.0048(17) 0.0016(17) -0.0038(17)
C69 0.021(2) 0.0158(19) 0.020(2) 0.0045(17) 0.0048(16) -0.0026(16)
C67 0.0164(18) 0.025(2) 0.022(2) 0.0139(18) 0.0014(16) 0.0020(17)
C13 0.0171(19) 0.023(2) 0.023(2) 0.0054(18) 0.0140(17) -0.0020(17)
C71 0.024(2) 0.021(2) 0.024(2) 0.0119(19) 0.0008(18) 0.0004(18)
C35 0.0151(18) 0.0172(19) 0.019(2) 0.0041(17) 0.0037(16) -0.0014(16)
C61 0.0212(19) 0.025(2) 0.017(2) 0.0054(18) 0.0069(16) -0.0041(17)
C14 0.031(2) 0.024(2) 0.033(3) 0.010(2) 0.0225(19) 0.0032(19)
C37 0.027(2) 0.023(2) 0.018(2) 0.0045(18) 0.0029(17) -0.0079(17)
C15 0.049(3) 0.036(3) 0.047(3) 0.028(2) 0.034(2) 0.014(2)
C4 0.028(2) 0.024(2) 0.020(2) 0.0052(19) 0.0061(18) -0.0050(18)
C17 0.115(5) 0.052(3) 0.069(4) 0.029(3) 0.081(4) 0.026(4)
C18 0.104(6) 0.164(8) 0.085(6) 0.055(6) 0.075(5) 0.039(6)
C20 0.114(6) 0.131(7) 0.052(5) 0.026(5) 0.042(4) 0.005(5)
C29 0.150(7) 0.188(9) 0.082(6) 0.109(7) 0.069(5) 0.104(7)
C28 0.236(11) 0.094(6) 0.070(5) 0.060(5) 0.071(6) 0.103(7)
C19 0.341(16) 0.146(8) 0.136(8) 0.105(8) 0.193(11) 0.124(10)
Zn2 0.0193(2) 0.0176(2) 0.0211(3) 0.0073(2) 0.0029(2) -0.0043(2)
O1 0.0192(13) 0.0151(13) 0.0192(14) 0.0024(12) 0.0049(12) -0.0070(11)
O20 0.0339(15) 0.0218(15) 0.0286(16) 0.0110(13) 0.0188(13) -0.0025(12)
O22 0.0391(17) 0.0219(15) 0.0300(17) 0.0125(13) 0.0217(13) 0.0036(13)
O21 0.0197(13) 0.0270(15) 0.0251(15) 0.0157(13) 0.0095(11) 0.0006(12)
C42 0.0207(19) 0.022(2) 0.020(2) 0.0094(18) 0.0031(16) -0.0070(17)
C41 0.0148(19) 0.027(2) 0.017(2) 0.0092(19) -0.0020(16) -0.0077(18)
C49 0.0136(18) 0.029(2) 0.019(2) 0.0099(18) 0.0016(16) -0.0043(17)
C43 0.021(2) 0.029(2) 0.016(2) 0.0103(18) 0.0007(16) -0.0085(17)
C44 0.026(2) 0.034(2) 0.029(2) 0.021(2) 0.0111(18) 0.0047(19)
C47 0.033(2) 0.044(3) 0.039(3) 0.026(2) 0.019(2) 0.003(2)
C48 0.0178(19) 0.036(2) 0.022(2) 0.014(2) 0.0048(17) -0.0039(18)
C45 0.021(2) 0.042(3) 0.037(3) 0.027(2) 0.0101(19) 0.006(2)
C46 0.060(3) 0.076(4) 0.082(4) 0.069(4) 0.044(3) 0.027(3)
O23 0.0221(14) 0.0162(14) 0.0290(17) 0.0047(13) -0.0032(12) -0.0056(12)
C51 0.0187(19) 0.015(2) 0.016(2) -0.0015(17) 0.0039(16) -0.0074(16)
C50 0.022(2) 0.026(2) 0.025(2) 0.0117(19) 0.0064(17) -0.0020(17)
C55 0.030(2) 0.017(2) 0.040(3) -0.003(2) 0.005(2) -0.0044(19)
C56 0.025(2) 0.027(2) 0.018(2) 0.0026(19) 0.0047(17) -0.0069(18)
C52 0.021(2) 0.022(2) 0.028(2) 0.0057(19) 0.0094(17) -0.0046(17)
C57 0.026(2) 0.041(3) 0.039(3) 0.014(2) 0.001(2) -0.008(2)
C54 0.029(2) 0.015(2) 0.037(3) 0.002(2) 0.008(2) 0.0043(18)
C58 0.042(3) 0.032(3) 0.069(4) 0.000(3) 0.000(3) -0.001(2)
C30 0.159(8) 0.241(12) 0.118(8) 0.155(9) -0.082(7) -0.104(9)
Zn1 0.0187(2) 0.0191(2) 0.0170(3) 0.0083(2) 0.00349(19) -0.00221(19)
O24 0.0227(14) 0.0181(15) 0.0273(16) 0.0039(13) -0.0023(12) -0.0081(12)
O25 0.0201(14) 0.0216(15) 0.0323(17) 0.0083(13) 0.0024(12) 0.0054(13)
C53 0.027(2) 0.024(2) 0.024(2) 0.002(2) 0.0095(18) -0.007(2)
loop_
_atom_type_symbol
_atom_type_description
_atom_type_scat_dispersion_real
_atom_type_scat_dispersion_imag
_atom_type_scat_source
C C 0.0030 0.0010 'International Tables Vol C Tables 4.2.6.8 and 6.1.1.4'
H H 0.0000 0.0000 'International Tables Vol C Tables 4.2.6.8 and 6.1.1.4'
N N 0.0311 0.0180 'International Tables Vol C Tables 4.2.6.8 and 6.1.1.4'
O O 0.0090 0.0050 'International Tables Vol C Tables 4.2.6.8 and 6.1.1.4'
S S 0.1080 0.1050 'International Tables Vol C Tables 4.2.6.8 and 6.1.1.4'
Zn Zn 0.3420 1.2610 'International Tables Vol C Tables 4.2.6.8 and 6.1.1.4'
loop_
_geom_angle_atom_site_label_1
_geom_angle_atom_site_label_2
_geom_angle_atom_site_label_3
_geom_angle
_geom_angle_site_symmetry_1
_geom_angle_site_symmetry_3
Zn3 Zn4 Zn1 91.327(15) . .
O14 Zn4 Zn3 82.16(7) . .
O14 Zn4 O12 86.17(10) . .
O14 Zn4 O2 167.21(10) . .
O14 Zn4 O5 96.89(10) . .
O14 Zn4 O1 106.56(10) . .
O14 Zn4 Zn1 141.21(8) . .
O12 Zn4 Zn3 130.59(7) . .
O12 Zn4 O1 165.45(10) . .
O12 Zn4 Zn1 124.69(7) . .
O2 Zn4 Zn3 110.58(7) . .
O2 Zn4 O12 84.50(10) . .
O2 Zn4 O1 83.89(9) . .
O2 Zn4 Zn1 43.12(7) . .
O5 Zn4 Zn3 45.93(7) . .
O5 Zn4 O12 88.72(10) . .
O5 Zn4 O2 91.64(10) . .
O5 Zn4 O1 82.89(9) . .
O5 Zn4 Zn1 105.75(7) . .
O1 Zn4 Zn3 47.30(6) . .
O1 Zn4 Zn1 47.70(6) . .
O20 Zn4 Zn3 134.98(8) . .
O20 Zn4 O14 82.21(11) . .
O20 Zn4 O12 89.95(11) . .
O20 Zn4 O2 89.04(10) . .
O20 Zn4 O5 178.44(10) . .
O20 Zn4 O1 98.58(10) . .
O20 Zn4 Zn1 75.69(8) . .
O4 Zn3 Zn4 107.69(7) . .
O4 Zn3 O6 86.93(10) . .
O4 Zn3 O5 88.74(10) . .
O4 Zn3 Zn2 45.22(7) . .
O4 Zn3 O1 83.51(9) . .
O15 Zn3 Zn4 76.04(7) . .
O15 Zn3 O4 173.90(10) . .
O15 Zn3 O6 86.97(11) . .
O15 Zn3 O5 90.82(10) . .
O15 Zn3 Zn2 140.58(8) . .
O15 Zn3 O1 102.43(10) . .
O15 Zn3 O25 83.49(11) . 1_655
O6 Zn3 Zn4 126.56(8) . .
O6 Zn3 O5 86.45(10) . .
O6 Zn3 Zn2 129.66(8) . .
O6 Zn3 O1 164.33(10) . .
O5 Zn3 Zn4 44.59(6) . .
O5 Zn3 Zn2 103.83(7) . .
O5 Zn3 O1 80.96(9) . .
Zn2 Zn3 Zn4 89.014(15) . .
O1 Zn3 Zn4 46.34(6) . .
O1 Zn3 Zn2 46.32(6) . .
O25 Zn3 Zn4 136.69(8) 1_655 .
O25 Zn3 O4 96.49(11) 1_655 .
O25 Zn3 O6 89.23(11) 1_655 .
O25 Zn3 O5 173.04(10) 1_655 .
O25 Zn3 Zn2 83.13(7) 1_655 .
O25 Zn3 O1 104.14(10) 1_655 .
O10 S005 C2 110.42(17) . .
O10 S005 C34 109.86(17) . .
O11 S005 O10 116.05(15) . .
O11 S005 C2 108.28(17) . .
O11 S005 C34 107.31(16) . .
C34 S005 C2 104.22(17) . .
O13 S006 O12 116.65(16) . .
O13 S006 C24 107.79(17) . .
O13 S006 C32 107.78(17) . .
O12 S006 C24 110.09(18) . .
O12 S006 C32 109.27(17) . .
C24 S006 C32 104.57(17) . .
O9 S007 O8 116.02(17) . .
O9 S007 C6 107.78(18) . .
O9 S007 C12 107.51(18) . .
O8 S007 C6 109.71(18) . .
O8 S007 C12 110.38(18) . .
C6 S007 C12 104.82(19) . .
O7 S008 O6 116.59(18) . .
O7 S008 C22 107.35(19) . .
O7 S008 C14 107.21(18) . .
O6 S008 C22 109.01(18) . .
O6 S008 C14 108.86(18) . .
C22 S008 C14 107.48(19) . .
C1 O3 Zn2 133.6(2) . .
C1 O3 Zn1 134.5(2) . .
Zn2 O3 Zn1 90.48(10) . .
C59 O14 Zn4 123.9(2) . .
Zn3 O4 Zn2 91.10(10) . .
C13 O4 Zn3 133.4(2) . .
C13 O4 Zn2 135.4(2) . .
C59 O15 Zn3 133.3(2) . .
S005 O10 Zn1 121.01(14) . .
S007 O8 Zn2 121.27(15) . .
C71 O19 Zn2 126.6(2) . 1_565
C67 O16 H16 109.5 . .
S008 O6 Zn3 121.34(16) . .
S006 O12 Zn4 120.34(15) . .
C69 O17 H17 109.5 . .
C71 O18 Zn1 130.9(2) . 1_565
C33 O2 Zn4 132.9(2) . .
C33 O2 Zn1 133.6(2) . .
Zn1 O2 Zn4 92.73(10) . .
Zn4 O5 Zn3 89.48(9) . .
C23 O5 Zn4 132.2(2) . .
C23 O5 Zn3 133.1(2) . .
O14 C59 O15 123.9(3) . .
O14 C59 C60 119.3(3) . .
O15 C59 C60 116.9(3) . .
C21 C26 C27 122.8(4) . .
C25 C26 C21 116.5(4) . .
C25 C26 C27 120.7(4) . .
C1 C6 S007 123.2(3) . .
C5 C6 S007 114.5(3) . .
C5 C6 C1 122.1(4) . .
C2 C3 H3 119.0 . .
C4 C3 H3 119.0 . .
C4 C3 C2 122.0(4) . .
C75 C77 C66 122.5(3) . .
C75 C77 C69 120.2(3) . .
C69 C77 C66 116.9(3) . .
C11 C12 S007 114.6(3) . .
C11 C12 C13 122.2(4) . .
C13 C12 S007 123.0(3) . .
C23 C24 S006 121.7(3) . .
C25 C24 S006 115.0(3) . .
C25 C24 C23 122.8(4) . .
C73 C72 H72 118.6 . .
C73 C72 C70 122.7(4) . .
C70 C72 H72 118.6 . .
C31 C36 C37 122.3(3) . .
C35 C36 C31 115.7(3) . .
C35 C36 C37 122.0(4) . .
C21 C22 S008 115.1(3) . .
C21 C22 C23 121.7(4) . .
C23 C22 S008 123.2(3) . .
C66 C64 C65 119.1(3) . .
C62 C64 C66 120.5(3) . .
C62 C64 C65 120.4(3) . .
C36 C31 H31 119.3 . .
C36 C31 C32 121.3(4) . .
C32 C31 H31 119.3 . .
O3 C1 C6 123.1(3) . .
O3 C1 C2 123.6(3) . .
C2 C1 C6 113.4(3) . .
C3 C2 S005 114.5(3) . .
C3 C2 C1 123.5(3) . .
C1 C2 S005 121.6(3) . .
C26 C21 C22 122.3(4) . .
C26 C21 H21 118.8 . .
C22 C21 H21 118.8 . .
O5 C23 C24 123.6(3) . .
O5 C23 C22 121.8(3) . .
C24 C23 C22 114.5(3) . .
C64 C66 C77 122.9(3) . .
C67 C66 C77 117.4(3) . .
C67 C66 C64 119.6(3) . .
C6 C5 H5 118.8 . .
C6 C5 C4 122.3(4) . .
C4 C5 H5 118.8 . .
C64 C62 C63 123.0(4) . .
C64 C62 C61 119.2(3) . .
C61 C62 C63 117.8(4) . .
O2 C33 C34 123.7(3) . .
O2 C33 C32 122.8(3) . .
C32 C33 C34 113.5(3) . .
C33 C34 S005 123.4(3) . .
C35 C34 S005 113.6(3) . .
C35 C34 C33 122.7(3) . .
C26 C25 C24 122.1(4) . .
C26 C25 H25 119.0 . .
C24 C25 H25 119.0 . .
C77 C75 C73 119.7(3) . .
C77 C75 C76 120.9(4) . .
C73 C75 C76 119.3(3) . .
C72 C73 C75 119.2(4) . .
C72 C73 C74 120.4(4) . .
C75 C73 C74 120.4(4) . .
H39A C39 H39B 109.5 . .
H39A C39 H39C 109.5 . .
H39B C39 H39C 109.5 . .
C37 C39 H39A 109.5 . .
C37 C39 H39B 109.5 . .
C37 C39 H39C 109.5 . .
H40A C40 H40B 109.5 . .
H40A C40 H40C 109.5 . .
H40B C40 H40C 109.5 . .
C37 C40 H40A 109.5 . .
C37 C40 H40B 109.5 . .
C37 C40 H40C 109.5 . .
C11 C16 C17 121.2(4) . .
C15 C16 C11 115.9(4) . .
C15 C16 C17 122.9(4) . .
C64 C65 H65A 109.5 . .
C64 C65 H65B 109.5 . .
C64 C65 H65C 109.5 . .
H65A C65 H65B 109.5 . .
H65A C65 H65C 109.5 . .
H65B C65 H65C 109.5 . .
H78A C78 H78B 109.5 . .
H78A C78 H78C 109.5 . .
H78B C78 H78C 109.5 . .
C79 C78 H78A 109.5 . .
C79 C78 H78B 109.5 . .
C79 C78 H78C 109.5 . .
C29 C27 C26 110.2(4) . .
C29 C27 C30 105.7(7) . .
C28 C27 C26 109.8(4) . .
C28 C27 C29 105.1(6) . .
C28 C27 C30 115.4(7) . .
C30 C27 C26 110.4(4) . .
H38A C38 H38B 109.5 . .
H38A C38 H38C 109.5 . .
H38B C38 H38C 109.5 . .
C37 C38 H38A 109.5 . .
C37 C38 H38B 109.5 . .
C37 C38 H38C 109.5 . .
C10 C7 C9 110.0(4) . .
C10 C7 C4 108.5(4) . .
C8 C7 C10 108.0(4) . .
C8 C7 C9 109.6(4) . .
C8 C7 C4 111.1(4) . .
C4 C7 C9 109.5(4) . .
C7 C10 H10A 109.5 . .
C7 C10 H10B 109.5 . .
C7 C10 H10C 109.5 . .
H10A C10 H10B 109.5 . .
H10A C10 H10C 109.5 . .
H10B C10 H10C 109.5 . .
C7 C8 H8A 109.5 . .
C7 C8 H8B 109.5 . .
C7 C8 H8C 109.5 . .
H8A C8 H8B 109.5 . .
H8A C8 H8C 109.5 . .
H8B C8 H8C 109.5 . .
N034 C79 C78 178.2(7) . .
C62 C63 H63A 109.5 . .
C62 C63 H63B 109.5 . .
C62 C63 H63C 109.5 . .
H63A C63 H63B 109.5 . .
H63A C63 H63C 109.5 . .
H63B C63 H63C 109.5 . .
C73 C74 H74A 109.5 . .
C73 C74 H74B 109.5 . .
C73 C74 H74C 109.5 . .
H74A C74 H74B 109.5 . .
H74A C74 H74C 109.5 . .
H74B C74 H74C 109.5 . .
C7 C9 H9A 109.5 . .
C7 C9 H9B 109.5 . .
C7 C9 H9C 109.5 . .
H9A C9 H9B 109.5 . .
H9A C9 H9C 109.5 . .
H9B C9 H9C 109.5 . .
C12 C11 C16 122.2(4) . .
C12 C11 H11 118.9 . .
C16 C11 H11 118.9 . .
C75 C76 H76A 109.5 . .
C75 C76 H76B 109.5 . .
C75 C76 H76C 109.5 . .
H76A C76 H76B 109.5 . .
H76A C76 H76C 109.5 . .
H76B C76 H76C 109.5 . .
C31 C32 S006 112.0(3) . .
C33 C32 S006 124.4(3) . .
C33 C32 C31 123.6(4) . .
C67 C60 C59 120.5(3) . .
C61 C60 C59 120.7(3) . .
C61 C60 C67 118.5(4) . .
C72 C70 C69 117.8(3) . .
C72 C70 C71 120.4(3) . .
C69 C70 C71 121.7(3) . .
O17 C69 C77 117.6(3) . .
O17 C69 C70 122.1(3) . .
C77 C69 C70 120.2(3) . .
O16 C67 C66 117.1(3) . .
O16 C67 C60 122.1(3) . .
C66 C67 C60 120.8(3) . .
O4 C13 C12 121.6(3) . .
O4 C13 C14 124.2(3) . .
C14 C13 C12 114.2(4) . .
O19 C71 O18 123.6(3) . .
O19 C71 C70 119.1(3) . .
O18 C71 C70 117.3(3) . .
C36 C35 C34 122.8(4) . .
C36 C35 H35 118.6 . .
C34 C35 H35 118.6 . .
C62 C61 H61 119.3 . .
C60 C61 C62 121.4(4) . .
C60 C61 H61 119.3 . .
C13 C14 S008 123.1(3) . .
C15 C14 S008 114.2(3) . .
C15 C14 C13 122.6(4) . .
C36 C37 C39 109.1(3) . .
C36 C37 C40 109.6(3) . .
C40 C37 C39 109.2(3) . .
C38 C37 C36 112.0(3) . .
C38 C37 C39 109.9(3) . .
C38 C37 C40 107.1(3) . .
C16 C15 C14 122.7(4) . .
C16 C15 H15 118.7 . .
C14 C15 H15 118.7 . .
C3 C4 C5 116.3(4) . .
C3 C4 C7 124.0(4) . .
C5 C4 C7 119.7(3) . .
C18 C17 C16 107.6(5) . .
C20 C17 C16 109.9(5) . .
C20 C17 C18 109.7(6) . .
C19 C17 C16 112.8(5) . .
C19 C17 C18 108.5(7) . .
C19 C17 C20 108.4(8) . .
C17 C18 H18A 109.5 . .
C17 C18 H18B 109.5 . .
C17 C18 H18C 109.5 . .
H18A C18 H18B 109.5 . .
H18A C18 H18C 109.5 . .
H18B C18 H18C 109.5 . .
C17 C20 H20A 109.5 . .
C17 C20 H20B 109.5 . .
C17 C20 H20C 109.5 . .
H20A C20 H20B 109.5 . .
H20A C20 H20C 109.5 . .
H20B C20 H20C 109.5 . .
C27 C29 H29A 109.5 . .
C27 C29 H29B 109.5 . .
C27 C29 H29C 109.5 . .
H29A C29 H29B 109.5 . .
H29A C29 H29C 109.5 . .
H29B C29 H29C 109.5 . .
C27 C28 H28A 109.5 . .
C27 C28 H28B 109.5 . .
C27 C28 H28C 109.5 . .
H28A C28 H28B 109.5 . .
H28A C28 H28C 109.5 . .
H28B C28 H28C 109.5 . .
C17 C19 H19A 109.5 . .
C17 C19 H19B 109.5 . .
C17 C19 H19C 109.5 . .
H19A C19 H19B 109.5 . .
H19A C19 H19C 109.5 . .
H19B C19 H19C 109.5 . .
Zn3 Zn2 Zn1 91.734(16) . .
O3 Zn2 Zn3 107.47(7) . .
O3 Zn2 O4 91.33(10) . .
O3 Zn2 O8 87.34(10) . .
O3 Zn2 O1 83.78(9) . .
O3 Zn2 Zn1 45.43(7) . .
O4 Zn2 Zn3 43.68(7) . .
O4 Zn2 O1 83.26(9) . .
O4 Zn2 Zn1 109.12(7) . .
O8 Zn2 Zn3 125.55(7) . .
O8 Zn2 O4 85.30(10) . .
O8 Zn2 O1 165.33(10) . .
O8 Zn2 Zn1 129.13(7) . .
O19 Zn2 Zn3 135.77(9) 1_545 .
O19 Zn2 O3 97.63(11) 1_545 .
O19 Zn2 O4 170.00(10) 1_545 .
O19 Zn2 O8 90.66(11) 1_545 .
O19 Zn2 O1 102.05(11) 1_545 .
O19 Zn2 Zn1 80.49(8) 1_545 .
O19 Zn2 O24 81.83(11) 1_545 1_655
O1 Zn2 Zn3 47.56(6) . .
O1 Zn2 Zn1 47.85(6) . .
O24 Zn2 Zn3 75.96(7) 1_655 .
O24 Zn2 O3 175.05(11) 1_655 .
O24 Zn2 O4 88.86(10) 1_655 .
O24 Zn2 O8 87.75(11) 1_655 .
O24 Zn2 O1 101.14(10) 1_655 .
O24 Zn2 Zn1 138.88(8) 1_655 .
Zn4 O1 Zn3 86.36(9) . .
Zn4 O1 Zn1 86.48(8) . .
Zn3 O1 Zn1 151.04(12) . .
Zn2 O1 Zn4 150.49(13) . .
Zn2 O1 Zn3 86.12(9) . .
Zn2 O1 Zn1 86.44(9) . .
C41 O20 Zn4 134.5(3) . .
C42 O22 H22 109.5 . .
C41 O21 Zn1 125.1(2) . .
O22 C42 C49 116.6(3) . .
O22 C42 C43 122.6(3) . .
C43 C42 C49 120.7(3) . .
O20 C41 C43 117.2(4) . .
O21 C41 O20 122.8(3) . .
O21 C41 C43 120.0(3) . .
C42 C49 C50 117.5(3) . .
C48 C49 C42 119.5(4) . .
C48 C49 C50 122.4(3) . .
C42 C43 C41 120.9(3) . .
C44 C43 C42 117.5(4) . .
C44 C43 C41 121.5(4) . .
C43 C44 H44 118.4 . .
C45 C44 C43 123.2(4) . .
C45 C44 H44 118.4 . .
H47A C47 H47B 109.5 . .
H47A C47 H47C 109.5 . .
H47B C47 H47C 109.5 . .
C48 C47 H47A 109.5 . .
C48 C47 H47B 109.5 . .
C48 C47 H47C 109.5 . .
C49 C48 C47 119.3(4) . .
C49 C48 C45 119.2(4) . .
C45 C48 C47 121.4(4) . .
C44 C45 C48 119.8(4) . .
C44 C45 C46 120.3(4) . .
C48 C45 C46 119.9(4) . .
C45 C46 H46A 109.5 . .
C45 C46 H46B 109.5 . .
C45 C46 H46C 109.5 . .
H46A C46 H46B 109.5 . .
H46A C46 H46C 109.5 . .
H46B C46 H46C 109.5 . .
C51 O23 H23 109.5 . .
O23 C51 C50 116.6(3) . .
O23 C51 C52 121.7(3) . .
C50 C51 C52 121.6(4) . .
C51 C50 C49 116.6(4) . .
C51 C50 C56 119.0(4) . .
C56 C50 C49 124.0(4) . .
C56 C55 C58 120.1(4) . .
C54 C55 C56 118.8(4) . .
C54 C55 C58 121.1(4) . .
C50 C56 C55 120.0(4) . .
C50 C56 C57 119.4(4) . .
C55 C56 C57 120.5(4) . .
C51 C52 C54 117.6(4) . .
C51 C52 C53 122.3(4) . .
C54 C52 C53 120.0(4) . .
C56 C57 H57A 109.5 . .
C56 C57 H57B 109.5 . .
C56 C57 H57C 109.5 . .
H57A C57 H57B 109.5 . .
H57A C57 H57C 109.5 . .
H57B C57 H57C 109.5 . .
C55 C54 C52 122.8(4) . .
C55 C54 H54 118.6 . .
C52 C54 H54 118.6 . .
C55 C58 H58A 109.5 . .
C55 C58 H58B 109.5 . .
C55 C58 H58C 109.5 . .
H58A C58 H58B 109.5 . .
H58A C58 H58C 109.5 . .
H58B C58 H58C 109.5 . .
C80 N2 C81 120.4(5) . .
C80 N2 C82 120.3(5) . .
C81 N2 C82 119.3(5) . .
O26 C80 N2 126.6(5) . .
O26 C80 H80 116.7 . .
N2 C80 H80 116.7 . .
N2 C81 H81A 109.5 . .
N2 C81 H81B 109.5 . .
N2 C81 H81C 109.5 . .
H81A C81 H81B 109.5 . .
H81A C81 H81C 109.5 . .
H81B C81 H81C 109.5 . .
N2 C82 H82A 109.5 . .
N2 C82 H82B 109.5 . .
N2 C82 H82C 109.5 . .
H82A C82 H82B 109.5 . .
H82A C82 H82C 109.5 . .
H82B C82 H82C 109.5 . .
C27 C30 H30A 109.5 . .
C27 C30 H30B 109.5 . .
C27 C30 H30C 109.5 . .
H30A C30 H30B 109.5 . .
H30A C30 H30C 109.5 . .
H30B C30 H30C 109.5 . .
O3 Zn1 Zn4 104.37(7) . .
O3 Zn1 Zn2 44.09(7) . .
O3 Zn1 O1 80.81(9) . .
O10 Zn1 Zn4 129.00(7) . .
O10 Zn1 O3 85.52(10) . .
O10 Zn1 Zn2 126.38(7) . .
O10 Zn1 O1 162.35(9) . .
O18 Zn1 Zn4 139.69(8) 1_545 .
O18 Zn1 O3 90.31(10) 1_545 .
O18 Zn1 O10 88.81(10) 1_545 .
O18 Zn1 O2 174.31(10) 1_545 .
O18 Zn1 Zn2 76.87(7) 1_545 .
O18 Zn1 O1 102.31(10) 1_545 .
O18 Zn1 O21 82.37(10) 1_545 .
O2 Zn1 Zn4 44.14(7) . .
O2 Zn1 O3 92.27(10) . .
O2 Zn1 O10 86.35(9) . .
O2 Zn1 Zn2 108.44(7) . .
O2 Zn1 O1 83.12(9) . .
Zn2 Zn1 Zn4 87.925(15) . .
O1 Zn1 Zn4 45.83(6) . .
O1 Zn1 Zn2 45.70(6) . .
O21 Zn1 Zn4 81.81(7) . .
O21 Zn1 O3 172.66(10) . .
O21 Zn1 O10 93.68(10) . .
O21 Zn1 O2 94.96(10) . .
O21 Zn1 Zn2 133.63(8) . .
O21 Zn1 O1 101.29(10) . .
C53 O24 Zn2 131.5(3) . 1_455
C53 O25 Zn3 122.7(3) . 1_455
O24 C53 C52 113.6(4) . .
O25 C53 C52 120.2(4) . .
O25 C53 O24 126.2(4) . .
loop_
_geom_bond_atom_site_label_1
_geom_bond_atom_site_label_2
_geom_bond_distance
_geom_bond_site_symmetry_2
Zn4 Zn3 2.9854(6) .
Zn4 O14 2.030(3) .
Zn4 O12 2.105(3) .
Zn4 O2 2.100(2) .
Zn4 O5 2.096(2) .
Zn4 O1 2.164(2) .
Zn4 O20 2.009(2) .
Zn4 Zn1 3.0117(6) .
Zn3 O4 2.053(3) .
Zn3 O15 1.995(3) .
Zn3 O6 2.109(3) .
Zn3 O5 2.145(3) .
Zn3 Zn2 2.9721(6) .
Zn3 O1 2.198(2) .
Zn3 O25 2.037(3) 1_655
S005 O10 1.451(3) .
S005 O11 1.436(3) .
S005 C2 1.774(4) .
S005 C34 1.768(4) .
S006 O13 1.438(3) .
S006 O12 1.451(3) .
S006 C24 1.767(4) .
S006 C32 1.776(4) .
S007 O9 1.425(3) .
S007 O8 1.454(3) .
S007 C6 1.755(4) .
S007 C12 1.764(4) .
S008 O7 1.434(3) .
S008 O6 1.451(3) .
S008 C22 1.759(4) .
S008 C14 1.778(4) .
O3 C1 1.296(5) .
O3 Zn2 2.090(3) .
O3 Zn1 2.140(3) .
O14 C59 1.247(4) .
O4 C13 1.314(5) .
O4 Zn2 2.110(2) .
O15 C59 1.280(5) .
O10 Zn1 2.112(3) .
O8 Zn2 2.097(3) .
O19 C71 1.255(5) .
O19 Zn2 2.017(3) 1_565
O16 H16 0.8200 .
O16 C67 1.362(4) .
O17 H17 0.8200 .
O17 C69 1.340(4) .
O18 C71 1.271(5) .
O18 Zn1 2.008(2) 1_565
O2 C33 1.302(4) .
O2 Zn1 2.061(2) .
O5 C23 1.320(5) .
N034 C79 1.134(7) .
C59 C60 1.480(5) .
C26 C21 1.394(6) .
C26 C25 1.384(6) .
C26 C27 1.542(6) .
C6 C1 1.430(5) .
C6 C5 1.395(6) .
C3 H3 0.9300 .
C3 C2 1.397(5) .
C3 C4 1.372(5) .
C77 C66 1.490(5) .
C77 C75 1.385(5) .
C77 C69 1.410(5) .
C12 C11 1.384(6) .
C12 C13 1.432(6) .
C24 C23 1.408(6) .
C24 C25 1.390(6) .
C72 H72 0.9300 .
C72 C73 1.364(6) .
C72 C70 1.403(5) .
C36 C31 1.400(6) .
C36 C35 1.389(5) .
C36 C37 1.512(5) .
C22 C21 1.396(6) .
C22 C23 1.424(6) .
C64 C66 1.394(5) .
C64 C62 1.383(5) .
C64 C65 1.512(5) .
C31 H31 0.9300 .
C31 C32 1.413(5) .
C1 C2 1.410(5) .
C21 H21 0.9300 .
C66 C67 1.383(5) .
C5 H5 0.9300 .
C5 C4 1.400(6) .
C62 C63 1.527(5) .
C62 C61 1.398(5) .
C33 C34 1.417(5) .
C33 C32 1.406(5) .
C34 C35 1.400(5) .
C25 H25 0.9300 .
C75 C73 1.425(6) .
C75 C76 1.511(6) .
C73 C74 1.502(6) .
C39 H39A 0.9600 .
C39 H39B 0.9600 .
C39 H39C 0.9600 .
C39 C37 1.536(5) .
C40 H40A 0.9600 .
C40 H40B 0.9600 .
C40 H40C 0.9600 .
C40 C37 1.536(6) .
C16 C11 1.400(6) .
C16 C15 1.385(6) .
C16 C17 1.543(7) .
C65 H65A 0.9600 .
C65 H65B 0.9600 .
C65 H65C 0.9600 .
C78 H78A 0.9600 .
C78 H78B 0.9600 .
C78 H78C 0.9600 .
C78 C79 1.432(7) .
C27 C29 1.508(8) .
C27 C28 1.477(8) .
C27 C30 1.515(9) .
C38 H38A 0.9600 .
C38 H38B 0.9600 .
C38 H38C 0.9600 .
C38 C37 1.511(5) .
C7 C10 1.542(7) .
C7 C8 1.537(6) .
C7 C9 1.548(7) .
C7 C4 1.547(6) .
C10 H10A 0.9600 .
C10 H10B 0.9600 .
C10 H10C 0.9600 .
C8 H8A 0.9600 .
C8 H8B 0.9600 .
C8 H8C 0.9600 .
C63 H63A 0.9600 .
C63 H63B 0.9600 .
C63 H63C 0.9600 .
C74 H74A 0.9600 .
C74 H74B 0.9600 .
C74 H74C 0.9600 .
C9 H9A 0.9600 .
C9 H9B 0.9600 .
C9 H9C 0.9600 .
C11 H11 0.9300 .
C76 H76A 0.9600 .
C76 H76B 0.9600 .
C76 H76C 0.9600 .
C60 C67 1.403(5) .
C60 C61 1.380(5) .
C70 C69 1.411(5) .
C70 C71 1.477(5) .
C13 C14 1.403(6) .
C35 H35 0.9300 .
C61 H61 0.9300 .
C14 C15 1.389(6) .
C15 H15 0.9300 .
C17 C18 1.539(9) .
C17 C20 1.494(10) .
C17 C19 1.457(9) .
C18 H18A 0.9600 .
C18 H18B 0.9600 .
C18 H18C 0.9600 .
C20 H20A 0.9600 .
C20 H20B 0.9600 .
C20 H20C 0.9600 .
C29 H29A 0.9600 .
C29 H29B 0.9600 .
C29 H29C 0.9600 .
C28 H28A 0.9600 .
C28 H28B 0.9600 .
C28 H28C 0.9600 .
C19 H19A 0.9600 .
C19 H19B 0.9600 .
C19 H19C 0.9600 .
Zn2 O19 2.017(3) 1_545
Zn2 O1 2.154(2) .
Zn2 Zn1 3.0042(6) .
Zn2 O24 2.030(3) 1_655
O1 Zn1 2.232(2) .
O20 C41 1.271(5) .
O22 H22 0.8200 .
O22 C42 1.360(4) .
O21 C41 1.265(5) .
O21 Zn1 2.037(2) .
C42 C49 1.415(5) .
C42 C43 1.404(6) .
C41 C43 1.463(5) .
C49 C48 1.406(6) .
C49 C50 1.486(5) .
C43 C44 1.393(5) .
C44 H44 0.9300 .
C44 C45 1.363(6) .
C47 H47A 0.9600 .
C47 H47B 0.9600 .
C47 H47C 0.9600 .
C47 C48 1.493(6) .
C48 C45 1.407(6) .
C45 C46 1.513(6) .
C46 H46A 0.9600 .
C46 H46B 0.9600 .
C46 H46C 0.9600 .
O23 H23 0.8200 .
O23 C51 1.360(4) .
C51 C50 1.392(5) .
C51 C52 1.398(6) .
C50 C56 1.408(6) .
C55 C56 1.411(6) .
C55 C54 1.371(6) .
C55 C58 1.494(6) .
C56 C57 1.504(6) .
C52 C54 1.399(6) .
C52 C53 1.506(6) .
C57 H57A 0.9600 .
C57 H57B 0.9600 .
C57 H57C 0.9600 .
C54 H54 0.9300 .
C58 H58A 0.9600 .
C58 H58B 0.9600 .
C58 H58C 0.9600 .
O26 C80 1.197(6) .
N2 C80 1.329(6) .
N2 C81 1.408(7) .
N2 C82 1.443(8) .
C80 H80 0.9300 .
C81 H81A 0.9600 .
C81 H81B 0.9600 .
C81 H81C 0.9600 .
C82 H82A 0.9600 .
C82 H82B 0.9600 .
C82 H82C 0.9600 .
C30 H30A 0.9600 .
C30 H30B 0.9600 .
C30 H30C 0.9600 .
Zn1 O18 2.008(2) 1_545
O24 Zn2 2.030(3) 1_455
O24 C53 1.284(5) .
O25 Zn3 2.037(3) 1_455
O25 C53 1.226(5) .
loop_
_platon_squeeze_void_nr
_platon_squeeze_void_average_x
_platon_squeeze_void_average_y
_platon_squeeze_void_average_z
_platon_squeeze_void_volume
_platon_squeeze_void_count_electrons
_platon_squeeze_void_content
1 0.253 0.496 0.393 1164 247 ' '
loop_
_refln_index_h
_refln_index_k
_refln_index_l
_refln_F_squared_meas
_refln_F_squared_sigma
-2 0 0 467.35 19.4
-2 0 0 450.35 19.4
2 0 0 479.75 19.4
2 0 0 475.75 19.4
-3 0 0 1927.01 75.79
-3 0 0 1866.51 75.69
3 0 0 1870.21 75.69
3 0 0 1827.32 75.69
-4 0 0 1657.33 71.09
-4 0 0 1613.04 70.99
4 0 0 1905.51 71.19
4 0 0 1817.72 71.19
-5 0 0 871.01 36.8
-5 0 0 865.51 36.8
5 0 0 877.41 36.7
5 0 0 893.11 36.9
-6 0 0 284.07 13.4
-6 0 0 276.07 13.4
6 0 0 262.07 13.1
6 0 0 258.97 13.4
-7 0 0 320.97 15.6
-7 0 0 319.87 15.7
7 0 0 301.97 15.3
7 0 0 313.37 15.7
-8 0 0 120.89 9
-8 0 0 127.69 9.2
8 0 0 115.59 8.7
8 0 0 127.89 9.3
-9 0 0 237.98 14
-9 0 0 239.48 14.2
9 0 0 252.97 14.4
9 0 0 259.47 14
-10 0 0 572.64 28
-10 0 0 593.54 28.1
10 0 0 599.44 28.1
10 0 0 605.94 27.8
-11 0 0 160.08 12.4
-11 0 0 155.38 12.3
11 0 0 147.09 12.6
11 0 0 155.28 12.1
-12 0 0 20.8 6.9
-12 0 0 21.4 6.7
12 0 0 26.5 6.8
12 0 0 15.2 7
-13 0 0 54.29 9.3
-13 0 0 52.09 9
13 0 0 63.89 10.2
13 0 0 65.69 9.5
-14 0 0 231.38 18.9
-14 0 0 239.48 18.4
14 0 0 281.77 18.7
14 0 0 283.07 20.2
-15 0 0 202.98 18.6
-15 0 0 180.18 18.9
15 0 0 239.88 21.8
15 0 0 229.48 20.4
15 -1 0 159.38 19.4
15 -1 0 163.78 17.6
-15 1 0 169.88 16.2
-15 1 0 173.48 17.3
14 -1 0 372.66 22.1
14 -1 0 355.56 20.6
-14 1 0 338.57 21.4
-14 1 0 333.17 20.8
13 -1 0 382.96 20.4
13 -1 0 361.16 21
-13 1 0 362.26 21
-13 1 0 347.17 20.4
12 -1 0 82.19 10.9
12 -1 0 92.49 10.2
-12 1 0 79.89 10.6
-12 1 0 81.99 10.2
11 -1 0 422.86 21.7
11 -1 0 448.46 21.4
-11 1 0 409.36 21.5
-11 1 0 420.26 21.5
10 -1 0 904.41 40.8
10 -1 0 892.71 40.4
-10 1 0 941.11 40.8
-10 1 0 995.4 41
9 -1 0 328.67 17.1
9 -1 0 333.07 17.5
-9 1 0 368.26 17.6
-9 1 0 368.16 17.6
8 -1 0 75.79 7
8 -1 0 76.79 6.6
-8 1 0 63.49 6.7
-8 1 0 66.59 6.7
7 -1 0 541.85 24.1
7 -1 0 547.45 24.4
-7 1 0 557.84 24.4
-7 1 0 559.44 24.3
6 -1 0 147.49 7.9
6 -1 0 130.39 8
-6 1 0 147.79 8.1
-6 1 0 145.79 8
5 -1 0 201.08 9.9
5 -1 0 192.58 9.8
-5 1 0 211.88 10
-5 1 0 221.48 10
4 -1 0 266.87 11.6
4 -1 0 256.67 11.5
-4 1 0 261.47 11.5
-4 1 0 248.98 11.4
3 -1 0 386.56 15.8
3 -1 0 367.76 15.8
-3 1 0 380.36 15.8
-3 1 0 368.56 15.7
2 -1 0 1975.3 79.09
1 -1 0 480.05 19.4
-1 -1 0 1548.25 60.09
-1 -1 0 1590.14 60.09
1 1 0 1359.56 59.99
1 1 0 1452.55 59.99
-2 -1 0 2299.77 91.69
-2 -1 0 2326.77 91.69
2 1 0 2265.77 91.69
2 1 0 2200.88 91.69
-3 -1 0 3252.07 132.89
-3 -1 0 3230.38 132.89
3 1 0 3391.86 132.99
3 1 0 3322.47 132.99
-4 -1 0 4356.96 181.78
-4 -1 0 4309.47 181.68
4 1 0 4686.83 181.88
4 1 0 4710.93 181.78
-5 -1 0 209.38 10.8
-5 -1 0 193.68 10.6
-6 -1 0 260.17 13.6
-6 -1 0 254.57 14.2
6 1 0 287.67 14.4
6 1 0 251.77 13.4
-7 -1 0 272.87 14.7
-7 -1 0 273.77 14.6
7 1 0 283.77 15
7 1 0 270.07 14.2
-8 -1 0 247.68 13.9
-8 -1 0 240.58 13.8
8 1 0 244.58 14.1
8 1 0 232.58 13.5
-9 -1 0 790.72 36.5
-9 -1 0 794.32 36.6
9 1 0 835.12 36.5
9 1 0 842.12 36.8
-10 -1 0 520.15 26.1
-10 -1 0 542.15 26.2
10 1 0 533.25 26.4
10 1 0 536.65 26
-11 -1 0 438.66 22.7
-11 -1 0 409.06 22.5
11 1 0 436.56 22.5
11 1 0 407.76 22.8
-12 -1 0 361.66 21.3
-12 -1 0 363.86 21.5
12 1 0 373.66 21.9
12 1 0 375.66 21.2
-13 -1 0 276.27 19.5
-13 -1 0 291.17 19.6
13 1 0 302.67 19.3
13 1 0 303.07 20.8
-14 -1 0 26 9.5
-14 -1 0 25.1 9.1
14 1 0 40.9 10
14 1 0 30.4 10.8
-15 -1 0 73.39 12.2
-15 -1 0 72.19 12.9
15 1 0 44.7 13.3
15 1 0 58.79 12.7
15 -2 0 357.76 22.6
15 -2 0 364.96 22.6
-15 2 0 362.36 21.5
-15 2 0 371.06 22
14 -2 0 391.76 22.1
14 -2 0 392.56 21.2
-14 2 0 377.46 21.3
-14 2 0 350.86 21.1
13 -2 0 284.97 16.7
13 -2 0 291.27 17.4
-13 2 0 261.77 16.9
-13 2 0 267.27 16.6
12 -2 0 32.4 6.8
12 -2 0 31.2 6.4
-12 2 0 43.6 6.8
-12 2 0 34.9 6.9
11 -2 0 969.8 40
11 -2 0 1005.7 39.7
-11 2 0 829.92 39.5
-11 2 0 819.82 39.5
10 -2 0 853.81 37.6
10 -2 0 838.62 37.1
-10 2 0 882.71 37.7
-10 2 0 868.71 37.5
9 -2 0 507.35 23.4
9 -2 0 503.65 23.7
-9 2 0 530.85 23.8
-9 2 0 545.95 23.8
8 -2 0 122.49 8
8 -2 0 130.69 8.4
-8 2 0 142.49 8.4
-8 2 0 139.09 8.5
7 -2 0 924.51 37.3
7 -2 0 872.51 37
-7 2 0 861.81 37.1
-7 2 0 878.41 37.2
6 -2 0 218.78 10.1
6 -2 0 231.78 9.9
-6 2 0 164.68 9.6
-6 2 0 174.88 9.7
5 -2 0 597.34 24.6
5 -2 0 597.94 24.5
-5 2 0 572.44 24.5
-5 2 0 578.54 24.5
4 -2 0 382.36 16.2
4 -2 0 370.76 16.2
-4 2 0 407.16 16.3
-4 2 0 384.26 16.2
3 -2 0 760.32 31.4
3 -2 0 751.32 31.4
-3 2 0 792.22 31.4
-3 2 0 795.12 31.5
2 -2 0 699.63 28.1
-2 2 0 689.13 28
-2 2 0 689.33 28.1
1 -2 0 1456.55 61.09
1 -2 0 1465.75 60.99
-1 2 0 1606.84 61.19
-1 2 0 1538.05 61.09
0 -2 0 1251.67 53.59
0 -2 0 1299.67 53.69
0 2 0 1376.96 53.69
0 2 0 1372.36 53.79
-1 -2 0 697.43 30.8
-1 -2 0 820.72 31
1 2 0 736.33 30.9
1 2 0 722.73 30.9
-2 -2 0 174.28 8.6
-2 -2 0 172.88 8.6
2 2 0 165.68 8.6
2 2 0 158.88 8.6
-3 -2 0 1731.93 68.29
-3 -2 0 1753.32 68.39
3 2 0 1577.74 68.19
3 2 0 1595.34 68.19
4 2 0 163.08 9.4
4 2 0 163.58 9.2
-5 -2 0 515.35 24.4
-5 -2 0 518.25 24.4
5 2 0 571.14 24.6
5 2 0 573.04 24.7
-6 -2 0 21.5 4.6
-6 -2 0 18.2 4.3
6 2 0 36.1 5.4
6 2 0 26.4 4.5
-7 -2 0 1192.58 51.59
-7 -2 0 1182.48 51.59
7 2 0 1231.28 51.59
7 2 0 1223.78 51.79
-8 -2 0 1312.37 57.39
-8 -2 0 1362.76 57.59
8 2 0 1348.67 57.29
8 2 0 1344.17 57.59
-9 -2 0 1259.07 51.59
-9 -2 0 1214.48 51.29
9 2 0 1103.89 50.79
9 2 0 1116.59 51.29
-10 -2 0 208.48 15.4
-10 -2 0 216.18 15.7
10 2 0 265.97 16.6
10 2 0 278.37 16
-11 -2 0 74.79 9.8
-11 -2 0 77.29 9.9
11 2 0 79.19 11.3
11 2 0 94.19 11.5
-12 -2 0 255.57 18.4
-12 -2 0 244.58 18.4
12 2 0 283.07 18.5
12 2 0 270.37 19.4
-13 -2 0 351.56 22.3
-13 -2 0 356.06 22.8
13 2 0 357.66 22.5
13 2 0 319.27 23.1
-14 -2 0 106.59 13.6
-14 -2 0 77.49 12.3
14 2 0 106.09 14.3
14 2 0 114.09 15.1
15 -3 0 105.79 13.7
15 -3 0 107.29 12
-15 3 0 97.29 12.5
-15 3 0 99.29 12.4
14 -3 0 66.59 9.1
14 -3 0 72.39 10.2
-14 3 0 72.29 10.5
-14 3 0 77.09 10.8
13 -3 0 19.3 6.4
13 -3 0 18.2 5.9
-13 3 0 14.3 5.7
-13 3 0 12.3 5.6
12 -3 0 4.3 4.6
12 -3 0 6.7 5.3
-12 3 0 7.3 4.9
-12 3 0 8.8 4.9
11 -3 0 1358.86 54.19
11 -3 0 1357.76 54.69
-11 3 0 1197.68 54.29
-11 3 0 1251.47 54.29
10 -3 0 929.81 39
10 -3 0 945.61 39.5
-10 3 0 905.41 39.2
-10 3 0 894.71 39.4
9 -3 0 2064.19 86.59
9 -3 0 2103.59 86.89
-9 3 0 2158.28 86.79
-9 3 0 2177.38 86.89
8 -3 0 389.26 17.7
8 -3 0 396.66 17.5
-8 3 0 403.26 17.7
-8 3 0 378.86 17.7
7 -3 0 568.94 24.5
7 -3 0 565.54 24.7
-7 3 0 602.24 24.7
-7 3 0 583.24 24.7
6 -3 0 1674.93 68.79
6 -3 0 1659.33 68.69
-6 3 0 1748.33 68.79
-6 3 0 1702.93 68.79
5 -3 0 2951.6 117.69
5 -3 0 2974.6 117.79
-5 3 0 2873.51 117.69
-5 3 0 2929.41 117.79
4 -3 0 1176.08 48.7
4 -3 0 1202.68 48.6
-4 3 0 1190.78 48.7
-4 3 0 1247.68 48.8
3 -3 0 830.52 33
-3 3 0 789.62 33
-3 3 0 814.52 33.1
2 -3 0 183.98 7.8
2 -3 0 178.98 7.8
-2 3 0 139.99 7.6
1 -3 0 2656.93 111.69
1 -3 0 2711.23 111.79
-1 3 0 2832.32 111.79
-1 3 0 2909.71 111.89
0 -3 0 1602.34 65.69
0 -3 0 1636.94 65.79
0 3 0 1613.24 65.79
0 3 0 1610.04 65.69
-1 -3 0 462.85 20.4
-1 -3 0 454.05 20.3
1 3 0 482.15 20.5
1 3 0 466.65 20.4
-2 -3 0 48.9 4.8
-2 -3 0 46.6 4.7
2 3 0 40.1 4.5
2 3 0 43.9 4.8
-3 -3 0 785.12 32.7
-3 -3 0 775.12 32.7
3 3 0 730.33 32.7
3 3 0 741.43 32.6
-4 -3 0 331.97 16
-4 -3 0 327.97 16
4 3 0 321.47 15.9
4 3 0 319.57 16.1
-5 -3 0 457.05 22.1
-5 -3 0 435.56 21.2
5 3 0 456.65 22.1
5 3 0 436.16 21.1
-6 -3 0 537.05 25.1
-6 -3 0 532.25 25.5
6 3 0 531.65 25
6 3 0 535.05 25.8
-7 -3 0 184.08 12.4
-7 -3 0 195.48 12.6
7 3 0 189.58 12.2
7 3 0 191.58 13
-8 -3 0 428.76 22.3
-8 -3 0 433.86 22.3
8 3 0 445.26 22.2
8 3 0 438.66 22.8
-9 -3 0 44.1 7.6
-9 -3 0 72.09 9.5
9 3 0 48.3 7.9
9 3 0 49.8 8.6
-10 -3 0 149.19 13.7
-10 -3 0 153.88 13.8
10 3 0 169.58 13.4
10 3 0 161.98 14.3
-11 -3 0 106.29 13.4
-11 -3 0 97.29 13.3
11 3 0 95.99 14.1
11 3 0 112.69 13
-12 -3 0 394.16 24.3
-12 -3 0 381.26 24.1
12 3 0 410.16 25.3
12 3 0 441.36 24.5
-13 -3 0 807.62 40.2
-13 -3 0 802.02 39.8
13 3 0 793.42 39.7
13 3 0 781.22 40.7
-14 -3 0 621.44 34.2
-14 -3 0 574.54 33.5
14 3 0 612.14 35.8
14 3 0 611.54 35.2
15 -4 0 6.7 6.2
15 -4 0 1.8 6.9
-15 4 0 2.8 6
-15 4 0 4.1 6.5
14 -4 0 127.09 12.4
14 -4 0 142.99 11.2
-14 4 0 143.89 11.8
-14 4 0 140.69 11.6
13 -4 0 24.8 6.3
13 -4 0 25 5.3
-13 4 0 23.8 5.4
-13 4 0 17.3 5.4
12 -4 0 75.89 7.6
12 -4 0 77.89 8.7
-12 4 0 76.19 8.1
-12 4 0 77.29 8.2
11 -4 0 307.07 15.9
11 -4 0 308.27 15.3
-11 4 0 324.87 15.8
-11 4 0 317.57 15.8
10 -4 0 125.69 8.7
10 -4 0 123.79 8.1
-10 4 0 144.19 8.8
-10 4 0 142.89 8.7
9 -4 0 1.4 2.7
9 -4 0 3.8 3
-9 4 0 6.3 3.1
-9 4 0 8.5 3.3
8 -4 0 1097.59 46
8 -4 0 1125.99 46.2
-8 4 0 1134.09 46.2
-8 4 0 1119.29 46.1
7 -4 0 4970.3 197.58
7 -4 0 4900.41 197.38
-7 4 0 4858.71 197.48
-7 4 0 4976.1 197.58
6 -4 0 2506.15 101.09
6 -4 0 2460.45 100.99
-6 4 0 2578.04 101.19
-6 4 0 2502.95 101.09
5 -4 0 2141.19 91.09
-5 4 0 2368.66 91.29
-5 4 0 2286.77 91.09
4 -4 0 482.35 21.3
4 -4 0 489.35 21.4
-4 4 0 525.15 21.3
-4 4 0 547.65 21.4
3 -4 0 650.83 27.1
3 -4 0 668.23 27
-3 4 0 634.54 27
2 -4 0 256.17 11.6
2 -4 0 253.57 11.6
1 -4 0 2275.67 102.29
1 -4 0 2309.37 102.19
-1 4 0 2723.13 102.49
-1 4 0 2820.52 102.69
0 -4 0 170.98 9
0 -4 0 167.88 8.9
-1 -4 0 370.16 17
-1 -4 0 367.26 16.9
1 4 0 358.66 16.9
1 4 0 373.16 17.1
-2 -4 0 151.58 9.5
-2 -4 0 148.79 9.5
2 4 0 196.58 10.1
2 4 0 180.98 9.7
-3 -4 0 1920.61 84.19
-3 -4 0 1918.01 84.29
3 4 0 2171.98 84.59
3 4 0 2180.48 84.69
-4 -4 0 2772.22 115.19
-4 -4 0 2713.33 115.19
4 4 0 2853.91 115.49
4 4 0 2914.61 115.39
-5 -4 0 1132.49 48.6
-5 -4 0 1085.69 48.5
5 4 0 1150.48 48.6
5 4 0 1144.99 48.8
-6 -4 0 18.6 5
-6 -4 0 9.4 4.7
6 4 0 12 5.2
6 4 0 8.6 4.5
-7 -4 0 112.09 10.4
-7 -4 0 101.69 10.3
7 4 0 96.99 10.6
7 4 0 101.29 9.9
-8 -4 0 365.86 21
-8 -4 0 379.76 21.1
8 4 0 409.86 20.9
8 4 0 388.76 21.6
-9 -4 0 166.48 13.9
-9 -4 0 169.28 14.1
9 4 0 170.98 13.6
9 4 0 162.28 14.5
-10 -4 0 138.49 14
-10 -4 0 123.39 13.7
10 4 0 128.99 14.6
10 4 0 126.29 13.3
-11 -4 0 80.69 11.1
-11 -4 0 83.59 11
11 4 0 100.29 13.5
11 4 0 69.49 11
-12 -4 0 273.37 21.2
-12 -4 0 281.57 21.1
12 4 0 294.77 21
12 4 0 268.77 22.2
-13 -4 0 654.33 34.9
-13 -4 0 663.13 34.6
13 4 0 613.54 34
13 4 0 572.04 35.2
-14 -4 0 242.48 23.4
-14 -4 0 277.97 23.5
14 4 0 266.97 25.6
14 4 0 255.47 25.8
15 -5 0 58.79 7.6
15 -5 0 55.89 8.5
-15 5 0 67.49 10.2
-15 5 0 66.09 9.7
14 -5 0 48.2 7.4
14 -5 0 46.1 6.5
-14 5 0 50.39 7.1
-14 5 0 46.4 6.7
13 -5 0 80.39 8.9
13 -5 0 85.09 8.2
-13 5 0 78.49 8.2
-13 5 0 75.19 8.5
12 -5 0 21 4.6
12 -5 0 24.2 5.1
-12 5 0 15.7 4.7
-12 5 0 15.7 4.5
11 -5 0 98.09 7.6
11 -5 0 100.89 7.2
-11 5 0 78.69 7.3
-11 5 0 83.69 7.4
10 -5 0 112.29 7.2
10 -5 0 117.39 7.6
-10 5 0 112.89 7.5
-10 5 0 110.99 7.5
9 -5 0 935.41 38.4
9 -5 0 916.91 38.1
-9 5 0 929.11 38.3
-9 5 0 904.41 38.3
8 -5 0 694.23 28.6
8 -5 0 687.13 28.3
-8 5 0 676.13 28.5
-8 5 0 666.73 28.6
7 -5 0 127.09 6.8
-7 5 0 127.69 6.8
-7 5 0 133.99 6.9
6 -5 0 74.89 4.9
-6 5 0 78.39 4.8
-6 5 0 78.49 4.9
5 -5 0 1230.48 49.8
5 -5 0 1198.58 49.9
-5 5 0 1248.78 49.8
-5 5 0 1206.58 49.7
4 -5 0 241.08 11.4
4 -5 0 236.08 11.6
-4 5 0 256.37 11.1
-4 5 0 246.18 11.4
3 -5 0 614.94 26.6
3 -5 0 629.34 26.6
-3 5 0 644.74 26.6
-2 5 0 38 4.2
-2 5 0 37.9 4.8
1 -5 0 285.77 15.3
1 -5 0 276.27 15.2
-1 5 0 389.76 15.7
-1 5 0 386.16 16
0 -5 0 1767.42 69.39
0 -5 0 1747.73 69.49
0 5 0 1622.94 69.39
0 5 0 1597.14 69.29
-1 -5 0 2495.85 105.69
-1 -5 0 2541.65 105.69
1 5 0 2646.74 105.99
1 5 0 2672.43 105.89
-2 -5 0 1018.5 46.3
-2 -5 0 980.7 46.1
2 5 0 1182.28 46.8
2 5 0 1174.28 46.6
-3 -5 0 2602.74 103.39
-3 -5 0 2503.85 103.29
3 5 0 2470.95 103.29
3 5 0 2458.45 103.39
-4 -5 0 2085.89 86.29
-4 -5 0 2064.69 86.19
4 5 0 2076.89 86.39
4 5 0 2057.59 86.19
-5 -5 0 459.85 22.8
-5 -5 0 469.15 22.7
5 5 0 459.45 22.6
5 5 0 434.96 22.9
-6 -5 0 458.15 23.2
-6 -5 0 460.15 23.2
6 5 0 461.95 23.1
6 5 0 441.76 23.4
-7 -5 0 347.17 19.1
-7 -5 0 332.17 18.9
7 5 0 320.97 18.7
7 5 0 307.27 19.4
-8 -5 0 97.09 11.9
-8 -5 0 104.09 12.9
8 5 0 149.59 12.7
8 5 0 141.79 14.2
-9 -5 0 196.68 16.1
-9 -5 0 206.68 16.3
9 5 0 203.38 17.2
9 5 0 221.98 15.9
-10 -5 0 43.6 10.1
-10 -5 0 35.9 9.1
10 5 0 36.7 9.6
10 5 0 39.8 9.1
-11 -5 0 2.8 9
-11 -5 0 0.5 8.4
11 5 0 2.5 7.1
11 5 0 -1 8.8
-12 -5 0 16 9.5
-12 -5 0 21.5 10.4
12 5 0 4.9 10.2
12 5 0 21.9 9.8
-13 -5 0 20 12.3
-13 -5 0 13.9 10.5
13 5 0 12 11.9
13 5 0 22.5 11.3
14 -6 0 65.59 8.5
14 -6 0 66.49 7.8
-14 6 0 68.19 7.8
-14 6 0 75.59 8.4
13 -6 0 140.19 9
13 -6 0 137.89 9.7
-13 6 0 145.79 9.6
-13 6 0 131.19 9.1
12 -6 0 433.46 19.2
12 -6 0 428.86 19.7
-12 6 0 443.56 19.7
-12 6 0 422.26 19.5
11 -6 0 280.57 13
-11 6 0 255.67 12.8
-11 6 0 244.88 12.6
10 -6 0 276.27 12.8
-10 6 0 263.37 12.7
-10 6 0 271.87 12.9
9 -6 0 319.27 14.2
-9 6 0 309.17 14.3
-9 6 0 314.77 14.1
8 -6 0 228.98 10.6
-8 6 0 218.38 10.5
-8 6 0 223.58 10.6
7 -6 0 1328.57 53.79
7 -6 0 1325.37 53.69
-7 6 0 1310.67 53.69
-7 6 0 1302.27 53.59
6 -6 0 286.27 12.9
6 -6 0 284.67 12.7
-6 6 0 269.27 12.7
-6 6 0 274.57 12.5
5 -6 0 296.97 13.7
5 -6 0 302.57 13.6
-5 6 0 297.37 13.4
-5 6 0 299.17 13.6
4 -6 0 175.98 9.2
4 -6 0 177.28 9.2
-4 6 0 179.08 9.2
3 -6 0 474.55 21.1
3 -6 0 467.55 21.2
-3 6 0 490.85 21.6
-3 6 0 489.45 21.2
2 -6 0 750.92 32.9
2 -6 0 760.72 33
-2 6 0 795.32 33.5
-2 6 0 771.82 33
1 -6 0 947.11 40.8
1 -6 0 970.6 41.1
-1 6 0 949.4 40.8
-1 6 0 969.7 41.3
0 -6 0 446.16 21.4
0 -6 0 436.66 20.6
0 6 0 440.26 20.7
0 6 0 434.76 21.6
-1 -6 0 2088.89 89.59
-1 -6 0 2066.09 89.59
1 6 0 2271.57 89.89
1 6 0 2270.27 89.99
-2 -6 0 2040.3 84.89
-2 -6 0 2053.99 84.79
2 6 0 2049.79 84.89
2 6 0 2025 84.99
-3 -6 0 1705.43 68.99
-3 -6 0 1742.83 68.99
3 6 0 1532.05 68.59
3 6 0 1531.35 68.99
-4 -6 0 638.84 28.5
-4 -6 0 611.14 28.4
4 6 0 576.54 28.6
4 6 0 558.94 28
-5 -6 0 259.67 16.1
-5 -6 0 257.77 15.7
5 6 0 266.87 16.5
5 6 0 253.47 15.7
-6 -6 0 123.39 12
-6 -6 0 138.89 12.1
6 6 0 117.89 11.4
6 6 0 96.39 12.3
-7 -6 0 1183.18 52.29
-7 -6 0 1167.48 52.29
7 6 0 1177.68 52.19
7 6 0 1140.59 52.49
-8 -6 0 1015.9 44.8
-8 -6 0 940.41 44.4
8 6 0 930.71 44.2
8 6 0 940.51 44.9
-9 -6 0 245.28 18.8
-9 -6 0 226.88 18.4
9 6 0 260.37 20
9 6 0 252.87 18
-10 -6 0 43.3 11
-10 -6 0 36.4 10.1
10 6 0 24.4 10.5
10 6 0 40.4 9.9
-11 -6 0 226.58 20.1
-11 -6 0 205.08 19.8
11 6 0 187.88 18.6
11 6 0 190.18 20.9
-12 -6 0 221.98 21.8
-12 -6 0 218.58 21.8
12 6 0 220.78 20.9
12 6 0 228.78 23.4
-13 -6 0 61.39 15
-13 -6 0 65.29 15
13 6 0 43 13.8
13 6 0 49.5 15.4
-13 7 0 293.17 13.8
-12 7 0 1173.58 48.1
11 -7 0 406.96 18.2
-11 7 0 429.06 18.3
10 -7 0 17.9 3.2
10 -7 0 16.9 3.4
-10 7 0 28.8 4.3
-10 7 0 28 3.2
9 -7 0 31.9 3.5
9 -7 0 25.5 3.6
-9 7 0 31.3 3.5
8 -7 0 538.85 23.2
8 -7 0 522.05 23.3
-8 7 0 577.74 23.4
-8 7 0 544.65 23.1
7 -7 0 976.2 40.8
7 -7 0 1013.2 40.7
-7 7 0 967.8 40.6
-7 7 0 983.4 40.8
6 -7 0 601.24 25.4
6 -7 0 589.34 25.3
-6 7 0 588.94 25.2
-6 7 0 587.74 25.3
5 -7 0 25.8 4
5 -7 0 24.4 3.9
-5 7 0 27.7 3.9
-5 7 0 30.4 3.9
4 -7 0 309.67 14.3
4 -7 0 293.77 14.3
-4 7 0 278.67 14.1
3 -7 0 165.78 9.8
3 -7 0 161.08 9.7
-3 7 0 169.08 9.6
-3 7 0 169.48 10.4
2 -7 0 301.37 15.7
2 -7 0 331.77 16
-2 7 0 320.17 15.8
-2 7 0 325.77 16.4
1 -7 0 14.2 4.5
1 -7 0 17.6 5.4
-1 7 0 15.8 5.9
-1 7 0 17.8 4.5
0 -7 0 56.79 6.8
0 -7 0 48.5 6.9
0 7 0 56.89 7.1
0 7 0 60.49 8.6
-1 -7 0 51.49 7.4
-1 -7 0 39.4 5.9
1 7 0 51.09 7.1
1 7 0 56.69 8.2
-2 -7 0 1019.3 44.4
-2 -7 0 1040.9 44.5
2 7 0 985.7 44.6
2 7 0 1001.1 44.4
-3 -7 0 269.87 16.5
-3 -7 0 284.17 16.5
3 7 0 296.87 17.2
3 7 0 292.87 16.6
-4 -7 0 246.68 16.3
-4 -7 0 274.07 16.9
4 7 0 282.77 17.4
4 7 0 293.67 16.7
-5 -7 0 50.09 7.4
-5 -7 0 49.1 7.8
5 7 0 49.3 7.8
5 7 0 47.7 7.3
-6 -7 0 303.67 19.3
-6 -7 0 295.07 19.1
6 7 0 320.57 19.2
6 7 0 306.27 19.9
-7 -7 0 969.9 45.4
-7 -7 0 965.6 45.4
7 7 0 1012.9 45.5
7 7 0 961.1 45.9
-8 -7 0 1506.45 63.49
-8 -7 0 1521.35 63.39
8 7 0 1297.77 62.49
8 7 0 1323.57 63.19
-9 -7 0 564.44 30.3
-9 -7 0 577.94 30.5
9 7 0 514.95 29.4
9 7 0 499.75 30.9
-10 -7 0 27.8 11.1
-10 -7 0 21.5 10.3
10 7 0 35.5 12.6
10 7 0 31.6 10.1
-11 -7 0 174.38 20.9
-11 -7 0 181.98 20.9
11 7 0 168.28 19.4
11 7 0 180.48 22.4
-12 -7 0 508.35 33.3
-12 -7 0 490.85 33.5
12 7 0 573.84 32.6
12 7 0 527.65 35.3
9 -8 0 267.37 12.6
9 -8 0 273.47 12.5
-9 8 0 260.37 12.4
-9 8 0 290.77 12.7
8 -8 0 517.75 24.2
8 -8 0 522.75 24.1
-8 8 0 605.14 24.2
-8 8 0 618.64 24.4
7 -8 0 822.62 35.7
7 -8 0 797.22 35.7
-7 8 0 910.31 35.9
-7 8 0 873.41 35.7
6 -8 0 1450.65 59.19
6 -8 0 1494.65 59.09
-6 8 0 1385.26 58.79
-6 8 0 1399.46 59.09
5 -8 0 122.99 8.4
5 -8 0 115.09 8.1
-5 8 0 115.89 8.1
-5 8 0 119.09 7.8
4 -8 0 267.47 13.8
4 -8 0 265.87 13.7
-4 8 0 259.27 13.7
3 -8 0 1157.48 48.7
3 -8 0 1120.99 48.7
-3 8 0 1195.08 48.8
-3 8 0 1122.49 49.1
2 -8 0 828.42 36.3
2 -8 0 841.32 36.2
-2 8 0 829.92 36.1
-2 8 0 798.62 36.6
1 -8 0 126.39 9.9
1 -8 0 142.19 10.3
-1 8 0 125.39 10.6
-1 8 0 132.39 9.8
0 -8 0 156.88 11.4
0 -8 0 153.58 11.1
0 8 0 153.58 11.9
0 8 0 152.68 11
-1 -8 0 599.24 28
-1 -8 0 584.54 28
1 8 0 572.84 28.3
1 8 0 588.84 27.9
-2 -8 0 27 7.1
-2 -8 0 26.3 6.7
2 8 0 35.7 7.5
2 8 0 45.2 7.7
-3 -8 0 12.9 6.6
-3 -8 0 7.1 5.1
3 8 0 6.8 5.1
3 8 0 10.6 6.8
-4 -8 0 36.5 7.3
-4 -8 0 52.39 8.6
4 8 0 49.5 8.7
4 8 0 33.6 7.1
-5 -8 0 19 7.3
-5 -8 0 17.4 7.4
5 8 0 26.1 8.4
5 8 0 18.5 7.3
-6 -8 0 231.58 17.6
-6 -8 0 245.28 17.6
6 8 0 215.18 17.2
6 8 0 235.28 18.1
-7 -8 0 13.5 8.2
-7 -8 0 27.5 9.6
7 8 0 36.2 10.5
7 8 0 29.5 8.2
-8 -8 0 251.87 19.7
-8 -8 0 232.38 19.4
8 8 0 199.58 18.4
8 8 0 200.68 20.1
-9 -8 0 29.1 10.1
-9 -8 0 18.6 9.3
9 8 0 16.6 10.2
9 8 0 18.5 9
-10 -8 0 93.99 15.6
-10 -8 0 104.09 15.8
10 8 0 110.39 17.9
10 8 0 101.19 15.2
-11 -8 0 229.68 23.8
-11 -8 0 237.28 24.5
11 8 0 226.48 22.4
11 8 0 220.48 26
9 -9 0 121.59 7.2
-9 9 0 97.19 6.7
-9 9 0 98.19 6.9
8 -9 0 134.89 8.9
8 -9 0 136.99 8.9
-8 9 0 181.68 8.9
7 -9 0 505.25 23.6
7 -9 0 506.75 23.5
-7 9 0 550.84 23.5
-7 9 0 566.74 23.8
6 -9 0 653.43 28
6 -9 0 673.53 28
-6 9 0 600.34 27.5
-6 9 0 603.74 27.8
5 -9 0 104.59 9.1
5 -9 0 110.99 8.9
-5 9 0 136.89 9.2
4 -9 0 420.86 19.9
4 -9 0 411.46 19.8
-4 9 0 389.86 19.7
3 -9 0 668.63 29.3
3 -9 0 658.93 29.3
-3 9 0 609.64 29.7
-3 9 0 622.54 29.1
2 -9 0 742.23 33.9
2 -9 0 745.73 33.9
-2 9 0 771.92 34.6
-2 9 0 751.82 33.9
1 -9 0 133.29 11.2
1 -9 0 130.99 11.5
-1 9 0 179.18 11.7
-1 9 0 173.48 13
0 -9 0 62.69 7.9
0 9 0 34.4 7.1
0 9 0 37.1 7
-1 -9 0 406.46 21.2
-1 -9 0 408.56 21
1 9 0 360.16 20.5
1 9 0 357.76 21.5
-2 -9 0 304.47 18.6
-2 -9 0 311.97 18.4
2 9 0 305.07 19.2
2 9 0 303.77 18.3
-3 -9 0 390.86 21.2
-3 -9 0 400.46 22
3 9 0 330.97 20.5
3 9 0 331.27 21.7
-4 -9 0 282.47 19.1
-4 -9 0 287.07 18.6
4 9 0 284.97 19.6
4 9 0 284.17 18.8
-5 -9 0 132.49 14.9
-5 -9 0 126.89 14.5
5 9 0 138.69 15.8
5 9 0 147.39 14.6
-6 -9 0 7.3 7.5
-6 -9 0 19.3 7.9
6 9 0 4.8 7.2
6 9 0 7.7 8
-7 -9 0 223.68 19.5
-7 -9 0 244.08 20.2
7 9 0 211.98 20.3
7 9 0 247.48 20
-8 -9 0 157.68 18.7
-8 -9 0 165.28 19.1
8 9 0 150.78 19.9
8 9 0 174.78 18.4
-9 -9 0 51.69 12.5
-9 -9 0 37.2 11.3
9 9 0 56.09 11.7
9 9 0 33.5 12.3
-10 -9 0 1 11.5
-10 -9 0 3.9 11.5
10 9 0 -5.1 10.4
10 9 0 5.3 13.5
-11 -9 0 21.9 13.1
-11 -9 0 42.6 15.4
11 9 0 52.29 14.9
11 9 0 29.8 14.6
9 -10 0 273.27 13.1
9 -10 0 260.47 13.1
-9 10 0 256.67 12.9
-9 10 0 271.97 13.1
8 -10 0 97.29 8
8 -10 0 102.69 8.2
-8 10 0 93.39 7.8
-8 10 0 97.79 7.8
7 -10 0 179.98 10.9
7 -10 0 174.28 11
-7 10 0 168.08 10.5
-7 10 0 173.78 10.8
6 -10 0 28.1 5.5
6 -10 0 30.7 5.7
-6 10 0 31.1 5.6
-6 10 0 39.8 5.7
5 -10 0 355.06 17.9
5 -10 0 346.27 17.7
-5 10 0 337.77 17.7
4 -10 0 467.55 23
4 -10 0 471.05 23.1
-4 10 0 490.55 23.2
3 -10 0 184.98 12.5
3 -10 0 183.28 12.3
-3 10 0 159.38 12.2
-3 10 0 153.68 13.3
2 -10 0 581.14 29.1
2 -10 0 600.24 29.3
-2 10 0 656.73 29.5
-2 10 0 632.04 30.2
1 -10 0 368.66 20.6
1 -10 0 366.56 20.6
-1 10 0 400.46 20.7
-1 10 0 382.26 21.6
0 -10 0 26.4 7.4
0 -10 0 19.8 6.6
0 10 0 42 7.9
0 10 0 41.5 8.4
-1 -10 0 859.81 41.5
-1 -10 0 869.21 41.4
1 10 0 934.81 41.9
1 10 0 942.11 42.5
-2 -10 0 760.42 37.5
-2 -10 0 776.52 37.5
2 10 0 795.82 37.7
2 10 0 812.52 38.5
-3 -10 0 285.97 20.1
-3 -10 0 278.07 19.6
3 10 0 348.97 20.5
3 10 0 325.07 21.4
-4 -10 0 188.68 16.5
-4 -10 0 175.48 15.9
4 10 0 153.88 17.2
4 10 0 164.08 16.1
-5 -10 0 103.59 13.5
-5 -10 0 76.79 11.6
5 10 0 100.09 13.3
5 10 0 74.39 12.8
-6 -10 0 465.55 28.1
-6 -10 0 474.75 27.7
6 10 0 458.45 27.9
6 10 0 425.86 28.7
-7 -10 0 321.07 23.6
-7 -10 0 301.77 23.7
7 10 0 289.77 24.9
7 10 0 350.36 24.5
-8 -10 0 59.89 14.3
-8 -10 0 47.2 12.9
8 10 0 56.79 14
8 10 0 34.3 13.3
-9 -10 0 18.4 13.4
-9 -10 0 8.2 11.3
9 10 0 9.1 12.9
9 10 0 15.2 12.2
-10 -10 0 117.29 17.6
-10 -10 0 134.09 19.9
10 10 0 130.59 18.7
10 10 0 108.49 19.7
-10 11 0 43.2 5.5
9 -11 0 346.87 17.4
9 -11 0 362.36 17.4
-9 11 0 369.36 17.2
-9 11 0 386.26 17.5
8 -11 0 268.57 15.2
8 -11 0 267.97 15.3
-8 11 0 318.87 15.4
-8 11 0 307.97 15.2
7 -11 0 53.49 6.9
7 -11 0 60.39 7.3
-7 11 0 67.79 7.9
-7 11 0 64.29 8.3
6 -11 0 231.88 14.1
6 -11 0 233.18 13.8
-6 11 0 205.28 13.1
-6 11 0 224.58 13.7
5 -11 0 105.39 10.5
5 -11 0 109.19 10.5
-5 11 0 110.99 10.3
4 -11 0 25.5 6.7
4 -11 0 17.7 6.2
-4 11 0 31.9 6.7
3 -11 0 77.29 10.6
3 -11 0 74.89 10.6
-3 11 0 76.49 10.3
-3 11 0 73.89 10
2 -11 0 121.69 12.2
2 -11 0 115.89 12.1
-2 11 0 107.59 13.5
-2 11 0 99.09 11.6
1 -11 0 95.59 12.2
1 -11 0 92.99 11.8
-1 11 0 91.59 11.7
-1 11 0 96.29 13.7
0 -11 0 136.69 13.6
0 -11 0 139.59 14.1
0 11 0 133.09 13.7
0 11 0 137.79 15.4
-1 -11 0 1382.46 60.29
-1 -11 0 1402.16 60.29
1 11 0 1282.27 60.59
1 11 0 1346.67 60.09
-2 -11 0 751.22 35.5
-2 -11 0 722.83 35.4
2 11 0 670.83 36
2 11 0 667.53 34.9
-3 -11 0 38.1 9.5
-3 -11 0 26.4 8.3
3 11 0 17.2 9.1
3 11 0 17.8 8
-4 -11 0 125.09 15.5
-4 -11 0 129.09 16.7
4 11 0 104.89 13.7
4 11 0 104.69 14.5
-5 -11 0 558.04 31.5
-5 -11 0 541.75 31.6
5 11 0 531.75 31.5
5 11 0 573.84 33.1
-6 -11 0 933.11 46.7
-6 -11 0 933.81 47.1
6 11 0 962.1 47
6 11 0 928.61 47.9
-7 -11 0 608.84 36.8
-7 -11 0 649.14 36.8
7 11 0 666.93 38.8
7 11 0 675.83 37.3
-8 -11 0 21.3 11.3
-8 -11 0 30.8 13.7
8 11 0 23.6 14.8
8 11 0 32.7 11.8
9 11 0 50.09 13.2
10 -12 0 217.28 11.3
10 -12 0 220.98 11.4
-10 12 0 185.68 11.1
-10 12 0 205.78 11.2
9 -12 0 286.47 14.6
9 -12 0 260.97 14.3
-9 12 0 247.08 14.2
-9 12 0 247.38 14
8 -12 0 351.56 18.4
8 -12 0 334.37 18.1
-8 12 0 355.06 17.9
-8 12 0 364.16 18.4
7 -12 0 268.37 16
7 -12 0 276.47 16.3
-7 12 0 277.07 15.9
-7 12 0 261.67 15.3
6 -12 0 100.29 11.3
6 -12 0 102.99 11.4
-6 12 0 120.39 11.1
-6 12 0 111.29 10.6
5 -12 0 122.79 12
5 -12 0 119.79 12.2
-5 12 0 111.49 11.7
4 -12 0 66.99 9.4
4 -12 0 64.69 9.3
-4 12 0 58.19 8.8
3 -12 0 41 8.5
3 -12 0 49.7 9
-3 12 0 52.59 8.6
-3 12 0 44.1 9.8
2 -12 0 33.5 8.2
2 -12 0 44.7 9.2
-2 12 0 37.2 8.4
-2 12 0 36.4 9.9
1 -12 0 40.1 8.8
1 -12 0 39.6 9
-1 12 0 53.29 11.3
-1 12 0 45.5 8.9
0 -12 0 85.19 12.2
0 -12 0 65.99 10.5
0 12 0 65.79 12.3
0 12 0 48.7 9.2
-1 -12 0 168.18 17.3
-1 -12 0 184.18 16.9
1 12 0 166.08 18.6
1 12 0 158.58 16.2
-2 -12 0 30.7 10
-2 -12 0 28.8 9.1
2 12 0 24.6 10.9
2 12 0 25.6 9.5
-3 -12 0 4.6 9.4
-3 -12 0 4.2 8.9
3 12 0 4.3 10.2
3 12 0 10.4 9
-4 -12 0 38.4 11
-4 -12 0 49 11
4 12 0 32.1 11.8
4 12 0 45.1 10.9
-5 -12 0 452.05 30.6
-5 -12 0 505.75 30.6
5 12 0 501.75 30.8
-6 -12 0 775.52 41.8
-6 -12 0 741.03 42
6 12 0 804.32 43.6
6 12 0 770.02 42.1
-7 -12 0 512.65 33.2
-7 -12 0 479.25 33.6
9 -13 0 243.68 14.3
9 -13 0 244.48 13.9
-9 13 0 187.68 13.2
-9 13 0 187.78 13.5
8 -13 0 201.68 14.3
8 -13 0 194.48 14
-8 13 0 199.38 13.3
-8 13 0 202.68 13.8
7 -13 0 310.67 18.9
7 -13 0 324.57 18.8
-7 13 0 316.27 18.5
-7 13 0 325.87 18.1
6 -13 0 5.3 7
6 -13 0 5.1 7.4
-6 13 0 0.2 6.6
-6 13 0 9.6 6.8
5 -13 0 558.54 27.4
5 -13 0 526.25 26.9
-5 13 0 481.25 26.6
4 -13 0 530.75 27.4
4 -13 0 523.35 27.2
-4 13 0 494.65 27
3 -13 0 222.88 17.6
3 -13 0 209.48 17.2
-3 13 0 217.58 19.4
-3 13 0 197.08 16.8
2 -13 0 50.99 10.1
2 -13 0 32 9.9
-2 13 0 40.5 9.3
-2 13 0 44.2 11.4
1 -13 0 126.09 14.6
1 -13 0 99.39 15.1
-1 13 0 78.79 11.5
-1 13 0 86.09 13.4
0 -13 0 508.45 28.2
0 -13 0 519.35 28.3
0 13 0 417.96 28.8
0 13 0 425.96 27
-1 -13 0 66.79 11.8
-1 -13 0 87.39 12.7
1 13 0 46.1 10.4
1 13 0 51.29 13.1
-2 -13 0 68.89 13.3
-2 -13 0 49.6 11.8
2 13 0 46.8 13.3
2 13 0 55.59 11.8
-3 -13 0 34.6 11.9
-3 -13 0 27.8 12.3
3 13 0 20.6 11.3
3 13 0 21.1 12.8
-4 -13 0 24.6 11.4
-4 -13 0 17.8 11.6
4 13 0 21.3 11
4 13 0 10.8 12.7
-5 -13 0 9.9 12.1
-5 -13 0 13.3 12.8
5 13 0 15.1 13
5 13 0 1.4 13.3
7 -14 0 118.79 14.6
7 -14 0 123.09 14
-7 14 0 125.19 13.4
-7 14 0 130.49 13.5
6 -14 0 49.9 10.4
6 -14 0 40.2 9.5
-6 14 0 66.59 9.7
-6 14 0 57.29 9.8
5 -14 0 669.73 35.4
5 -14 0 670.83 33.7
-5 14 0 693.73 33.7
4 -14 0 738.43 37.7
4 -14 0 703.93 35.9
-4 14 0 731.73 35.9
3 -14 0 83.09 12.7
3 -14 0 74.49 12.9
-3 14 0 102.29 15.1
-3 14 0 88.39 12
2 -14 0 17.4 10.9
2 -14 0 26.2 10.8
-2 14 0 35.3 12.8
-2 14 0 14.2 9.3
1 -14 0 185.58 20.1
1 -14 0 191.58 20.3
-1 14 0 184.68 22.1
-1 14 0 201.78 19.2
0 -14 0 293.27 23.3
0 -14 0 247.28 22.7
0 14 0 240.28 24.8
0 14 0 282.07 22.1
-1 -14 0 199.48 21.8
-1 -14 0 208.58 22.3
1 14 0 197.78 20.5
1 14 0 172.78 23.6
-2 -14 0 55.09 12.8
-2 -14 0 48 13.1
2 14 0 54.89 15.4
2 14 0 56.79 12.3
-3 -14 0 74.49 14.7
-3 -14 0 90.79 17.2
3 14 0 50.99 13.1
3 14 0 66.29 17.2
2 -15 0 51.59 15.3
2 -15 0 37.8 12.6
-2 15 0 35.5 14.5
-2 15 0 36.4 11.1
1 15 -1 281.17 23.8
1 15 -1 271.47 26.9
-1 -15 1 211.58 24.2
-1 -15 1 247.48 27.3
0 15 -1 184.98 23.8
0 15 -1 186.08 20.1
0 -15 1 144.69 21.2
0 -15 1 136.79 18.7
-1 15 -1 163.48 23
-1 15 -1 158.48 18.8
1 -15 1 169.88 23.4
-2 15 -1 80.09 12.7
-2 15 -1 65.79 14.6
2 -15 1 78.09 14.6
2 -15 1 95.39 14.2
-3 15 -1 12.3 12.2
-3 15 -1 33.3 9.8
3 -15 1 16.4 10.7
3 -15 1 7.2 11.9
-4 15 -1 135.79 15.9
4 -15 1 138.49 16.5
4 -15 1 178.38 17.5
4 14 -1 210.28 25.9
-4 -14 1 200.88 24.2
-4 -14 1 198.68 23.2
3 14 -1 191.38 24.9
3 14 -1 233.58 22.5
-3 -14 1 207.38 23.1
-3 -14 1 226.98 24
2 14 -1 152.48 22.5
2 14 -1 155.98 19.5
-2 -14 1 170.78 20.9
-2 -14 1 171.28 20.7
1 14 -1 477.05 31.1
1 14 -1 462.05 28.5
-1 -14 1 444.76 28.7
-1 -14 1 478.35 29.2
0 14 -1 386.86 27.4
0 14 -1 356.56 24.8
0 -14 1 407.06 25.7
0 -14 1 379.36 25.9
-1 14 -1 269.57 23.5
-1 14 -1 281.47 20.8
1 -14 1 298.27 22
1 -14 1 293.27 21.3
-2 14 -1 35.5 11.9
-2 14 -1 31.9 9
2 -14 1 52.59 11.3
2 -14 1 39.4 10.2
-3 14 -1 228.98 17.6
-3 14 -1 215.78 20.5
3 -14 1 215.18 18.3
3 -14 1 227.28 18
-4 14 -1 830.52 38.6
4 -14 1 800.42 38.8
4 -14 1 815.32 38.7
-5 14 -1 646.44 31.1
5 -14 1 609.14 31.2
5 -14 1 646.14 31.8
-6 14 -1 6.9 6.8
6 -14 1 10.4 7.7
6 -14 1 13.6 7.5
-7 14 -1 112.09 11.6
-7 14 -1 103.39 11.8
7 -14 1 111.19 12.2
7 -14 1 107.39 12.9
6 13 -1 91.19 16.5
6 13 -1 147.79 21.8
-6 -13 1 88.99 15.4
-6 -13 1 142.39 21
5 13 -1 93.99 18.4
5 13 -1 49.5 12.3
-5 -13 1 79.59 15.9
-5 -13 1 53.69 12.8
4 13 -1 17.8 13.7
4 13 -1 16.6 10.6
-4 -13 1 21.4 12.7
-4 -13 1 21.4 10.8
3 13 -1 5.5 12.5
3 13 -1 3.8 10.4
-3 -13 1 6.7 10.6
-3 -13 1 8.1 10.5
2 13 -1 120.49 16.8
2 13 -1 102.89 14.6
-2 -13 1 136.99 17.8
-2 -13 1 145.69 17.7
1 13 -1 657.93 33.9
1 13 -1 635.44 35.4
-1 -13 1 661.33 34.1
-1 -13 1 612.64 34
0 13 -1 225.98 18.2
0 13 -1 232.78 20.7
0 -13 1 226.48 19.2
0 -13 1 225.08 18.4
-1 13 -1 136.39 15.7
-1 13 -1 110.49 14
1 -13 1 136.29 14.7
1 -13 1 115.79 15.4
-2 13 -1 39.3 11
-2 13 -1 41.1 8.8
2 -13 1 44.3 9.3
2 -13 1 43.9 9.3
-3 13 -1 378.76 22
-3 13 -1 368.06 23.9
3 -13 1 400.96 22.2
3 -13 1 387.16 22.3
-4 13 -1 350.46 22
-4 13 -1 317.07 19.8
4 -13 1 346.67 20.2
4 -13 1 367.06 20.4
-5 13 -1 166.98 13.4
5 -13 1 172.68 13.8
5 -13 1 156.38 13.7
-6 13 -1 4.3 5.4
6 -13 1 1.2 5.9
6 -13 1 0 6.2
-7 13 -1 159.38 11.8
-7 13 -1 160.78 11.7
7 -13 1 144.09 12
7 -13 1 148.69 12.7
-8 13 -1 227.48 13.5
-8 13 -1 231.18 13.5
8 -13 1 240.58 14
8 -13 1 235.28 13.7
-9 13 -1 551.84 25.7
-9 13 -1 549.54 25.8
9 -13 1 648.94 26.1
9 -13 1 624.84 26
8 12 -1 14 15.6
8 12 -1 6 11.6
-8 -12 1 0.2 11.1
-8 -12 1 9.6 13.7
7 12 -1 190.08 24.5
7 12 -1 178.38 22
-7 -12 1 146.29 21.2
-7 -12 1 158.58 19.9
6 12 -1 659.33 35.8
-6 -12 1 639.24 35.4
-6 -12 1 555.14 35.2
5 12 -1 398.96 28.2
5 12 -1 412.86 26.9
-5 -12 1 377.96 26.3
-5 -12 1 382.36 26.9
4 12 -1 134.49 19.6
4 12 -1 156.38 17.9
-4 -12 1 152.78 17.5
-4 -12 1 135.29 18.4
3 12 -1 25.4 10.9
3 12 -1 20.4 9.8
-3 -12 1 24.2 9.8
-3 -12 1 25.7 10.3
2 12 -1 410.46 24.3
2 12 -1 390.16 25.5
-2 -12 1 378.66 23.9
-2 -12 1 371.16 24.2
1 12 -1 353.96 22.2
1 12 -1 338.67 23.7
-1 -12 1 389.56 23.1
-1 -12 1 382.26 22.7
0 12 -1 204.78 16.1
0 12 -1 211.08 17.9
0 -12 1 210.08 16.9
0 -12 1 200.28 16.2
-1 12 -1 22 9
-1 12 -1 22.5 7.3
1 -12 1 16.3 7.2
1 -12 1 15 7.7
-2 12 -1 60.49 8.8
-2 12 -1 60.49 10.1
2 -12 1 56.59 9
2 -12 1 36.8 8.3
-3 12 -1 103.69 13.7
-3 12 -1 97.09 11.2
3 -12 1 109.69 11.6
3 -12 1 123.09 12.3
-4 12 -1 487.55 25.8
-4 12 -1 477.85 27.1
4 -12 1 564.94 26.4
4 -12 1 592.84 26.4
-5 12 -1 120.29 10.8
5 -12 1 107.59 11
5 -12 1 108.09 10.8
-6 12 -1 220.28 13.7
6 -12 1 223.38 13.8
6 -12 1 216.88 13.8
-7 12 -1 78.19 8.5
-7 12 -1 87.09 8.8
7 -12 1 95.89 9.6
7 -12 1 97.59 9.3
-8 12 -1 285.17 14.7
-8 12 -1 288.27 14.6
8 -12 1 283.27 14.7
8 -12 1 288.57 14.9
-9 12 -1 516.65 22.2
9 11 -1 49.9 14.4
9 11 -1 70.39 17.5
-9 -11 1 82.99 16.3
-9 -11 1 92.19 16.5
8 11 -1 91.69 16
8 11 -1 41.8 13.5
-8 -11 1 62.09 14.8
-8 -11 1 35.8 12.3
7 11 -1 571.24 34.6
7 11 -1 580.14 32.9
-7 -11 1 549.45 32.5
-7 -11 1 537.35 33.2
6 11 -1 1055.59 48.4
6 11 -1 1026.9 49
-6 -11 1 913.41 47.3
-6 -11 1 922.41 47.5
5 11 -1 1050.29 50.29
5 11 -1 1062.39 51.19
-5 -11 1 1085.39 50.29
-5 -11 1 1042.7 50.19
4 11 -1 916.91 45.2
4 11 -1 921.21 44.6
-4 -11 1 916.21 44.4
-4 -11 1 953 44.6
3 11 -1 19.5 8.9
3 11 -1 14 8.4
-3 -11 1 1.4 7.3
-3 -11 1 7.2 8
2 11 -1 1338.27 59.19
2 11 -1 1358.26 59.89
-2 -11 1 1321.77 59.09
-2 -11 1 1299.07 58.99
1 11 -1 1045.6 48.4
1 11 -1 1033.8 49.1
-1 -11 1 1097.89 48.5
-1 -11 1 1098.29 48.6
0 11 -1 220.38 17.3
0 11 -1 228.58 16.1
0 -11 1 245.58 16.3
0 -11 1 268.17 16.8
-1 11 -1 78.29 10.3
-1 11 -1 86.19 10.8
1 -11 1 85.79 10.8
1 -11 1 76.99 11.1
-2 11 -1 258.77 15.6
-2 11 -1 240.88 16.7
2 -11 1 236.98 15.5
2 -11 1 249.18 15.8
-3 11 -1 26.9 6.3
-3 11 -1 25.7 7.5
3 -11 1 38.1 6.9
3 -11 1 29.5 6.7
-4 11 -1 93.69 11.3
-4 11 -1 85.69 9.2
4 -11 1 73.79 9.2
4 -11 1 72.19 9.2
-5 11 -1 34.8 6
5 -11 1 29.2 5.9
5 -11 1 27.7 6
-6 11 -1 47.3 6
-6 11 -1 51.79 6.5
6 -11 1 49.8 6.5
6 -11 1 40.8 6
-7 11 -1 32.7 5.2
-7 11 -1 33.2 4.9
7 -11 1 40.9 5.7
7 -11 1 35.5 5.3
-8 11 -1 138.89 8.6
-8 11 -1 145.49 8.5
8 -11 1 122.89 8.5
8 -11 1 124.59 8.8
10 10 -1 54.29 12.3
10 10 -1 110.89 20
-10 -10 1 91.59 17.3
-10 -10 1 55.29 13.3
9 10 -1 58.39 11.8
9 10 -1 59.89 14.4
-9 -10 1 58.99 12.8
-9 -10 1 43 11.8
8 10 -1 59.19 12.1
8 10 -1 53.29 12.4
-8 -10 1 59.79 12.4
-8 -10 1 43.5 11.5
7 10 -1 953.6 47.8
7 10 -1 997.5 47.5
-7 -10 1 985.3 47.3
-7 -10 1 943.71 47
6 10 -1 443.86 27.1
6 10 -1 423.46 25.8
-6 -10 1 379.96 25.6
-6 -10 1 427.06 25.6
5 10 -1 114.19 15
5 10 -1 116.59 16
-5 -10 1 112.79 14.6
-5 -10 1 108.29 15
4 10 -1 5.7 6.8
4 10 -1 6.8 7.6
-4 -10 1 12.7 7.8
-4 -10 1 2.4 6.9
3 10 -1 666.73 32.1
3 10 -1 647.14 32.6
-3 -10 1 620.34 31.9
-3 -10 1 626.54 31.8
2 10 -1 2814.92 113.59
2 10 -1 2733.73 113.69
-2 -10 1 2616.04 113.09
-2 -10 1 2682.33 113.19
1 10 -1 1395.06 59.79
1 10 -1 1390.06 60.39
-1 -10 1 1377.56 59.79
-1 -10 1 1322.27 59.49
0 10 -1 220.68 15.2
0 10 -1 231.98 16.8
0 -10 1 269.77 16.2
0 -10 1 260.07 15.8
-1 10 -1 412.76 21
-1 10 -1 386.76 21.7
1 -10 1 412.76 21.1
1 -10 1 398.46 21.2
-2 10 -1 509.35 25.2
-2 10 -1 524.85 26.1
2 -10 1 530.05 25.2
2 -10 1 536.55 25.5
-3 10 -1 447.56 22.4
-3 10 -1 438.06 23.4
3 -10 1 470.05 22.5
3 -10 1 495.65 22.8
-4 10 -1 811.72 37.8
-4 10 -1 844.02 37.2
4 -10 1 862.31 37.3
4 -10 1 885.81 37.2
-5 10 -1 63.29 7.2
5 -10 1 49.1 7
5 -10 1 51.59 6.2
-6 10 -1 215.08 11.8
-6 10 -1 227.28 12.2
6 -10 1 224.68 12.3
6 -10 1 224.68 12.2
-7 10 -1 85.69 6.7
-7 10 -1 90.49 6.9
7 -10 1 72.19 6.8
7 -10 1 73.29 6.9
-8 10 -1 87.69 6.3
-8 10 -1 91.09 6.1
8 -10 1 95.19 6.3
8 -10 1 97.19 6.4
11 9 -1 103.89 17.6
11 9 -1 68.99 12.6
-11 -9 1 61.19 13.5
-11 -9 1 75.59 14.5
10 9 -1 110.09 18.4
10 9 -1 55.39 11.4
-10 -9 1 61.89 12.4
9 9 -1 53.59 12.5
9 9 -1 57.09 10.6
-9 -9 1 58.49 12
-9 -9 1 56.89 11.2
8 9 -1 22.4 8.5
8 9 -1 31.2 12.4
-8 -9 1 23.7 10.7
-8 -9 1 16.7 8.7
7 9 -1 773.62 39.6
7 9 -1 788.12 39
-7 -9 1 778.42 39
-7 -9 1 769.52 38.9
6 9 -1 105.29 15.1
6 9 -1 98.39 12.6
-6 -9 1 100.69 14.2
-6 -9 1 93.69 13.5
5 9 -1 147.29 15.3
5 9 -1 158.48 14.5
-5 -9 1 144.19 14.6
-5 -9 1 129.29 14
4 9 -1 142.29 14.1
4 9 -1 142.09 13.2
-4 -9 1 123.59 13.4
-4 -9 1 124.39 12.9
3 9 -1 162.58 13.6
3 9 -1 159.68 14.5
-3 -9 1 205.58 14.9
-3 -9 1 220.68 14.6
2 9 -1 172.68 14.5
2 9 -1 174.48 13.7
-2 -9 1 243.58 15
-2 -9 1 227.48 14.4
1 9 -1 364.86 21.3
1 9 -1 383.36 20.7
-1 -9 1 420.26 21.4
-1 -9 1 427.56 21
0 9 -1 33.2 6
0 9 -1 39.5 7.2
0 -9 1 38.9 6.5
0 -9 1 33 6.1
-1 9 -1 255.17 14.5
-1 9 -1 256.37 15.3
1 -9 1 248.88 14.4
1 -9 1 241.58 14.6
-2 9 -1 1538.35 65.39
-2 9 -1 1541.35 64.99
2 -9 1 1551.54 64.99
2 -9 1 1562.44 64.99
-3 9 -1 2530.55 103.49
-3 9 -1 2532.15 103.09
3 -9 1 2525.35 103.09
3 -9 1 2469.45 102.99
-4 9 -1 1121.19 47.1
-4 9 -1 1119.29 47.6
4 -9 1 1106.69 46.9
4 -9 1 1108.49 47.1
-5 9 -1 253.07 12.8
5 -9 1 246.38 12.8
5 -9 1 244.68 12.8
-6 9 -1 1085.79 45.2
-6 9 -1 1077.99 45.4
6 -9 1 1099.29 45.4
6 -9 1 1107.59 45.5
-7 9 -1 286.97 12.6
-7 9 -1 283.67 12.5
7 -9 1 237.88 12.3
7 -9 1 247.38 12.4
12 8 -1 433.06 33.4
12 8 -1 504.55 30.7
-12 -8 1 410.56 31.7
-12 -8 1 435.06 31.4
11 8 -1 272.37 22.9
11 8 -1 258.67 26.4
-11 -8 1 283.77 24.4
-11 -8 1 274.07 24.8
10 8 -1 168.68 18.3
10 8 -1 166.18 21.2
-10 -8 1 155.88 19.6
-10 -8 1 164.58 19.6
9 8 -1 239.28 19.3
9 8 -1 231.68 21.4
-9 -8 1 231.78 20.1
-9 -8 1 238.88 20.2
8 8 -1 333.47 21.8
8 8 -1 328.77 23.2
-8 -8 1 338.27 22.7
-8 -8 1 360.06 22.8
7 8 -1 606.64 30.8
7 8 -1 567.24 29.4
-7 -8 1 527.35 29.3
-7 -8 1 522.05 29.5
6 8 -1 46.3 8.9
6 8 -1 34 8.2
-6 -8 1 62.39 9.6
-6 -8 1 57.09 8.7
5 8 -1 62.59 9.6
5 8 -1 70.59 10.4
-5 -8 1 58.79 9.1
-5 -8 1 62.59 9.6
4 8 -1 3.3 5.7
-4 -8 1 6.7 5.9
-4 -8 1 1.6 5.4
3 8 -1 190.98 13.1
3 8 -1 186.48 14.2
-3 -8 1 190.38 13.2
-3 -8 1 181.08 13.7
2 8 -1 283.27 16.1
2 8 -1 270.47 16.5
-2 -8 1 279.97 16.4
-2 -8 1 292.07 16.2
1 8 -1 184.98 13.1
1 8 -1 190.58 12.2
-1 -8 1 197.88 12.4
-1 -8 1 198.88 12.8
0 8 -1 422.16 19.9
0 8 -1 391.26 20.2
0 -8 1 381.76 19.7
0 -8 1 399.96 19.9
-1 8 -1 430.26 20.9
-1 8 -1 458.05 20.6
1 -8 1 387.86 20.2
1 -8 1 424.76 20.5
-2 8 -1 937.01 40.2
-2 8 -1 968.1 39.9
2 -8 1 890.21 39.7
2 -8 1 909.01 39.7
-3 8 -1 828.62 36
-3 8 -1 839.32 35.6
3 -8 1 805.02 35.5
3 -8 1 839.32 35.6
-4 8 -1 622.04 26.2
4 -8 1 593.44 26
4 -8 1 575.24 26
-5 8 -1 195.78 10.3
5 -8 1 200.28 10.3
5 -8 1 203.08 10.4
-6 8 -1 1050.19 43.1
-6 8 -1 1036.8 42.9
6 -8 1 1059.69 43
6 -8 1 1029.1 43
-7 8 -1 470.55 20
-7 8 -1 471.05 20.2
7 -8 1 483.05 20.1
7 -8 1 480.95 20.1
13 7 -1 332.27 30
13 7 -1 344.87 27.2
-13 -7 1 294.07 27.2
-13 -7 1 315.67 28
12 7 -1 616.84 34.7
12 7 -1 596.24 36.9
-12 -7 1 601.24 35.7
-12 -7 1 597.74 35.5
11 7 -1 476.65 28.9
11 7 -1 473.85 30.7
-11 -7 1 468.35 29.6
-11 -7 1 468.95 29.6
10 7 -1 356.26 25.1
10 7 -1 369.66 23.5
-10 -7 1 334.97 24
-10 -7 1 325.17 23.7
9 7 -1 647.64 34
9 7 -1 614.04 34.9
-9 -7 1 717.83 34.9
-9 -7 1 698.13 34.8
8 7 -1 736.43 37.7
8 7 -1 751.62 37
-8 -7 1 793.92 37.6
-8 -7 1 762.62 37.3
7 7 -1 1314.77 58.09
7 7 -1 1326.67 58.69
-7 -7 1 1300.07 58.19
-7 -7 1 1300.97 58.29
6 7 -1 91.09 11
6 7 -1 83.79 11.2
-6 -7 1 93.29 11.7
-6 -7 1 113.09 11.7
5 7 -1 490.75 25.1
5 7 -1 506.75 25.8
-5 -7 1 507.75 25.5
-5 -7 1 479.15 25
4 7 -1 27 6.5
4 7 -1 18.8 5.7
-4 -7 1 39.6 6.5
3 7 -1 648.24 32.6
3 7 -1 639.84 32.1
-3 -7 1 779.62 32.9
-3 -7 1 762.72 32.7
2 7 -1 140.89 11.1
2 7 -1 141.89 10.6
-2 -7 1 166.88 11.3
-2 -7 1 171.58 10.9
1 7 -1 147.49 11
1 7 -1 141.79 9.7
-1 -7 1 122.59 10.4
-1 -7 1 128.89 9.5
0 7 -1 1330.27 55.79
0 7 -1 1330.57 55.89
0 -7 1 1286.97 55.59
0 -7 1 1342.57 55.69
-1 7 -1 298.57 15
-1 7 -1 313.17 15.4
1 -7 1 294.77 14.9
1 -7 1 292.97 15
-2 7 -1 105.49 7.9
-2 7 -1 101.69 7.1
2 -7 1 99.99 7.4
2 -7 1 97.29 7.2
-3 7 -1 30.6 4.7
-3 7 -1 26.6 3.9
3 -7 1 35.6 4.3
3 -7 1 30.2 4.6
-4 7 -1 402.76 18
4 -7 1 416.76 18
4 -7 1 399.26 18
-5 7 -1 248.58 11.6
-5 7 -1 253.87 11.4
5 -7 1 243.88 11.6
5 -7 1 250.87 11.6
-6 7 -1 249.68 11.9
-6 7 -1 254.87 11.9
6 -7 1 286.57 12
6 -7 1 287.77 12
13 6 -1 330.57 25.5
13 6 -1 301.07 27.4
-13 -6 1 341.37 26.3
-13 -6 1 317.57 26
12 6 -1 293.27 25.2
12 6 -1 301.87 23
-12 -6 1 304.17 24.2
-12 -6 1 346.67 24.6
11 6 -1 43.1 9.4
11 6 -1 55.09 11.7
-11 -6 1 71.19 11.3
-11 -6 1 72.89 11.1
10 6 -1 38 9.6
10 6 -1 46 9
-10 -6 1 59.59 10.7
-10 -6 1 40.4 9.5
9 6 -1 442.96 26.8
9 6 -1 464.55 25.8
-9 -6 1 478.35 26.5
-9 -6 1 514.75 26.9
8 6 -1 613.24 31.9
8 6 -1 601.24 32.5
-8 -6 1 698.03 32.8
-8 -6 1 697.03 32.7
7 6 -1 892.91 43.9
7 6 -1 926.31 43.5
-7 -6 1 1010.7 44.1
-7 -6 1 1015.8 44
6 6 -1 515.45 26.4
6 6 -1 505.85 27
-6 -6 1 575.94 27
-6 -6 1 560.34 27
5 6 -1 216.58 14.5
5 6 -1 204.88 13.6
-5 -6 1 216.88 14.1
-5 -6 1 215.58 13.9
4 6 -1 1015.3 46.5
4 6 -1 1006.4 46.2
-4 -6 1 1121.29 46.5
-4 -6 1 1103.99 46.5
3 6 -1 4490.25 192.18
3 6 -1 4671.73 192.18
-3 -6 1 4897.21 192.28
-3 -6 1 4883.11 192.28
2 6 -1 1396.86 60.19
2 6 -1 1459.65 60.49
-2 -6 1 1446.76 60.29
-2 -6 1 1422.26 60.29
1 6 -1 669.93 28.4
1 6 -1 643.54 28
-1 -6 1 588.14 27.8
-1 -6 1 609.74 28
0 6 -1 180.28 10.2
0 6 -1 171.68 9.8
0 -6 1 163.68 9.7
0 -6 1 167.18 9.9
-1 6 -1 39.1 4.6
-1 6 -1 42.5 4.8
1 -6 1 31.3 4.4
1 -6 1 30 4.2
-2 6 -1 1129.99 48.1
-2 6 -1 1160.48 48.3
2 -6 1 1153.88 48.1
2 -6 1 1200.18 48.1
-3 6 -1 107.79 6.4
-3 6 -1 107.79 6.9
3 -6 1 110.99 6.5
3 -6 1 111.59 6.6
-4 6 -1 696.73 28.7
4 -6 1 664.03 28.6
4 -6 1 703.73 28.7
-5 6 -1 996.1 40.8
-5 6 -1 989.2 40.8
5 -6 1 1006.5 40.8
5 -6 1 1016 40.8
-11 6 -1 299.47 13.4
11 -6 1 285.57 13.4
-12 6 -1 138.89 8.2
-12 6 -1 144.89 8.5
12 -6 1 152.18 8.6
12 -6 1 146.19 8.1
-13 6 -1 37.8 5.8
-13 6 -1 43.5 5.2
13 -6 1 45.7 5.4
13 -6 1 41.6 5.8
-14 6 -1 28.3 4.7
-14 6 -1 29.9 5.2
14 -6 1 22.4 4.6
14 -6 1 22.3 5.2
14 5 -1 58.49 15.9
14 5 -1 34.9 14.2
-14 -5 1 29.1 11.9
-14 -5 1 23.8 12.1
13 5 -1 60.19 12.1
13 5 -1 53.29 13.1
-13 -5 1 83.69 14.3
-13 -5 1 75.79 13.6
12 5 -1 39.5 12.3
12 5 -1 40.8 11.1
-12 -5 1 35.4 11.2
-12 -5 1 28.7 10.3
11 5 -1 161.98 16
11 5 -1 164.68 17.8
-11 -5 1 168.38 16.9
-11 -5 1 155.68 16.8
10 5 -1 448.46 26
10 5 -1 482.35 25.6
-10 -5 1 430.56 25.5
-10 -5 1 452.85 25.4
9 5 -1 40 9
9 5 -1 25.9 6.7
-9 -5 1 31.2 7.5
-9 -5 1 48.8 9.3
8 5 -1 306.67 19.8
8 5 -1 309.57 19.2
-8 -5 1 363.76 19.8
-8 -5 1 363.66 19.9
7 5 -1 435.56 23.8
7 5 -1 448.76 23.2
-7 -5 1 457.75 23.6
-7 -5 1 487.45 23.8
6 5 -1 108.59 10.7
6 5 -1 115.39 10
-6 -5 1 123.89 10.3
-6 -5 1 115.49 10.5
5 5 -1 171.78 11.1
5 5 -1 191.28 12.2
-5 -5 1 153.38 11.2
-5 -5 1 136.39 11.2
4 5 -1 1900.31 77.89
4 5 -1 1912.91 77.69
-4 -5 1 1817.62 77.59
-4 -5 1 1818.42 77.59
3 5 -1 1829.92 72.59
3 5 -1 1825.42 72.39
-3 -5 1 1620.74 72.09
-3 -5 1 1674.13 72.19
2 5 -1 1736.53 68.29
2 5 -1 1693.13 68.29
-2 -5 1 1582.84 67.99
-2 -5 1 1550.44 67.89
1 5 -1 821.82 35.3
1 5 -1 843.92 35.4
-1 -5 1 825.52 35.3
-1 -5 1 807.12 35.2
0 5 -1 551.94 23.5
0 5 -1 564.94 23.4
0 -5 1 495.15 23.2
0 -5 1 512.25 23.2
-1 5 -1 1141.09 49.8
-1 5 -1 1173.38 49.8
1 -5 1 1244.78 49.9
1 -5 1 1274.77 49.9
-2 5 -1 678.73 27.7
-2 5 -1 696.73 27.6
2 -5 1 635.64 27.4
2 -5 1 608.14 27.4
-3 5 -1 25.1 3.3
-3 5 -1 27.9 3
-4 5 -1 15.8 2.4
-4 5 -1 19.8 2.3
4 -5 1 18.8 2.5
4 -5 1 21.3 2.2
-5 5 -1 608.84 25.6
-5 5 -1 627.94 25.7
5 -5 1 640.34 25.7
5 -5 1 641.84 25.6
-7 5 -1 435.16 17.8
-7 5 -1 416.86 17.7
-8 5 -1 505.85 21.2
-8 5 -1 517.85 21.3
8 -5 1 506.55 21.3
8 -5 1 499.55 21.1
-9 5 -1 519.45 22.4
-9 5 -1 525.15 22.4
9 -5 1 539.85 22.5
9 -5 1 525.55 22.2
-10 5 -1 145.89 8.4
-10 5 -1 142.69 8.3
10 -5 1 164.08 8.3
10 -5 1 150.18 8.5
-11 5 -1 189.48 10.5
-11 5 -1 184.58 10.4
11 -5 1 202.38 10.2
11 -5 1 201.18 10.8
-12 5 -1 125.99 8.9
-12 5 -1 129.09 8.9
12 -5 1 142.69 8.7
12 -5 1 139.99 9.6
-13 5 -1 3.2 4.4
-13 5 -1 5.3 4.3
13 -5 1 6.4 4.3
13 -5 1 2.9 4.9
-14 5 -1 69.09 8.8
-14 5 -1 78.49 8.7
14 -5 1 73.49 8.5
14 -5 1 71.19 9.5
14 4 -1 578.94 35.8
14 4 -1 565.54 35.2
-14 -4 1 662.53 34.6
-14 -4 1 587.74 34.6
13 4 -1 426.06 27.1
13 4 -1 395.46 28.3
-13 -4 1 468.45 27.8
-13 -4 1 470.85 27.9
12 4 -1 113.59 13.8
12 4 -1 116.99 15.1
-12 -4 1 95.29 13
-12 -4 1 100.89 12.9
11 4 -1 28.5 8.6
11 4 -1 42.9 9.1
-11 -4 1 42.8 9.3
-11 -4 1 33.2 8.3
10 4 -1 300.47 19.8
10 4 -1 311.57 19.3
-10 -4 1 321.27 19.9
-10 -4 1 313.37 19.5
9 4 -1 286.97 17.7
9 4 -1 303.87 19
-9 -4 1 300.37 18.2
-9 -4 1 277.47 18.7
8 4 -1 53.99 7.7
8 4 -1 31 6.7
-8 -4 1 51.59 8.3
-8 -4 1 44 7.4
7 4 -1 69.89 8.5
7 4 -1 81.39 9.7
-7 -4 1 79.29 9.3
-7 -4 1 83.89 9.1
6 4 -1 147.49 10.1
6 4 -1 141.39 11
-6 -4 1 131.29 10.3
-6 -4 1 141.09 10.7
5 4 -1 278.97 15.3
5 4 -1 286.27 15.8
-5 -4 1 299.57 15.7
-5 -4 1 306.07 15.6
4 4 -1 1436.06 57.89
4 4 -1 1345.27 57.59
-4 -4 1 1331.47 57.59
-4 -4 1 1375.46 57.69
3 4 -1 984.8 41.2
3 4 -1 1006.7 41.4
-3 -4 1 959.7 41.2
-3 -4 1 917.81 41.1
2 4 -1 283.17 13.6
2 4 -1 280.57 13.5
-2 -4 1 271.47 13.4
-2 -4 1 265.17 13.5
1 4 -1 60.79 5.1
1 4 -1 57.49 5.2
-1 -4 1 69.59 5.2
-1 -4 1 62.09 5.1
0 4 -1 133.79 7.7
0 4 -1 123.19 7.5
0 -4 1 156.28 7.8
0 -4 1 170.58 7.9
1 -4 1 87.29 5.1
1 -4 1 86.79 5.1
-2 4 -1 11.3 1.9
-2 4 -1 10 2
2 -4 1 17.6 2.2
2 -4 1 13.7 2
-3 4 -1 1483.45 56.09
3 -4 1 1324.57 55.99
3 -4 1 1368.96 56.09
-5 4 -1 2573.34 102.99
-6 4 -1 5001.5 195.28
-6 4 -1 4928.31 195.28
6 -4 1 4719.13 195.28
-7 4 -1 1524.55 58.99
-7 4 -1 1520.35 58.99
7 -4 1 1412.06 58.89
7 -4 1 1356.86 58.79
-8 4 -1 153.28 8
-8 4 -1 145.79 8
8 -4 1 156.58 7.8
8 -4 1 160.48 8.2
-9 4 -1 202.88 10
-9 4 -1 211.58 10
9 -4 1 169.78 9.4
9 -4 1 176.28 9.9
-10 4 -1 161.08 9.4
-10 4 -1 163.08 9.4
10 -4 1 156.88 9
10 -4 1 162.38 9.6
-11 4 -1 276.67 14.4
-11 4 -1 275.77 14.3
11 -4 1 292.47 14.7
11 -4 1 282.17 14
-12 4 -1 3.4 4.3
-12 4 -1 2.6 4.3
12 -4 1 5.7 4.1
12 -4 1 7.2 5
-13 4 -1 60.09 8.3
-13 4 -1 58.69 8.4
13 -4 1 56.99 8
13 -4 1 62.49 7.8
-14 4 -1 24.1 6.4
-14 4 -1 33.6 6.7
14 -4 1 22.7 5.8
14 -4 1 34.8 7.3
-15 4 -1 2.3 6
-15 4 -1 1 6.5
15 -4 1 0.6 5.9
15 -4 1 1 6.9
14 3 -1 768.52 41.1
14 3 -1 797.92 41.5
-14 -3 1 814.22 40.9
-14 -3 1 810.42 40.8
13 3 -1 776.92 41
13 3 -1 818.22 40.5
-13 -3 1 846.12 41.1
-13 -3 1 859.71 40.9
12 3 -1 303.47 20.8
12 3 -1 305.47 21.7
-12 -3 1 335.77 21.2
-12 -3 1 357.76 21.6
11 3 -1 76.19 10.6
11 3 -1 78.59 10.4
-11 -3 1 100.49 11.9
-11 -3 1 78.49 11.9
10 3 -1 26.5 7.3
10 3 -1 42.5 8.2
-10 -3 1 34.2 7.3
-10 -3 1 49.2 8.6
9 3 -1 677.73 32.1
9 3 -1 691.73 31.8
-9 -3 1 660.43 31.9
-9 -3 1 648.84 31.7
8 3 -1 639.54 30.2
8 3 -1 660.63 30.8
-8 -3 1 649.14 30.4
-8 -3 1 645.14 30.5
7 3 -1 326.17 17.1
7 3 -1 312.87 16.5
-7 -3 1 298.87 16.7
-7 -3 1 299.67 16.7
6 3 -1 102.99 8.2
6 3 -1 91.49 8.5
-6 -3 1 91.69 8.2
-6 -3 1 99.79 8.5
5 3 -1 210.88 11.4
5 3 -1 212.58 11.8
-5 -3 1 188.28 11.5
-5 -3 1 190.38 11.4
4 3 -1 573.34 26.1
4 3 -1 590.34 26.1
-4 -3 1 596.24 26.2
-4 -3 1 592.64 26.2
3 3 -1 60.99 5.5
3 3 -1 63.29 5.4
-3 -3 1 57.49 5.5
-3 -3 1 56.99 5.3
2 3 -1 3764.72 153.88
2 3 -1 3662.63 153.88
-2 -3 1 3904.81 153.98
-2 -3 1 3941.41 153.98
1 3 -1 89.29 5.4
1 3 -1 79.49 5.2
-1 -3 1 81.79 5.2
-1 -3 1 77.19 5.2
0 3 -1 682.03 28.2
0 3 -1 692.83 28.3
0 -3 1 684.33 28.2
0 -3 1 659.33 28.2
-1 3 -1 1030.8 41.9
-1 3 -1 1053.29 42
1 -3 1 1028 41.9
1 -3 1 1018.2 41.9
-2 3 -1 534.95 21.7
-2 3 -1 516.75 21.6
2 -3 1 548.65 21.7
2 -3 1 527.85 21.6
-4 3 -1 181.18 7.7
-4 3 -1 185.08 7.8
-5 3 -1 2583.84 104.29
-5 3 -1 2548.74 104.29
5 -3 1 2653.03 104.29
5 -3 1 2614.54 104.19
-6 3 -1 3137.39 123.79
-6 3 -1 3215.78 123.79
6 -3 1 3010.1 123.69
6 -3 1 2952.3 123.59
-7 3 -1 863.61 34.3
-7 3 -1 868.81 34.3
7 -3 1 782.82 34.3
7 -3 1 776.02 34.1
-8 3 -1 114.29 7.1
-8 3 -1 104.59 6.9
8 -3 1 111.09 7.2
8 -3 1 104.89 6.8
-9 3 -1 162.68 9.2
-9 3 -1 165.18 9.3
9 -3 1 139.19 8.7
9 -3 1 133.99 9.1
-10 3 -1 1647.64 69.59
-10 3 -1 1675.33 69.59
10 -3 1 1722.93 69.79
10 -3 1 1692.13 69.49
-11 3 -1 893.51 41.1
-11 3 -1 901.71 41.1
11 -3 1 1023.8 41.2
11 -3 1 1017.2 41.6
-12 3 -1 41.1 6.4
-12 3 -1 56.29 7.2
12 -3 1 46.9 6.4
12 -3 1 54.09 7.5
-13 3 -1 29.9 6.6
-13 3 -1 12.1 5.9
13 -3 1 14.5 6.4
13 -3 1 19.4 5.9
-14 3 -1 115.29 12.2
-14 3 -1 120.69 11.9
14 -3 1 104.79 11.3
14 -3 1 100.39 12.8
-15 3 -1 195.28 15
-15 3 -1 184.98 15
15 -3 1 177.08 14.4
15 -3 1 183.68 15.9
15 2 -1 19.7 11.6
15 2 -1 18.4 12.9
-15 -2 1 14.4 11
-15 -2 1 14.9 11
14 2 -1 50.29 11.4
14 2 -1 49.8 10.5
-14 -2 1 53.99 11.1
-14 -2 1 73.19 12
13 2 -1 357.56 22.5
13 2 -1 338.17 21.1
-13 -2 1 293.87 20.8
-13 -2 1 290.77 20.7
12 2 -1 7.7 6.7
12 2 -1 8.5 7.7
-12 -2 1 20.8 8.1
-12 -2 1 10.9 7.2
11 2 -1 62.29 9.7
11 2 -1 48.6 8.2
-11 -2 1 74.49 10.2
-11 -2 1 62.99 9.2
10 2 -1 1100.09 50.99
10 2 -1 1090.19 50.59
-10 -2 1 1249.88 51.29
-10 -2 1 1193.08 51.09
9 2 -1 1363.66 58.49
9 2 -1 1368.16 58.89
-9 -2 1 1343.07 58.69
-9 -2 1 1387.86 58.79
8 2 -1 853.81 36.7
8 2 -1 830.12 36.9
-8 -2 1 792.22 36.6
-8 -2 1 811.12 36.7
7 2 -1 66.29 7.9
7 2 -1 69.69 7.4
-7 -2 1 89.49 8.3
-7 -2 1 94.09 8.1
6 2 -1 1218.98 50.59
6 2 -1 1156.98 50.29
-6 -2 1 1213.28 50.49
-6 -2 1 1179.98 50.49
5 2 -1 199.28 10.5
5 2 -1 207.68 10.8
-5 -2 1 174.88 10.5
-5 -2 1 182.68 10.5
4 2 -1 2059.29 79.49
4 2 -1 2096.59 79.49
-4 -2 1 1795.92 79.19
-4 -2 1 1803.02 79.29
3 2 -1 84.49 5.7
3 2 -1 84.79 5.4
-3 -2 1 77.69 5.5
-3 -2 1 68.49 5.4
2 2 -1 2516.75 102.89
2 2 -1 2518.85 102.79
-2 -2 1 2542.05 102.89
-2 -2 1 2609.04 102.89
1 2 -1 1910.31 74.39
1 2 -1 1819.22 74.39
-1 -2 1 1864.61 74.39
-1 -2 1 1768.32 74.29
0 2 -1 1017.8 41.8
0 2 -1 1057.99 41.8
0 -2 1 1061.39 41.8
0 -2 1 986.9 41.7
-1 2 -1 684.53 26.5
-1 2 -1 639.14 26.4
1 -2 1 630.74 26.4
1 -2 1 665.73 26.4
-3 2 -1 135.79 6
-3 2 -1 145.69 6
3 -2 1 133.89 5.9
3 -2 1 135.29 6
-4 2 -1 141.89 6.6
-4 2 -1 135.19 6.6
4 -2 1 150.18 6.7
4 -2 1 144.09 6.6
-5 2 -1 1452.95 60.99
-5 2 -1 1425.86 60.99
5 -2 1 1541.65 60.99
5 -2 1 1600.14 61.19
-6 2 -1 1895.91 78.99
-6 2 -1 1904.01 78.99
6 -2 1 1969.5 78.99
6 -2 1 2019.5 79.19
-7 2 -1 223.88 11.8
-7 2 -1 230.48 11.9
7 -2 1 257.37 11.8
7 -2 1 258.57 12.1
-8 2 -1 526.45 22.7
-8 2 -1 525.15 22.7
8 -2 1 487.45 22.6
8 -2 1 488.05 22.4
-9 2 -1 320.47 15.1
-9 2 -1 330.67 15.2
9 -2 1 265.87 14.9
9 -2 1 262.97 14.5
-10 2 -1 1838.42 76.09
-10 2 -1 1868.41 76.19
10 -2 1 1793.12 76.19
10 -2 1 1842.72 75.99
-11 2 -1 1158.98 49.6
-11 2 -1 1146.79 49.6
11 -2 1 1137.59 49.7
11 -2 1 1179.28 49.4
-12 2 -1 191.88 13
-12 2 -1 194.98 13.4
12 -2 1 185.88 12.6
12 -2 1 170.28 13.4
-13 2 -1 175.58 13.5
-13 2 -1 179.38 14.1
13 -2 1 192.18 13.5
13 -2 1 184.48 14.7
-14 2 -1 348.97 20.7
-14 2 -1 370.36 21.3
14 -2 1 388.86 22.1
14 -2 1 361.96 20.6
-15 2 -1 184.78 16.3
-15 2 -1 168.48 15.5
15 -2 1 155.98 16.4
15 -2 1 144.59 16.7
15 1 -1 146.09 19
15 1 -1 119.79 15.8
-15 -1 1 157.98 18.8
-15 -1 1 157.28 17.5
14 1 -1 63.39 11.4
14 1 -1 71.39 11
-14 -1 1 57.19 10.2
-14 -1 1 82.09 12.2
13 1 -1 257.57 18.4
13 1 -1 245.28 17.5
-13 -1 1 223.68 17.7
-13 -1 1 240.88 18.1
12 1 -1 158.08 14.4
12 1 -1 153.48 13.6
-12 -1 1 147.59 13.7
-12 -1 1 144.09 13.8
11 1 -1 16.2 6.6
11 1 -1 10.7 5.8
-11 -1 1 12.1 6
-11 -1 1 20.5 6.9
10 1 -1 857.61 38.2
10 1 -1 875.91 37.9
-10 -1 1 797.32 37.9
-10 -1 1 828.02 37.9
9 1 -1 1023.7 44.4
9 1 -1 1002.3 44.1
-9 -1 1 1023.4 44.3
-9 -1 1 1002.4 44.3
8 1 -1 1103.09 45.5
8 1 -1 1106.59 45.8
-8 -1 1 1021.8 45.4
-8 -1 1 994.7 45.4
7 1 -1 103.09 8.4
7 1 -1 108.29 8.1
-7 -1 1 116.89 8.5
-7 -1 1 108.29 8.4
6 1 -1 540.95 25
6 1 -1 541.25 24.8
-6 -1 1 591.24 25.1
-6 -1 1 565.84 25
5 1 -1 564.54 25.2
5 1 -1 556.94 25.1
-5 -1 1 583.54 25.3
-5 -1 1 604.84 25.3
4 1 -1 310.77 14.1
4 1 -1 291.57 13.9
-4 -1 1 300.67 14
-4 -1 1 310.07 14.1
3 1 -1 840.92 33.7
3 1 -1 846.22 33.8
-3 -1 1 797.72 33.7
-3 -1 1 751.82 33.6
2 1 -1 379.96 17.2
2 1 -1 409.66 17.2
-2 -1 1 417.56 17.2
-2 -1 1 415.26 17.3
1 1 -1 975.7 39.3
1 1 -1 1049.09 39.3
-1 -1 1 967.5 39.3
-1 -1 1 884.61 39.2
-2 1 -1 698.43 28
-2 1 -1 710.33 28
2 -1 1 682.23 28
2 -1 1 670.03 28
-3 1 -1 471.55 19.7
-3 1 -1 485.55 19.8
3 -1 1 460.35 19.7
3 -1 1 478.65 19.8
-4 1 -1 1219.98 47.4
-4 1 -1 1214.18 47.4
4 -1 1 1103.19 47.2
4 -1 1 1097.49 47.3
-5 1 -1 2482.75 97.99
-5 1 -1 2456.45 97.99
5 -1 1 2412.46 97.99
5 -1 1 2328.67 97.79
-6 1 -1 545.85 23.9
-6 1 -1 558.14 24.1
6 -1 1 534.55 23.7
6 -1 1 542.65 24.1
-7 1 -1 153.58 9.3
-7 1 -1 152.98 9.2
7 -1 1 147.29 8.9
7 -1 1 155.08 9.5
-8 1 -1 106.69 8
-8 1 -1 110.39 8
8 -1 1 99.79 8.1
8 -1 1 101.99 7.7
-9 1 -1 83.89 8
-9 1 -1 86.59 7.9
9 -1 1 69.99 7.3
9 -1 1 57.79 7.8
-10 1 -1 87.69 8.8
-10 1 -1 73.29 8.7
10 -1 1 61.59 8
10 -1 1 60.39 8.5
-11 1 -1 280.67 15.7
-11 1 -1 285.67 15.8
11 -1 1 246.48 15.2
11 -1 1 237.18 15.8
-12 1 -1 77.59 10.3
-12 1 -1 74.29 10.6
12 -1 1 80.09 10.2
12 -1 1 74.49 11.1
-13 1 -1 443.46 23.6
-13 1 -1 419.66 23.7
13 -1 1 455.85 23.4
13 -1 1 450.95 24.4
-14 1 -1 502.85 27.4
-14 1 -1 531.95 27.9
14 -1 1 535.15 27.4
14 -1 1 535.65 28.5
-15 1 -1 153.48 17.6
-15 1 -1 169.08 17
15 -1 1 220.38 19.1
15 -1 1 225.28 20.6
15 0 -1 68.19 12.7
15 0 -1 91.09 13.1
-15 0 1 104.99 13.1
-15 0 1 73.79 11.4
14 0 -1 229.58 18.3
14 0 -1 227.68 16.8
-14 0 1 187.38 16.8
-14 0 1 199.88 17.7
13 0 -1 74.79 9.5
13 0 -1 85.69 10.7
-13 0 1 70.59 9.9
-13 0 1 53.09 8.9
12 0 -1 9.6 6.7
12 0 -1 12 6.4
-12 0 1 10.7 6
-12 0 1 12.1 6.6
11 0 -1 235.68 14.9
11 0 -1 245.08 15.4
-11 0 1 239.58 15.3
-11 0 1 233.98 15.4
10 0 -1 990 42.2
10 0 -1 960.9 42.4
-10 0 1 947.21 42.3
-10 0 1 952.7 42.3
9 0 -1 15.3 4.9
9 0 -1 13.5 4.4
-9 0 1 7.3 4.2
-9 0 1 10.9 4.5
8 0 -1 658.53 29.2
8 0 -1 661.33 29.4
-8 0 1 642.84 29.3
-8 0 1 666.33 29.4
7 0 -1 250.17 13
7 0 -1 258.17 13.3
-7 0 1 262.67 13.3
-7 0 1 253.17 13.2
-6 0 1 71.69 5.8
-6 0 1 63.99 5.7
5 0 -1 6 2.4
5 0 -1 9 2.5
-5 0 1 10.3 2.6
-5 0 1 9.9 2.6
4 0 -1 827.52 33.1
4 0 -1 823.22 33.2
-4 0 1 743.23 33
-4 0 1 781.82 33.1
2 0 -1 1525.35 66.29
2 0 -1 1584.64 66.29
-2 0 1 1709.93 66.39
-2 0 1 1766.82 66.39
-2 0 -1 3544.65 139.79
2 0 1 3424.66 139.79
-4 0 -1 1166.38 48.7
-4 0 -1 1173.18 48.7
4 0 1 1197.58 48.7
4 0 1 1192.68 48.8
-5 0 -1 1339.87 54.19
-5 0 -1 1309.77 54.19
5 0 1 1254.97 54.09
5 0 1 1338.17 54.29
-6 0 -1 1706.63 71.99
-6 0 -1 1689.73 71.99
6 0 1 1778.62 71.99
6 0 1 1825.12 72.29
-7 0 -1 369.06 17.9
-7 0 -1 370.06 17.9
7 0 1 368.86 17.7
7 0 1 386.06 18.2
-8 0 -1 93.49 8.1
-8 0 -1 96.29 8.2
8 0 1 77.39 7.4
8 0 1 87.79 8.3
-9 0 -1 267.57 15.3
-9 0 -1 256.27 15
9 0 1 286.97 15.5
9 0 1 276.17 14.9
-10 0 -1 262.77 15.8
-10 0 -1 269.07 15.8
10 0 1 275.67 15.7
10 0 1 277.37 16.3
-11 0 -1 54.59 8
-11 0 -1 65.29 8.6
11 0 1 49.6 8.1
11 0 1 75.69 8.7
-12 0 -1 144.99 13.4
-12 0 -1 152.98 13.3
12 0 1 148.89 14.2
12 0 1 157.68 13.2
-13 0 -1 4.8 7.2
-13 0 -1 8.1 7.2
13 0 1 -0.8 7.6
13 0 1 4.1 7
-14 0 -1 62.89 10.2
-14 0 -1 55.49 10.4
14 0 1 68.79 10.7
14 0 1 73.19 12.1
-15 0 -1 103.29 13.5
-15 0 -1 74.29 11.7
15 0 1 118.79 14.8
15 0 1 72.29 13.7
15 -1 -1 509.65 29.2
15 -1 -1 485.05 29.8
-15 1 1 580.94 29.1
-15 1 1 556.54 28.7
14 -1 -1 634.14 30.2
14 -1 -1 612.14 30.9
-14 1 1 569.44 30.3
-14 1 1 595.54 30.1
13 -1 -1 145.09 12.4
13 -1 -1 135.09 13.1
-13 1 1 98.19 12.6
-13 1 1 103.89 12.2
12 -1 -1 35.8 6.9
12 -1 -1 31.6 7.3
-12 1 1 16.3 6.4
-12 1 1 26.9 6.7
11 -1 -1 402.96 19.3
11 -1 -1 407.06 19.9
-11 1 1 344.87 19.4
-11 1 1 336.07 19.3
10 -1 -1 854.51 37.6
10 -1 -1 848.12 37.9
-10 1 1 865.51 37.9
-10 1 1 873.01 37.9
9 -1 -1 126.29 9
9 -1 -1 128.09 9.6
-9 1 1 140.29 9.5
-9 1 1 137.39 9.7
8 -1 -1 419.06 19.6
8 -1 -1 425.56 19.4
-8 1 1 406.46 19.5
-8 1 1 419.86 19.6
7 -1 -1 262.67 13
7 -1 -1 257.47 13.2
-7 1 1 271.97 13.2
-7 1 1 272.27 13.3
6 -1 -1 64.89 5.4
6 -1 -1 65.89 5.1
-6 1 1 68.89 5.4
-6 1 1 60.79 5.2
5 -1 -1 152.98 7.9
5 -1 -1 152.88 8
-5 1 1 152.88 8
-5 1 1 158.68 8
4 -1 -1 294.17 13.2
4 -1 -1 279.07 13.2
-4 1 1 308.67 13.3
-4 1 1 323.67 13.4
3 -1 -1 123.89 6.1
3 -1 -1 125.69 6
-3 1 1 127.79 6.2
-3 1 1 124.39 6.2
2 -1 -1 471.75 20.3
2 -1 -1 446.26 20.3
-2 1 1 519.75 20.3
-2 1 1 528.85 20.4
0 -1 -1 2560.74 111.39
0 -1 -1 2891.41 111.59
0 1 1 2829.02 111.59
0 1 1 2826.02 111.49
1 1 1 5636.24 225.68
-2 -1 -1 1366.46 54.89
-2 -1 -1 1356.26 54.79
2 1 1 1317.67 54.79
2 1 1 1324.17 54.79
-4 -1 -1 4378.76 180.48
-4 -1 -1 4442.36 180.48
4 1 1 4528.75 180.48
4 1 1 4567.64 180.58
-5 -1 -1 2210.58 92.39
-5 -1 -1 2182.78 92.39
5 1 1 2321.87 92.59
5 1 1 2327.27 92.49
-6 -1 -1 453.55 22.5
-6 -1 -1 445.96 22.5
6 1 1 551.14 22.8
6 1 1 527.15 23
-7 -1 -1 427.26 20.9
-7 -1 -1 443.06 20.9
7 1 1 435.16 21.1
7 1 1 437.96 20.7
-8 -1 -1 646.44 29.8
-8 -1 -1 639.44 29.7
8 1 1 650.23 29.9
8 1 1 663.93 29.6
-9 -1 -1 443.06 23.3
-9 -1 -1 424.36 23.3
9 1 1 506.25 23.5
9 1 1 529.45 24.2
-10 -1 -1 545.85 26.9
-10 -1 -1 532.75 26.9
10 1 1 576.04 26.9
10 1 1 540.95 27.2
-11 -1 -1 276.57 17.6
-11 -1 -1 266.97 17.2
11 1 1 267.67 17.9
11 1 1 284.37 17.1
-12 -1 -1 41.6 8.6
-12 -1 -1 39 8.4
12 1 1 43.6 8.3
12 1 1 65.39 10.6
-13 -1 -1 0.7 7.7
-13 -1 -1 -1.6 7.1
13 1 1 3.4 7.4
-14 -1 -1 53.99 11.3
-14 -1 -1 63.59 11.3
14 1 1 52.69 11.7
14 1 1 69.29 12.8
15 -2 -1 393.56 24.4
15 -2 -1 415.66 24.9
-15 2 1 443.36 24.1
-15 2 1 457.75 24.2
14 -2 -1 413.76 21.4
14 -2 -1 424.06 22.4
-14 2 1 366.26 21.6
-14 2 1 356.16 21.4
13 -2 -1 251.07 15.1
13 -2 -1 256.87 16.2
-13 2 1 213.18 15.3
-13 2 1 230.78 15.3
12 -2 -1 60.99 7.5
12 -2 -1 75.99 8.9
-12 2 1 53.59 7.6
-12 2 1 72.59 8.6
11 -2 -1 478.05 21.7
11 -2 -1 466.25 21.1
-11 2 1 390.66 21.1
-11 2 1 395.76 21.1
10 -2 -1 617.24 27.6
10 -2 -1 615.24 27.2
-10 2 1 599.94 27.4
-10 2 1 586.94 27.4
9 -2 -1 1900.51 78.69
9 -2 -1 1890.71 78.39
-9 2 1 1906.31 78.59
-9 2 1 1935.71 78.69
8 -2 -1 20.6 4.1
8 -2 -1 21.8 3.8
-8 2 1 26.4 4.3
-8 2 1 29.4 4.3
7 -2 -1 956.1 41.4
7 -2 -1 976 41.3
-7 2 1 1010.7 41.5
-7 2 1 1020.6 41.4
6 -2 -1 357.26 17.4
6 -2 -1 353.46 17.6
-6 2 1 444.76 17.8
-6 2 1 444.86 17.9
5 -2 -1 478.15 21.5
5 -2 -1 475.35 21.4
-5 2 1 535.05 21.6
-5 2 1 538.85 21.7
4 -2 -1 157.78 7.7
4 -2 -1 157.88 7.6
-4 2 1 158.88 7.6
-4 2 1 162.88 7.7
3 -2 -1 2367.46 96.39
3 -2 -1 2408.06 96.29
-3 2 1 2433.46 96.39
-3 2 1 2377.46 96.39
2 -2 -1 2327.87 94.79
-2 2 1 2377.76 94.79
-2 2 1 2360.86 94.69
0 -2 -1 1205.08 50.39
0 -2 -1 1181.18 50.19
0 2 1 1284.97 50.29
0 2 1 1252.87 50.39
-1 -2 -1 3054.09 118.19
-1 -2 -1 2905.01 117.99
1 2 1 2825.32 117.99
1 2 1 2917.11 118.19
-2 -2 -1 916.21 37.8
-2 -2 -1 902.11 37.7
2 2 1 898.71 37.8
2 2 1 883.61 37.7
-3 -2 -1 3972.4 153.28
-3 -2 -1 3889.11 153.18
3 2 1 3713.03 153.18
3 2 1 3587.74 153.08
-4 -2 -1 3467.75 140.99
-4 -2 -1 3489.85 140.89
4 2 1 3485.15 140.99
4 2 1 3457.35 140.99
-5 -2 -1 3402.76 140.89
-5 -2 -1 3435.76 140.89
5 2 1 3548.04 140.99
5 2 1 3474.75 140.99
-6 -2 -1 926.91 40.4
-6 -2 -1 914.71 40.4
6 2 1 927.41 40.6
6 2 1 947.31 40.3
-7 -2 -1 1469.15 61.19
-7 -2 -1 1446.36 61.09
7 2 1 1401.76 60.89
7 2 1 1446.96 61.29
-8 -2 -1 969.6 43
-8 -2 -1 965.4 43
8 2 1 968.1 42.8
8 2 1 986.6 43.3
-9 -2 -1 318.77 19.5
-9 -2 -1 321.97 19.5
9 2 1 412.06 19.8
9 2 1 391.96 20.6
-10 -2 -1 372.76 21.8
-10 -2 -1 388.96 22.1
10 2 1 424.96 21.9
10 2 1 431.16 22.7
-11 -2 -1 66.39 9.4
-11 -2 -1 76.69 10.4
11 2 1 79.89 11
11 2 1 98.29 11.2
-12 -2 -1 126.59 14.6
-12 -2 -1 117.49 14.9
12 2 1 137.89 14.3
12 2 1 145.09 16.2
-13 -2 -1 548.95 29.8
-13 -2 -1 552.74 30.1
13 2 1 534.35 30.9
13 2 1 542.05 29.6
-14 -2 -1 324.47 23.3
-14 -2 -1 301.87 22.9
14 2 1 293.77 25.2
14 2 1 303.37 25
15 -3 -1 92.29 11.6
15 -3 -1 91.89 13.4
-15 3 1 81.89 12
-15 3 1 96.99 12.7
14 -3 -1 143.09 13.2
14 -3 -1 137.29 11.9
-14 3 1 146.39 12.8
-14 3 1 142.19 12.5
13 -3 -1 77.79 9.3
13 -3 -1 76.89 10.6
-13 3 1 85.69 10.1
-13 3 1 73.39 9.8
12 -3 -1 125.19 10.5
12 -3 -1 125.09 9.5
-12 3 1 90.29 9.8
-12 3 1 95.29 9.7
11 -3 -1 305.67 16
11 -3 -1 316.37 15.5
-11 3 1 291.37 15.8
-11 3 1 292.47 15.9
10 -3 -1 731.43 32
10 -3 -1 764.72 32.6
-10 3 1 741.53 32.4
-10 3 1 730.63 32.6
9 -3 -1 2087.89 85.09
9 -3 -1 2087.79 84.79
-9 3 1 2025.1 84.99
-9 3 1 2108.79 85.09
8 -3 -1 135.09 7.9
8 -3 -1 134.19 8.3
-8 3 1 138.99 8.2
-8 3 1 136.69 8.2
7 -3 -1 2429.66 96.49
7 -3 -1 2467.55 96.59
-7 3 1 2277.97 96.49
-7 3 1 2348.67 96.59
6 -3 -1 2039.4 80.79
6 -3 -1 2018.4 80.69
-6 3 1 1945.61 80.69
-6 3 1 1962.6 80.79
5 -3 -1 2608.14 107.49
5 -3 -1 2526.75 107.39
-5 3 1 2792.72 107.59
-5 3 1 2743.33 107.49
4 -3 -1 177.28 9.1
4 -3 -1 183.38 9.3
-4 3 1 215.98 9.4
-4 3 1 230.08 9.6
3 -3 -1 318.07 13.4
-3 3 1 293.67 13.3
-3 3 1 296.27 13.2
2 -3 -1 1872.71 74.99
2 -3 -1 1896.11 75.19
-2 3 1 1783.32 74.99
0 -3 -1 5701.93 231.88
0 -3 -1 5902.61 231.98
0 3 1 5729.53 232.08
-1 -3 -1 721.23 31
-1 -3 -1 696.93 30.8
1 3 1 730.93 30.9
1 3 1 752.92 31.1
-2 -3 -1 274.57 13.7
-2 -3 -1 277.67 13.6
2 3 1 281.47 13.6
2 3 1 275.47 13.7
-3 -3 -1 1356.96 56.69
-3 -3 -1 1351.66 56.79
3 3 1 1339.17 56.69
3 3 1 1384.46 56.89
-4 -3 -1 1250.37 51.59
-4 -3 -1 1238.08 51.59
4 3 1 1188.98 51.69
4 3 1 1195.68 51.49
-5 -3 -1 131.29 9.3
-5 -3 -1 130.89 9.3
5 3 1 118.59 8.8
5 3 1 116.99 9.6
-6 -3 -1 269.47 15.1
-6 -3 -1 277.57 15.3
6 3 1 260.57 15.4
6 3 1 263.27 14.9
-7 -3 -1 615.04 29.9
-7 -3 -1 630.84 29.8
7 3 1 651.93 30.3
7 3 1 657.73 29.9
-8 -3 -1 140.69 12.1
-8 -3 -1 130.49 11.9
8 3 1 161.88 11.9
8 3 1 162.68 13.1
-9 -3 -1 191.08 15
-9 -3 -1 172.48 14.7
9 3 1 259.97 15.3
9 3 1 259.07 16.4
-10 -3 -1 86.29 12
-10 -3 -1 83.39 11.9
10 3 1 79.69 11.2
10 3 1 90.29 12.8
-11 -3 -1 103.49 13.8
-11 -3 -1 101.09 13.8
11 3 1 118.89 13.3
11 3 1 108.99 15
-12 -3 -1 520.25 28.6
-12 -3 -1 460.75 28.5
12 3 1 532.55 29.8
12 3 1 544.85 28.7
-13 -3 -1 889.41 44.1
-13 -3 -1 942.81 44.6
13 3 1 886.41 43.9
13 3 1 880.01 45.3
-14 -3 -1 186.68 20.4
-14 -3 -1 182.38 20.6
14 3 1 177.38 23.4
14 3 1 159.68 22.5
15 -4 -1 13.2 7.4
15 -4 -1 18.7 6.5
-15 4 1 7 6.3
-15 4 1 6.1 6.3
14 -4 -1 40.5 6.8
14 -4 -1 43.1 7.9
-14 4 1 52.39 7.7
-14 4 1 40.2 6.9
13 -4 -1 24 6.3
13 -4 -1 19.9 5.6
-13 4 1 22.4 6
-13 4 1 25.1 6.1
12 -4 -1 225.98 12.7
12 -4 -1 220.88 13.5
-12 4 1 221.58 13.1
-12 4 1 220.78 13.2
11 -4 -1 513.05 23.9
11 -4 -1 528.85 24.4
-11 4 1 541.85 24.4
-11 4 1 546.95 24.4
10 -4 -1 59.79 6.7
10 -4 -1 55.89 6.1
-10 4 1 52.59 6.4
-10 4 1 58.69 6.5
9 -4 -1 84.59 6.4
9 -4 -1 87.79 6.7
-9 4 1 77.39 6.7
-9 4 1 68.99 6.4
8 -4 -1 638.14 26.9
8 -4 -1 637.54 27.1
-8 4 1 615.34 27
-8 4 1 628.54 27.1
7 -4 -1 3407.76 135.39
7 -4 -1 3424.16 135.19
-7 4 1 3259.77 135.29
-7 4 1 3338.77 135.39
6 -4 -1 3174.58 122.29
6 -4 -1 3147.39 122.09
-6 4 1 2904.21 122.19
-6 4 1 2907.41 122.29
5 -4 -1 1635.34 70.39
-5 4 1 1778.12 70.39
-5 4 1 1783.12 70.49
4 -4 -1 671.73 29.2
-4 4 1 695.73 29.1
-4 4 1 724.33 29.3
3 -4 -1 1005.7 41.8
3 -4 -1 988.3 41.9
-3 4 1 1036.4 41.8
2 -4 -1 2914.11 121.39
2 -4 -1 2880.11 121.59
-2 4 1 3107.89 121.79
-2 4 1 3128.39 121.59
1 -4 -1 3689.73 155.98
1 -4 -1 3695.23 156.08
-1 4 1 3975.7 156.18
-1 4 1 4123.59 156.38
0 -4 -1 2081.49 81.19
0 -4 -1 2033.1 80.99
0 4 1 1910.01 81.09
0 4 1 1893.81 80.89
-1 -4 -1 942.31 40.7
-1 -4 -1 977.6 40.9
1 4 1 974.4 40.8
1 4 1 947.71 40.9
-2 -4 -1 1503.65 63.99
-2 -4 -1 1532.45 64.19
2 4 1 1554.84 64.29
2 4 1 1566.34 64.09
-3 -4 -1 2123.59 89.89
-3 -4 -1 2096.59 89.99
3 4 1 2290.67 90.29
3 4 1 2216.38 90.09
-4 -4 -1 892.41 38.3
-4 -4 -1 829.62 38
4 4 1 885.71 38.4
4 4 1 856.91 38
-5 -4 -1 50.69 7.1
-5 -4 -1 51.09 7.2
5 4 1 42.2 6.6
5 4 1 45.4 7.4
-6 -4 -1 482.75 24
-6 -4 -1 485.15 24
6 4 1 483.95 24.4
6 4 1 487.55 23.9
-7 -4 -1 133.59 11.7
-7 -4 -1 143.19 11.8
7 4 1 136.39 11.4
7 4 1 120.89 12
-8 -4 -1 256.27 16.7
-8 -4 -1 249.58 16.6
8 4 1 255.27 17.5
8 4 1 258.77 16.4
-9 -4 -1 79.09 10.1
-9 -4 -1 63.39 8.9
9 4 1 60.79 8.7
9 4 1 91.89 11.7
-10 -4 -1 20.7 7.9
-10 -4 -1 22.4 7.7
10 4 1 21.3 8.1
10 4 1 23 7.1
-11 -4 -1 14 8.5
-11 -4 -1 26 9.8
11 4 1 13.7 8.6
11 4 1 16.8 8.1
-12 -4 -1 231.48 20.3
-12 -4 -1 243.68 20.5
12 4 1 261.77 20.1
12 4 1 245.38 22.2
-13 -4 -1 435.66 27.9
-13 -4 -1 419.06 27.8
13 4 1 404.96 27.5
13 4 1 389.66 29.2
15 -5 -1 8.6 6.7
15 -5 -1 11.6 6.4
-15 5 1 10 6.6
-15 5 1 14.1 6.3
14 -5 -1 65.09 8
14 -5 -1 61.79 9.1
-14 5 1 52.29 7.4
-14 5 1 56.19 7.5
13 -5 -1 186.18 12.8
13 -5 -1 192.68 12.2
-13 5 1 198.28 12.6
-13 5 1 207.38 12.5
12 -5 -1 9.5 4.8
12 -5 -1 7.6 4.3
-12 5 1 2.8 4.4
-12 5 1 2.4 4.3
11 -5 -1 45.9 6.8
11 -5 -1 49.99 6.3
-11 5 1 58.99 7.1
-11 5 1 52.99 6.8
10 -5 -1 622.04 27
10 -5 -1 610.84 26.6
-10 5 1 610.94 26.9
-10 5 1 627.64 27
9 -5 -1 929.01 39.2
9 -5 -1 942.01 39.5
-9 5 1 955.5 39.6
-9 5 1 941.91 39.5
8 -5 -1 145.29 8.3
8 -5 -1 134.59 7.9
-8 5 1 147.79 8.5
-8 5 1 142.69 8.2
7 -5 -1 90.39 6.4
-7 5 1 102.29 6.4
-7 5 1 96.59 6.5
6 -5 -1 637.44 26.6
-6 5 1 627.54 26.7
-6 5 1 612.84 26.5
5 -5 -1 382.56 18.2
5 -5 -1 375.26 18.5
-5 5 1 450.85 18.4
-5 5 1 455.35 18.6
4 -5 -1 252.87 12.1
4 -5 -1 246.98 11.9
-4 5 1 239.18 11.6
-4 5 1 241.38 11.8
3 -5 -1 1556.24 64.79
3 -5 -1 1577.34 64.69
-3 5 1 1595.94 64.69
2 -5 -1 2294.67 94.69
2 -5 -1 2235.88 94.69
-2 5 1 2418.76 95.09
-2 5 1 2349.96 94.69
1 -5 -1 3068.59 126.49
1 -5 -1 2981.2 126.59
-1 5 1 3256.37 126.89
-1 5 1 3170.18 126.59
0 -5 -1 1178.18 49
0 -5 -1 1203.58 49
0 5 1 1116.89 48.8
0 5 1 1144.79 49.2
-1 -5 -1 1478.95 64.39
-1 -5 -1 1476.95 64.49
1 5 1 1598.74 64.59
1 5 1 1630.84 64.89
-2 -5 -1 1309.87 56.09
-2 -5 -1 1314.17 55.89
2 5 1 1305.47 56.29
2 5 1 1340.57 55.79
-3 -5 -1 1361.86 57.59
-3 -5 -1 1422.86 57.59
3 5 1 1300.37 57.39
3 5 1 1318.37 57.59
-4 -5 -1 1291.27 53.19
-4 -5 -1 1289.07 53.19
4 5 1 1145.79 52.79
4 5 1 1190.18 53.19
-5 -5 -1 50.09 7.7
-5 -5 -1 44.5 7.2
5 5 1 61.89 8.3
5 5 1 63.39 8.7
-6 -5 -1 169.18 13
-6 -5 -1 180.28 13
6 5 1 165.48 13.4
6 5 1 164.78 12.7
-7 -5 -1 554.94 28
-7 -5 -1 566.34 28.1
7 5 1 551.84 27.9
7 5 1 553.94 28.5
-8 -5 -1 20.6 7.4
-8 -5 -1 32.1 8.5
8 5 1 7.2 7.2
8 5 1 5 6.5
-9 -5 -1 12.6 7.2
-9 -5 -1 7 6.6
9 5 1 11.5 6.7
9 5 1 3.7 7.1
-10 -5 -1 62.39 11.1
-10 -5 -1 81.19 12.2
10 5 1 78.49 12.9
10 5 1 57.39 9.5
-11 -5 -1 159.48 17.5
-11 -5 -1 161.98 18.2
11 5 1 153.88 16.7
11 5 1 151.78 19.4
-12 -5 -1 14.2 9.7
-12 -5 -1 15.8 10.1
12 5 1 10 9.3
12 5 1 33.8 13.2
-13 -5 -1 77.29 14
-13 -5 -1 82.99 15.2
13 5 1 80.89 16.6
13 5 1 51.99 13.8
14 -6 -1 72.19 8.6
14 -6 -1 69.89 9.4
-14 6 1 65.79 8.5
-14 6 1 67.19 9.3
13 -6 -1 148.39 10
13 -6 -1 148.59 10.7
-13 6 1 139.19 10.1
-13 6 1 139.79 10.5
12 -6 -1 381.06 17.6
12 -6 -1 397.06 18.3
-12 6 1 365.36 17.9
-12 6 1 364.36 18.1
11 -6 -1 311.47 15.5
-11 6 1 321.97 15.4
-11 6 1 321.27 15.7
10 -6 -1 417.96 18.5
-10 6 1 386.96 18.3
-10 6 1 404.16 18.6
9 -6 -1 194.28 10.1
-9 6 1 178.58 10.1
-9 6 1 180.98 9.9
8 -6 -1 150.98 8.4
-8 6 1 131.29 8.2
-8 6 1 133.79 8.2
7 -6 -1 680.23 28.6
7 -6 -1 694.33 28.3
-7 6 1 638.34 28.3
-7 6 1 633.24 28
6 -6 -1 37.4 4.4
6 -6 -1 42 4.8
-6 6 1 34.3 4.9
-6 6 1 33.1 4
5 -6 -1 99.69 7
5 -6 -1 94.69 7
-5 6 1 95.39 6.5
-5 6 1 103.79 6.9
4 -6 -1 336.17 16.3
4 -6 -1 336.67 16.2
-4 6 1 353.86 16.2
3 -6 -1 306.97 15.1
3 -6 -1 300.97 15.2
-3 6 1 330.27 15.2
2 -6 -1 478.55 23.1
2 -6 -1 466.05 23.1
-2 6 1 555.24 23.9
-2 6 1 553.84 23.4
1 -6 -1 466.45 22.9
1 -6 -1 470.95 23
-1 6 1 531.05 23.2
-1 6 1 539.35 23.6
0 -6 -1 231.38 12.7
0 -6 -1 236.88 12.8
0 6 1 210.88 12.5
0 6 1 209.58 12.9
-1 -6 -1 639.94 29.4
-1 -6 -1 616.64 29.4
1 6 1 657.33 29.4
1 6 1 674.93 29.9
-2 -6 -1 1547.45 65.09
-2 -6 -1 1596.24 64.99
2 6 1 1470.85 64.69
2 6 1 1508.95 65.19
-3 -6 -1 889.41 39.7
-3 -6 -1 889.11 39.8
3 6 1 873.71 39.6
3 6 1 896.21 40
-4 -6 -1 745.83 33
-4 -6 -1 729.73 32.9
4 6 1 666.93 32.5
4 6 1 655.73 32.8
-5 -6 -1 87.39 10.7
-5 -6 -1 100.49 10.6
5 6 1 85.49 10.2
5 6 1 99.49 11.6
-6 -6 -1 467.95 24.9
-6 -6 -1 480.85 24.9
6 6 1 460.15 25.3
6 6 1 467.35 24.8
-7 -6 -1 1749.03 76.29
-7 -6 -1 1749.72 76.39
7 6 1 1761.02 76.79
7 6 1 1825.02 76.49
-8 -6 -1 633.54 32
-8 -6 -1 633.44 32
8 6 1 595.74 32.3
8 6 1 614.94 31.7
-9 -6 -1 21.9 9.4
-9 -6 -1 31 10
9 6 1 50.09 9.8
9 6 1 38.9 10.7
-10 -6 -1 76.79 11.8
-10 -6 -1 70.29 11.3
10 6 1 79.69 11.4
10 6 1 88.29 13.6
-11 -6 -1 334.67 24.8
-11 -6 -1 333.97 24.7
11 6 1 356.16 26.6
11 6 1 343.27 24.1
-12 -6 -1 240.18 23.1
-12 -6 -1 239.48 23.6
12 6 1 242.78 25.2
12 6 1 250.87 23
14 -7 -1 24.3 5.4
-14 7 1 22.4 5
-14 7 1 21.6 5.4
13 -7 -1 324.27 15.6
-13 7 1 306.57 15.4
-13 7 1 290.57 15.1
12 -7 -1 889.21 36.7
-12 7 1 882.81 36.8
-12 7 1 825.32 36.5
11 -7 -1 375.76 17.9
-11 7 1 399.86 18
-11 7 1 390.36 17.8
10 -7 -1 304.47 15.3
10 -7 -1 294.67 15.7
-10 7 1 354.96 15.6
-10 7 1 347.07 15.4
9 -7 -1 94.79 7.1
9 -7 -1 92.79 7.5
-9 7 1 73.99 6.9
-9 7 1 79.39 6.7
8 -7 -1 480.75 22.1
8 -7 -1 472.85 22.4
-8 7 1 527.95 22.2
-8 7 1 533.05 22.5
7 -7 -1 1168.48 47.6
7 -7 -1 1128.79 47.8
-7 7 1 1138.29 47.5
-7 7 1 1135.39 47.7
6 -7 -1 631.94 27.3
6 -7 -1 655.73 27.1
-6 7 1 594.94 26.8
-6 7 1 601.24 27.1
5 -7 -1 49.7 5.8
5 -7 -1 44.4 5.5
-5 7 1 52.49 5.7
-5 7 1 48.3 5.9
4 -7 -1 142.89 9.1
4 -7 -1 135.99 9
-4 7 1 125.49 8.8
3 -7 -1 525.15 23.7
3 -7 -1 531.65 23.5
-3 7 1 485.95 23.4
2 -7 -1 360.66 18.2
2 -7 -1 362.76 18.3
-2 7 1 392.56 19.1
-2 7 1 369.76 18.2
1 -7 -1 114.39 9.3
1 -7 -1 129.39 9.7
-1 7 1 122.99 9.3
-1 7 1 123.39 10.3
0 -7 -1 152.28 10.8
0 -7 -1 154.58 11
0 7 1 149.49 11.4
0 7 1 159.98 10.7
-1 -7 -1 195.18 12.5
-1 -7 -1 189.98 12.6
1 7 1 193.08 12.4
1 7 1 166.68 13
-2 -7 -1 420.06 20.8
-2 -7 -1 406.86 20.6
2 7 1 360.96 20.9
2 7 1 378.96 20.3
-3 -7 -1 527.95 25.7
-3 -7 -1 508.55 25.5
3 7 1 513.25 26
3 7 1 493.25 25.3
-4 -7 -1 86.39 10.6
-4 -7 -1 92.59 11.2
4 7 1 87.99 10.8
4 7 1 97.89 11.8
-5 -7 -1 61.19 9.1
5 7 1 69.69 10
5 7 1 55.69 8.5
-6 -7 -1 649.64 32.3
-6 -7 -1 635.14 32.1
6 7 1 629.34 32.7
6 7 1 651.43 32.2
7 7 1 163.18 15.5
7 7 1 180.18 16.7
-8 -7 -1 1026.5 46.6
-8 -7 -1 1034 46.6
8 7 1 922.11 46.6
8 7 1 901.41 45.7
-9 -7 -1 66.89 12.4
-9 -7 -1 72.09 12.7
9 7 1 103.29 15.2
9 7 1 100.79 13.6
-10 -7 -1 83.69 13.6
-10 -7 -1 78.09 12.8
10 7 1 53.09 11.1
10 7 1 53.79 12.9
-11 -7 -1 121.19 16.6
-11 -7 -1 97.39 15.4
11 7 1 138.29 19.1
11 7 1 128.89 16
-12 -7 -1 458.55 31.6
-12 -7 -1 423.56 31.9
12 7 1 498.75 31.2
12 7 1 464.45 34.1
-13 8 1 36.4 4.8
-13 8 1 41.6 6
12 -8 -1 320.87 14.9
12 -8 -1 298.57 15
-12 8 1 304.37 14.6
-12 8 1 315.17 14.9
11 -8 -1 127.49 8.5
11 -8 -1 119.89 8.9
-11 8 1 139.69 8.6
-11 8 1 138.59 8.3
10 -8 -1 39.6 4.9
10 -8 -1 32 4.9
-10 8 1 36.3 4.8
-10 8 1 36 4.6
9 -8 -1 64.49 7.1
9 -8 -1 61.19 6.9
-9 8 1 81.99 6.9
-9 8 1 77.39 6.8
8 -8 -1 1967.2 83.39
8 -8 -1 1944.31 83.59
-8 8 1 2182.08 83.69
-8 8 1 2076.89 83.39
7 -8 -1 1453.65 62.19
7 -8 -1 1486.05 62.09
-7 8 1 1502.95 61.99
-7 8 1 1558.94 62.29
6 -8 -1 268.17 13.5
6 -8 -1 269.27 13.5
-6 8 1 240.88 13.3
-6 8 1 228.98 12.8
5 -8 -1 103.39 8.7
5 -8 -1 99.89 8.4
-5 8 1 109.29 8.1
-5 8 1 104.89 8.3
4 -8 -1 466.55 21.7
4 -8 -1 442.86 21.5
-4 8 1 458.95 21.7
3 -8 -1 826.22 35.1
3 -8 -1 833.72 35.4
-3 8 1 760.22 35
-3 8 1 757.32 35.6
2 -8 -1 785.52 34.8
2 -8 -1 793.02 34.9
-2 8 1 753.32 35.3
-2 8 1 779.12 34.8
1 -8 -1 159.08 11.1
1 -8 -1 150.08 11.2
-1 8 1 133.89 10.7
-1 8 1 125.69 11.8
0 -8 -1 247.48 15.1
0 -8 -1 248.28 14.9
0 8 1 223.78 15.4
0 8 1 238.68 14.7
-1 -8 -1 330.47 18.2
-1 -8 -1 307.47 17.8
1 8 1 313.07 17.8
1 8 1 301.97 18.6
-2 -8 -1 91.29 11.1
-2 -8 -1 88.09 10.7
2 8 1 125.29 11
2 8 1 109.99 12.3
-3 -8 -1 49.7 8.1
-3 -8 -1 73.79 9.9
3 8 1 72.19 10.4
3 8 1 58.39 8.3
-4 -8 -1 72.49 10.2
-4 -8 -1 80.69 10.4
4 8 1 69.49 10.6
4 8 1 79.59 11.4
-5 -8 -1 322.67 20.7
-5 -8 -1 312.77 20.2
5 8 1 314.27 21.3
5 8 1 338.47 20.4
-6 -8 -1 151.68 15.8
-6 -8 -1 169.48 16.2
6 8 1 180.78 16.1
6 8 1 178.08 17.3
-7 -8 -1 159.48 16.9
-7 -8 -1 186.28 17.1
7 8 1 130.29 17.9
7 8 1 139.09 15.6
-8 -8 -1 139.09 17.1
8 8 1 85.69 12
8 8 1 75.79 12.4
-9 -8 -1 42.1 10.8
-9 -8 -1 56.89 13.3
9 8 1 65.69 13.3
9 8 1 41.1 12.2
-10 -8 -1 50.09 12.9
-10 -8 -1 43.3 13.3
10 8 1 18.4 10.8
10 8 1 20.9 14.5
-11 -8 -1 176.38 23.6
-11 -8 -1 200.08 24.3
11 8 1 210.98 22.7
11 8 1 181.58 26.3
-12 9 1 68.49 6.3
11 -9 -1 18.1 3.8
11 -9 -1 13 4.3
-11 9 1 22.8 4.4
-11 9 1 18.1 4
10 -9 -1 1.4 4
10 -9 -1 1.4 4
-10 9 1 0.2 3.7
-10 9 1 -0.8 3.6
9 -9 -1 37.8 5.2
9 -9 -1 28.5 5
-9 9 1 21.2 4.7
-9 9 1 21.6 4.5
8 -9 -1 337.37 16.7
8 -9 -1 354.76 16.7
-8 9 1 317.87 16.3
-8 9 1 325.37 16.5
7 -9 -1 427.36 19.6
7 -9 -1 427.06 19.8
-7 9 1 392.56 19.5
-7 9 1 383.36 19.2
6 -9 -1 187.48 11.5
6 -9 -1 205.58 11.8
-6 9 1 157.28 10.8
-6 9 1 158.98 11.2
5 -9 -1 375.26 19.1
5 -9 -1 373.06 19.2
-5 9 1 402.36 19.3
4 -9 -1 654.43 30.7
4 -9 -1 639.84 30.9
-4 9 1 750.42 31.3
3 -9 -1 336.37 17.7
3 -9 -1 327.67 17.6
-3 9 1 320.97 18.6
-3 9 1 314.17 17.5
2 -9 -1 930.31 43.9
2 -9 -1 959.2 43.9
-2 9 1 1050.09 44.9
-2 9 1 1055.29 44.3
1 -9 -1 375.96 20.4
1 -9 -1 354.76 20.3
-1 9 1 396.86 21.4
-1 9 1 387.06 20.4
0 -9 -1 62.39 8.3
0 -9 -1 65.79 10
0 9 1 73.69 9.8
0 9 1 72.39 9
-1 -9 -1 1231.78 55.29
-1 -9 -1 1263.77 55.39
1 9 1 1278.47 55.49
1 9 1 1255.27 55.89
-2 -9 -1 1592.74 69.79
-2 -9 -1 1557.74 69.49
2 9 1 1632.14 70.29
2 9 1 1654.83 69.79
-3 -9 -1 1199.58 55.19
-3 -9 -1 1192.68 54.99
3 9 1 1296.47 55.59
3 9 1 1242.98 55.89
-4 -9 -1 151.58 15.4
-4 -9 -1 134.39 14.6
4 9 1 165.78 15
4 9 1 152.48 16.2
-5 -9 -1 211.78 17.8
-5 -9 -1 217.78 18.3
5 9 1 217.88 17.9
5 9 1 237.78 19.6
-6 -9 -1 22.8 9.6
-6 -9 -1 12.4 8.1
6 9 1 10.9 7.9
6 9 1 19.1 10.5
-7 -9 -1 72.69 11.6
-7 -9 -1 59.69 11.2
7 9 1 57.99 12.1
7 9 1 68.79 12.3
-8 -9 -1 50.29 12.9
-8 -9 -1 64.69 14.4
8 9 1 74.09 13.6
8 9 1 44.5 13.2
-9 -9 -1 10.9 12.1
-9 -9 -1 2.5 11.3
9 9 1 11.8 12.4
9 9 1 10 10.9
-10 -9 -1 12.1 11.9
-10 -9 -1 10.3 11.7
10 9 1 22.9 14.4
10 9 1 13.3 11
11 -10 -1 50.49 6.8
11 -10 -1 53.69 7
-11 10 1 59.79 6.9
-11 10 1 55.79 6.4
10 -10 -1 52.09 6
10 -10 -1 42.3 5.9
-10 10 1 46.8 5.8
-10 10 1 42.6 5.7
9 -10 -1 40.9 6
9 -10 -1 37.7 6
-9 10 1 40.9 5.9
-9 10 1 38.5 5.6
8 -10 -1 188.98 12.2
8 -10 -1 196.18 12.2
-8 10 1 189.58 11.9
-8 10 1 181.28 11.8
7 -10 -1 19 5.8
7 -10 -1 18.9 5.5
-7 10 1 15.8 5
-7 10 1 12.4 5.1
6 -10 -1 28.2 6.2
6 -10 -1 29.6 6.3
-6 10 1 24.1 5.7
-6 10 1 23.8 5.6
5 -10 -1 632.34 29.6
5 -10 -1 636.14 29.8
-5 10 1 655.73 29.8
4 -10 -1 138.49 11.5
4 -10 -1 138.69 11.7
-4 10 1 153.98 11.8
3 -10 -1 371.76 20
3 -10 -1 385.06 20.3
-3 10 1 363.66 20
-3 10 1 359.66 21
2 -10 -1 514.05 25.7
2 -10 -1 496.65 25.5
-2 10 1 495.55 26.5
-2 10 1 516.65 25.6
1 -10 -1 428.96 23.2
1 -10 -1 442.96 23.3
-1 10 1 411.76 24
-1 10 1 442.36 23.3
0 -10 -1 95.39 12.2
0 -10 -1 88.99 11.7
0 10 1 97.49 13.6
0 10 1 102.39 12.1
-1 -10 -1 813.12 38
-1 -10 -1 804.12 38.1
1 10 1 769.22 38.7
1 10 1 792.02 37.9
-2 -10 -1 302.17 19.9
-2 -10 -1 324.27 20.5
2 10 1 275.47 21
2 10 1 318.77 20.1
-3 -10 -1 68.19 11.7
-3 -10 -1 79.89 11.6
3 10 1 84.09 12.2
3 10 1 67.19 11.5
-4 -10 -1 8.5 8.6
-4 -10 -1 4.2 7.9
4 10 1 4 8.8
4 10 1 8.9 8.7
-5 -10 -1 477.15 28
-5 -10 -1 472.85 27.7
5 10 1 437.16 28.9
5 10 1 492.05 28.4
-6 -10 -1 300.87 23.6
-6 -10 -1 281.07 22.3
6 10 1 314.47 25.1
6 10 1 311.07 22.8
-7 -10 -1 87.99 13.7
-7 -10 -1 94.29 14.8
7 10 1 151.08 21.1
7 10 1 136.29 19.3
-8 -10 -1 146.29 21.2
-8 -10 -1 148.39 21.5
8 10 1 145.59 20.8
-9 -10 -1 32.9 12.7
-9 -10 -1 84.59 17
9 10 1 71.39 18.7
9 10 1 42.4 12.3
11 -11 -1 1.9 4.4
11 -11 -1 1.9 4.5
-11 11 1 3.5 4.2
-11 11 1 5.5 4.4
10 -11 -1 189.28 11.7
10 -11 -1 177.28 11.7
-10 11 1 167.18 11.2
-10 11 1 162.78 11.2
9 -11 -1 179.98 13.1
9 -11 -1 191.78 13.1
-9 11 1 216.88 12.8
-9 11 1 222.48 12.9
8 -11 -1 532.45 26.2
8 -11 -1 540.25 26
-8 11 1 576.54 26
-8 11 1 575.84 26.2
7 -11 -1 50.99 7.6
7 -11 -1 44.1 7.3
-7 11 1 37.8 7
-7 11 1 37.3 6.5
6 -11 -1 305.87 17.6
6 -11 -1 298.57 17.5
-6 11 1 302.27 17.3
-6 11 1 296.87 16.7
5 -11 -1 4.1 6.2
5 -11 -1 3.8 5.9
-5 11 1 1.4 5.7
4 -11 -1 -2.7 5.9
4 -11 -1 1.6 6
-4 11 1 -1.2 5.6
3 -11 -1 85.89 11.5
3 -11 -1 82.29 11.5
-3 11 1 90.49 11.5
-3 11 1 107.79 12.6
2 -11 -1 4.1 6.7
2 -11 -1 2.3 6.9
-2 11 1 2.6 7.7
-2 11 1 4.1 6.2
1 -11 -1 -2.1 6.5
1 -11 -1 2.3 7
-1 11 1 -1.2 6.3
-1 11 1 3.4 7.8
0 -11 -1 14.4 7.8
0 -11 -1 7.4 7.8
0 11 1 8.2 9.3
0 11 1 10.2 7.6
-1 -11 -1 395.56 23.5
-1 -11 -1 397.66 23.3
1 11 1 353.46 24.4
1 11 1 359.76 22.8
-2 -11 -1 125.99 15.5
-2 -11 -1 126.49 15.8
2 11 1 125.49 17.2
-3 -11 -1 118.69 15.8
-3 -11 -1 123.19 16.7
3 11 1 107.99 16
3 11 1 72.19 12.2
-4 -11 -1 25.7 9.7
-4 -11 -1 34.4 11.2
4 11 1 42.1 10.4
4 11 1 61.89 13.7
-5 -11 -1 555.64 32.6
-5 -11 -1 542.75 32.8
5 11 1 594.74 34.7
5 11 1 592.94 33.4
-6 -11 -1 1046.9 53.19
-6 -11 -1 1118.49 53.19
6 11 1 1103.09 53.19
-7 -11 -1 595.84 36.4
-7 -11 -1 611.14 35.9
7 11 1 612.54 36.2
7 11 1 597.64 38
-8 -11 -1 49.4 15.8
-8 -11 -1 46.5 15.2
8 11 1 35.3 14.1
8 11 1 35.3 17.2
10 -12 -1 157.48 11.8
10 -12 -1 165.98 11.7
-10 12 1 134.49 11.2
-10 12 1 133.89 10.9
9 -12 -1 138.09 12.4
9 -12 -1 138.49 11.9
-9 12 1 127.89 11.6
-9 12 1 127.29 11.4
8 -12 -1 336.57 19.1
8 -12 -1 352.46 19.1
-8 12 1 334.67 18.5
-8 12 1 340.17 18.8
7 -12 -1 101.19 12.2
7 -12 -1 105.29 12
-7 12 1 97.89 11.1
-7 12 1 92.49 11.4
6 -12 -1 18.8 7.2
6 -12 -1 18.9 7.4
-6 12 1 13.1 6.8
-6 12 1 16.8 6.7
5 -12 -1 211.18 15.6
5 -12 -1 201.58 15.4
-5 12 1 191.08 15.3
4 -12 -1 293.67 19.1
4 -12 -1 286.87 19
-4 12 1 329.07 19.5
3 -12 -1 96.49 13.3
3 -12 -1 89.59 13
-3 12 1 109.39 15.6
-3 12 1 115.69 13.5
2 -12 -1 63.99 10.2
2 -12 -1 57.89 10.1
-2 12 1 59.59 11.4
-2 12 1 55.79 9.3
1 -12 -1 133.29 15.6
1 -12 -1 135.29 15.3
-1 12 1 121.69 17.3
-1 12 1 125.99 14.9
0 -12 -1 18.9 8.8
0 -12 -1 27.4 9.8
0 12 1 17.6 9.9
0 12 1 29.2 9.7
-1 -12 -1 147.89 17.3
-1 -12 -1 134.19 16.6
1 12 1 132.69 18.7
1 12 1 131.29 16.6
-2 -12 -1 9.4 9.1
-2 -12 -1 10.2 10.5
2 12 1 13.1 12.1
2 12 1 7 8.8
-3 -12 -1 16.2 10.4
-3 -12 -1 27.1 11.8
3 12 1 35.4 11.9
3 12 1 15.9 12.2
-4 -12 -1 86.89 14.3
-4 -12 -1 101.59 16.4
4 12 1 81.99 17.5
4 12 1 61.29 13.2
-5 -12 -1 258.57 23.7
-5 -12 -1 235.08 24.3
5 12 1 248.58 26.2
-6 -12 -1 684.53 38.1
-6 -12 -1 637.44 38.5
6 12 1 601.94 39.7
8 -13 -1 175.88 14.9
8 -13 -1 173.38 15.1
-8 13 1 199.88 14.5
-8 13 1 186.38 14.2
7 -13 -1 195.98 16.4
7 -13 -1 194.18 16.4
-7 13 1 196.88 15.4
-7 13 1 207.88 15.1
6 -13 -1 19.4 8.5
6 -13 -1 25.7 8.9
-6 13 1 23.9 8
-6 13 1 14.8 7.7
5 -13 -1 646.24 32.6
5 -13 -1 683.33 33.1
-5 13 1 638.34 32.5
4 -13 -1 860.81 41.1
4 -13 -1 881.61 40.9
-4 13 1 845.92 41
3 -13 -1 168.78 16.8
3 -13 -1 174.78 17.3
-3 13 1 175.18 16.8
-3 13 1 171.08 19.5
2 -13 -1 27.9 9.9
2 -13 -1 26.9 10
-2 13 1 20.7 9.5
-2 13 1 13.3 11.1
1 -13 -1 95.79 13.7
1 -13 -1 101.19 14.1
-1 13 1 139.49 17.3
-1 13 1 111.29 16.3
0 -13 -1 30 11
0 -13 -1 36.5 10.9
0 13 1 47.8 13.7
0 13 1 45.6 11.1
-1 -13 -1 56.69 13.2
-1 -13 -1 47.6 12
1 13 1 28.1 13.1
1 13 1 19.8 9.8
-2 -13 -1 89.59 15.4
-2 -13 -1 117.19 17
2 13 1 105.49 15.6
2 13 1 112.69 17.3
-3 -13 -1 19.7 12.5
-3 -13 -1 10 10.9
3 13 1 20.1 11.1
3 13 1 31 15.5
-4 -13 -1 79.49 16.9
-4 -13 -1 44.5 13.6
4 13 1 68.39 17.9
4 13 1 53.09 14.3
-5 -13 -1 26.7 13.9
-5 -13 -1 29.4 15.5
5 13 1 26.5 13.9
5 13 1 16.2 17
6 -14 -1 87.99 13.9
6 -14 -1 74.39 11.8
-6 14 1 80.39 11.3
-6 14 1 70.99 10.7
5 -14 -1 349.87 25.8
5 -14 -1 318.37 22.2
-5 14 1 323.57 22
4 -14 -1 316.67 25.5
4 -14 -1 316.97 22.3
-4 14 1 318.47 22.3
3 -14 -1 120.89 16.3
3 -14 -1 119.29 17.7
-3 14 1 123.09 17.5
2 -14 -1 -1.4 10.8
2 -14 -1 1.8 12.7
-2 14 1 0.2 12.2
-2 14 1 -4.1 9
1 -14 -1 145.89 19.6
1 -14 -1 118.29 16.5
-1 14 1 150.28 18.6
-1 14 1 95.79 16.2
0 -14 -1 554.24 33.7
0 -14 -1 565.44 35.7
0 14 1 577.54 36
0 14 1 586.34 33.4
-1 -14 -1 205.18 23.3
-1 -14 -1 199.48 25.2
1 14 1 172.98 21.6
1 14 1 169.28 25.4
-2 -14 -1 96.09 16.9
-2 -14 -1 88.29 16.6
2 14 1 106.69 16.6
2 14 1 77.59 16.9
2 15 -2 200.78 21.4
2 15 -2 163.28 24.7
-2 -15 2 204.38 23.3
-2 -15 2 218.88 25.9
1 15 -2 166.58 23.5
1 15 -2 161.18 19.5
-1 -15 2 208.28 21.9
-1 -15 2 192.88 23.6
0 15 -2 43.4 10.8
0 15 -2 73.49 15.8
0 -15 2 70.29 14.6
0 -15 2 52.69 12.9
-1 15 -2 161.08 21.8
-1 15 -2 172.78 18.2
1 -15 2 182.98 20.2
1 -15 2 179.78 21.7
-2 15 -2 223.38 22.2
-2 15 -2 217.68 18.6
2 -15 2 225.08 21.8
2 -15 2 209.98 19.7
-3 15 -2 6.2 7.9
-3 15 -2 -0.1 11.3
3 -15 2 2.2 9.5
3 -15 2 2.2 11
-4 15 -2 201.78 16.1
-4 15 -2 178.98 19.8
4 -15 2 184.08 17.1
4 -15 2 184.48 20.1
-5 15 -2 130.59 13.9
5 -15 2 122.29 14.9
5 -15 2 96.59 14.4
5 14 -2 40.2 13.4
5 14 -2 59.99 17.6
-5 -14 2 65.09 16.6
-5 -14 2 45.3 13.1
4 14 -2 132.99 18.8
4 14 -2 144.19 19.8
-4 -14 2 150.08 20.9
-4 -14 2 151.38 21.7
3 14 -2 32.4 11.5
3 14 -2 43.7 14.8
-3 -14 2 29.7 11.6
-3 -14 2 42.3 13.7
2 14 -2 166.38 21.9
2 14 -2 186.98 19.2
-2 -14 2 177.78 20.6
-2 -14 2 195.48 20.3
1 14 -2 715.33 39.6
1 14 -2 778.22 38.2
-1 -14 2 762.62 38.4
-1 -14 2 714.03 38.5
0 14 -2 654.53 33.5
0 14 -2 649.04 35.4
0 -14 2 640.34 33.7
0 -14 2 593.24 33.5
-1 14 -2 281.07 19.6
-1 14 -2 277.87 22.4
1 -14 2 261.77 20.7
1 -14 2 285.87 20.3
-2 14 -2 17.4 8
-2 14 -2 16.1 10.3
2 -14 2 14.1 9.1
2 -14 2 21.5 8.7
-3 14 -2 169.38 17.9
-3 14 -2 168.48 14.8
3 -14 2 156.18 15.8
3 -14 2 169.48 15.5
-4 14 -2 518.95 25.1
-4 14 -2 477.45 27.1
4 -14 2 441.96 25.1
4 -14 2 455.25 25
-5 14 -2 198.98 14.1
5 -14 2 170.48 15
5 -14 2 180.48 14.8
-6 14 -2 97.59 11.4
6 -14 2 115.79 12.4
6 -14 2 116.49 11.9
-7 14 -2 133.09 10.9
-7 14 -2 123.79 10.8
7 -14 2 117.29 11.2
7 -14 2 118.69 12.1
-8 14 -2 91.59 8.8
-8 14 -2 84.89 8.9
8 -14 2 87.09 8.9
8 -14 2 89.59 9.6
7 13 -2 143.69 19.2
7 13 -2 97.99 18.3
-7 -13 2 145.59 18.8
-7 -13 2 152.48 19.2
6 13 -2 119.29 16.6
6 13 -2 141.89 20.7
-6 -13 2 136.39 19.1
-6 -13 2 118.99 16.6
5 13 -2 20.7 12.3
5 13 -2 18.6 10.1
-5 -13 2 20.8 11
-5 -13 2 23.6 10.4
4 13 -2 21.1 10
4 13 -2 12.8 12
-4 -13 2 8.5 9.5
-4 -13 2 12 10.5
3 13 -2 35.3 10.6
3 13 -2 24.7 11.3
-3 -13 2 19.6 10
-3 -13 2 22.2 9.3
2 13 -2 137.29 16.3
2 13 -2 132.59 18.5
-2 -13 2 157.08 17.4
-2 -13 2 156.68 17.4
1 13 -2 568.34 29.1
1 13 -2 523.95 30.2
-1 -13 2 501.15 28.7
-1 -13 2 503.65 29
0 13 -2 475.15 25
0 13 -2 451.05 26.5
0 -13 2 410.96 24.7
0 -13 2 393.36 25
-1 13 -2 44 10.3
-1 13 -2 50.59 9.1
1 -13 2 63.89 9.9
1 -13 2 67.39 10.6
-2 13 -2 338.47 21.8
-2 13 -2 356.76 20.2
2 -13 2 327.67 20
2 -13 2 308.67 20.3
-3 13 -2 457.75 25.7
-3 13 -2 470.35 24.1
3 -13 2 460.35 24.3
3 -13 2 448.36 24.4
-4 13 -2 554.04 29
-4 13 -2 560.24 27.6
4 -13 2 585.24 28
4 -13 2 578.64 28.1
-5 13 -2 172.18 12.1
5 -13 2 140.69 12.2
5 -13 2 139.89 12.5
-6 13 -2 0.6 4.9
6 -13 2 2.3 5.7
6 -13 2 -1.1 5.1
-7 13 -2 10.2 4.8
-7 13 -2 9 5.1
7 -13 2 2.6 4.9
7 -13 2 2.8 5.5
-8 13 -2 419.56 20
-8 13 -2 419.76 19.9
8 -13 2 476.95 20.3
8 -13 2 451.05 19.9
8 12 -2 32 14.3
8 12 -2 14.2 14.6
-8 -12 2 28.6 14
-8 -12 2 36.5 14.3
7 12 -2 205.38 22.2
7 12 -2 189.98 23.8
-7 -12 2 182.38 21.5
-7 -12 2 186.78 22.2
6 12 -2 186.38 20.2
6 12 -2 183.78 22.2
-6 -12 2 144.69 20.4
-6 -12 2 154.68 19.4
5 12 -2 483.85 28.3
5 12 -2 462.65 29.4
-5 -12 2 433.96 27.9
-5 -12 2 451.45 28.3
4 12 -2 395.76 26.2
4 12 -2 391.26 24.8
-4 -12 2 373.36 24.4
-4 -12 2 357.46 24.7
3 12 -2 17.8 8.4
3 12 -2 31.9 10.5
-3 -12 2 36.3 10.3
-3 -12 2 17.8 8.2
2 12 -2 181.68 18.1
2 12 -2 211.18 16.9
-2 -12 2 186.78 17
-2 -12 2 200.58 16.9
1 12 -2 73.99 11.6
1 12 -2 59.69 9.4
-1 -12 2 91.99 13.4
-1 -12 2 75.59 10.2
0 12 -2 340.67 20.4
0 12 -2 325.97 21.5
0 -12 2 364.86 21
0 -12 2 349.27 20.6
-1 12 -2 38.2 9.4
-1 12 -2 27.5 7.1
1 -12 2 30.6 7.9
1 -12 2 30.4 7.4
-2 12 -2 333.47 19
-2 12 -2 320.07 20.4
2 -12 2 340.37 19.4
2 -12 2 336.07 19.1
-3 12 -2 384.36 22.3
-3 12 -2 391.96 21.1
3 -12 2 407.86 21.4
3 -12 2 433.16 21.4
-4 12 -2 231.58 14.6
-4 12 -2 231.28 16.1
4 -12 2 256.97 15
4 -12 2 259.07 15.3
-5 12 -2 33 6
5 -12 2 30.5 6.5
5 -12 2 25.7 5.9
-6 12 -2 62.59 7.6
6 -12 2 53.59 6.9
6 -12 2 56.69 8
-7 12 -2 77.09 7.4
-7 12 -2 77.29 7.4
7 -12 2 95.99 8.3
7 -12 2 91.69 7.9
10 11 -2 308.07 26.7
10 11 -2 317.47 31.6
-10 -11 2 306.07 29.1
-10 -11 2 322.87 28.6
9 11 -2 292.17 25.7
9 11 -2 264.87 27.7
-9 -11 2 298.47 26.4
-9 -11 2 290.47 26.2
8 11 -2 -0.2 10.3
8 11 -2 8.4 12.9
-8 -11 2 5.4 10.5
-8 -11 2 0.6 11.3
7 11 -2 404.76 25.8
7 11 -2 355.26 27
-7 -11 2 362.86 25.2
-7 -11 2 337.07 25.8
6 11 -2 555.14 31.6
6 11 -2 584.14 33
-6 -11 2 560.64 31.9
-6 -11 2 564.84 31.7
5 11 -2 538.85 29.9
5 11 -2 542.55 30.8
-5 -11 2 554.54 29.9
-5 -11 2 508.65 29.7
4 11 -2 331.67 22.6
4 11 -2 350.46 21.7
-4 -11 2 326.47 21.8
-4 -11 2 318.77 21.4
3 11 -2 313.77 19.2
3 11 -2 288.37 20
-3 -11 2 236.58 18.3
-3 -11 2 250.17 18.8
2 11 -2 1743.33 70.39
2 11 -2 1683.93 70.79
-2 -11 2 1522.85 69.69
-2 -11 2 1506.45 69.69
1 11 -2 547.15 27.7
1 11 -2 571.24 27.1
-1 -11 2 476.65 26.6
-1 -11 2 486.95 26.5
0 11 -2 564.04 28.5
0 11 -2 555.34 29.3
0 -11 2 626.54 29.1
0 -11 2 593.14 28.7
-1 11 -2 297.17 18.1
-1 11 -2 294.77 17
1 -11 2 296.77 17.1
1 -11 2 266.17 17
-2 11 -2 134.59 12.6
-2 11 -2 140.19 11.2
2 -11 2 133.19 11.1
2 -11 2 148.89 11.8
-3 11 -2 68.79 8.7
-3 11 -2 64.49 8.2
3 -11 2 46.6 7
3 -11 2 46.6 7
-4 11 -2 15.4 6.1
-4 11 -2 15.8 5
4 -11 2 24.7 5.9
4 -11 2 18.3 5.2
-5 11 -2 150.68 10.2
5 -11 2 157.68 10.3
5 -11 2 155.28 10.4
-6 11 -2 42.4 6.2
-6 11 -2 44.7 6.4
6 -11 2 43.6 6.5
6 -11 2 47.1 7
-7 11 -2 131.29 8
-7 11 -2 140.59 8.2
7 -11 2 138.39 8.2
7 -11 2 127.09 8.3
11 10 -2 92.89 20.4
11 10 -2 93.99 17.4
-11 -10 2 94.69 18.1
-11 -10 2 97.19 18.4
10 10 -2 129.29 19.3
10 10 -2 84.29 16
-10 -10 2 86.29 15.5
-10 -10 2 111.99 17.4
9 10 -2 62.09 11.7
9 10 -2 79.99 16
-9 -10 2 95.09 14.8
-9 -10 2 65.29 12.8
8 10 -2 250.47 22.7
8 10 -2 232.48 20.7
-8 -10 2 215.48 20.5
-8 -10 2 217.88 21
7 10 -2 999.1 46.8
7 10 -2 932.91 47.3
-7 -10 2 1011.5 46.9
-7 -10 2 925.31 46.6
6 10 -2 1109.09 51.99
6 10 -2 1125.39 51.39
-6 -10 2 1073.99 51.19
-6 -10 2 1110.29 51.49
5 10 -2 211.98 17.1
5 10 -2 226.08 18.5
-5 -10 2 204.38 17.5
-5 -10 2 209.48 17
4 10 -2 32.1 9.5
4 10 -2 17.2 6.8
-4 -10 2 22.7 7.5
-4 -10 2 26.9 8.5
3 10 -2 542.55 27.6
3 10 -2 535.25 28.2
-3 -10 2 532.65 27.6
-3 -10 2 529.65 27.5
2 10 -2 2554.44 103.19
2 10 -2 2500.05 103.59
-2 -10 2 2366.26 102.79
-2 -10 2 2419.66 102.99
1 10 -2 1492.25 65.39
1 10 -2 1552.94 65.99
-1 -10 2 1533.85 65.59
-1 -10 2 1526.55 65.49
0 10 -2 1394.76 61.69
0 10 -2 1394.66 62.19
0 -10 2 1479.15 61.89
0 -10 2 1511.15 62.09
-1 10 -2 424.46 20.8
-1 10 -2 424.66 21.6
1 -10 2 397.86 20.9
1 -10 2 391.06 20.6
-2 10 -2 1157.08 51.19
-2 10 -2 1155.38 51.69
2 -10 2 1233.68 51.29
2 -10 2 1245.78 51.39
-3 10 -2 3193.58 135.59
-3 10 -2 3260.67 135.29
3 -10 2 3448.65 135.39
3 -10 2 3380.76 135.39
-4 10 -2 713.73 32.5
-4 10 -2 704.83 31.8
4 -10 2 726.83 31.8
4 -10 2 762.52 32
-5 10 -2 444.16 20.1
5 -10 2 436.36 20.1
5 -10 2 434.76 20.1
-6 10 -2 185.38 9.7
-6 10 -2 175.78 9.8
6 -10 2 188.18 9.8
6 -10 2 181.98 10
-7 10 -2 3.6 2.6
-7 10 -2 1 2.4
7 -10 2 3.6 2.4
7 -10 2 3 2.7
11 9 -2 327.57 25.5
11 9 -2 299.27 28.2
-11 -9 2 344.57 27.6
-11 -9 2 325.77 26.9
10 9 -2 179.08 19.8
10 9 -2 186.98 22.7
-10 -9 2 173.68 21
-10 -9 2 186.18 21.1
9 9 -2 57.99 12.6
9 9 -2 61.39 11
-9 -9 2 51.59 11.7
-9 -9 2 47.5 11.1
8 9 -2 140.19 18.2
8 9 -2 151.98 16.4
-8 -9 2 152.78 17
-8 -9 2 144.99 17
7 9 -2 6.9 8
7 9 -2 5.9 7.9
-7 -9 2 9 7.6
-7 -9 2 7.7 8.1
6 9 -2 152.48 15.8
6 9 -2 142.09 14.4
-6 -9 2 136.89 14.9
-6 -9 2 137.89 14.5
5 9 -2 86.39 13.1
5 9 -2 88.39 11.9
-5 -9 2 92.09 12
-5 -9 2 89.79 12.7
4 9 -2 31.2 6.6
4 9 -2 47.1 9.4
-4 -9 2 32.8 8.1
-4 -9 2 24.5 6.5
3 9 -2 107.89 11.3
3 9 -2 105.89 12.4
-3 -9 2 157.38 12.1
-3 -9 2 143.49 12.6
2 9 -2 641.64 31.6
2 9 -2 641.04 32.2
-2 -9 2 710.53 32
-2 -9 2 720.43 32.3
1 9 -2 658.43 30.3
1 9 -2 651.53 30.7
-1 -9 2 637.84 30.2
-1 -9 2 643.04 30.4
0 9 -2 43.9 6.2
0 9 -2 35.7 6.5
0 -9 2 29.2 5.9
0 -9 2 37.1 6.1
-1 9 -2 481.75 22.4
-1 9 -2 448.76 22.7
1 -9 2 478.35 22.4
1 -9 2 461.95 22.5
-2 9 -2 2165.88 89.89
2 -9 2 2176.38 89.89
2 -9 2 2207.98 89.89
-3 9 -2 4182.88 170.98
-3 9 -2 4214.38 170.78
3 -9 2 4211.88 170.68
3 -9 2 4277.87 170.78
-4 9 -2 1184.28 50.29
-4 9 -2 1179.48 49.9
4 -9 2 1215.78 49.99
4 -9 2 1211.18 49.99
-5 9 -2 600.84 25.8
5 -9 2 598.94 25.8
5 -9 2 594.44 25.7
-6 9 -2 637.94 26.8
-6 9 -2 629.64 26.7
6 -9 2 655.33 26.8
6 -9 2 633.94 26.8
12 8 -2 260.07 27.3
12 8 -2 291.07 24.5
-12 -8 2 277.77 25.7
-12 -8 2 278.07 26.1
11 8 -2 628.34 37.1
11 8 -2 678.73 35.3
-11 -8 2 579.94 35.4
-11 -8 2 613.34 35.9
10 8 -2 171.68 18.1
10 8 -2 157.18 20.4
-10 -8 2 170.28 19.1
-10 -8 2 166.98 19.4
9 8 -2 94.39 14.5
9 8 -2 108.89 15
-9 -8 2 111.89 16
-9 -8 2 124.09 16.2
8 8 -2 420.86 25.9
8 8 -2 469.35 25.3
-8 -8 2 424.66 25.4
-8 -8 2 413.66 25.4
7 8 -2 719.43 36.2
7 8 -2 779.12 37.2
-7 -8 2 729.93 36.5
-7 -8 2 754.72 36.7
6 8 -2 27.9 7.9
6 8 -2 26.8 7.4
-6 -8 2 20.1 7.5
-6 -8 2 8.7 6.4
5 8 -2 21.6 6.4
5 8 -2 17.3 6.5
-5 -8 2 20.6 6.4
-5 -8 2 20.2 6.5
4 8 -2 31 7.8
4 8 -2 32.7 6.7
-4 -8 2 44.9 8.1
-4 -8 2 32.1 6.7
3 8 -2 227.48 15.3
3 8 -2 239.28 14.7
-3 -8 2 236.28 14.8
-3 -8 2 257.37 15.4
2 8 -2 544.45 26.6
2 8 -2 534.35 27
-2 -8 2 569.34 26.8
-2 -8 2 617.94 27.2
1 8 -2 37.7 5.7
1 8 -2 45.5 6.9
-1 -8 2 28 5.4
-1 -8 2 35.7 6
0 8 -2 847.42 35.9
0 8 -2 830.02 36.2
0 -8 2 803.82 35.7
0 -8 2 777.72 35.7
-1 8 -2 910.81 38.4
-1 8 -2 889.51 38.1
1 -8 2 881.01 38.1
1 -8 2 846.92 37.9
-2 8 -2 625.14 27.6
-2 8 -2 643.74 28
2 -8 2 621.64 27.6
2 -8 2 621.84 27.7
-3 8 -2 1099.19 44.5
-3 8 -2 1073.59 44.2
3 -8 2 1034.2 44.1
3 -8 2 1011.1 44.1
-4 8 -2 912.81 38.3
-4 8 -2 938.91 38
4 -8 2 878.71 37.9
4 -8 2 904.41 38
-5 8 -2 29.7 3.9
5 -8 2 38.3 4
5 -8 2 34.1 4.2
13 7 -2 463.95 30.7
13 7 -2 477.75 33.5
-13 -7 2 457.45 31.8
-13 -7 2 463.85 31.7
12 7 -2 799.22 40.4
12 7 -2 769.82 42.2
-12 -7 2 724.03 40.7
-12 -7 2 776.42 41.2
11 7 -2 689.73 35.1
11 7 -2 654.73 36.5
-11 -7 2 646.84 35.6
-11 -7 2 628.44 35.5
10 7 -2 153.68 18.1
10 7 -2 180.08 16.7
-10 -7 2 153.88 17.4
-10 -7 2 148.59 17.4
9 7 -2 278.37 21.2
9 7 -2 292.07 20.1
-9 -7 2 313.77 20.8
-9 -7 2 316.27 21
8 7 -2 2172.98 88.29
8 7 -2 2059.79 88.49
-8 -7 2 2009.2 88.09
-8 -7 2 1995.3 87.89
7 7 -2 1339.97 58.89
7 7 -2 1333.67 58.39
-7 -7 2 1320.07 58.49
-7 -7 2 1298.07 58.39
6 7 -2 719.03 35.6
6 7 -2 726.73 36.2
-6 -7 2 802.52 36.2
-6 -7 2 809.92 36.2
5 7 -2 181.28 13.8
5 7 -2 193.68 13.2
-5 -7 2 187.98 13.4
-5 -7 2 180.08 13.5
4 7 -2 675.33 34
4 7 -2 687.83 34.5
-4 -7 2 825.32 34.8
-4 -7 2 824.12 34.9
3 7 -2 2690.93 111.99
3 7 -2 2611.64 111.69
-3 -7 2 2791.42 111.89
-3 -7 2 2748.32 111.79
2 7 -2 766.92 33
2 7 -2 786.72 33.7
-2 -7 2 691.83 33.2
-2 -7 2 693.23 32.7
1 7 -2 570.04 26
1 7 -2 553.04 25.7
-1 -7 2 563.84 25.8
-1 -7 2 570.54 25.8
0 7 -2 169.98 10.4
0 7 -2 168.68 10
0 -7 2 163.18 9.8
0 -7 2 159.78 10
-1 7 -2 278.77 13.7
-1 7 -2 264.87 13.9
1 -7 2 276.07 13.7
1 -7 2 288.87 13.9
-2 7 -2 1344.97 56.39
-2 7 -2 1370.36 56.59
2 -7 2 1388.86 56.49
2 -7 2 1362.46 56.39
-3 7 -2 421.26 19.5
-3 7 -2 421.86 19
3 -7 2 442.36 19.3
3 -7 2 444.76 19.1
-4 7 -2 395.16 17.7
4 -7 2 429.66 17.8
4 -7 2 408.26 17.7
-5 7 -2 197.68 9.2
-5 7 -2 199.58 9.3
5 -7 2 215.98 9.3
5 -7 2 228.08 9.4
13 6 -2 266.07 24.9
13 6 -2 256.77 22.9
-13 -6 2 241.08 23.2
-13 -6 2 236.38 23.4
12 6 -2 162.38 20.7
12 6 -2 174.98 18.2
-12 -6 2 158.58 19.2
-12 -6 2 182.08 19.5
11 6 -2 15.5 9.4
11 6 -2 13.3 10.7
-11 -6 2 22.5 10.2
-11 -6 2 27.4 9.9
10 6 -2 108.89 15.5
10 6 -2 108.59 14
-10 -6 2 138.09 15.3
-10 -6 2 107.19 14.8
9 6 -2 708.43 35.3
9 6 -2 695.53 35.9
-9 -6 2 769.02 36
-9 -6 2 737.93 35.9
8 6 -2 1043.1 50.69
8 6 -2 1089.69 50.19
-8 -6 2 1188.88 50.89
-8 -6 2 1165.38 50.79
7 6 -2 988.4 45.9
7 6 -2 984.2 46.3
-7 -6 2 1085.39 46.6
-7 -6 2 1051.99 46.5
6 6 -2 641.04 31.6
6 6 -2 625.24 31
-6 -6 2 701.93 31.6
-6 -6 2 691.93 31.7
5 6 -2 37 6.3
5 6 -2 26.2 6
-5 -6 2 35.9 6.4
-5 -6 2 37.3 6.1
4 6 -2 4125.19 171.28
4 6 -2 4124.59 171.58
-4 -6 2 4261.97 171.48
-4 -6 2 4319.67 171.48
3 6 -2 4734.73 199.38
3 6 -2 4789.52 199.28
-3 -6 2 5095.19 199.48
-3 -6 2 5064.79 199.48
2 6 -2 249.38 13.2
2 6 -2 264.07 14.6
-2 -6 2 242.58 14.6
-2 -6 2 213.28 12.8
1 6 -2 180.08 10.1
1 6 -2 165.58 10.3
-1 -6 2 170.28 10
-1 -6 2 177.68 10.2
0 6 -2 51.49 5.3
0 6 -2 46.4 5.8
0 -6 2 72.09 5.6
-1 6 -2 491.45 22.3
-1 6 -2 501.45 22.5
1 -6 2 519.15 22.4
1 -6 2 534.45 22.5
-2 6 -2 391.06 17.3
-2 6 -2 387.46 17.1
2 -6 2 395.86 17.2
2 -6 2 377.16 17.1
-3 6 -2 121.99 6.7
-3 6 -2 130.19 7
3 -6 2 131.99 6.9
3 -6 2 134.79 6.7
-4 6 -2 334.57 14.4
4 -6 2 334.87 14.4
4 -6 2 357.66 14.5
-13 6 -2 27.8 4.1
-14 6 -2 40.9 5
14 -6 2 27.8 5.2
14 5 -2 104.09 16
-14 -5 2 83.29 13.6
-14 -5 2 58.39 13
13 5 -2 42.7 11.5
13 5 -2 67.49 14.5
-13 -5 2 73.79 12.7
-13 -5 2 48.8 11.5
12 5 -2 67.49 11.1
12 5 -2 70.49 12.5
-12 -5 2 42.9 10
-12 -5 2 77.49 12.7
11 5 -2 143.99 16.5
11 5 -2 143.19 15.4
-11 -5 2 145.29 15.9
-11 -5 2 146.39 16
10 5 -2 32.9 8.4
10 5 -2 37.2 9.4
-10 -5 2 46 9.9
-10 -5 2 33.9 8.4
9 5 -2 685.03 34.9
9 5 -2 702.13 34.5
-9 -5 2 759.32 35.1
-9 -5 2 739.63 34.9
8 5 -2 1033 48.2
8 5 -2 1038.5 47.7
-8 -5 2 1091.49 48.1
-8 -5 2 1135.19 48.3
7 5 -2 132.79 11.9
7 5 -2 140.59 11.3
-7 -5 2 144.09 11.5
-7 -5 2 131.59 11.5
6 5 -2 247.58 14.2
6 5 -2 245.58 14.8
-6 -5 2 225.48 14.3
-6 -5 2 230.68 14.4
5 5 -2 534.75 25.4
5 5 -2 527.15 24.9
-5 -5 2 538.95 25.1
-5 -5 2 514.55 25.1
4 5 -2 1253.57 48.9
4 5 -2 1252.17 48.6
-4 -5 2 1014.1 48.1
-4 -5 2 1005.2 48.2
3 5 -2 2909.81 117.79
3 5 -2 2939.91 117.69
-3 -5 2 2872.51 117.69
-3 -5 2 2803.72 117.69
2 5 -2 1358.76 55.89
2 5 -2 1341.27 55.79
-2 -5 2 1303.17 55.79
-2 -5 2 1338.97 55.79
1 5 -2 21.4 3.6
1 5 -2 28.1 4.2
-1 -5 2 27.7 4.1
-1 -5 2 25 3.8
0 5 -2 190.48 10.4
0 5 -2 190.28 10.6
0 -5 2 236.88 10.8
0 -5 2 237.58 10.7
1 -5 2 217.18 10.3
1 -5 2 214.78 10.2
-2 5 -2 317.67 13.9
-2 5 -2 330.17 14
2 -5 2 319.77 13.9
2 -5 2 309.87 13.9
-3 5 -2 910.81 36
-3 5 -2 898.61 35.9
3 -5 2 873.81 35.9
3 -5 2 850.81 35.9
-9 5 -2 41.5 4.2
-9 5 -2 38.5 3.9
9 -5 2 39.6 3.7
9 -5 2 42.5 4.3
-10 5 -2 8.2 2.8
10 -5 2 6.5 2.6
10 -5 2 6 3.1
-11 5 -2 197.98 10.6
-11 5 -2 203.28 10.7
11 -5 2 206.08 10.3
11 -5 2 209.18 11
-12 5 -2 142.09 9.3
-12 5 -2 151.08 9.5
12 -5 2 161.28 10.1
12 -5 2 163.38 9.2
-13 5 -2 49.6 6
-13 5 -2 50.59 7.3
13 -5 2 56.59 7
13 -5 2 59.39 7
-14 5 -2 167.98 11.4
-14 5 -2 173.18 11.3
14 -5 2 164.48 12.1
14 -5 2 168.58 11
14 4 -2 789.22 40.6
14 4 -2 749.03 39.8
-14 -4 2 724.13 39.2
-14 -4 2 726.83 39.5
13 4 -2 411.96 25.5
13 4 -2 397.06 26.4
-13 -4 2 399.06 25.7
-13 -4 2 374.56 25.5
12 4 -2 104.49 15.9
12 4 -2 117.89 15.2
-12 -4 2 160.98 16
-12 -4 2 147.49 16.5
11 4 -2 73.59 11
11 4 -2 48.4 10
-11 -4 2 83.79 11.6
-11 -4 2 81.59 11.2
10 4 -2 364.56 22.4
10 4 -2 381.46 21.9
-10 -4 2 407.06 22.3
-10 -4 2 400.06 22.2
9 4 -2 148.09 12.7
9 4 -2 158.98 13.6
-9 -4 2 147.79 12.9
-9 -4 2 145.99 12.9
8 4 -2 108.29 11.2
8 4 -2 124.89 10.8
-8 -4 2 117.39 11
-8 -4 2 112.59 10.9
7 4 -2 164.98 11.6
7 4 -2 174.28 12.5
-7 -4 2 169.68 11.9
-7 -4 2 167.28 12.1
6 4 -2 779.22 36.1
6 4 -2 793.82 35.4
-6 -4 2 801.42 36
-6 -4 2 810.52 35.6
5 4 -2 741.53 33.3
5 4 -2 750.22 33.6
-5 -4 2 753.12 33.6
-5 -4 2 771.02 33.5
4 4 -2 13.1 4.2
4 4 -2 8.8 3.1
-4 -4 2 15.6 3.5
-4 -4 2 21.2 4.4
3 4 -2 305.57 14.4
3 4 -2 308.77 14.6
-3 -4 2 283.07 14.3
-3 -4 2 272.17 14.3
2 4 -2 627.84 26.7
2 4 -2 616.04 26.6
-2 -4 2 610.74 26.6
-2 -4 2 596.94 26.6
1 4 -2 39.8 4.2
1 4 -2 35.3 4
-1 -4 2 37 4.2
-1 -4 2 36.6 4.1
0 4 -2 1836.82 73.49
0 4 -2 1776.12 73.39
0 -4 2 1826.52 73.49
0 -4 2 1793.32 73.39
-1 4 -2 2668.33 115.89
-1 4 -2 2633.54 115.79
1 -4 2 3088.39 115.99
1 -4 2 3145.19 115.99
-2 4 -2 418.96 20
-2 4 -2 415.46 20.1
2 -4 2 560.94 20.2
2 -4 2 559.94 20.2
-7 4 -2 349.87 13.3
7 -4 2 256.77 13.1
-8 4 -2 293.77 13.6
-8 4 -2 293.57 13.6
8 -4 2 315.87 13.8
8 -4 2 308.47 13.5
-9 4 -2 88.09 6
-9 4 -2 86.29 6
9 -4 2 57.79 5.5
9 -4 2 63.29 6
-10 4 -2 429.46 19.2
-10 4 -2 421.96 19.2
10 -4 2 400.76 18.9
10 -4 2 434.66 19.4
-11 4 -2 84.59 8.1
-11 4 -2 84.49 7.9
11 -4 2 122.59 8.7
11 -4 2 120.19 8
-12 4 -2 31.3 5.4
-12 4 -2 23.4 5.2
12 -4 2 35.5 6.3
12 -4 2 36.1 5.4
-13 4 -2 4.4 5
-13 4 -2 9.3 5.4
13 -4 2 7 4.9
13 -4 2 2.4 5.6
-14 4 -2 8.6 6
14 -4 2 13.7 5.7
14 -4 2 17.7 7
15 3 -2 76.39 14.5
15 3 -2 55.19 14.5
-15 -3 2 85.29 14.3
-15 -3 2 70.69 14.5
14 3 -2 452.85 27.4
14 3 -2 458.05 28.5
-14 -3 2 433.46 28
-14 -3 2 425.66 27.1
13 3 -2 373.26 25.1
13 3 -2 375.66 24.4
-13 -3 2 418.76 24.9
-13 -3 2 420.66 25.3
12 3 -2 751.12 38.3
12 3 -2 733.23 38.9
-12 -3 2 865.51 39.2
-12 -3 2 871.51 39.3
11 3 -2 312.17 20.3
11 3 -2 330.47 19.7
-11 -3 2 321.77 20
-11 -3 2 314.27 19.7
10 3 -2 918.51 43.4
10 3 -2 930.41 43.1
-10 -3 2 976.6 43.5
-10 -3 2 990.6 43.6
9 3 -2 3311.17 138.39
9 3 -2 3286.17 138.59
-9 -3 2 3432.06 138.69
-9 -3 2 3430.66 138.69
8 3 -2 1197.48 51.89
8 3 -2 1195.58 51.49
-8 -3 2 1193.98 51.69
-8 -3 2 1177.28 51.69
7 3 -2 398.26 20.9
7 3 -2 391.86 20.6
-7 -3 2 440.86 21.2
-7 -3 2 463.15 21.2
6 3 -2 40.1 5.7
6 3 -2 22.4 4.7
-6 -3 2 35.8 5.7
-6 -3 2 21.7 4.5
5 3 -2 101.89 8.3
5 3 -2 104.59 8
-5 -3 2 137.59 8.6
-5 -3 2 135.09 8.7
4 3 -2 29.5 4.4
4 3 -2 39 4.8
3 3 -2 317.97 15
3 3 -2 314.07 15.1
-3 -3 2 328.97 15.1
-3 -3 2 322.47 15.1
2 3 -2 610.54 25.3
2 3 -2 594.64 25.2
-2 -3 2 560.54 25.2
-2 -3 2 588.34 25.3
1 3 -2 64.89 4.7
1 3 -2 79.99 4.9
-1 -3 2 69.19 4.7
-1 -3 2 70.79 4.8
0 3 -2 4851.51 194.38
-2 3 -2 1784.22 66.19
2 -3 2 1569.54 66.19
2 -3 2 1608.84 66.19
-4 3 -2 450.65 18.4
-5 3 -2 907.91 40.3
-5 3 -2 947.81 40.3
5 -3 2 1028.2 40.3
5 -3 2 1092.29 40.5
-6 3 -2 2785.02 109.29
-6 3 -2 2841.12 109.39
6 -3 2 2603.84 109.19
6 -3 2 2634.94 109.39
-7 3 -2 636.74 25.7
-7 3 -2 663.83 25.8
7 -3 2 546.95 25.4
7 -3 2 570.74 25.7
-8 3 -2 31.3 4.7
-8 3 -2 33.2 4.8
8 -3 2 36.7 4.6
8 -3 2 33.3 4.6
-9 3 -2 22.7 4.1
-9 3 -2 22.5 4.2
9 -3 2 20.7 4
9 -3 2 14.8 4.2
-10 3 -2 1801.82 76.59
-10 3 -2 1802.22 76.59
10 -3 2 1918.51 76.89
10 -3 2 1916.61 76.59
-11 3 -2 1003.6 44
-11 3 -2 1033.5 44.2
11 -3 2 1039.4 43.9
11 -3 2 1043.8 44.4
-12 3 -2 280.77 16.4
-12 3 -2 289.47 16.1
12 -3 2 307.37 16.8
12 -3 2 305.07 16
-13 3 -2 35.7 6.7
-13 3 -2 37.1 7.1
13 -3 2 36.7 6.8
13 -3 2 24.6 7
-14 3 -2 104.39 12.2
-14 3 -2 110.49 11.5
14 -3 2 91.69 12.7
14 -3 2 84.69 11.2
15 2 -2 62.29 12.9
15 2 -2 64.79 13.8
-15 -2 2 83.49 12.7
-15 -2 2 115.99 15.1
14 2 -2 109.19 13.9
14 2 -2 129.99 16.2
-14 -2 2 113.49 16
-14 -2 2 131.89 17.2
13 2 -2 297.87 19.8
13 2 -2 324.27 21
-13 -2 2 264.67 20.2
-13 -2 2 276.27 19.8
12 2 -2 276.97 17.4
12 2 -2 267.07 18.3
-12 -2 2 206.68 17.2
-12 -2 2 222.48 17.1
11 2 -2 102.89 11.8
11 2 -2 75.39 11.1
-11 -2 2 86.39 11.6
-11 -2 2 99.19 11.6
10 2 -2 1731.93 75.59
10 2 -2 1719.43 75.19
-10 -2 2 1839.82 75.79
-10 -2 2 1828.92 75.59
9 2 -2 3554.94 149.19
9 2 -2 3617.74 148.99
-9 -2 2 3668.93 149.29
-9 -2 2 3733.23 149.29
8 2 -2 1271.87 52.69
8 2 -2 1262.07 52.39
-8 -2 2 1183.28 52.39
-8 -2 2 1173.38 52.39
7 2 -2 246.38 15.1
7 2 -2 246.98 14
-7 -2 2 270.27 14.5
-7 -2 2 283.77 15.1
6 2 -2 548.65 26.1
6 2 -2 565.44 26.9
-6 -2 2 602.34 27
-6 -2 2 621.04 26.5
5 2 -2 755.92 31.6
5 2 -2 773.22 31.8
-5 -2 2 684.63 31.4
-5 -2 2 695.03 31.4
4 2 -2 900.11 43.1
4 2 -2 893.61 43.1
-4 -2 2 1165.08 43.6
-4 -2 2 1184.08 43.6
3 2 -2 1088.19 46
3 2 -2 1100.79 46
-3 -2 2 1131.39 46
-3 -2 2 1124.19 46.1
2 2 -2 1292.27 52.29
2 2 -2 1278.37 52.29
-2 -2 2 1310.37 52.29
-2 -2 2 1227.28 52.19
1 2 -2 883.01 35.5
1 2 -2 895.31 35.6
-1 -2 2 809.32 35.5
-1 -2 2 872.81 35.5
0 2 -2 1859.01 76.69
0 2 -2 1885.91 76.59
0 -2 2 1972.9 76.69
0 -2 2 1905.61 76.69
-1 2 -2 1938.31 77.49
-1 2 -2 1864.41 77.49
1 -2 2 1999.8 77.59
-2 2 -2 212.88 8.6
-2 2 -2 197.18 8.5
2 -2 2 196.58 8.5
2 -2 2 194.98 8.4
-3 2 -2 275.77 11.9
-3 2 -2 281.47 12
3 -2 2 290.97 12
3 -2 2 280.67 11.9
-4 2 -2 83.89 4.8
-4 2 -2 88.79 4.8
4 -2 2 96.79 5
4 -2 2 94.49 4.8
-5 2 -2 1582.44 66.09
-5 2 -2 1543.95 66.09
5 -2 2 1711.53 66.29
5 -2 2 1679.13 66.19
-6 2 -2 913.51 38.5
-6 2 -2 901.41 38.5
6 -2 2 965 38.7
6 -2 2 923.31 38.4
-7 2 -2 225.28 10.8
-7 2 -2 219.78 10.7
7 -2 2 193.88 10.4
7 -2 2 189.48 10.7
-8 2 -2 260.67 13.2
-8 2 -2 269.97 13.4
8 -2 2 258.97 13.1
8 -2 2 258.57 13.5
-9 2 -2 701.73 29.8
-9 2 -2 696.63 29.7
9 -2 2 643.84 29.7
9 -2 2 641.04 29.4
-10 2 -2 879.11 39.1
-10 2 -2 887.71 39.2
10 -2 2 923.31 39.1
10 -2 2 915.71 39.4
-11 2 -2 881.71 37.5
-11 2 -2 882.41 37.5
11 -2 2 804.72 37
11 -2 2 802.02 37.5
-12 2 -2 184.28 13
-12 2 -2 193.48 13.4
12 -2 2 185.08 13.8
12 -2 2 166.68 12.6
-13 2 -2 133.69 12.4
-13 2 -2 140.09 13.1
13 -2 2 145.29 12.5
13 -2 2 154.68 13.9
-14 2 -2 351.46 20.8
-14 2 -2 374.96 21.5
14 -2 2 362.26 22
14 -2 2 352.96 21.3
15 1 -2 72.09 12.8
15 1 -2 63.09 13
-15 -1 2 50.49 10.9
-15 -1 2 48.1 11.7
14 1 -2 11.6 7.9
14 1 -2 14.3 8.8
-14 -1 2 25.4 9.8
-14 -1 2 22.2 9.1
13 1 -2 31.8 9
13 1 -2 33.4 8.1
-13 -1 2 30.8 8.5
-13 -1 2 23.1 7.8
12 1 -2 42.8 8.1
12 1 -2 39.8 8.9
-12 -1 2 30.6 7.6
-12 -1 2 34.3 8.3
11 1 -2 204.88 14.1
11 1 -2 199.08 14.6
-11 -1 2 200.08 14.3
-11 -1 2 182.08 14.3
10 1 -2 93.59 9.6
10 1 -2 93.49 10.1
-10 -1 2 85.89 10
-10 -1 2 70.19 9.7
9 1 -2 1480.05 63.09
9 1 -2 1462.35 62.79
-9 -1 2 1484.25 62.99
-9 -1 2 1520.25 63.09
8 1 -2 1202.88 52.09
8 1 -2 1213.28 51.89
-8 -1 2 1242.28 52.19
-8 -1 2 1234.58 52.09
7 1 -2 160.08 9.9
7 1 -2 154.08 10.2
-7 -1 2 176.18 10.3
-7 -1 2 155.98 10
6 1 -2 345.47 16.4
6 1 -2 336.47 16.5
-6 -1 2 340.87 16.4
-6 -1 2 348.57 16.5
-5 -1 2 49.9 5.1
-5 -1 2 45.6 5.1
4 1 -2 3811.22 164.48
4 1 -2 3814.22 164.48
-4 -1 2 4302.27 164.68
-4 -1 2 4419.46 164.68
-3 -1 2 7692.63 307.97
2 1 -2 2405.86 94.09
-2 -1 2 2232.88 93.99
-2 -1 2 2360.16 94.09
1 1 -2 3882.71 155.58
0 1 -2 1267.07 48.6
0 1 -2 1317.27 48.6
0 -1 2 1051.09 48.5
0 -1 2 1174.98 48.6
-2 1 -2 3443.26 132.39
-2 1 -2 3336.37 132.29
2 -1 2 3246.48 132.39
2 -1 2 3171.68 132.19
-3 1 -2 2273.57 91.29
-3 1 -2 2286.67 91.29
3 -1 2 2261.07 91.29
3 -1 2 2233.28 91.29
-4 1 -2 573.44 22.6
-4 1 -2 571.44 22.6
4 -1 2 476.25 22.4
4 -1 2 489.75 22.3
-5 1 -2 1701.33 67.69
-5 1 -2 1698.43 67.69
5 -1 2 1620.84 67.69
5 -1 2 1596.14 67.49
-6 1 -2 1075.89 44.1
-6 1 -2 1064.19 44
6 -1 2 1047.4 44.1
6 -1 2 1020.3 43.9
-7 1 -2 39.7 5.6
-7 1 -2 43.2 5.6
7 -1 2 45.1 5.4
7 -1 2 41.7 5.2
-8 1 -2 227.98 12.5
-8 1 -2 224.98 12.5
8 -1 2 224.58 12.7
8 -1 2 221.98 12.2
-9 1 -2 151.18 10.1
-9 1 -2 142.09 10
9 -1 2 116.99 10
9 -1 2 131.59 9.5
-10 1 -2 58.49 8.5
-10 1 -2 58.39 8.6
10 -1 2 72.19 8.3
10 -1 2 58.09 8.8
-11 1 -2 29.4 6.5
-11 1 -2 28.3 6.6
11 -1 2 18.6 5.8
11 -1 2 16.5 6.5
-12 1 -2 79.99 11.1
-12 1 -2 83.79 10.9
12 -1 2 90.09 10.9
12 -1 2 77.79 11.9
-13 1 -2 178.48 15
-13 1 -2 187.78 15.3
13 -1 2 193.48 16.3
13 -1 2 201.08 15.1
-14 1 -2 227.78 17.5
-14 1 -2 239.48 18.1
14 -1 2 248.68 19
14 -1 2 228.38 19
15 0 -2 177.98 20.4
15 0 -2 176.58 18.7
-15 0 2 224.38 18.4
-15 0 2 215.78 18.6
14 0 -2 303.07 19.7
14 0 -2 292.37 20.6
-14 0 2 291.87 20.1
-14 0 2 285.27 19.8
13 0 -2 86.09 11.8
13 0 -2 90.19 13.1
-13 0 2 88.89 12.8
-13 0 2 84.29 12.2
12 0 -2 184.28 13.6
12 0 -2 189.18 14.6
-12 0 2 188.48 14.3
-12 0 2 185.08 14.4
11 0 -2 175.28 13
11 0 -2 177.38 12.5
-11 0 2 167.98 12.9
-11 0 2 167.58 13
10 0 -2 233.28 14.4
10 0 -2 227.58 13.8
-10 0 2 231.78 14.4
-10 0 2 243.28 14.4
9 0 -2 50.29 6.4
9 0 -2 37.3 6
-9 0 2 42.1 6.1
-9 0 2 35.4 5.9
8 0 -2 566.94 25.3
8 0 -2 539.55 24.9
-8 0 2 542.45 25.1
-8 0 2 547.15 25
7 0 -2 442.66 20.4
7 0 -2 440.96 20.6
-7 0 2 448.46 20.6
-7 0 2 448.26 20.5
6 0 -2 36.8 5.1
6 0 -2 32 4.7
-6 0 2 48 5.2
-6 0 2 54.69 5.3
5 0 -2 226.38 12.3
5 0 -2 228.48 12.2
-5 0 2 287.17 12.6
-5 0 2 298.27 12.7
4 0 -2 1428.96 59.69
4 0 -2 1422.26 59.79
-4 0 2 1485.35 59.79
-4 0 2 1512.65 59.89
3 0 -2 1305.97 52.69
3 0 -2 1346.97 52.59
-3 0 2 1251.07 52.59
-3 0 2 1255.97 52.59
2 0 -2 347.27 15.9
2 0 -2 316.17 15.8
-2 0 2 422.86 16.1
-2 0 2 412.56 16
1 0 -2 1645.44 68.59
1 0 -2 1817.12 68.59
-1 0 2 1699.03 68.59
-1 0 2 1639.04 68.59
-1 0 -2 1549.34 64.79
-1 0 -2 1601.94 64.99
1 0 2 1623.64 64.99
1 0 2 1634.14 64.89
-2 0 -2 2473.65 98.79
-2 0 -2 2446.26 98.69
2 0 2 2417.06 98.69
2 0 2 2450.75 98.89
-3 0 -2 2116.39 85.19
-3 0 -2 2181.58 85.29
3 0 2 2057.59 85.19
3 0 2 2041.8 85.09
-4 0 -2 3373.76 131.69
-4 0 -2 3328.67 131.59
4 0 2 3146.09 131.59
4 0 2 3180.78 131.59
-5 0 -2 4054.09 161.98
-5 0 -2 4077.59 162.08
5 0 2 4023.7 162.08
5 0 2 3892.21 161.98
-6 0 -2 210.88 12
-6 0 -2 216.48 12
6 0 2 244.38 12.5
6 0 2 245.98 12.1
-7 0 -2 190.28 11.1
-7 0 -2 184.18 11
7 0 2 180.88 10.7
7 0 2 182.48 11.3
-8 0 -2 179.18 11.6
-8 0 -2 189.68 11.7
8 0 2 194.08 12.1
8 0 2 179.18 11.3
-9 0 -2 451.85 23
-9 0 -2 458.15 23.1
9 0 2 503.65 23
9 0 2 484.15 23.5
-10 0 -2 284.87 16.6
-10 0 -2 281.97 16.7
10 0 2 283.57 17
10 0 2 287.87 16.3
-11 0 -2 105.39 11.4
-11 0 -2 88.29 11
11 0 2 94.59 12
11 0 2 98.49 10.7
-12 0 -2 23.6 7.2
-12 0 -2 7.2 6.6
12 0 2 14.9 6.6
12 0 2 19 8
-13 0 -2 28.2 8.3
-13 0 -2 29.7 8.4
13 0 2 27.1 8.3
13 0 2 20.3 9
-14 0 -2 19 8.7
-14 0 -2 9.1 8.9
14 0 2 14.9 10.1
14 0 2 11.9 10.8
15 -1 -2 564.34 31.3
15 -1 -2 561.74 31.8
-15 1 2 632.84 31.1
-15 1 2 615.04 30.9
14 -1 -2 523.35 26.4
14 -1 -2 533.05 27.7
-14 1 2 524.45 27.1
-14 1 2 473.05 26.7
13 -1 -2 241.78 16.2
13 -1 -2 228.38 15
-13 1 2 182.78 15.1
-13 1 2 184.68 15.1
12 -1 -2 95.39 10.4
12 -1 -2 104.99 11.2
-12 1 2 101.99 11
-12 1 2 88.59 10.9
11 -1 -2 160.58 12.1
11 -1 -2 144.89 11.2
-11 1 2 148.99 11.7
-11 1 2 152.48 11.6
10 -1 -2 782.32 33.8
10 -1 -2 753.62 34.1
-10 1 2 732.13 33.9
-10 1 2 771.32 34
9 -1 -2 274.67 14.5
9 -1 -2 289.17 14.3
-9 1 2 254.27 14.3
-9 1 2 252.27 14.3
8 -1 -2 229.38 12.3
8 -1 -2 219.58 12
-8 1 2 230.88 12.3
-8 1 2 216.38 12.1
7 -1 -2 411.26 18.8
7 -1 -2 422.16 19.1
-7 1 2 411.46 19
-7 1 2 404.26 19
6 -1 -2 279.47 13.6
6 -1 -2 277.57 13.4
-6 1 2 284.97 13.6
-6 1 2 296.67 13.7
5 -1 -2 704.13 30.2
5 -1 -2 736.53 30.1
-5 1 2 701.73 30.2
-5 1 2 719.33 30.2
4 -1 -2 1732.23 71.29
4 -1 -2 1761.32 71.19
-4 1 2 1767.82 71.29
-4 1 2 1752.42 71.29
3 -1 -2 693.63 29
3 -1 -2 676.83 29
-3 1 2 715.33 29.1
-3 1 2 703.43 29
1 -1 -2 4538.95 187.98
-1 1 2 4776.52 187.98
-1 1 2 4752.42 187.78
0 -1 -2 859.41 36.1
0 -1 -2 903.11 36.4
0 1 2 901.21 36.2
0 1 2 842.22 36.3
-1 -1 -2 2127.69 87.59
-1 -1 -2 2066.99 87.49
1 1 2 2240.98 87.69
1 1 2 2207.58 87.49
-2 -1 -2 5230.58 218.88
-2 -1 -2 5570.84 219.08
2 1 2 5422.96 218.88
2 1 2 5584.64 219.08
-3 -1 -2 4026.9 156.98
-3 -1 -2 3934.31 156.78
3 1 2 3711.33 156.78
3 1 2 3875.21 156.98
-4 -1 -2 3883.51 152.38
-4 -1 -2 3759.72 152.18
4 1 2 3738.33 152.28
4 1 2 3669.33 152.18
5 1 2 9863.01 398.36
5 1 2 9999 398.46
-6 -1 -2 2525.85 106.19
-6 -1 -2 2535.35 106.09
6 1 2 2614.04 106.19
6 1 2 2685.63 106.49
-7 -1 -2 1099.29 45.7
-7 -1 -2 1106.79 45.7
7 1 2 1005.3 45.6
7 1 2 1009 45.3
-8 -1 -2 762.42 33.6
-8 -1 -2 744.73 33.5
8 1 2 721.53 33.7
8 1 2 722.53 33.2
-9 -1 -2 528.65 27.1
-9 -1 -2 534.75 27.1
9 1 2 598.14 27.2
9 1 2 602.44 27.9
-10 -1 -2 211.68 14.7
-10 -1 -2 225.28 14.8
10 1 2 201.18 15.2
10 1 2 191.28 14
-11 -1 -2 1.7 6.1
-11 -1 -2 3.5 6.5
11 1 2 2.3 6.9
11 1 2 5.5 5.8
-12 -1 -2 59.99 10.1
-12 -1 -2 44 8.8
12 1 2 41.7 8.4
12 1 2 51.89 10.1
-13 -1 -2 8.3 8
-13 -1 -2 14.9 8.5
13 1 2 3 9.2
13 1 2 2.3 7.7
-14 -1 -2 15.5 9.5
-14 -1 -2 17.5 9.8
14 1 2 10.5 10.4
14 1 2 9.2 11.5
15 -2 -2 298.77 21.3
15 -2 -2 303.77 21.1
-15 2 2 339.37 20.4
-15 2 2 339.87 20.4
14 -2 -2 322.47 19
14 -2 -2 325.27 20.4
-14 2 2 329.77 19.5
-14 2 2 345.17 19.9
13 -2 -2 118.59 11.1
13 -2 -2 137.99 12.6
-13 2 2 98.79 11.4
-13 2 2 108.99 11.7
12 -2 -2 192.68 13.1
12 -2 -2 195.18 12.3
-12 2 2 155.48 12.6
-12 2 2 157.48 12.4
11 -2 -2 65.29 8
11 -2 -2 72.09 8.9
10 -2 -2 791.12 34.5
10 -2 -2 813.62 35.1
-10 2 2 795.92 34.9
-10 2 2 771.92 34.8
9 -2 -2 1286.97 52.59
9 -2 -2 1288.57 52.29
-9 2 2 1212.68 52.39
-9 2 2 1201.68 52.39
8 -2 -2 308.47 14.8
8 -2 -2 309.57 14.4
-8 2 2 287.87 14.6
-8 2 2 282.87 14.6
7 -2 -2 150.48 9.6
7 -2 -2 141.69 9.1
-7 2 2 202.98 9.9
-7 2 2 193.28 9.9
6 -2 -2 852.31 37.8
6 -2 -2 823.32 37.5
-6 2 2 952 37.9
-6 2 2 963 37.9
5 -2 -2 2035.8 85.29
5 -2 -2 1982.5 85.29
-5 2 2 2185.08 85.49
-5 2 2 2212.18 85.39
4 -2 -2 311.27 14.1
4 -2 -2 307.37 14
-4 2 2 315.47 14
-4 2 2 323.37 14.2
3 -2 -2 96.79 5.3
3 -2 -2 95.89 5.5
-3 2 2 85.59 5.5
-3 2 2 84.49 5.4
2 -2 -2 383.36 16.5
-2 2 2 362.16 16.2
-2 2 2 377.36 16.5
0 -2 -2 1579.74 64.19
0 -2 -2 1519.65 63.99
0 2 2 1580.84 63.99
0 2 2 1581.24 64.29
-1 -2 -2 1163.48 47.1
-1 -2 -2 1122.19 47.2
1 2 2 1140.59 47.3
1 2 2 1112.79 47
-2 -2 -2 2241.58 91.49
-2 -2 -2 2241.18 91.29
2 2 2 2305.17 91.59
2 2 2 2169.68 91.29
-3 -2 -2 2144.99 84.39
-3 -2 -2 2067.39 84.19
3 2 2 1991.2 84.09
3 2 2 2003.5 84.29
-4 -2 -2 2055.89 81.29
-4 -2 -2 2025.3 81.39
4 2 2 1889.41 81.29
4 2 2 1906.91 81.09
-5 -2 -2 2847.32 117.19
-5 -2 -2 2845.62 117.09
5 2 2 2888.11 117.29
5 2 2 2867.21 117.09
-6 -2 -2 762.92 33.7
-6 -2 -2 726.13 33.5
6 2 2 738.13 33.5
6 2 2 778.92 34
-7 -2 -2 682.83 30.7
-7 -2 -2 700.43 30.7
7 2 2 613.74 30.7
7 2 2 648.74 30.3
-8 -2 -2 687.73 33.3
-8 -2 -2 701.33 33.3
8 2 2 738.03 33.4
8 2 2 757.32 34
-9 -2 -2 1112.59 51.59
-9 -2 -2 1125.49 51.59
9 2 2 1243.78 51.89
9 2 2 1221.48 52.19
-10 -2 -2 307.07 19.5
-10 -2 -2 312.27 19.7
10 2 2 337.07 19.3
10 2 2 359.16 20.7
-11 -2 -2 10 7.1
-11 -2 -2 4.8 7.3
11 2 2 7.4 7.4
11 2 2 11.9 6.8
-12 -2 -2 258.27 19.1
-12 -2 -2 252.77 19.5
12 2 2 282.27 20.8
12 2 2 271.37 19
-13 -2 -2 452.85 27.8
-13 -2 -2 480.25 28.4
13 2 2 499.55 28.2
13 2 2 514.95 29.9
-14 -2 -2 302.97 23.3
-14 -2 -2 279.07 23
14 2 2 304.37 26
14 2 2 291.27 24.9
15 -3 -2 54.99 9.8
15 -3 -2 50.39 8.7
-15 3 2 62.59 9.5
-15 3 2 70.99 9.9
14 -3 -2 249.18 16.8
14 -3 -2 245.48 15.4
-14 3 2 241.78 16
-14 3 2 230.38 16
13 -3 -2 47.6 7.8
13 -3 -2 44.8 6.9
-13 3 2 29.9 6.7
-13 3 2 33.4 6.9
12 -3 -2 284.97 15.8
12 -3 -2 270.87 14.9
-12 3 2 263.57 15.6
-12 3 2 261.97 15.5
11 -3 -2 383.66 20.2
11 -3 -2 389.56 19.7
-11 3 2 443.46 20.4
-11 3 2 433.66 20.3
10 -3 -2 921.71 39.4
10 -3 -2 891.01 39
-10 3 2 937.81 39.4
-10 3 2 894.41 39.4
9 -3 -2 763.22 32.4
9 -3 -2 738.63 32
-9 3 2 725.03 32.2
-9 3 2 739.43 32.3
8 -3 -2 51.49 5.9
8 -3 -2 52.79 5.5
-8 3 2 49.9 5.7
-8 3 2 45.2 5.6
7 -3 -2 1397.26 55.79
7 -3 -2 1454.15 55.99
-7 3 2 1266.67 55.69
-7 3 2 1283.57 55.79
6 -3 -2 4467.85 171.88
6 -3 -2 4375.26 171.68
-6 3 2 4139.99 171.68
-6 3 2 4089.39 171.78
5 -3 -2 381.16 18.4
5 -3 -2 377.56 18.6
-5 3 2 466.85 18.8
-5 3 2 477.05 19
4 -3 -2 1922.71 80.89
4 -3 -2 1896.01 80.59
-4 3 2 2085.79 81.09
-4 3 2 2062.09 80.89
3 -3 -2 1944.61 75.79
-3 3 2 1823.62 75.79
-3 3 2 1815.72 75.49
2 -3 -2 5858.91 230.58
-2 3 2 5616.74 230.28
1 -3 -2 3281.87 129.59
1 -3 -2 3281.97 129.29
-1 3 2 3026.3 129.19
-1 3 2 3204.78 129.59
0 -3 -2 486.25 21.4
0 -3 -2 494.15 21.7
0 3 2 482.05 21.8
0 3 2 466.25 21.3
-1 -3 -2 994.1 43
-1 -3 -2 1030.1 43
1 3 2 1050.69 43.3
1 3 2 1002.6 42.9
-2 -3 -2 1012.2 42.8
-2 -3 -2 990.7 42.6
2 3 2 975.5 42.6
2 3 2 1036.6 43
-3 -3 -2 65.99 6.8
-3 -3 -2 65.59 6.6
3 3 2 63.69 6.6
3 3 2 70.99 7.2
-4 -3 -2 841.22 36.7
-4 -3 -2 823.72 36.5
4 3 2 830.32 36.6
4 3 2 838.82 36.8
-5 -3 -2 78.59 9.4
-5 -3 -2 82.69 8.4
5 3 2 89.89 10.8
5 3 2 80.99 8
-6 -3 -2 446.86 22.2
-6 -3 -2 456.05 22.3
6 3 2 437.66 22.5
6 3 2 438.86 22
-7 -3 -2 201.48 13.6
-7 -3 -2 210.38 13.8
7 3 2 190.58 14.1
7 3 2 194.68 13.2
-8 -3 -2 867.21 39.9
-8 -3 -2 881.01 40.1
8 3 2 887.91 40.5
8 3 2 859.81 39.8
-9 -3 -2 932.91 42.9
-9 -3 -2 895.51 42.6
9 3 2 956.4 43.3
9 3 2 944.91 42.7
-10 -3 -2 84.99 11
-10 -3 -2 78.99 10.9
10 3 2 100.19 12.4
10 3 2 101.39 14.1
-11 -3 -2 203.48 17.3
-11 -3 -2 207.48 17.2
11 3 2 200.18 18.5
11 3 2 216.38 17
-12 -3 -2 751.12 38.6
-12 -3 -2 787.12 39.2
12 3 2 785.22 38.6
12 3 2 770.82 39.7
-13 -3 -2 452.45 28.6
-13 -3 -2 453.65 29
13 3 2 494.75 30.6
13 3 2 503.15 30.4
15 -4 -2 12.8 6.6
15 -4 -2 14.7 7.7
-15 4 2 13.8 7
-15 4 2 18.7 7.4
14 -4 -2 177.68 14.1
14 -4 -2 170.18 12.8
-14 4 2 174.48 13.1
-14 4 2 171.38 13.3
13 -4 -2 98.39 9.8
13 -4 -2 103.89 10.8
-13 4 2 96.29 10.3
-13 4 2 97.39 10.1
12 -4 -2 325.77 17.1
12 -4 -2 338.27 17.8
-12 4 2 343.07 17.6
-12 4 2 339.67 17.6
11 -4 -2 484.65 22.4
11 -4 -2 492.15 22.1
-11 4 2 459.55 22.3
-11 4 2 454.15 22.1
10 -4 -2 61.39 6.7
10 -4 -2 64.59 7.1
-10 4 2 47.5 6.2
-10 4 2 48 5.9
9 -4 -2 18.7 4.2
9 -4 -2 15.6 3.9
-9 4 2 9 3.8
-9 4 2 6 3.7
8 -4 -2 33.3 4.6
8 -4 -2 33.4 4.2
-8 4 2 20.6 4
-8 4 2 29.6 4.6
7 -4 -2 652.43 25.4
7 -4 -2 662.63 25.8
-7 4 2 516.05 25.4
-7 4 2 521.95 25.3
6 -4 -2 2806.12 108.09
6 -4 -2 2713.93 107.79
-6 4 2 2594.34 108.09
-6 4 2 2543.65 107.79
5 -4 -2 2066.29 89.39
-5 4 2 2294.57 89.59
-5 4 2 2239.98 89.39
4 -4 -2 2270.57 93.39
-4 4 2 2327.17 93.49
-4 4 2 2303.97 93.29
3 -4 -2 296.17 14.7
3 -4 -2 300.37 14.5
-3 4 2 308.67 14.2
-3 4 2 320.87 14.6
2 -4 -2 3760.52 150.38
2 -4 -2 3700.33 150.58
-2 4 2 3708.43 150.38
1 -4 -2 2841.42 111.79
1 -4 -2 2831.82 111.99
-1 4 2 2646.44 111.99
-1 4 2 2671.83 111.69
0 -4 -2 37.9 5.1
0 -4 -2 33.3 4.7
0 4 2 52.69 5.5
-1 -4 -2 423.66 20.7
-1 -4 -2 453.35 21
1 4 2 437.96 20.8
1 4 2 477.15 21.4
-2 -4 -2 823.72 36.6
-2 -4 -2 795.42 36.7
2 4 2 888.01 37.2
2 4 2 856.61 36.7
-3 -4 -2 1400.76 59.29
-3 -4 -2 1407.56 59.49
3 4 2 1388.76 59.29
3 4 2 1415.66 59.59
-4 -4 -2 543.55 26.3
-4 -4 -2 539.85 25.7
4 4 2 538.45 25.5
4 4 2 532.45 26.3
-5 -4 -2 195.38 13.3
-5 -4 -2 196.68 13.3
5 4 2 216.78 13.2
5 4 2 211.88 14
-6 -4 -2 179.18 12.7
-6 -4 -2 172.38 12.8
6 4 2 169.88 12.5
6 4 2 164.08 13.4
-7 -4 -2 59.89 9
-7 -4 -2 61.79 8.6
7 4 2 54.99 9.3
7 4 2 40.9 7
-8 -4 -2 197.68 14.7
-8 -4 -2 186.58 14.8
8 4 2 199.58 14.7
8 4 2 177.38 15.2
-9 -4 -2 13.8 7
-9 -4 -2 18 8
9 4 2 15.6 7.5
9 4 2 18.1 8.4
-10 -4 -2 54.39 9.5
-10 -4 -2 66.79 10.4
10 4 2 58.99 10.4
10 4 2 82.79 11.5
-11 -4 -2 50.79 10.4
-11 -4 -2 64.09 11.7
11 4 2 47.2 10.3
11 4 2 40.8 11
-12 -4 -2 302.17 23.3
-12 -4 -2 303.57 23.1
12 4 2 314.87 24.6
12 4 2 313.77 22.8
-13 -4 -2 359.16 26.3
-13 -4 -2 322.77 26
13 4 2 367.16 27.8
13 4 2 377.66 28.3
15 -5 -2 91.99 12.1
15 -5 -2 85.09 11.1
-15 5 2 59.49 9
-15 5 2 80.19 9.5
14 -5 -2 42.5 6.9
14 -5 -2 43 7.7
-14 5 2 32.2 7.2
-14 5 2 39.6 6.9
13 -5 -2 13.9 5.2
13 -5 -2 16.6 6
-13 5 2 17.3 5.5
-13 5 2 13.7 6
12 -5 -2 146.69 10.4
12 -5 -2 145.79 11.1
-12 5 2 167.28 11
-12 5 2 179.48 11.4
11 -5 -2 191.08 11.4
11 -5 -2 180.98 11.8
-11 5 2 220.98 12.2
-11 5 2 209.98 11.9
10 -5 -2 142.09 9.5
10 -5 -2 145.69 9.1
-10 5 2 141.29 9.7
-10 5 2 139.09 9.4
9 -5 -2 192.78 10.5
9 -5 -2 188.88 10.9
-9 5 2 190.08 11.1
-9 5 2 202.08 11
8 -5 -2 141.39 8.6
8 -5 -2 141.59 9
-8 5 2 152.58 9.1
-8 5 2 152.28 9.2
7 -5 -2 390.76 17.8
-7 5 2 384.06 17.6
-7 5 2 380.56 17.9
6 -5 -2 883.21 36.2
-6 5 2 852.61 36.2
-6 5 2 823.32 36
5 -5 -2 493.65 22.3
5 -5 -2 503.35 22.6
-5 5 2 499.55 22.1
-5 5 2 492.95 22.2
4 -5 -2 633.44 28.1
4 -5 -2 638.54 27.8
-4 5 2 631.44 27.4
-4 5 2 648.64 27.8
3 -5 -2 697.53 31.6
3 -5 -2 691.23 31.3
-3 5 2 791.22 31.7
2 -5 -2 8717.63 352.56
2 -5 -2 8338.57 352.76
-2 5 2 8997.8 353.06
-2 5 2 9099.69 352.76
1 -5 -2 5989.1 243.58
1 -5 -2 6040.3 243.78
-1 5 2 6055.69 243.98
-1 5 2 6099.39 243.68
0 -5 -2 926.81 39
0 -5 -2 944.21 39.2
0 5 2 850.11 39.2
0 5 2 855.81 38.6
-1 -5 -2 253.77 14.7
-1 -5 -2 261.47 14.8
1 5 2 293.67 14.9
1 5 2 297.07 15.6
-2 -5 -2 1796.82 74.99
-2 -5 -2 1788.72 74.89
2 5 2 1832.42 74.99
2 5 2 1742.83 75.19
-3 -5 -2 1817.02 74.99
-3 -5 -2 1780.42 75.09
3 5 2 1772.62 74.89
3 5 2 1758.02 75.19
-4 -5 -2 1059.49 46.9
-4 -5 -2 1092.19 47.1
4 5 2 1047.3 46.9
4 5 2 1069.29 47.3
-5 -5 -2 82.39 10.4
-5 -5 -2 82.79 10.1
5 5 2 78.19 9.5
5 5 2 87.99 10.9
-6 -5 -2 43.8 8.1
-6 -5 -2 51.79 8.7
6 5 2 29.5 7.6
6 5 2 34.1 8.3
-7 -5 -2 234.98 16.5
-7 -5 -2 237.88 16.3
7 5 2 233.48 17.8
7 5 2 219.88 15.9
-8 -5 -2 521.15 27.7
-8 -5 -2 534.15 27.9
8 5 2 507.75 28.3
8 5 2 535.75 27.8
-9 -5 -2 170.38 16
-9 -5 -2 164.18 15.6
9 5 2 134.19 15
9 5 2 140.19 16.8
-10 -5 -2 51.89 10.2
-10 -5 -2 78.09 12.9
10 5 2 54.59 11.9
10 5 2 58.59 10.4
-11 -5 -2 87.59 13.4
-11 -5 -2 85.69 13.8
11 5 2 65.19 12.9
11 5 2 109.09 14.2
-12 -5 -2 0.2 10.7
-12 -5 -2 -0.9 9.5
12 5 2 3.8 10.1
12 5 2 -1.1 12.4
14 -6 -2 34.8 6.5
14 -6 -2 42.1 7.2
-14 6 2 33.1 7.1
-14 6 2 33.9 6.6
13 -6 -2 121.19 10.5
13 -6 -2 122.99 9.8
-13 6 2 116.19 10
-13 6 2 110.49 10.4
12 -6 -2 500.25 22
12 -6 -2 488.25 22.5
-12 6 2 446.96 22
-12 6 2 466.25 22.5
11 -6 -2 403.86 19.2
-11 6 2 396.76 19.1
-11 6 2 402.56 19.4
10 -6 -2 241.28 13.2
-10 6 2 240.98 13.3
-10 6 2 249.97 13
9 -6 -2 55.99 6
-9 6 2 47.2 6.7
-9 6 2 52.29 6.6
8 -6 -2 18.7 4.1
-8 6 2 10 4
-8 6 2 8.4 3.8
7 -6 -2 212.08 11.6
7 -6 -2 220.78 11.2
-7 6 2 175.18 10.8
-7 6 2 180.48 10.7
6 -6 -2 285.37 13.7
6 -6 -2 278.77 14.1
-6 6 2 260.07 13.7
-6 6 2 253.17 13.4
5 -6 -2 276.17 14.4
5 -6 -2 281.97 14.2
-5 6 2 283.07 14.2
-5 6 2 279.07 13.8
4 -6 -2 71.89 7
4 -6 -2 82.29 7.3
-4 6 2 74.39 6.9
-4 6 2 71.99 6.6
3 -6 -2 902.91 39.6
3 -6 -2 904.01 39.4
-3 6 2 947.41 39.5
2 -6 -2 1893.01 80.39
2 -6 -2 1859.91 80.49
-2 6 2 2038 80.69
-2 6 2 1994.7 81.09
1 -6 -2 982.1 46
1 -6 -2 1032.8 46
-1 6 2 1141.59 46.2
-1 6 2 1138.19 46.7
0 -6 -2 229.28 14.5
0 -6 -2 220.78 13.3
0 6 2 228.18 13.4
0 6 2 232.68 14.9
-1 -6 -2 186.18 11.9
-1 -6 -2 182.28 11.8
1 6 2 152.88 11.3
1 6 2 150.78 12.2
-2 -6 -2 612.44 29.3
-2 -6 -2 605.34 29.3
2 6 2 637.64 30
2 6 2 640.74 29.3
-3 -6 -2 2156.78 91.69
-3 -6 -2 2134.09 91.49
3 6 2 2244.48 92.09
3 6 2 2218.48 91.69
-4 -6 -2 931.61 42.6
-4 -6 -2 933.41 42.8
4 6 2 950.1 43.3
4 6 2 969 42.9
-5 -6 -2 59.69 8.8
-5 -6 -2 61.09 9.4
5 6 2 53.99 9.5
5 6 2 40.6 7.3
-6 -6 -2 1029.9 46.7
-6 -6 -2 1000 46.5
6 6 2 1035 46.7
6 6 2 1011.6 47.1
-7 -6 -2 309.77 20.7
-7 -6 -2 328.27 20.6
7 6 2 330.07 20.7
7 6 2 340.77 21.6
-8 -6 -2 263.97 19.3
-8 -6 -2 278.07 19.3
8 6 2 234.78 20
8 6 2 239.98 18.6
-9 -6 -2 14.2 8.5
-9 -6 -2 29.3 10.4
9 6 2 44.2 11.2
9 6 2 38.8 10.4
-10 -6 -2 37.9 11.5
-10 -6 -2 39.9 11.1
10 6 2 32.5 10.8
10 6 2 39.1 13.3
-11 -6 -2 339.67 25.5
-11 -6 -2 298.27 24.9
11 6 2 335.27 27.5
11 6 2 343.17 24.6
-12 -6 -2 328.97 26.7
-12 -6 -2 319.77 26.8
12 6 2 349.77 26.6
12 6 2 343.27 29.6
14 -7 -2 6.1 5.7
-14 7 2 6.2 5.2
-14 7 2 -1.9 5.6
13 -7 -2 184.08 11.7
-13 7 2 159.68 11
-13 7 2 158.38 11.6
12 -7 -2 387.36 17.1
-12 7 2 323.97 17
-12 7 2 294.67 16.4
11 -7 -2 162.68 11
-11 7 2 181.38 11.1
-11 7 2 183.68 10.8
10 -7 -2 265.07 14.7
-10 7 2 290.67 14.7
-10 7 2 297.27 14.8
9 -7 -2 280.67 14.4
9 -7 -2 277.07 14.9
-9 7 2 276.57 14.2
-9 7 2 276.57 14.5
8 -7 -2 1453.85 61.79
8 -7 -2 1481.85 61.49
-8 7 2 1514.45 61.69
-8 7 2 1472.75 61.29
7 -7 -2 829.02 35.3
7 -7 -2 833.62 35
-7 7 2 795.02 35
-7 7 2 773.72 34.7
6 -7 -2 279.17 14.8
6 -7 -2 287.47 14.6
-6 7 2 267.87 14.2
-6 7 2 285.97 14.7
5 -7 -2 145.29 10
5 -7 -2 151.58 10
-5 7 2 140.09 9.6
-5 7 2 129.69 9.2
4 -7 -2 177.08 11
4 -7 -2 174.28 10.9
-4 7 2 146.19 10.5
3 -7 -2 1293.07 53.89
3 -7 -2 1269.07 54.09
-3 7 2 1255.67 53.99
2 -7 -2 615.44 27.2
2 -7 -2 598.74 26.9
-2 7 2 575.04 26.9
-2 7 2 529.05 27.2
1 -7 -2 321.07 17.5
1 -7 -2 333.37 17.6
-1 7 2 338.77 17.5
-1 7 2 322.67 18.3
0 -7 -2 71.29 8.6
0 -7 -2 58.59 7.5
0 7 2 58.99 8.4
0 7 2 66.59 8.7
-1 -7 -2 72.99 8.8
-1 -7 -2 58.29 7.8
1 7 2 64.39 8.8
1 7 2 53.39 7.6
-2 -7 -2 113.19 11.3
-2 -7 -2 114.29 11.4
2 7 2 112.89 12.2
2 7 2 113.79 10.8
-3 -7 -2 222.48 15.2
-3 -7 -2 221.48 15.4
3 7 2 223.28 16.5
3 7 2 218.68 15.2
-4 -7 -2 141.09 13.1
-4 -7 -2 159.78 13.5
4 7 2 138.39 12.7
4 7 2 130.59 13.9
-5 -7 -2 340.67 20.7
-5 -7 -2 335.87 20.7
5 7 2 331.67 20.5
5 7 2 355.66 21.8
-6 -7 -2 496.15 27.6
-6 -7 -2 485.35 27.7
6 7 2 526.85 27.9
6 7 2 541.15 28.8
-7 -7 -2 572.64 29.7
-7 -7 -2 588.44 30
7 7 2 485.55 29.9
7 7 2 505.25 29
-8 -7 -2 237.88 20.5
-8 -7 -2 244.08 20.7
8 7 2 295.57 20.7
8 7 2 303.27 22.7
-9 -7 -2 250.37 21.6
-9 -7 -2 240.48 21.4
9 7 2 284.97 21.2
9 7 2 245.58 22.9
-10 -7 -2 30.8 11.5
-10 -7 -2 23.7 11
10 7 2 11.5 11.5
10 7 2 21 10.9
-11 -7 -2 388.06 28.7
-11 -7 -2 365.56 28.5
11 7 2 391.66 30.8
11 7 2 414.46 28.2
13 -8 -2 41.3 6.7
13 -8 -2 47.5 6.3
-13 8 2 41.1 6.2
-13 8 2 50.09 7.5
12 -8 -2 222.18 13.6
12 -8 -2 236.28 12.9
-12 8 2 231.38 13.1
-12 8 2 216.58 12.6
11 -8 -2 225.48 13.3
11 -8 -2 220.08 13.8
-11 8 2 249.38 13.1
-11 8 2 259.37 13.6
10 -8 -2 430.16 20
10 -8 -2 412.56 20.3
-10 8 2 424.66 19.9
-10 8 2 399.56 19.7
9 -8 -2 129.99 10.4
9 -8 -2 131.29 9.9
-9 8 2 157.08 10.3
-9 8 2 155.58 9.8
8 -8 -2 1064.89 45.7
8 -8 -2 1044.7 45.9
-8 8 2 1072.39 45.5
-8 8 2 1114.19 45.9
7 -8 -2 1022 43.5
7 -8 -2 1024.7 43.8
-7 8 2 996.7 43.3
-7 8 2 1020.7 43.6
6 -8 -2 223.98 12.6
6 -8 -2 208.28 12.5
-6 8 2 172.68 12
-6 8 2 183.08 12.1
5 -8 -2 250.77 14.7
5 -8 -2 259.67 14.8
-5 8 2 274.27 14.7
-5 8 2 262.17 14.1
4 -8 -2 387.46 20.3
4 -8 -2 384.26 20.3
-4 8 2 458.45 20.7
3 -8 -2 588.44 27.5
3 -8 -2 607.44 27.9
-3 8 2 576.14 27.6
2 -8 -2 618.54 29.2
2 -8 -2 603.64 29.2
-2 8 2 642.04 29.3
-2 8 2 629.44 30
1 -8 -2 117.39 11
1 -8 -2 131.49 11.3
-1 8 2 125.19 12.3
-1 8 2 129.39 11
0 -8 -2 56.49 8
0 -8 -2 77.69 9.5
0 8 2 64.79 9.3
0 8 2 51.29 7.4
-1 -8 -2 14 5.7
-1 -8 -2 17.8 6.3
1 8 2 25.9 6.9
1 8 2 25.2 6.4
-2 -8 -2 260.27 16.8
-2 -8 -2 266.17 17.2
2 8 2 241.38 17.6
2 8 2 255.37 16.8
-3 -8 -2 493.75 26.2
-3 -8 -2 505.05 26.6
3 8 2 498.45 26.2
3 8 2 466.05 26.9
-4 -8 -2 75.59 10.6
-4 -8 -2 69.19 9.9
4 8 2 88.09 11.8
4 8 2 82.29 12.2
-5 -8 -2 7.5 7.5
-5 -8 -2 9.5 8.6
5 8 2 11.7 7.6
5 8 2 19.7 9.7
-6 -8 -2 41.2 9.8
-6 -8 -2 42.3 10.3
6 8 2 33.2 9.7
6 8 2 29.1 10
-7 -8 -2 420.16 25.6
-7 -8 -2 412.26 25.3
7 8 2 357.56 24.6
7 8 2 363.46 26.1
-8 -8 -2 24.7 9.7
-8 -8 -2 36.6 11.6
8 8 2 40.5 11.7
8 8 2 31.6 11.7
-9 -8 -2 70.49 12.9
-9 -8 -2 64.49 12.3
9 8 2 65.69 11.7
9 8 2 78.69 14.6
-10 -8 -2 33.6 13.7
-10 -8 -2 41 13.5
10 8 2 80.29 15.1
10 8 2 54.59 16.4
13 -9 -2 50.09 6.6
13 -9 -2 53.49 8
-13 9 2 40.6 5.9
-13 9 2 45.2 5.8
12 -9 -2 38.9 5.8
12 -9 -2 28 6
-12 9 2 30 5.4
-12 9 2 29 5.6
11 -9 -2 17 5.7
11 -9 -2 16 5.4
-11 9 2 16.8 4.9
-11 9 2 20.4 5.2
10 -9 -2 4.8 4.9
10 -9 -2 2.3 5.2
-10 9 2 6.6 4.7
-10 9 2 6.3 4.8
9 -9 -2 298.67 16.2
9 -9 -2 287.87 15.8
-9 9 2 303.37 15.8
-9 9 2 288.97 15.4
8 -9 -2 863.01 37.3
8 -9 -2 871.81 37
-8 9 2 809.42 36.7
-8 9 2 827.82 37
7 -9 -2 419.26 20.1
7 -9 -2 413.26 19.8
-7 9 2 379.16 19.7
-7 9 2 356.76 19.1
6 -9 -2 30.4 6.4
6 -9 -2 28.3 6.4
-6 9 2 36.6 6.4
-6 9 2 39.1 6.2
5 -9 -2 704.03 32.2
5 -9 -2 703.73 32
-5 9 2 716.63 32.1
-5 9 2 680.63 31.4
4 -9 -2 303.87 17.6
4 -9 -2 314.37 17.9
-4 9 2 352.16 18.1
3 -9 -2 743.63 35.1
3 -9 -2 748.13 35.4
-3 9 2 813.72 35.4
2 -9 -2 600.64 30.9
2 -9 -2 607.94 31
-2 9 2 673.83 32.3
-2 9 2 739.23 31.6
1 -9 -2 202.68 14.7
1 -9 -2 191.98 15.1
-1 9 2 205.58 14.6
-1 9 2 205.98 16.6
0 -9 -2 460.25 24.4
0 -9 -2 465.85 24.3
0 9 2 448.66 25.3
0 9 2 425.86 23.8
-1 -9 -2 814.02 37.7
-1 -9 -2 821.72 37.6
1 9 2 758.32 38.1
1 9 2 756.62 37.2
-2 -9 -2 892.51 42.5
-2 -9 -2 899.11 42.8
2 9 2 940.71 43
2 9 2 929.31 43.7
-3 -9 -2 728.23 36.5
-3 -9 -2 726.33 36.1
3 9 2 733.83 36.3
3 9 2 749.42 37.1
-4 -9 -2 103.29 14.5
-4 -9 -2 126.69 15.2
4 9 2 127.89 16.6
4 9 2 116.59 14.9
-5 -9 -2 174.48 17.5
5 9 2 139.59 16.8
5 9 2 147.79 18.5
-6 -9 -2 146.39 17.5
-6 -9 -2 131.19 17.6
6 9 2 137.59 19.3
6 9 2 137.19 17.1
-7 -9 -2 198.58 20.4
-7 -9 -2 200.38 20.6
7 9 2 210.88 22.9
7 9 2 237.18 20.5
-8 -9 -2 57.19 14.3
-8 -9 -2 24.5 10.9
8 9 2 31 10.5
8 9 2 50.89 15.6
-9 -9 -2 4.6 12.8
-9 -9 -2 5.5 12.2
9 9 2 11.8 12.1
9 9 2 7.5 15.1
12 -10 -2 118.99 10.3
12 -10 -2 127.89 10
-12 10 2 121.99 9.5
-12 10 2 133.19 10.1
11 -10 -2 47.3 7
11 -10 -2 58.19 7.2
-11 10 2 58.19 6.9
-11 10 2 61.19 8.5
10 -10 -2 39.9 6.6
10 -10 -2 35.3 6.6
-10 10 2 33.2 6.3
-10 10 2 30.3 5.8
9 -10 -2 63.09 7.9
9 -10 -2 52.29 7.6
-9 10 2 58.49 7.4
-9 10 2 53.89 7.3
8 -10 -2 66.59 9.7
8 -10 -2 66.89 8.3
-8 10 2 65.29 9.2
-8 10 2 66.39 9
7 -10 -2 85.19 10.4
7 -10 -2 81.69 10.3
-7 10 2 81.79 9.8
-7 10 2 75.19 9.3
6 -10 -2 23.2 6.8
6 -10 -2 26.8 6.8
-6 10 2 32.3 6.6
-6 10 2 27.3 6.6
5 -10 -2 157.08 12.9
5 -10 -2 147.59 12.4
-5 10 2 162.48 12.6
4 -10 -2 213.58 14.5
4 -10 -2 194.08 14.5
-4 10 2 193.78 14.2
3 -10 -2 359.76 20.5
3 -10 -2 365.36 20.8
-3 10 2 381.36 20.8
2 -10 -2 212.28 15.6
2 -10 -2 217.28 16
-2 10 2 222.98 15.8
-2 10 2 215.78 17.1
1 -10 -2 61.69 9.6
1 -10 -2 52.79 9.1
-1 10 2 69.59 11.6
-1 10 2 51.39 8.5
0 -10 -2 204.18 15.8
0 -10 -2 175.58 15.6
0 10 2 170.88 15.2
0 10 2 161.78 16.8
-1 -10 -2 562.54 27.8
-1 -10 -2 545.75 27.8
1 10 2 444.86 26.9
1 10 2 460.15 28.1
-2 -10 -2 199.68 16.9
-2 -10 -2 181.48 16.4
2 10 2 137.59 17.3
2 10 2 134.99 15.3
-3 -10 -2 356.76 22.3
-3 -10 -2 361.16 22.4
3 10 2 296.97 21.7
3 10 2 277.17 23.1
-4 -10 -2 164.28 18
-4 -10 -2 173.58 17.9
4 10 2 172.78 19.4
4 10 2 175.98 18.4
-5 -10 -2 607.44 33.8
-5 -10 -2 580.34 33.6
5 10 2 615.44 35.2
5 10 2 623.94 33.9
-6 -10 -2 660.83 36.8
-6 -10 -2 653.53 37
6 10 2 682.13 37.2
6 10 2 701.93 39
-7 -10 -2 91.19 16.7
-7 -10 -2 98.99 16.8
7 10 2 118.79 17.2
7 10 2 124.39 19.6
-8 -10 -2 3.1 12.5
-8 -10 -2 -0.5 11.8
8 10 2 4.4 14.2
8 10 2 -4.2 10.9
11 -11 -2 62.59 8.1
11 -11 -2 66.99 10.2
-11 11 2 80.59 9.7
-11 11 2 73.09 9.6
10 -11 -2 74.99 10.3
10 -11 -2 76.19 10.6
-10 11 2 68.19 9.6
-10 11 2 59.49 7.9
9 -11 -2 206.68 14.8
9 -11 -2 226.68 14.9
-9 11 2 203.58 14.1
-9 11 2 209.08 14.3
8 -11 -2 228.78 15
8 -11 -2 217.68 15
-8 11 2 210.68 14.4
-8 11 2 191.18 13.9
7 -11 -2 68.59 9.1
7 -11 -2 65.89 9.1
-7 11 2 61.49 8.6
-7 11 2 67.19 8.4
6 -11 -2 50.69 8.5
6 -11 -2 42.9 8.2
-6 11 2 45.1 8
-6 11 2 49.4 7.9
5 -11 -2 14.6 7.2
5 -11 -2 27.6 7.8
-5 11 2 24.4 7.3
4 -11 -2 136.19 13.7
4 -11 -2 143.19 13.8
-4 11 2 166.48 14.1
3 -11 -2 30.2 8.5
3 -11 -2 18.3 7.7
-3 11 2 22.7 7.7
2 -11 -2 66.19 10.2
2 -11 -2 51.49 9.5
-2 11 2 53.09 9.2
-2 11 2 49.3 10.5
1 -11 -2 19.9 9
1 -11 -2 15.8 7.9
-1 11 2 13.1 7.8
-1 11 2 19.5 10
0 -11 -2 59.99 11.1
0 -11 -2 68.69 11.5
0 11 2 70.09 11.7
0 11 2 60.19 12
-1 -11 -2 135.19 16.5
-1 -11 -2 144.49 16.9
1 11 2 216.38 17.4
1 11 2 204.28 19.5
-2 -11 -2 49.8 12.4
-2 -11 -2 53.99 12
2 11 2 66.59 12.5
2 11 2 65.69 14.3
-3 -11 -2 19 10.2
-3 -11 -2 33.8 11.4
3 11 2 22.2 12
3 11 2 28.2 11
-4 -11 -2 53.29 12.9
-4 -11 -2 55.39 13.7
4 11 2 63.49 13.5
4 11 2 65.59 15.4
-5 -11 -2 432.16 28.3
-5 -11 -2 403.96 28.4
5 11 2 396.56 28.1
5 11 2 402.96 29.9
-6 -11 -2 780.82 40.1
-6 -11 -2 732.33 40.2
6 11 2 679.53 39.8
6 11 2 638.54 40.9
-7 -11 -2 73.89 15
-7 -11 -2 104.09 17.8
7 11 2 84.99 16.7
7 11 2 55.49 16.5
10 -12 -2 44.7 8.1
10 -12 -2 28.8 7.7
-10 12 2 34 7.4
-10 12 2 43 7.6
9 -12 -2 218.98 16.2
9 -12 -2 221.08 16.5
-9 12 2 261.27 16.3
-9 12 2 237.78 16
8 -12 -2 214.98 16.5
8 -12 -2 208.98 16.2
-8 12 2 232.38 15.9
-8 12 2 213.78 15.2
7 -12 -2 95.49 13
7 -12 -2 95.19 13.3
-7 12 2 93.99 11.9
-7 12 2 77.39 10.1
6 -12 -2 6.5 8.1
6 -12 -2 1.9 7.5
-6 12 2 1.5 7.1
-6 12 2 -1.4 6.8
5 -12 -2 339.07 21.2
5 -12 -2 340.77 21
-5 12 2 333.87 20.9
4 -12 -2 699.53 34.9
4 -12 -2 672.63 34.4
-4 12 2 737.93 34.9
3 -12 -2 80.79 11.8
3 -12 -2 72.39 11
-3 12 2 59.79 10.5
2 -12 -2 73.39 11.4
2 -12 -2 56.69 10.4
-2 12 2 72.39 11.4
-2 12 2 51.19 11.6
1 -12 -2 73.39 12.1
1 -12 -2 61.99 12.2
-1 12 2 75.59 14
-1 12 2 70.99 11.5
0 -12 -2 17.8 9.6
0 -12 -2 24.2 10.7
0 12 2 16 8.7
0 12 2 25.7 12.8
-1 -12 -2 152.98 19
-1 -12 -2 191.18 18.7
1 12 2 179.88 18.4
1 12 2 158.98 21.3
-2 -12 -2 125.89 15.9
-2 -12 -2 82.49 13.4
2 12 2 74.99 13.9
2 12 2 115.49 15
-3 -12 -2 12.8 10.3
-3 -12 -2 30.3 13.2
3 12 2 13.4 13.3
3 12 2 11.4 10.2
-4 -12 -2 15.1 11.8
-4 -12 -2 11.9 10.6
4 12 2 15.2 13.1
4 12 2 18.5 11
-5 -12 -2 83.39 14.3
-5 -12 -2 74.59 14.4
5 12 2 71.49 16.1
5 12 2 79.39 14.7
-6 -12 -2 309.27 28.5
-6 -12 -2 284.37 26.8
6 12 2 272.77 26.6
6 12 2 238.38 30.1
8 -13 -2 279.07 19.3
8 -13 -2 256.27 19.3
-8 13 2 299.67 19.1
-8 13 2 280.27 18.2
7 -13 -2 18.7 9.6
7 -13 -2 4.2 10
-7 13 2 17.8 8.5
-7 13 2 11.9 8.5
6 -13 -2 163.78 16.5
6 -13 -2 146.49 19.5
-6 13 2 147.79 15.1
-6 13 2 162.78 16.2
5 -13 -2 704.33 36.2
5 -13 -2 710.83 35.5
-5 13 2 699.23 35.4
4 -13 -2 797.72 39.7
4 -13 -2 824.52 39.7
-4 13 2 790.22 39.5
3 -13 -2 177.28 18.7
3 -13 -2 216.18 19.1
-3 13 2 201.98 18.7
2 -13 -2 13.3 10.6
2 -13 -2 7 9.8
-2 13 2 2.4 11.7
-2 13 2 5.5 9.1
1 -13 -2 203.88 20.7
1 -13 -2 206.48 20.7
-1 13 2 223.58 20
-1 13 2 221.68 23.1
0 -13 -2 195.48 21.7
0 -13 -2 219.68 21.8
0 13 2 224.18 24.5
0 13 2 256.27 21.8
-1 -13 -2 53.79 13.5
-1 -13 -2 50.79 14.3
1 13 2 68.39 14
1 13 2 76.59 17
-2 -13 -2 28 12.7
-2 -13 -2 33.3 14
2 13 2 45.1 16.7
2 13 2 41.5 12.3
-3 -13 -2 11.3 11.6
-3 -13 -2 19.1 12.9
3 13 2 3.4 13.9
3 13 2 12 12
4 13 2 115.99 18.8
5 -14 -2 65.79 12.2
5 -14 -2 63.79 14.7
-5 14 2 66.19 12.5
4 -14 -2 88.69 13.8
4 -14 -2 118.69 16.8
-4 14 2 91.69 13.2
3 -14 -2 133.69 19.3
3 -14 -2 163.58 23.8
-3 14 2 125.79 18.5
2 -14 -2 4.5 11.4
2 -14 -2 2.2 13.9
-2 14 2 -12.6 12.9
-2 14 2 6.9 10.5
1 -14 -2 290.27 25
1 -14 -2 311.67 28.3
-1 14 2 286.37 24.5
-1 14 2 270.07 28
0 -14 -2 424.26 32.5
0 -14 -2 426.36 30.1
0 14 2 468.85 33.3
0 14 2 411.66 29.4
3 15 -3 22.2 11.3
3 15 -3 55.99 16.5
-3 -15 3 38.2 14.4
-3 -15 3 2.5 13
2 15 -3 177.88 24.3
2 15 -3 225.48 21.2
-2 -15 3 241.08 24.3
-2 -15 3 213.78 22.6
1 15 -3 419.86 30.5
1 15 -3 431.26 28
-1 -15 3 512.55 31.2
-1 -15 3 475.95 29.2
0 15 -3 451.65 32.2
0 15 -3 519.95 30
0 -15 3 574.04 31.2
0 -15 3 577.04 32.8
-1 15 -3 199.78 21.6
-1 15 -3 205.38 18.3
1 -15 3 212.38 19.5
1 -15 3 222.88 21.5
-2 15 -3 53.09 12.6
-2 15 -3 36.8 9.2
2 -15 3 24.7 10.1
2 -15 3 32.7 11.8
-3 15 -3 103.49 13.9
-3 15 -3 75.19 13.1
3 -15 3 110.39 15.2
3 -15 3 111.79 14.3
-4 15 -3 173.88 18
-4 15 -3 182.18 14.8
4 -15 3 135.89 15.5
4 -15 3 129.29 16.7
-5 15 -3 40.8 8.2
5 -15 3 27.5 8.5
5 -15 3 23.6 7.8
-6 15 -3 50.99 7.9
6 -15 3 57.09 8.6
6 -15 3 49.9 8.8
6 14 -3 -9.2 15.1
6 14 -3 10.3 12.7
-6 -14 3 6.5 14.2
-6 -14 3 0.3 11.8
5 14 -3 161.98 21.2
-5 -14 3 169.68 21.2
-5 -14 3 154.28 22.9
4 14 -3 274.77 23.4
4 14 -3 266.87 25.6
-4 -14 3 300.57 24.4
-4 -14 3 275.77 24.7
3 14 -3 110.29 16
3 14 -3 82.29 12.3
-3 -14 3 84.99 13.2
-3 -14 3 77.19 13.1
2 14 -3 195.28 19
2 14 -3 194.48 21.8
-2 -14 3 219.88 20.5
-2 -14 3 204.18 19.6
1 14 -3 519.25 30.9
1 14 -3 542.75 29.3
-1 -14 3 485.95 29.3
-1 -14 3 510.65 29.5
0 14 -3 623.64 30.9
0 14 -3 606.04 32.5
0 -14 3 550.54 30.6
0 -14 3 520.95 30.8
-1 14 -3 132.59 17.4
-1 14 -3 147.89 14.9
1 -14 3 111.59 16
1 -14 3 122.19 14.9
-2 14 -3 4 9
-2 14 -3 5.3 6.9
2 -14 3 5.2 8.2
2 -14 3 6.3 7.4
-3 14 -3 122.39 15.4
-3 14 -3 128.99 12.9
3 -14 3 123.99 13.5
3 -14 3 113.09 13.9
-4 14 -3 192.28 13.5
-4 14 -3 182.88 16.2
4 -14 3 129.39 13.6
4 -14 3 134.39 14.1
-5 14 -3 39.3 7.2
5 -14 3 20 7.3
5 -14 3 22.7 7
-6 14 -3 227.98 14.1
6 -14 3 228.18 14.6
6 -14 3 221.28 14.2
-7 14 -3 57.29 8.1
-7 14 -3 61.19 8.2
7 -14 3 60.19 8.2
7 -14 3 58.09 7.2
7 13 -3 62.69 17.2
7 13 -3 85.59 15.9
-7 -13 3 93.39 16.7
-7 -13 3 59.79 16.1
6 13 -3 52.79 14
6 13 -3 73.89 13.8
-6 -13 3 59.69 13.4
-6 -13 3 76.69 13.9
5 13 -3 56.89 14
5 13 -3 38.4 10.8
-5 -13 3 48.1 12.9
-5 -13 3 39.3 11.2
4 13 -3 13.8 8.9
4 13 -3 7.1 10.2
-4 -13 3 6 8.9
-4 -13 3 7.8 9.5
3 13 -3 70.99 11.7
3 13 -3 40.5 10.8
-3 -13 3 68.19 11.8
-3 -13 3 45.9 10.6
2 13 -3 103.89 14.4
2 13 -3 92.19 14.1
-2 -13 3 91.29 12.4
-2 -13 3 96.69 13.6
1 13 -3 291.57 19.6
1 13 -3 279.67 21.1
-1 -13 3 274.27 19.9
-1 -13 3 270.97 19.5
0 13 -3 129.99 13.5
0 13 -3 133.99 15.8
0 -13 3 106.59 14.2
0 -13 3 119.09 14
-1 13 -3 37.5 9.7
-1 13 -3 50.89 8.6
1 -13 3 59.59 9.4
1 -13 3 60.29 9.5
-2 13 -3 87.89 11.2
-2 13 -3 99.89 13.8
2 -13 3 82.59 10.2
2 -13 3 72.09 10
-3 13 -3 153.48 14.7
-3 13 -3 160.88 12.9
3 -13 3 157.18 13.6
3 -13 3 172.18 13.3
-4 13 -3 168.28 12.4
-4 13 -3 167.18 14.6
4 -13 3 159.78 13.1
4 -13 3 174.18 12.9
-5 13 -3 143.39 11
5 -13 3 137.19 11.4
5 -13 3 138.99 11.3
-6 13 -3 73.39 8.3
6 -13 3 68.69 8.8
6 -13 3 65.39 8.3
-7 13 -3 35 4.9
-7 13 -3 35.3 5.1
7 -13 3 46.6 6.5
7 -13 3 47.9 7.2
9 12 -3 152.58 22.4
9 12 -3 105.89 16.2
-9 -12 3 195.28 22
-9 -12 3 149.09 22.6
8 12 -3 76.89 15.4
8 12 -3 53.39 14.8
-8 -12 3 82.89 15.4
-8 -12 3 41.4 13
7 12 -3 35.5 12.5
7 12 -3 38.7 10.8
-7 -12 3 38.4 11.7
-7 -12 3 40.8 11
6 12 -3 168.68 19.4
6 12 -3 165.88 21.7
-6 -12 3 192.78 20.7
-6 -12 3 208.88 20.1
5 12 -3 181.28 19.9
5 12 -3 174.08 18
-5 -12 3 149.19 18.4
-5 -12 3 169.68 17.5
4 12 -3 257.87 19.3
4 12 -3 237.08 21.1
-4 -12 3 225.78 19.6
-4 -12 3 237.88 19.1
3 12 -3 6 7.5
3 12 -3 4.3 8.1
-3 -12 3 5.8 7.4
-3 -12 3 15.1 8.2
2 12 -3 0.7 8.1
2 12 -3 2.8 6.3
-2 -12 3 3.2 6.9
-2 -12 3 0.9 7.8
1 12 -3 2.3 6.7
1 12 -3 2.1 7.4
-1 -12 3 1.9 6.7
-1 -12 3 9.9 7.6
0 12 -3 2.5 5.7
0 12 -3 -1.9 6.7
0 -12 3 6.2 6.5
0 -12 3 0 6.4
-1 12 -3 81.79 10.2
-1 12 -3 87.39 12.3
1 -12 3 78.89 10.8
1 -12 3 80.59 11.1
-2 12 -3 228.18 14.5
-2 12 -3 229.38 16
2 -12 3 223.88 14.8
2 -12 3 226.38 15.3
-3 12 -3 88.99 9.6
-3 12 -3 80.39 11.2
3 -12 3 100.59 10.6
3 -12 3 90.39 10
-4 12 -3 213.18 12.8
-4 12 -3 214.48 14.3
4 -12 3 197.98 13.2
4 -12 3 195.88 12.9
-5 12 -3 71.29 8
5 -12 3 74.49 8.5
5 -12 3 77.09 8.3
-6 12 -3 187.88 10.7
6 -12 3 185.28 11.1
6 -12 3 182.58 10.8
-7 12 -3 178.78 9.2
-7 12 -3 180.28 9.1
7 -12 3 167.48 9.3
7 -12 3 165.88 9.1
10 11 -3 386.86 28.7
10 11 -3 395.66 32.2
-10 -11 3 364.96 30
-10 -11 3 380.86 29.8
9 11 -3 233.58 25.7
9 11 -3 235.48 22.8
-9 -11 3 214.78 23.4
-9 -11 3 229.08 22.9
8 11 -3 77.29 13.9
8 11 -3 87.39 16.5
-8 -11 3 44.2 12.2
-8 -11 3 47 13.8
7 11 -3 420.76 28.4
7 11 -3 396.26 26.9
-7 -11 3 426.16 27.1
-7 -11 3 430.56 27.4
6 11 -3 673.13 35.4
6 11 -3 672.73 36.5
-6 -11 3 695.53 35.6
-6 -11 3 671.83 35.7
5 11 -3 271.57 21
5 11 -3 282.27 19.7
-5 -11 3 242.98 19.7
-5 -11 3 249.58 19.2
4 11 -3 37.3 9
4 11 -3 50.09 9.9
-4 -11 3 54.89 10.5
-4 -11 3 42 9
3 11 -3 854.61 39.2
3 11 -3 827.72 39.8
-3 -11 3 786.22 38.9
-3 -11 3 816.62 39.1
2 11 -3 1235.88 50.89
2 11 -3 1207.38 51.59
-2 -11 3 1026.7 50.19
-2 -11 3 1053.29 50.39
1 11 -3 794.72 34
1 11 -3 779.22 34.7
-1 -11 3 643.54 33.4
-1 -11 3 621.54 33.2
0 11 -3 435.46 23.8
0 11 -3 455.55 23
0 -11 3 458.05 23.4
0 -11 3 441.96 23.1
-1 11 -3 697.43 32.9
-1 11 -3 693.13 32.1
1 -11 3 692.43 32.4
1 -11 3 712.53 32.4
-2 11 -3 66.79 8.6
-2 11 -3 55.39 8.1
2 -11 3 58.49 8.5
2 -11 3 57.49 8.7
-3 11 -3 1495.65 63.59
-3 11 -3 1506.45 62.99
3 -11 3 1504.45 63.09
3 -11 3 1497.35 63.09
-4 11 -3 8.6 4.2
-4 11 -3 4.9 5.2
4 -11 3 7.8 4.3
4 -11 3 6.1 4.6
-5 11 -3 97.89 7.8
5 -11 3 104.79 8
5 -11 3 104.79 8.2
-6 11 -3 65.59 5.9
6 -11 3 60.69 6.5
6 -11 3 53.29 5.7
11 10 -3 24.7 12.3
11 10 -3 18.5 14.2
-11 -10 3 20.7 13.3
-11 -10 3 15.9 12.9
10 10 -3 39.7 13.6
10 10 -3 84.79 15.1
-10 -10 3 60.99 15.4
-10 -10 3 34.9 12.3
9 10 -3 158.98 19.1
9 10 -3 154.58 21.4
-9 -10 3 134.09 19.5
-9 -10 3 147.99 19.6
8 10 -3 65.59 12.5
8 10 -3 47.7 12.2
-8 -10 3 63.39 12.7
-8 -10 3 45.6 11.6
7 10 -3 327.17 23.2
-7 -10 3 304.87 21.8
-7 -10 3 292.37 22.1
6 10 -3 733.13 35.3
6 10 -3 742.43 36.1
-6 -10 3 653.03 34.8
-6 -10 3 657.63 35.1
5 10 -3 406.56 23.1
5 10 -3 370.46 23.5
-5 -10 3 410.76 23.5
-5 -10 3 380.66 22.9
4 10 -3 -0.1 6.4
4 10 -3 0.6 6.5
-4 -10 3 -1.4 6.1
-4 -10 3 0 6.6
3 10 -3 629.64 31.2
3 10 -3 671.43 30.8
-3 -10 3 602.04 30.6
-3 -10 3 590.34 30.4
2 10 -3 805.82 39
2 10 -3 816.62 38.4
-2 -10 3 885.51 38.9
-2 -10 3 864.71 39
1 10 -3 1026.5 45.9
1 10 -3 1008.2 46.4
-1 -10 3 1055.89 46.2
-1 -10 3 1074.69 46.2
0 10 -3 1083.39 48.4
0 10 -3 1088.89 47.9
0 -10 3 1094.89 48.1
0 -10 3 1142.89 48.2
-1 10 -3 94.29 8.7
-1 10 -3 93.39 9.9
1 -10 3 89.69 9.4
1 -10 3 94.89 9
-2 10 -3 1343.47 58.69
-2 10 -3 1360.96 58.29
2 -10 3 1420.26 58.49
2 -10 3 1412.56 58.39
-3 10 -3 4119.19 167.48
-3 10 -3 4185.48 167.08
3 -10 3 4079.39 167.08
3 -10 3 4123.89 167.08
-4 10 -3 259.57 13.7
-4 10 -3 243.38 12.5
4 -10 3 222.48 12.3
4 -10 3 222.88 12.6
-5 10 -3 557.24 24.7
5 -10 3 563.54 24.7
5 -10 3 593.74 24.8
-6 10 -3 244.48 11.4
-6 10 -3 248.58 11.6
6 -10 3 262.67 11.7
6 -10 3 253.67 11.5
12 9 -3 196.08 23.6
12 9 -3 165.08 22.2
-12 -9 3 179.88 23.9
-12 -9 3 177.88 24.5
11 9 -3 149.79 19.8
11 9 -3 157.18 23.2
-11 -9 3 180.08 21.8
-11 -9 3 150.98 21.8
10 9 -3 42.8 10.5
10 9 -3 63.29 15.3
-10 -9 3 80.29 14.4
-10 -9 3 21.1 10
9 9 -3 22.9 11.5
9 9 -3 31.7 10.6
-9 -9 3 33.1 11.4
-9 -9 3 25.6 11.3
8 9 -3 49.2 10.6
8 9 -3 46 9.2
-8 -9 3 51.29 9.6
-8 -9 3 43.4 9.8
7 9 -3 176.28 17.5
7 9 -3 223.98 17.2
-7 -9 3 190.98 17.2
-7 -9 3 190.08 16.8
6 9 -3 183.78 16.3
6 9 -3 174.98 15.1
-6 -9 3 180.58 15.8
-6 -9 3 172.08 15.3
5 9 -3 904.11 42.4
5 9 -3 917.31 41.7
-5 -9 3 898.91 41.7
-5 -9 3 868.51 41.8
4 9 -3 102.89 12.4
4 9 -3 120.99 11.1
-4 -9 3 99.79 11.7
-4 -9 3 105.99 11.3
3 9 -3 1223.98 54.19
3 9 -3 1263.07 53.79
-3 -9 3 1208.68 53.79
-3 -9 3 1226.18 53.79
2 9 -3 2397.16 102.49
2 9 -3 2473.55 102.89
-2 -9 3 2512.75 102.69
-2 -9 3 2496.95 102.69
1 9 -3 435.76 21.3
1 9 -3 428.86 21.9
-1 -9 3 424.66 21.4
-1 -9 3 430.56 21.7
0 9 -3 78.09 8.8
0 9 -3 74.49 7.6
0 -9 3 63.99 8.3
0 -9 3 56.19 7.6
-1 9 -3 390.96 18.9
-1 9 -3 376.16 19.3
1 -9 3 396.26 19
1 -9 3 390.76 19.1
-2 9 -3 2646.84 109.69
-2 9 -3 2705.33 109.49
2 -9 3 2632.44 109.39
2 -9 3 2742.13 109.59
-3 9 -3 3119.29 126.99
-3 9 -3 3107.69 127.19
3 -9 3 3118.59 126.99
3 -9 3 3179.48 126.99
-4 9 -3 733.83 32
-4 9 -3 706.33 32.3
4 -9 3 784.72 32.1
4 -9 3 797.22 32.1
-5 9 -3 413.16 18.2
5 -9 3 414.96 18.1
5 -9 3 429.06 18.2
13 8 -3 85.79 14.8
12 8 -3 347.77 26.4
12 8 -3 354.76 29
-12 -8 3 362.56 27.7
-12 -8 3 369.76 28.1
11 8 -3 789.52 38.6
11 8 -3 757.62 40.4
-11 -8 3 667.23 38.6
-11 -8 3 679.33 38.7
10 8 -3 416.56 27.7
10 8 -3 459.75 26.4
-10 -8 3 405.36 26.5
-10 -8 3 394.86 26.5
9 8 -3 66.39 11.2
9 8 -3 102.69 14.3
-9 -8 3 110.09 15.1
-9 -8 3 118.49 15.6
8 8 -3 1006.5 45.7
8 8 -3 953.5 44.7
-8 -8 3 939.01 44.9
-8 -8 3 909.41 44.9
7 8 -3 932.61 42.9
7 8 -3 953.5 43.5
-7 -8 3 867.31 42.7
-7 -8 3 918.51 43.1
6 8 -3 165.08 13.8
6 8 -3 168.58 14.6
-6 -8 3 176.98 14.2
-6 -8 3 172.68 14.3
5 8 -3 184.48 13.5
5 8 -3 165.28 14.3
-5 -8 3 208.88 14.1
-5 -8 3 183.18 14.1
4 8 -3 651.53 31.3
4 8 -3 649.54 30.8
-4 -8 3 653.33 30.9
-4 -8 3 657.93 31.1
3 8 -3 70.49 8.4
3 8 -3 68.69 9.5
-3 -8 3 60.69 9.1
-3 -8 3 77.19 8.6
2 8 -3 150.18 11.6
2 8 -3 158.18 10.9
-2 -8 3 156.78 11.3
-2 -8 3 159.38 11
1 8 -3 278.87 15.1
1 8 -3 270.47 14.5
-1 -8 3 270.27 14.6
-1 -8 3 256.47 14.6
0 8 -3 586.34 26.7
0 8 -3 617.04 27.2
0 -8 3 583.24 26.8
0 -8 3 587.84 26.9
-1 8 -3 611.14 28.1
-1 8 -3 628.94 27.8
1 -8 3 639.44 28
1 -8 3 643.44 27.9
-2 8 -3 1141.69 48.9
-2 8 -3 1159.08 48.7
2 -8 3 1187.48 48.7
2 -8 3 1179.18 48.8
-3 8 -3 1353.86 55.99
-3 8 -3 1347.97 55.69
3 -8 3 1374.46 55.79
3 -8 3 1339.37 55.69
-4 8 -3 1003.9 42.2
-4 8 -3 1008.8 41.9
4 -8 3 1038.3 42
4 -8 3 1019.8 41.9
-5 8 -3 124.39 6.1
13 7 -3 497.45 33
13 7 -3 499.45 31
-13 -7 3 446.76 31
-13 -7 3 423.56 31.6
12 7 -3 444.26 30.7
12 7 -3 483.85 29.1
-12 -7 3 451.15 29.4
-12 -7 3 461.15 29.7
11 7 -3 508.45 28.8
11 7 -3 505.35 30.3
-11 -7 3 491.65 29.4
-11 -7 3 464.65 29.2
10 7 -3 8.8 7.4
10 7 -3 21.4 9.8
-10 -7 3 10.1 7.9
-10 -7 3 13 8.2
9 7 -3 440.36 23.6
9 7 -3 410.46 24.4
-9 -7 3 352.56 23.3
-9 -7 3 350.76 23.3
8 7 -3 570.04 28.9
8 7 -3 585.74 29.8
-8 -7 3 529.85 28.9
-8 -7 3 546.25 29
7 7 -3 896.31 42.7
7 7 -3 927.61 42.3
-7 -7 3 921.11 42.4
-7 -7 3 930.41 42.5
6 7 -3 1755.32 74.89
6 7 -3 1706.03 75.19
-6 -7 3 1771.42 75.09
-6 -7 3 1800.32 75.19
5 7 -3 54.59 8.1
5 7 -3 39.5 6.4
-5 -7 3 52.59 7.7
-5 -7 3 43.7 6.6
4 7 -3 3336.97 133.99
4 7 -3 3269.57 133.69
-4 -7 3 3173.18 133.69
-4 -7 3 3238.78 133.69
3 7 -3 1932.31 80.89
3 7 -3 1938.21 81.19
-3 -7 3 1950.3 80.99
-3 -7 3 1940.41 80.99
2 7 -3 700.33 29.9
2 7 -3 682.03 30.2
-2 -7 3 638.24 29.7
-2 -7 3 630.44 29.8
1 7 -3 311.07 15.6
1 7 -3 327.37 16.1
-1 -7 3 301.27 15.7
-1 -7 3 308.37 15.7
0 7 -3 57.09 6.4
0 7 -3 53.09 5.7
0 -7 3 50.79 5.7
0 -7 3 50.19 6
-1 7 -3 149.69 9
-1 7 -3 146.79 8.4
1 -7 3 144.29 8.6
1 -7 3 140.19 8.5
-2 7 -3 1089.39 45.5
-2 7 -3 1087.59 45.3
2 -7 3 1102.99 45.4
2 -7 3 1096.09 45.4
-3 7 -3 191.58 9.7
-3 7 -3 190.38 9.4
3 -7 3 189.88 9.3
3 -7 3 190.38 9.7
-4 7 -3 488.35 21.4
-4 7 -3 571.24 21.3
4 -7 3 498.75 21.3
4 -7 3 486.05 21.2
14 6 -3 37 13.7
14 6 -3 55.69 14.6
-14 -6 3 32.7 12.7
-14 -6 3 51.99 14.7
13 6 -3 271.57 24.8
13 6 -3 279.17 22.5
-13 -6 3 243.18 23
-13 -6 3 255.27 23.5
12 6 -3 16.4 9
12 6 -3 21.6 11.9
-12 -6 3 21.8 10.3
-12 -6 3 41.2 11.9
11 6 -3 101.29 12.9
-11 -6 3 113.49 15.7
-11 -6 3 113.19 16.1
10 6 -3 17.8 8.2
10 6 -3 17.1 9.4
-10 -6 3 14 8.8
-10 -6 3 19 8.1
9 6 -3 419.96 24
9 6 -3 448.66 25.1
-9 -6 3 437.06 24.5
-9 -6 3 427.06 24.2
8 6 -3 1485.15 65.99
8 6 -3 1448.16 66.29
-8 -6 3 1622.44 66.69
-8 -6 3 1552.44 66.49
7 6 -3 1798.62 79.39
7 6 -3 1775.32 79.69
-7 -6 3 1962.5 79.99
-7 -6 3 1973.3 79.99
6 6 -3 438.96 22.9
6 6 -3 463.95 23.5
-6 -6 3 473.95 23.5
-6 -6 3 452.45 23.2
5 6 -3 22.9 6.2
5 6 -3 17.7 4.7
-5 -6 3 26.4 6.2
-5 -6 3 19.1 4.9
4 6 -3 1322.67 55.79
4 6 -3 1317.47 55.99
-4 -6 3 1294.17 55.79
-4 -6 3 1297.57 55.79
3 6 -3 1683.23 71.39
3 6 -3 1702.53 71.59
-3 -6 3 1741.93 71.59
-3 -6 3 1728.13 71.59
2 6 -3 446.46 22.3
2 6 -3 464.35 22.1
-2 -6 3 510.45 22.4
-2 -6 3 506.85 22.4
1 6 -3 10.5 3.2
1 6 -3 14.9 3.7
-1 -6 3 25.5 4.3
-1 -6 3 15.7 3.4
0 6 -3 313.57 14.1
0 6 -3 296.17 14.2
0 -6 3 290.87 14.1
0 -6 3 272.07 13.9
-1 6 -3 301.17 15
-1 6 -3 296.07 14.7
1 -6 3 342.27 14.9
1 -6 3 364.06 15.1
-2 6 -3 484.65 19.3
-2 6 -3 459.75 19.1
2 -6 3 427.16 19
2 -6 3 398.96 18.9
-3 6 -3 212.28 9.8
-3 6 -3 208.98 9.9
3 -6 3 227.28 9.8
3 -6 3 226.38 9.9
14 5 -3 134.79 17.7
14 5 -3 74.99 14.2
-14 -5 3 120.79 16.1
-14 -5 3 105.89 15.2
13 5 -3 34 11.6
13 5 -3 18.8 10.5
-13 -5 3 23.8 11.4
-13 -5 3 13.7 9.8
12 5 -3 30.8 8.8
12 5 -3 31.2 10.1
-12 -5 3 30.5 10
-12 -5 3 17.5 8.5
11 5 -3 24.1 8.6
11 5 -3 20.8 9.1
-11 -5 3 26.6 8.2
-11 -5 3 27.2 8.8
10 5 -3 353.56 22
10 5 -3 357.06 21.4
-10 -5 3 366.86 21.9
-10 -5 3 365.46 21.8
9 5 -3 916.61 42.7
9 5 -3 939.01 43.3
-9 -5 3 931.51 43
-9 -5 3 944.81 43
8 5 -3 461.35 24.3
8 5 -3 447.26 23.6
-8 -5 3 493.35 24.2
-8 -5 3 437.36 23.9
7 5 -3 35.3 7.4
7 5 -3 34.1 6.7
-7 -5 3 16.8 6.2
-7 -5 3 18.9 6.3
6 5 -3 822.02 37.3
6 5 -3 830.72 37.1
-6 -5 3 832.82 37.2
-6 -5 3 827.02 37.3
5 5 -3 290.17 15.4
5 5 -3 293.07 15.2
-5 -5 3 261.67 15.2
-5 -5 3 263.27 15.1
4 5 -3 1402.96 61.09
4 5 -3 1369.36 60.59
-4 -5 3 1529.25 61.29
-4 -5 3 1477.95 60.89
3 5 -3 2130.79 87.59
3 5 -3 2102.99 87.59
-3 -5 3 2176.68 87.69
-3 -5 3 2102.09 87.59
2 5 -3 773.52 34.5
2 5 -3 783.32 34.6
-2 -5 3 833.92 34.7
-2 -5 3 832.32 34.7
1 5 -3 1888.31 75.59
1 5 -3 1852.21 75.59
-1 -5 3 1815.82 75.49
-1 -5 3 1821.82 75.49
0 5 -3 566.74 22.4
0 5 -3 566.44 22.3
0 -5 3 453.35 22
0 -5 3 460.95 22
-1 5 -3 1918.81 82.59
-1 5 -3 1875.81 82.49
1 -5 3 2132.39 82.59
1 -5 3 2233.18 82.69
-2 5 -3 695.73 32.1
-2 5 -3 692.63 32
2 -5 3 867.21 32.2
2 -5 3 870.31 32.2
-3 5 -3 1060.89 43.7
-3 5 -3 1065.39 43.7
3 -5 3 1077.89 43.7
3 -5 3 1131.39 43.7
-9 5 -3 224.68 10.3
-9 5 -3 232.18 10.4
9 -5 3 222.68 10.6
9 -5 3 224.78 10.1
-10 5 -3 74.19 5.7
-10 5 -3 75.39 5.7
10 -5 3 71.69 6.1
10 -5 3 74.69 5.4
-11 5 -3 288.27 14.1
-11 5 -3 306.57 14.2
11 -5 3 303.77 14.6
11 -5 3 299.47 13.9
-12 5 -3 46.4 6.3
-12 5 -3 49.3 6.6
12 -5 3 52.39 6.2
12 -5 3 56.09 7.3
-13 5 -3 10.2 4.6
-13 5 -3 7.7 4.4
13 -5 3 12.5 4.4
13 -5 3 6.9 5.3
-14 5 -3 58.09 8.4
-14 5 -3 55.79 8.3
14 -5 3 56.09 7.8
14 -5 3 52.19 7.5
14 4 -3 470.45 28
14 4 -3 467.05 29
-14 -4 3 391.26 27.9
-14 -4 3 386.26 27.3
13 4 -3 297.77 22.9
13 4 -3 307.17 21.8
-13 -4 3 277.27 21.1
-13 -4 3 277.27 21.8
12 4 -3 264.97 20.5
12 4 -3 255.37 19.4
-12 -4 3 296.07 20.4
-12 -4 3 294.97 20.7
11 4 -3 63.79 11.2
11 4 -3 47.2 8.7
-11 -4 3 39.4 9.1
-11 -4 3 47.8 9.7
10 4 -3 162.58 14.1
10 4 -3 159.58 14.4
-10 -4 3 181.98 14.6
-10 -4 3 187.78 14.8
9 4 -3 140.79 13.1
9 4 -3 144.49 12.8
-9 -4 3 163.18 13.2
-9 -4 3 160.18 13
8 4 -3 306.07 17.8
8 4 -3 321.97 17.7
-8 -4 3 306.07 17.7
-8 -4 3 311.57 17.9
7 4 -3 320.67 17.4
7 4 -3 322.07 17.9
-7 -4 3 336.67 17.8
-7 -4 3 333.47 17.9
6 4 -3 947.51 42
6 4 -3 971.8 41.9
-6 -4 3 948.81 41.9
-6 -4 3 968.4 42
5 4 -3 66.19 8.6
5 4 -3 50.39 6.5
-5 -4 3 53.09 6.6
-5 -4 3 67.79 9.9
4 4 -3 116.89 8.3
4 4 -3 103.89 8.3
-4 -4 3 140.59 8.7
-4 -4 3 139.79 8.7
3 4 -3 265.17 14
3 4 -3 257.57 14.2
-3 -4 3 311.27 14.4
-3 -4 3 328.17 14.5
2 4 -3 26.4 3.8
2 4 -3 36.3 4.5
-2 -4 3 38.2 4.4
-2 -4 3 38.7 4.5
1 4 -3 647.44 27
1 4 -3 640.44 26.9
-1 -4 3 618.34 26.9
-1 -4 3 619.14 26.9
0 4 -3 2095.09 86.49
0 4 -3 2115.19 86.49
0 -4 3 2193.68 86.49
0 -4 3 2145.29 86.49
-2 4 -3 2571.34 98.69
2 -4 3 2380.06 98.59
2 -4 3 2426.76 98.69
-6 4 -3 764.02 30.4
-6 4 -3 766.92 30.4
6 -4 3 699.73 30.3
-7 4 -3 288.37 12.6
-7 4 -3 288.87 12.6
7 -4 3 281.07 12.8
7 -4 3 277.97 12.5
-8 4 -3 95.99 6
-8 4 -3 98.29 6.1
8 -4 3 85.89 5.7
8 -4 3 86.49 6.3
-9 4 -3 303.77 14.7
-9 4 -3 315.27 14.7
9 -4 3 311.67 14.9
9 -4 3 311.27 14.4
-10 4 -3 819.12 36.1
-10 4 -3 806.72 36
10 -4 3 888.01 36.4
10 -4 3 889.31 36
-11 4 -3 48.2 7.2
-11 4 -3 47.4 6.8
11 -4 3 58.49 6.8
11 -4 3 53.99 7.6
-12 4 -3 113.59 9.7
-12 4 -3 106.59 9.2
12 -4 3 116.69 9.3
12 -4 3 123.99 10.3
-13 4 -3 13.4 5.3
-13 4 -3 13.9 5.9
13 -4 3 21.2 5.8
-14 4 -3 14.2 6.6
-14 4 -3 6.1 5.7
14 -4 3 10.4 6.8
14 -4 3 15.9 6.2
15 3 -3 83.99 15.5
15 3 -3 59.99 13.4
-15 -3 3 46.5 11.8
-15 -3 3 30.6 12.1
14 3 -3 123.79 16.8
14 3 -3 106.99 14.5
-14 -3 3 119.99 15.1
-14 -3 3 106.09 14.7
13 3 -3 296.07 21.9
13 3 -3 282.17 20.7
-13 -3 3 313.97 21.3
-13 -3 3 308.97 21.9
12 3 -3 212.88 16.7
12 3 -3 187.88 17.7
-12 -3 3 226.68 17.6
-12 -3 3 229.28 17.3
11 3 -3 445.86 25.3
11 3 -3 467.15 25.9
-11 -3 3 561.74 26.4
-11 -3 3 471.15 25.8
10 3 -3 3598.54 149.79
10 3 -3 3661.03 150.18
-10 -3 3 3624.54 149.99
-10 -3 3 3695.83 150.18
9 3 -3 4390.76 185.08
9 3 -3 4584.94 184.98
-9 -3 3 4608.14 185.18
-9 -3 3 4559.54 185.08
8 3 -3 1784.32 73.59
8 3 -3 1766.22 73.79
-8 -3 3 1730.03 73.59
-8 -3 3 1704.63 73.59
7 3 -3 61.69 7.5
7 3 -3 32.5 5.4
-7 -3 3 44.9 6.3
-7 -3 3 50.79 7.1
6 3 -3 41.1 5.8
6 3 -3 57.19 6.7
-6 -3 3 45.7 6.5
-6 -3 3 44.2 6.5
5 3 -3 124.49 8.1
5 3 -3 125.09 8.4
-5 -3 3 100.39 7.9
-5 -3 3 102.29 7.9
4 3 -3 1143.89 48.6
4 3 -3 1102.49 48.4
-4 -3 3 1197.78 48.7
-4 -3 3 1186.48 48.6
3 3 -3 793.22 32.3
3 3 -3 763.42 32.3
-3 -3 3 754.82 32.2
-3 -3 3 708.93 32.1
2 3 -3 397.66 17.2
2 3 -3 371.76 17.2
-2 -3 3 366.36 17.1
-2 -3 3 395.96 17.2
1 3 -3 2158.98 85.79
1 3 -3 2119.99 85.89
-1 -3 3 2084.89 85.79
-1 -3 3 2110.49 85.79
-1 3 -3 3312.97 127.09
1 -3 3 3025.3 127.09
-2 3 -3 1113.29 43.6
-2 3 -3 1159.78 43.6
2 -3 3 1055.09 43.6
2 -3 3 988 43.5
-3 3 -3 162.48 7
-3 3 -3 154.28 6.8
3 -3 3 147.09 6.8
3 -3 3 144.99 6.7
-4 3 -3 580.04 24.9
-4 3 -3 606.94 25
4 -3 3 631.74 24.9
-5 3 -3 666.53 26.5
-5 3 -3 681.43 26.5
5 -3 3 594.44 26.4
5 -3 3 598.34 26.6
-6 3 -3 1449.26 56.49
-6 3 -3 1449.95 56.49
6 -3 3 1343.97 56.59
6 -3 3 1285.77 56.29
-7 3 -3 1182.08 47.5
-7 3 -3 1154.58 47.4
7 -3 3 1108.89 47.3
7 -3 3 1145.39 47.6
-8 3 -3 138.99 8.6
-8 3 -3 144.09 8.5
8 -3 3 147.29 9
8 -3 3 150.28 8.5
-9 3 -3 421.16 18.7
-9 3 -3 430.76 18.8
9 -3 3 367.16 18.7
9 -3 3 364.06 18.2
-10 3 -3 312.47 16.5
-10 3 -3 311.67 16.4
10 -3 3 344.77 16.5
10 -3 3 352.26 17.1
-11 3 -3 410.66 19.7
-11 3 -3 414.36 19.8
11 -3 3 378.76 19.3
11 -3 3 390.66 20.2
-12 3 -3 59.49 8.6
-12 3 -3 65.59 9.2
12 -3 3 59.69 8.5
12 -3 3 63.09 8.2
-13 3 -3 64.39 8.4
-13 3 -3 65.39 8.5
13 -3 3 78.99 9.5
13 -3 3 68.69 9.8
-14 3 -3 58.79 8.8
-14 3 -3 47.5 8
14 -3 3 55.39 8.5
14 -3 3 51.99 9.5
15 2 -3 275.87 24.4
15 2 -3 281.77 23.3
-15 -2 3 288.97 23
-15 -2 3 282.57 22.4
14 2 -3 417.76 25.3
14 2 -3 413.46 26.6
-14 -2 3 414.06 25.6
-14 -2 3 435.16 26.2
13 2 -3 355.16 23
13 2 -3 353.86 21.8
-13 -2 3 354.76 22.5
-13 -2 3 344.57 22
12 2 -3 361.76 21.7
12 2 -3 341.07 20.7
-12 -2 3 344.37 21.1
-12 -2 3 349.27 21.3
11 2 -3 28.8 6.9
11 2 -3 44.2 8.7
-11 -2 3 44.8 8.2
-11 -2 3 33.2 7.7
10 2 -3 1033.6 46.9
10 2 -3 1053.69 47.3
-10 -2 3 1074.59 47.3
-10 -2 3 1099.49 47.4
9 2 -3 3281.07 136.59
9 2 -3 3292.97 136.39
-9 -2 3 3427.46 136.69
-9 -2 3 3304.97 136.59
8 2 -3 1702.83 71.39
8 2 -3 1675.03 71.09
-8 -2 3 1726.83 71.29
-8 -2 3 1680.73 71.19
7 2 -3 1424.06 60.49
7 2 -3 1438.96 60.89
-7 -2 3 1443.46 60.69
-7 -2 3 1454.25 60.79
6 2 -3 771.32 31.7
6 2 -3 748.53 32.2
-6 -2 3 682.93 31.9
-6 -2 3 673.23 31.5
5 2 -3 82.59 6.5
5 2 -3 83.79 6.8
4 2 -3 1147.29 51.39
4 2 -3 1147.49 51.29
-4 -2 3 1333.97 51.59
-4 -2 3 1325.67 51.59
3 2 -3 2530.65 98.29
3 2 -3 2519.55 98.19
-3 -2 3 2269.47 98.09
-3 -2 3 2356.56 98.09
2 2 -3 549.85 22.7
2 2 -3 523.55 22.7
-2 -2 3 528.35 22.6
-2 -2 3 511.95 22.6
1 2 -3 1873.71 72.09
1 2 -3 1864.81 72.09
-1 -2 3 1715.33 71.99
-1 -2 3 1659.23 71.99
0 2 -3 1009.8 38.2
0 2 -3 994 38.2
0 -2 3 871.41 38.1
0 -2 3 851.91 38
-1 2 -3 3199.08 129.09
1 -2 3 3236.48 129.09
-2 2 -3 1288.37 52.69
2 -2 3 1294.27 52.69
2 -2 3 1320.27 52.59
-3 2 -3 1250.67 51.49
-3 2 -3 1269.97 51.39
3 -2 3 1273.57 51.39
-4 2 -3 482.75 20.9
-4 2 -3 497.05 21
4 -2 3 480.85 20.9
4 -2 3 509.35 21.1
-5 2 -3 740.73 31.1
-5 2 -3 736.03 31.2
5 -2 3 730.33 31.1
5 -2 3 758.82 31.4
-6 2 -3 317.57 15.4
-6 2 -3 330.77 15.4
6 -2 3 343.97 15.4
6 -2 3 351.26 15.8
-7 2 -3 152.18 8.7
-7 2 -3 149.69 8.6
7 -2 3 132.99 8.3
7 -2 3 130.09 8.8
-8 2 -3 218.98 12.2
-8 2 -3 230.18 12.4
8 -2 3 237.38 12.1
8 -2 3 233.18 12.7
-9 2 -3 866.21 37.8
-9 2 -3 857.41 37.6
9 -2 3 881.71 37.6
9 -2 3 869.81 37.9
-10 2 -3 554.74 25.8
-10 2 -3 554.84 25.5
10 -2 3 543.75 25.4
10 -2 3 537.55 25.9
-11 2 -3 352.86 17.8
-11 2 -3 327.77 17.5
11 -2 3 293.17 17.8
11 -2 3 307.77 17.2
-12 2 -3 3.6 5.8
-12 2 -3 4.2 5.5
12 -2 3 2.5 6.4
12 -2 3 4.5 5.6
-13 2 -3 189.88 14.6
-13 2 -3 198.28 14.4
13 -2 3 175.08 15.7
13 -2 3 163.58 14
-14 2 -3 154.88 14.4
-14 2 -3 163.28 14.8
14 -2 3 124.69 15.2
14 -2 3 138.69 16
15 1 -3 46 13.3
15 1 -3 64.99 12.5
-15 -1 3 35.7 10.4
-15 -1 3 37.5 10.9
14 1 -3 47.7 9.7
14 1 -3 78.89 12.4
-14 -1 3 59.69 10.7
-14 -1 3 61.89 10.5
13 1 -3 128.09 13.9
13 1 -3 138.49 15.4
-13 -1 3 123.19 14.6
-13 -1 3 155.18 14.5
12 1 -3 25.8 8
12 1 -3 23.8 7
-12 -1 3 16.3 7.1
-12 -1 3 23.5 7.9
11 1 -3 180.88 13.8
11 1 -3 180.58 13.3
-11 -1 3 175.28 13.6
-11 -1 3 177.28 13.9
10 1 -3 32.3 6
10 1 -3 28.2 6.2
9 1 -3 1038.1 45.7
9 1 -3 1023.7 45.3
-9 -1 3 1079.49 45.7
-9 -1 3 1047.5 45.6
8 1 -3 535.45 25.3
8 1 -3 560.44 25.7
-8 -1 3 555.44 25.7
-8 -1 3 553.64 25.6
7 1 -3 219.98 12.1
7 1 -3 218.18 12.4
-7 -1 3 221.68 12.4
-7 -1 3 220.68 12.5
6 1 -3 115.19 8.3
6 1 -3 121.29 8.7
-6 -1 3 156.18 9.1
-6 -1 3 158.48 9.1
5 1 -3 1642.74 72.09
5 1 -3 1621.14 71.99
-5 -1 3 1878.31 72.39
-5 -1 3 1886.41 72.39
4 1 -3 6982.2 280.07
3 1 -3 6776.52 271.67
2 1 -3 965.8 40.2
2 1 -3 976.5 40.3
-2 -1 3 973.6 40.2
-2 -1 3 991.6 40.3
0 1 -3 1380.56 54.39
0 1 -3 1327.47 54.49
0 -1 3 1317.47 54.49
0 -1 3 1338.17 54.39
1 -1 3 5337.27 213.58
-2 1 -3 2967.9 118.99
2 -1 3 2934.41 118.79
-3 1 -3 994 41.4
-3 1 -3 983.6 41.5
3 -1 3 1005.5 41.6
3 -1 3 1030.2 41.4
-4 1 -3 197.08 9.2
-4 1 -3 191.48 9.3
4 -1 3 144.29 9.1
-5 1 -3 690.93 28.6
-5 1 -3 699.33 28.6
5 -1 3 598.74 28.2
5 -1 3 645.54 28.6
-6 1 -3 64.19 6.1
-6 1 -3 58.19 5.9
6 -1 3 53.59 6.5
6 -1 3 56.69 5.6
-7 1 -3 43.5 5.8
-7 1 -3 39.2 5.2
7 -1 3 43.5 6.4
7 -1 3 41.4 5.5
-8 1 -3 118.29 9
-8 1 -3 121.39 9.2
8 -1 3 124.49 9.6
8 -1 3 123.99 8.9
-9 1 -3 32.7 5.8
-9 1 -3 35.8 6.1
9 -1 3 22.5 5.1
9 -1 3 28.4 6
-10 1 -3 47.2 7
-10 1 -3 43.5 7.1
10 -1 3 43.3 6.6
10 -1 3 50.79 7.6
-11 1 -3 76.99 9.9
-11 1 -3 79.39 10.3
11 -1 3 58.19 7.8
11 -1 3 54.69 8.6
-12 1 -3 18.1 6.8
-12 1 -3 17.3 7
12 -1 3 25.6 7
12 -1 3 13.1 7.4
-13 1 -3 0.9 6.8
-13 1 -3 8.8 7.3
13 -1 3 20.1 8.8
13 -1 3 14.4 7.2
-14 1 -3 168.58 16.4
-14 1 -3 179.98 17
14 -1 3 219.08 19.9
14 -1 3 197.78 19
15 0 -3 311.27 23.6
15 0 -3 330.57 23.3
-15 0 3 347.67 22.3
-15 0 3 305.27 21.9
14 0 -3 280.87 20.5
14 0 -3 303.57 19.4
-14 0 3 288.77 19.8
-14 0 3 297.57 20.1
13 0 -3 434.66 23.9
13 0 -3 433.16 23.1
-13 0 3 412.16 23.6
-13 0 3 419.86 23.7
12 0 -3 20.2 6.5
12 0 -3 26.8 7.5
-12 0 3 22.2 6.9
-12 0 3 20.5 6.8
11 0 -3 109.89 10.8
11 0 -3 115.69 11.2
-11 0 3 119.59 11.1
-11 0 3 108.89 10.9
10 0 -3 714.93 31.4
10 0 -3 661.33 31.5
-10 0 3 701.33 31.5
-10 0 3 662.93 31.4
9 0 -3 24.8 5.2
9 0 -3 24.1 5.5
-9 0 3 17.3 4.9
-9 0 3 22 5.1
8 0 -3 463.15 21.9
8 0 -3 485.45 22.3
-8 0 3 450.95 22
-8 0 3 483.95 22.2
7 0 -3 467.05 21.3
7 0 -3 454.05 21.4
-7 0 3 467.85 21.5
-7 0 3 467.35 21.5
6 0 -3 712.73 30.8
6 0 -3 712.93 31
-6 0 3 723.33 31
-6 0 3 716.53 31
5 0 -3 1959.7 78.49
5 0 -3 1958.7 78.29
-5 0 3 1856.01 78.29
-5 0 3 1894.51 78.39
4 0 -3 909.71 35.3
4 0 -3 932.11 35.2
-4 0 3 749.13 35
-4 0 3 763.12 35.1
3 0 -3 729.43 29.8
3 0 -3 695.33 29.8
-3 0 3 702.93 29.9
-3 0 3 705.23 29.7
2 0 -3 124.79 6.9
2 0 -3 128.79 6.9
-2 0 3 128.19 6.9
-2 0 3 136.99 7
1 0 -3 625.94 28.1
1 0 -3 637.64 28.3
-1 0 3 735.83 28.4
-1 0 3 711.63 28.3
0 0 3 631.54 26.8
0 0 3 646.44 26.7
-1 0 -3 204.88 10.1
-1 0 -3 215.68 10.5
-2 0 -3 2178.68 85.29
-2 0 -3 2129.69 85.09
2 0 3 2022.9 84.99
2 0 3 2042.5 85.19
-3 0 -3 1559.24 66.49
-3 0 -3 1559.44 66.29
3 0 3 1681.63 66.69
3 0 3 1678.73 66.39
-4 0 -3 1797.92 70.89
-4 0 -3 1809.32 70.79
4 0 3 1682.73 70.89
4 0 3 1594.64 70.59
-5 0 -3 1329.17 56.19
-5 0 -3 1337.97 56.29
5 0 3 1386.96 56.49
5 0 3 1337.97 56.19
-6 0 -3 16.5 4.1
-6 0 -3 21.5 4.4
6 0 3 22 4.6
6 0 3 19.2 4
-7 0 -3 101.19 8.4
-7 0 -3 97.69 8.4
7 0 3 98.79 8
7 0 3 94.59 8.8
-8 0 -3 231.58 13.6
-8 0 -3 239.48 13.7
8 0 3 230.58 14
8 0 3 212.78 13.2
-9 0 -3 390.36 20.4
-9 0 -3 377.66 20.5
9 0 3 393.56 20.2
9 0 3 413.06 20.9
-10 0 -3 105.79 10.8
-10 0 -3 94.69 10.6
10 0 3 95.19 10.2
10 0 3 95.99 11.3
-11 0 -3 43.2 7.9
-11 0 -3 29.8 7.3
11 0 3 33.6 7.2
11 0 3 27 7.6
-12 0 -3 116.09 13.6
-12 0 -3 104.09 12.8
12 0 3 109.69 12.7
12 0 3 124.69 14.7
-13 0 -3 132.39 15.2
-13 0 -3 131.79 14.8
13 0 3 126.59 16.5
13 0 3 126.59 14.3
-14 0 -3 72.89 11.6
-14 0 -3 107.69 12.8
14 0 3 60.99 12.4
14 0 3 101.99 14.4
15 -1 -3 573.44 30.5
15 -1 -3 548.55 30.4
-15 1 3 548.25 29.4
-15 1 3 563.64 29.7
14 -1 -3 204.88 16.1
14 -1 -3 210.98 17.7
-14 1 3 257.17 17.3
-14 1 3 241.98 17.2
13 -1 -3 97.49 11.3
13 -1 -3 96.09 12.4
-13 1 3 89.19 11.9
-13 1 3 85.09 11.9
12 -1 -3 38.3 7.1
12 -1 -3 31.2 7.3
-12 1 3 29.1 6.9
-12 1 3 23 6.6
11 -1 -3 259.77 16.3
11 -1 -3 256.27 15.8
-11 1 3 303.67 16.6
-11 1 3 324.87 16.7
10 -1 -3 1011.2 42.6
10 -1 -3 1037.9 43.1
-10 1 3 952.3 42.7
-10 1 3 923.91 42.6
9 -1 -3 372.86 18.8
9 -1 -3 379.46 18.4
-9 1 3 373.96 18.7
-9 1 3 386.46 18.8
8 -1 -3 4.9 3.7
8 -1 -3 4.4 3.2
-8 1 3 7.6 3.8
-8 1 3 6 3.7
7 -1 -3 505.65 22.9
7 -1 -3 493.25 23.1
-7 1 3 523.25 23.2
-7 1 3 531.75 23.3
6 -1 -3 1509.55 63.09
6 -1 -3 1488.75 63.29
-6 1 3 1580.64 63.39
-6 1 3 1560.04 63.39
5 -1 -3 1666.83 68.39
5 -1 -3 1645.34 68.29
-5 1 3 1670.13 68.39
-5 1 3 1692.83 68.49
4 -1 -3 357.26 16.1
4 -1 -3 369.06 16
-4 1 3 350.56 16
-4 1 3 345.57 16.1
3 -1 -3 2523.45 103.29
3 -1 -3 2546.95 103.09
-3 1 3 2612.24 103.29
-3 1 3 2522.55 103.19
2 -1 -3 5136.89 205.78
-2 1 3 5113.79 205.78
1 -1 -3 2898.51 123.39
-1 1 3 3133.29 123.49
-1 1 3 3144.59 123.29
0 -1 -3 112.99 6.6
0 -1 -3 108.99 6.9
0 1 3 93.89 6.3
-1 -1 -3 2754.62 113.79
-1 -1 -3 2863.91 114.09
1 1 3 2775.32 113.99
1 1 3 2848.11 113.89
-2 -1 -3 1904.81 79.19
-2 -1 -3 1983.8 79.49
2 1 3 1944.51 79.49
2 1 3 1919.81 79.29
-3 -1 -3 1369.86 59.89
-3 -1 -3 1399.56 60.19
3 1 3 1538.55 60.49
3 1 3 1489.95 60.09
-4 -1 -3 9589.54 369.86
4 1 3 8963.5 369.76
4 1 3 9097.09 369.96
-5 -1 -3 2997.3 122.49
-5 -1 -3 3137.09 122.79
5 1 3 2993.6 122.79
5 1 3 2882.21 122.39
-6 -1 -3 252.37 14.7
-6 -1 -3 276.67 15.1
6 1 3 309.07 15.6
6 1 3 283.27 14.9
-7 -1 -3 308.27 16.4
-7 -1 -3 330.87 16.6
7 1 3 288.47 16.6
7 1 3 273.17 15.8
-8 -1 -3 863.81 38.3
-8 -1 -3 877.41 38.4
8 1 3 850.81 38.6
8 1 3 819.42 38
-9 -1 -3 1130.09 48.4
-9 -1 -3 1110.79 48.4
9 1 3 1081.29 48.1
9 1 3 1053.89 48.5
-10 -1 -3 367.66 20.7
-10 -1 -3 350.96 20.8
10 1 3 371.56 20.6
10 1 3 386.26 21.5
-11 -1 -3 20.5 7.5
-11 -1 -3 17.1 7.4
11 1 3 18.9 7.2
11 1 3 19.5 8
-12 -1 -3 12.8 7.6
-12 -1 -3 12.7 8.2
12 1 3 12.4 9.3
12 1 3 7.7 7.1
-13 -1 -3 110.39 15.3
-13 -1 -3 109.89 15.9
13 1 3 101.99 15
13 1 3 127.09 17.9
-14 -1 -3 176.88 19.3
-14 -1 -3 157.68 18.5
14 1 3 155.38 20.7
14 1 3 177.18 22.4
15 -2 -3 147.09 16.9
15 -2 -3 133.99 16.1
-15 2 3 145.59 15
-15 2 3 133.29 14.8
14 -2 -3 128.79 14.4
14 -2 -3 143.69 12.9
-14 2 3 151.18 14
-14 2 3 166.58 14.3
13 -2 -3 270.47 17.4
13 -2 -3 271.27 16.3
-13 2 3 278.47 17.1
-13 2 3 273.47 17.1
12 -2 -3 344.87 19.4
12 -2 -3 345.67 18.6
-12 2 3 365.26 19.2
-12 2 3 364.16 19.3
11 -2 -3 671.73 31.4
11 -2 -3 660.93 30.8
-11 2 3 718.33 31.5
-11 2 3 695.03 31.4
10 -2 -3 997.8 43.5
10 -2 -3 1027.2 43.1
-10 2 3 1006.9 43.4
-10 2 3 983.6 43.4
9 -2 -3 1295.97 52.29
9 -2 -3 1300.57 52.59
-9 2 3 1201.48 52.39
-9 2 3 1166.78 52.29
8 -2 -3 48.4 6.5
8 -2 -3 50.79 5.9
-8 2 3 50.59 6.4
-8 2 3 53.59 6.4
7 -2 -3 824.52 36.6
7 -2 -3 854.01 36.9
-7 2 3 883.41 36.8
-7 2 3 881.91 36.9
6 -2 -3 1368.26 55.19
6 -2 -3 1381.56 55.39
-6 2 3 1300.57 55.29
-6 2 3 1285.67 55.19
5 -2 -3 1239.98 54.39
5 -2 -3 1212.68 54.29
-5 2 3 1430.86 54.59
-5 2 3 1395.16 54.69
4 -2 -3 939.81 38.4
4 -2 -3 954.3 38.7
-4 2 3 893.61 38.5
-4 2 3 899.91 38.6
3 -2 -3 977.4 40.4
3 -2 -3 947.81 40.6
-3 2 3 975.7 40.5
-3 2 3 996.6 40.8
2 -2 -3 950.3 41.5
-2 2 3 1011.9 41.3
-2 2 3 1026.7 41.6
1 -2 -3 3704.93 147.29
1 -2 -3 3617.34 146.89
-1 2 3 3598.94 146.89
0 -2 -3 1454.75 66.09
0 -2 -3 1701.33 66.79
0 2 3 1632.74 66.39
0 2 3 1668.03 66.79
-1 -2 -3 427.36 19.9
-1 -2 -3 429.76 20.2
1 2 3 444.56 20
1 2 3 466.65 20.5
-2 -2 -3 306.77 15.4
-2 -2 -3 302.77 15.1
2 2 3 309.17 15.2
2 2 3 321.97 15.6
-3 -2 -3 750.22 34.5
-3 -2 -3 728.13 34.2
3 2 3 843.52 34.6
3 2 3 845.82 34.9
-4 -2 -3 1048.2 42.2
-4 -2 -3 1016.2 42
4 2 3 904.21 41.7
4 2 3 916.11 42
-5 -2 -3 82.49 8.6
-5 -2 -3 69.59 9.4
5 2 3 81.69 10.2
5 2 3 89.09 8
-6 -2 -3 642.34 30.2
-6 -2 -3 673.73 30.6
6 2 3 655.73 30.6
6 2 3 659.33 30.2
-7 -2 -3 221.68 13.6
-7 -2 -3 207.38 13.4
7 2 3 186.88 13.8
7 2 3 183.08 12.9
-8 -2 -3 1272.07 54.39
-8 -2 -3 1273.27 54.29
8 2 3 1221.48 54.09
8 2 3 1199.18 54.39
-9 -2 -3 1423.26 60.69
-9 -2 -3 1402.06 60.79
9 2 3 1359.56 60.89
9 2 3 1382.66 60.49
-10 -2 -3 414.36 23.5
-10 -2 -3 416.26 23.7
10 2 3 414.36 23.2
10 2 3 460.35 24.7
-11 -2 -3 80.59 10.7
-11 -2 -3 76.49 11.4
11 2 3 58.99 10.6
11 2 3 87.09 11.2
-12 -2 -3 364.76 23.1
-12 -2 -3 356.46 22.8
12 2 3 337.47 22.3
12 2 3 347.47 24.5
-13 -2 -3 410.86 26.1
-13 -2 -3 358.96 25.3
13 2 3 411.06 27.5
13 2 3 407.26 27.3
15 -3 -3 1 7.9
15 -3 -3 2.2 8
-15 3 3 0 6.8
-15 3 3 3.1 6.9
14 -3 -3 146.59 13.8
14 -3 -3 149.88 12.7
-14 3 3 137.99 12.9
-14 3 3 135.19 13.3
13 -3 -3 80.29 10.9
13 -3 -3 82.69 10
-13 3 3 90.19 10.8
-13 3 3 85.69 10.4
12 -3 -3 471.05 23.1
12 -3 -3 481.85 23.6
-12 3 3 474.45 23.5
-12 3 3 485.15 23.6
11 -3 -3 799.62 35.5
11 -3 -3 794.12 35.2
-11 3 3 793.92 35.4
-11 3 3 799.12 35.4
10 -3 -3 686.53 30.8
10 -3 -3 684.73 31.1
-10 3 3 709.63 31.3
-10 3 3 704.43 31.2
9 -3 -3 151.18 9.5
9 -3 -3 150.18 8.9
-9 3 3 116.49 9.2
-9 3 3 98.89 8.8
8 -3 -3 429.86 20.4
8 -3 -3 439.06 20.7
-8 3 3 450.45 20.7
-8 3 3 464.55 20.7
7 -3 -3 723.33 28.8
7 -3 -3 702.93 28.6
-7 3 3 603.94 28.5
-7 3 3 596.14 28.4
6 -3 -3 2251.07 89.99
6 -3 -3 2297.97 90.29
-6 3 3 2144.19 90.09
-6 3 3 2150.48 90.19
5 -3 -3 1490.35 62.49
5 -3 -3 1521.25 62.99
-5 3 3 1543.95 62.89
-5 3 3 1538.35 62.89
4 -3 -3 1234.88 53.39
-4 3 3 1313.57 53.39
-4 3 3 1327.47 53.69
3 -3 -3 597.74 24.9
-3 3 3 554.64 24.7
-3 3 3 544.25 24.4
2 -3 -3 3073.89 127.19
2 -3 -3 3120.39 127.49
-2 3 3 3222.88 127.29
1 -3 -3 1173.28 50.49
1 -3 -3 1201.48 50.89
-1 3 3 1263.07 50.69
0 -3 -3 341.77 17.5
0 -3 -3 337.67 17.3
0 3 3 401.36 18
0 3 3 396.86 17.6
-1 -3 -3 404.76 19
-1 -3 -3 411.26 18.8
1 3 3 392.56 19.1
1 3 3 369.56 18.5
-2 -3 -3 1404.86 59.89
-2 -3 -3 1445.96 60.09
2 3 3 1469.85 60.29
2 3 3 1394.96 59.79
-3 -3 -3 37.8 5.4
-3 -3 -3 38.3 5.6
3 3 3 27.6 4.7
3 3 3 34.1 5.6
-4 -3 -3 25 5.1
-4 -3 -3 26 5
4 3 3 28 5.7
4 3 3 24 4.9
-5 -3 -3 292.17 15.9
-5 -3 -3 278.17 15.7
5 3 3 270.77 15.5
5 3 3 254.87 15.9
-6 -3 -3 229.48 14.8
-6 -3 -3 244.28 15.2
6 3 3 255.17 15.8
6 3 3 237.58 14.7
-7 -3 -3 246.78 16.3
-7 -3 -3 247.28 16.2
7 3 3 290.47 16.7
7 3 3 276.27 17.4
-8 -3 -3 567.04 28.3
-8 -3 -3 598.04 28.3
8 3 3 529.25 27.9
8 3 3 549.54 28.6
-9 -3 -3 704.03 33.8
-9 -3 -3 684.43 33.5
9 3 3 683.73 33.4
9 3 3 666.33 34
-10 -3 -3 81.49 10.5
-10 -3 -3 96.29 13.2
10 3 3 68.49 10.8
10 3 3 87.39 13
-11 -3 -3 172.08 16.5
-11 -3 -3 172.18 16.9
11 3 3 154.18 18.3
11 3 3 161.88 16.4
-12 -3 -3 698.13 36.6
-12 -3 -3 728.33 37
12 3 3 682.83 36.3
12 3 3 701.93 38
-13 -3 -3 548.75 33.1
-13 -3 -3 532.05 32.6
13 3 3 607.64 35.1
13 3 3 580.24 34.5
15 -4 -3 4.9 7.6
15 -4 -3 9.9 7.1
-15 4 3 5 7.4
-15 4 3 9.9 7.2
14 -4 -3 154.18 13
14 -4 -3 160.28 13.9
-14 4 3 158.08 13.5
-14 4 3 151.08 13
13 -4 -3 110.89 11.4
13 -4 -3 112.29 10.8
-13 4 3 117.09 11.5
-13 4 3 107.49 10.8
12 -4 -3 133.19 11.1
12 -4 -3 141.09 10.7
-12 4 3 119.19 10.7
-12 4 3 140.69 11.2
11 -4 -3 126.39 10
11 -4 -3 130.49 9.9
-11 4 3 117.99 9.8
-11 4 3 111.69 10.1
10 -4 -3 284.07 14.7
10 -4 -3 279.27 15
-10 4 3 272.57 14.8
-10 4 3 282.57 15
9 -4 -3 83.69 7.3
9 -4 -3 81.09 8
-9 4 3 87.29 7.9
-9 4 3 85.39 7.8
8 -4 -3 55.69 5.9
8 -4 -3 48.4 6.5
-8 4 3 50.49 6.5
-8 4 3 50.29 6.5
7 -4 -3 237.28 11.6
7 -4 -3 215.38 11
-7 4 3 188.38 11.1
-7 4 3 188.28 11.3
6 -4 -3 1793.62 71.29
6 -4 -3 1711.23 70.89
-6 4 3 1714.03 71.29
-6 4 3 1698.03 71.09
5 -4 -3 1502.75 60.59
-5 4 3 1430.26 60.39
-5 4 3 1451.85 60.59
4 -4 -3 1200.18 52.19
-4 4 3 1280.27 52.09
-4 4 3 1280.17 52.39
3 -4 -3 967 38.6
3 -4 -3 954.1 38.2
-3 4 3 826.62 37.5
-3 4 3 820.52 37.9
2 -4 -3 5202.08 205.08
2 -4 -3 5059.09 204.58
-2 4 3 4959.3 204.58
1 -4 -3 6611.14 258.47
1 -4 -3 6683.13 258.87
-1 4 3 6218.58 258.37
-1 4 3 6167.18 258.77
0 -4 -3 463.25 20.4
0 -4 -3 456.15 20.1
0 4 3 360.16 19.5
0 4 3 391.26 20.2
-1 -4 -3 58.59 7
-1 -4 -3 49 7.2
1 4 3 62.69 6.9
1 4 3 63.19 8.2
-2 -4 -3 3020.1 127.69
-2 -4 -3 3166.98 128.09
2 4 3 3132.89 127.89
2 4 3 3173.18 128.29
-3 -4 -3 1036.1 45.6
-3 -4 -3 1029.1 45.7
3 4 3 1063.69 46.1
3 4 3 1052.89 45.5
-4 -4 -3 898.91 40.6
-4 -4 -3 937.41 40.9
4 4 3 908.81 40.6
4 4 3 906.81 41.1
-5 -4 -3 409.76 21
-5 -4 -3 396.16 21
5 4 3 372.06 21.3
5 4 3 396.16 20.8
-6 -4 -3 63.19 9.2
-6 -4 -3 50.19 8.5
6 4 3 63.19 8.8
6 4 3 59.69 9.2
-7 -4 -3 62.59 9
-7 -4 -3 49.6 7.7
7 4 3 77.49 10.9
7 4 3 62.29 9.3
-8 -4 -3 103.19 12.6
-8 -4 -3 109.19 12.8
8 4 3 107.99 12.3
8 4 3 111.79 13.7
-9 -4 -3 185.58 16
-9 -4 -3 177.08 15.8
9 4 3 173.38 17
9 4 3 175.78 15.6
-10 -4 -3 78.09 12
10 4 3 72.89 11.3
10 4 3 67.49 11.8
-11 -4 -3 80.29 12
-11 -4 -3 86.49 12.8
11 4 3 105.99 13.6
11 4 3 92.89 14.6
-12 -4 -3 317.27 24.3
-12 -4 -3 329.67 24.4
12 4 3 342.07 24.1
12 4 3 297.47 26.7
15 -5 -3 111.59 11.8
15 -5 -3 111.29 13.4
-15 5 3 108.99 12.9
-15 5 3 106.29 12.5
14 -5 -3 2.2 5.8
14 -5 -3 4.6 6.4
-14 5 3 0.3 5.9
-14 5 3 0.4 6.3
13 -5 -3 12.3 5.5
13 -5 -3 11.8 6.1
-13 5 3 14.9 5.7
-13 5 3 8.7 5.9
12 -5 -3 137.79 10.6
12 -5 -3 133.99 11.2
-12 5 3 163.48 11.7
-12 5 3 157.58 11.2
11 -5 -3 293.07 15.3
11 -5 -3 286.97 15.9
-11 5 3 298.87 16.1
-11 5 3 292.17 15.7
10 -5 -3 40.6 5.7
10 -5 -3 42.9 6.2
-10 5 3 40.6 6.1
-10 5 3 51.59 6.5
9 -5 -3 138.69 9.1
9 -5 -3 138.69 9.9
-9 5 3 132.29 9.9
-9 5 3 131.79 9.9
8 -5 -3 8.7 4
-8 5 3 12.5 4.4
-8 5 3 13.7 4.3
7 -5 -3 311.77 15.7
-7 5 3 312.47 15.8
-7 5 3 321.87 15.6
6 -5 -3 354.06 16.9
-6 5 3 337.47 16.7
-6 5 3 345.47 16.8
5 -5 -3 137.49 9.2
5 -5 -3 137.29 9.7
-5 5 3 140.69 9.2
-5 5 3 145.59 9
4 -5 -3 183.58 11.3
4 -5 -3 181.48 11.7
-4 5 3 187.18 11
-4 5 3 170.88 10.8
3 -5 -3 142.69 9.7
3 -5 -3 138.69 10
-3 5 3 174.08 10
2 -5 -3 4016.3 166.68
2 -5 -3 4073.79 166.28
-2 5 3 4223.18 166.58
1 -5 -3 2250.47 92.39
1 -5 -3 2285.87 92.09
-1 5 3 2220.08 92.09
-1 5 3 2173.18 92.49
0 -5 -3 149.39 10.5
0 -5 -3 167.48 10.6
0 5 3 127.89 10.9
0 5 3 126.29 9.8
-1 -5 -3 526.25 24.3
-1 -5 -3 538.95 24.5
1 5 3 490.85 24
1 5 3 459.75 24.5
-2 -5 -3 2577.04 107.49
-2 -5 -3 2524.95 107.19
2 5 3 2669.93 107.89
2 5 3 2608.94 107.29
-3 -5 -3 3059.29 126.79
-3 -5 -3 2995.3 126.89
3 5 3 3149.39 126.99
3 5 3 3108.79 127.29
-4 -5 -3 1357.56 61.39
-4 -5 -3 1343.57 61.09
4 5 3 1493.15 61.49
4 5 3 1490.45 62.09
-5 -5 -3 79.59 10.8
-5 -5 -3 74.49 10.7
5 5 3 75.89 10.3
5 5 3 78.49 11.7
-6 -5 -3 150.58 13.7
-6 -5 -3 159.78 14.1
6 5 3 184.48 15.3
6 5 3 156.08 13.6
-7 -5 -3 475.55 25.1
-7 -5 -3 454.25 24.7
7 5 3 431.46 24.7
7 5 3 435.06 25.7
-8 -5 -3 527.55 27.8
-8 -5 -3 541.75 28.1
8 5 3 472.85 27.3
8 5 3 493.35 28.6
-9 -5 -3 34.6 9.6
-9 -5 -3 56.39 10.9
9 5 3 33.8 11.2
9 5 3 28.4 8.3
-10 -5 -3 55.19 11.2
-10 -5 -3 54.69 12
10 5 3 32.5 9.2
10 5 3 49.2 12.5
-11 -5 -3 24.9 10.1
-11 -5 -3 42.5 11.8
11 5 3 43.6 12.9
11 5 3 30 10.1
-12 -5 -3 19.5 12.4
-12 -5 -3 21.8 12.5
12 5 3 12.1 13.2
12 5 3 23 12.5
14 -6 -3 45.8 7
14 -6 -3 37.5 7.6
-14 6 3 53.49 8.3
-14 6 3 39.6 7
13 -6 -3 216.48 13.8
13 -6 -3 208.58 13
-13 6 3 192.48 13.9
-13 6 3 195.48 13.1
12 -6 -3 168.08 11.4
12 -6 -3 151.48 10.8
-12 6 3 134.79 10.8
-12 6 3 130.79 11.5
11 -6 -3 369.06 18.8
-11 6 3 385.26 19.1
-11 6 3 355.26 18.5
10 -6 -3 309.77 16.3
-10 6 3 311.17 16.5
-10 6 3 313.57 16.3
9 -6 -3 22.8 5.2
-9 6 3 16.2 5.2
-9 6 3 14.6 4.9
8 -6 -3 50.49 7.6
-8 6 3 73.99 7.8
-8 6 3 75.49 7.6
7 -6 -3 96.69 8.9
-7 6 3 141.79 9.4
-7 6 3 130.49 9.2
6 -6 -3 187.78 11.5
6 -6 -3 192.48 12
-6 6 3 183.98 11.1
-6 6 3 193.98 11.5
5 -6 -3 166.88 11.2
5 -6 -3 166.58 10.9
-5 6 3 173.98 10.9
-5 6 3 173.28 10.5
4 -6 -3 170.28 11.2
4 -6 -3 163.18 10.9
-4 6 3 172.88 10.9
-4 6 3 169.68 10.4
3 -6 -3 357.66 18.7
3 -6 -3 370.56 19.1
-3 6 3 413.36 19.1
2 -6 -3 1694.43 71.39
2 -6 -3 1665.43 71.69
-2 6 3 1767.82 71.69
1 -6 -3 376.86 19.4
1 -6 -3 403.06 19.4
-1 6 3 352.56 19.8
-1 6 3 374.96 19.2
0 -6 -3 66.29 8.6
0 -6 -3 60.49 8.3
0 6 3 55.59 8.1
0 6 3 65.99 8.5
-1 -6 -3 646.84 31.6
-1 -6 -3 663.83 31.9
1 6 3 705.23 32.5
1 6 3 724.63 32
-2 -6 -3 2212.48 93.99
-2 -6 -3 2200.38 94.19
2 6 3 2287.37 94.59
2 6 3 2295.37 94.19
-3 -6 -3 2654.73 112.79
-3 -6 -3 2670.83 112.99
3 6 3 2758.92 112.99
3 6 3 2772.92 113.49
-4 -6 -3 525.35 27.5
-4 -6 -3 540.35 27.4
4 6 3 545.35 28.2
4 6 3 545.45 27.3
-5 -6 -3 248.18 16.8
-5 -6 -3 243.28 17
5 6 3 218.88 16.3
5 6 3 218.48 17.7
-6 -6 -3 501.85 27.6
-6 -6 -3 486.65 27.7
6 6 3 545.45 29
6 6 3 555.84 28
-7 -6 -3 337.87 20.7
-7 -6 -3 323.17 20.4
7 6 3 232.48 19.2
7 6 3 250.97 20.9
-8 -6 -3 157.78 17.4
-8 -6 -3 188.78 17.7
8 6 3 204.58 19.5
8 6 3 221.18 17.9
-9 -6 -3 265.57 21.4
-9 -6 -3 254.17 21.1
9 6 3 257.27 22.8
9 6 3 285.57 21.1
-10 -6 -3 22.8 11.6
-10 -6 -3 14.8 11.1
10 6 3 8.5 9
10 6 3 16.1 12.1
-11 -6 -3 307.47 25.1
-11 -6 -3 285.37 25.3
11 6 3 289.07 28.4
11 6 3 301.57 24.1
14 -7 -3 44.8 7.6
-14 7 3 47.5 8
-14 7 3 47.7 7.1
13 -7 -3 145.59 11.3
-13 7 3 112.59 11.3
-13 7 3 115.09 10.5
12 -7 -3 132.89 10.9
-12 7 3 133.09 10.4
-12 7 3 121.89 11
11 -7 -3 619.64 27.5
-11 7 3 598.94 27.5
-11 7 3 571.24 27.1
10 -7 -3 688.73 29.8
-10 7 3 639.44 29.5
-10 7 3 646.04 29.7
9 -7 -3 180.88 13.1
9 -7 -3 196.58 12.4
-9 7 3 221.08 12.5
-9 7 3 223.48 12.8
8 -7 -3 702.03 31.7
8 -7 -3 693.23 32.1
-8 7 3 693.93 31.5
-8 7 3 754.32 32
7 -7 -3 1303.07 55.49
7 -7 -3 1289.07 55.89
-7 7 3 1344.07 55.69
-7 7 3 1318.57 55.49
6 -7 -3 675.23 30.5
6 -7 -3 670.03 30.1
-6 7 3 669.83 30.2
-6 7 3 659.13 29.8
5 -7 -3 165.98 11.7
5 -7 -3 164.98 11.8
-5 7 3 178.88 11.1
-5 7 3 182.58 11.7
4 -7 -3 127.99 10.8
4 -7 -3 137.29 10.8
-4 7 3 172.78 11
3 -7 -3 560.54 27.4
3 -7 -3 575.14 27.2
-3 7 3 612.24 27.5
2 -7 -3 400.16 20.3
2 -7 -3 399.16 20
-2 7 3 365.06 19.9
1 -7 -3 69.39 8.8
1 -7 -3 62.09 9
-1 7 3 60.99 8.7
-1 7 3 71.39 9.7
0 -7 -3 192.48 13.6
0 -7 -3 191.78 13.5
0 7 3 195.28 13.4
0 7 3 183.58 14.5
-1 -7 -3 186.98 14
-1 -7 -3 209.98 14.4
1 7 3 191.88 13.9
1 7 3 197.88 15.1
-2 -7 -3 395.66 22.1
-2 -7 -3 393.46 21.9
2 7 3 393.96 21.8
2 7 3 410.96 22.9
-3 -7 -3 240.98 16.9
-3 -7 -3 263.87 17.2
3 7 3 249.97 18
3 7 3 245.58 16.7
-4 -7 -3 85.99 12.2
-4 -7 -3 95.09 12.4
4 7 3 90.89 12
4 7 3 75.89 10.4
-5 -7 -3 380.76 22.9
-5 -7 -3 382.76 23.1
5 7 3 385.26 23.9
5 7 3 371.66 22.5
-6 -7 -3 283.57 19.9
-6 -7 -3 316.37 20.7
6 7 3 273.07 19.7
6 7 3 247.18 20.9
-7 -7 -3 466.95 28
-7 -7 -3 467.65 28.2
7 7 3 522.45 28.3
7 7 3 478.05 29.6
-8 -7 -3 561.14 32.8
-8 -7 -3 564.64 32.7
8 7 3 609.24 34.3
8 7 3 635.04 33.2
-9 -7 -3 186.48 20.6
-9 -7 -3 204.48 20.7
9 7 3 179.78 19.4
9 7 3 175.58 22.4
-10 -7 -3 163.58 21.5
-10 -7 -3 154.68 21
10 7 3 171.58 20.8
10 7 3 172.78 24.6
-11 -7 -3 571.54 34.7
-11 -7 -3 520.35 34.6
11 7 3 487.55 36.6
11 7 3 513.85 33.1
13 -8 -3 68.99 9
13 -8 -3 84.09 9.7
-13 8 3 71.29 10
-13 8 3 61.89 9.2
12 -8 -3 107.99 10.8
12 -8 -3 101.49 11.6
-12 8 3 138.39 11
-12 8 3 139.39 10.5
11 -8 -3 204.48 13.2
11 -8 -3 209.48 14
-11 8 3 185.78 12.8
-11 8 3 189.88 12.7
10 -8 -3 82.19 9.6
10 -8 -3 77.99 10.1
-10 8 3 77.19 9.3
-10 8 3 83.99 9.2
9 -8 -3 200.68 12.9
9 -8 -3 192.58 12.4
-9 8 3 159.38 11.7
-9 8 3 164.48 12.1
8 -8 -3 921.81 39.4
8 -8 -3 957.3 39
-8 8 3 827.22 38.7
-8 8 3 827.12 38.5
7 -8 -3 546.05 25.7
7 -8 -3 561.14 25.3
-7 8 3 504.25 24.8
-7 8 3 518.65 25.3
6 -8 -3 206.28 14.2
6 -8 -3 218.98 14.1
-6 8 3 256.97 13.9
-6 8 3 250.87 14.4
5 -8 -3 174.68 12.7
5 -8 -3 176.08 12.8
-5 8 3 178.58 12.4
-5 8 3 189.58 12.7
4 -8 -3 388.56 20.3
4 -8 -3 364.56 19.9
-4 8 3 396.46 20.2
3 -8 -3 1255.07 56.39
3 -8 -3 1278.57 56.09
-3 8 3 1380.56 56.49
2 -8 -3 929.31 41.9
2 -8 -3 930.91 42.3
-2 8 3 950.3 42.2
-2 8 3 946.21 43.1
1 -8 -3 303.87 18.3
1 -8 -3 321.37 18.2
-1 8 3 289.67 17.9
-1 8 3 311.07 19.2
0 -8 -3 9.5 6.8
0 -8 -3 1.6 5.5
0 8 3 -0.3 7.1
0 8 3 0.5 5.3
-1 -8 -3 219.28 16.2
-1 -8 -3 223.08 16.3
1 8 3 237.08 16.1
1 8 3 231.18 17.3
-2 -8 -3 973.4 45.1
-2 -8 -3 1039.7 45.7
2 8 3 970 45.1
2 8 3 947.51 45.8
-3 -8 -3 625.74 31.4
-3 -8 -3 593.14 30.9
3 8 3 610.54 32
3 8 3 599.64 31.1
-4 -8 -3 211.08 17.8
-4 -8 -3 235.18 18
4 8 3 219.08 19.3
4 8 3 238.08 18
-5 -8 -3 220.78 18.2
-5 -8 -3 202.48 18.8
5 8 3 203.68 18.2
5 8 3 213.78 19.2
-6 -8 -3 352.76 23.8
-6 -8 -3 370.46 23.9
6 8 3 336.47 23.1
6 8 3 343.07 25.4
-7 -8 -3 219.08 20.4
-7 -8 -3 229.98 20.5
7 8 3 201.28 21.9
7 8 3 200.28 19.4
-8 -8 -3 218.48 21.6
8 8 3 206.98 20.8
8 8 3 215.88 24.1
-9 -8 -3 -1.1 10.8
-9 -8 -3 3.9 12.2
9 8 3 1.5 10.4
9 8 3 -1.6 12.3
-10 -8 -3 218.78 25.4
-10 -8 -3 220.28 25.6
10 8 3 241.98 24.1
10 8 3 261.67 29.1
13 -9 -3 53.89 7.4
13 -9 -3 46.3 8
-13 9 3 45.8 7.3
12 -9 -3 65.29 8
12 -9 -3 48 8
-12 9 3 55.49 7.5
-12 9 3 53.29 7.5
11 -9 -3 2.7 5.9
11 -9 -3 7.4 6.2
-11 9 3 5.4 5.6
-11 9 3 5.4 5.6
10 -9 -3 1.6 6.1
10 -9 -3 -2.3 5.6
-10 9 3 -2.4 5.1
-10 9 3 2.5 5.5
9 -9 -3 80.99 10.4
9 -9 -3 87.79 10.5
-9 9 3 79.19 9.7
-9 9 3 83.69 9.7
8 -9 -3 435.06 22.2
8 -9 -3 446.46 21.9
-8 9 3 417.16 21.7
-8 9 3 412.96 21.5
7 -9 -3 288.27 16.2
7 -9 -3 288.17 16.6
-7 9 3 240.88 15.2
-7 9 3 256.37 15.9
6 -9 -3 139.89 12.4
6 -9 -3 134.19 12.4
-6 9 3 161.88 12.2
-6 9 3 156.88 11.6
5 -9 -3 169.48 13.1
5 -9 -3 160.68 12.9
-5 9 3 168.88 12.8
-5 9 3 167.98 12.2
4 -9 -3 508.45 25.2
4 -9 -3 501.45 25.5
-4 9 3 493.85 25.2
3 -9 -3 1080.89 49.6
3 -9 -3 1076.89 49.99
-3 9 3 1231.08 50.29
2 -9 -3 498.55 26.4
2 -9 -3 469.45 25.8
-2 9 3 540.85 27.7
-2 9 3 545.05 26.4
1 -9 -3 9.6 6.9
1 -9 -3 16 7.3
-1 9 3 10.4 6.4
-1 9 3 20.2 8.6
0 -9 -3 313.07 19.5
0 -9 -3 323.77 19.8
0 9 3 283.37 20.6
0 9 3 301.87 19.5
-1 -9 -3 602.44 31.6
-1 -9 -3 628.04 31.5
1 9 3 628.64 32.7
1 9 3 615.94 31.4
-2 -9 -3 487.15 26.5
-2 -9 -3 514.55 26.3
2 9 3 429.56 25.7
2 9 3 403.96 26.5
-3 -9 -3 237.28 18.9
-3 -9 -3 243.28 18.7
3 9 3 220.58 19.6
3 9 3 231.98 18.8
-4 -9 -3 56.39 11.4
-4 -9 -3 42 9.5
4 9 3 56.59 12
4 9 3 38.7 9.2
-5 -9 -3 261.97 20.8
-5 -9 -3 238.18 20.8
5 9 3 216.58 22.1
5 9 3 234.28 20.6
-6 -9 -3 770.62 40.9
-6 -9 -3 803.42 41.3
6 9 3 798.82 42.5
-7 -9 -3 369.06 27.4
-7 -9 -3 351.46 27
7 9 3 414.86 29.8
7 9 3 408.06 27.1
-8 -9 -3 54.79 13.4
-8 -9 -3 87.49 15.5
8 9 3 41.9 11.9
8 9 3 85.29 17.7
-9 -9 -3 2.4 12.2
-9 -9 -3 6 13
9 9 3 9.2 12.7
9 9 3 0.9 14.7
12 -10 -3 46.1 8.2
12 -10 -3 47.7 7.9
-12 10 3 49.7 7.5
-12 10 3 46.1 7.4
11 -10 -3 132.19 12.4
11 -10 -3 123.99 12.8
-11 10 3 138.79 11.9
-11 10 3 151.58 12.2
10 -10 -3 7.2 6.6
10 -10 -3 8 6.6
-10 10 3 8 6.4
-10 10 3 3.7 5.8
9 -10 -3 151.18 13
9 -10 -3 135.49 12.8
-9 10 3 147.59 12.5
-9 10 3 144.89 12.4
8 -10 -3 25.2 7.1
8 -10 -3 26.4 7.2
-8 10 3 15.3 6.3
-8 10 3 21.8 6.7
7 -10 -3 2.9 6.4
7 -10 -3 3.7 6.2
-7 10 3 2.5 5.9
-7 10 3 3.4 5.7
6 -10 -3 85.69 9.9
6 -10 -3 65.79 9.2
-6 10 3 62.19 8.6
-6 10 3 73.49 9.4
5 -10 -3 21.1 7.3
5 -10 -3 22.9 7.4
-5 10 3 34.5 7.8
-5 10 3 28.7 7.1
4 -10 -3 149.29 13.7
4 -10 -3 152.88 13.8
-4 10 3 148.29 13.6
3 -10 -3 386.26 21.9
3 -10 -3 389.16 22.5
-3 10 3 380.46 22
2 -10 -3 186.88 16
2 -10 -3 211.98 16.7
-2 10 3 211.08 18.1
-2 10 3 231.58 16.7
1 -10 -3 129.59 14.3
1 -10 -3 121.69 14.2
-1 10 3 128.19 14.2
-1 10 3 120.79 16.2
0 -10 -3 230.78 17.4
0 -10 -3 219.98 17.2
0 10 3 172.58 16.4
0 10 3 151.08 17.9
-1 -10 -3 300.17 22.4
-1 -10 -3 328.57 22.8
1 10 3 388.26 24.8
1 10 3 415.26 23.3
-2 -10 -3 517.85 29.6
-2 -10 -3 511.25 29.4
2 10 3 533.95 31
2 10 3 539.35 30
-3 -10 -3 131.09 17.2
-3 -10 -3 137.89 16.8
3 10 3 86.49 13.3
3 10 3 129.69 16.5
-4 -10 -3 90.89 14.9
-4 -10 -3 87.99 14.3
4 10 3 114.89 17.4
4 10 3 100.79 14.9
-5 -10 -3 370.76 26.9
-5 -10 -3 382.26 26.8
5 10 3 409.66 27.6
5 10 3 394.06 28.9
-6 -10 -3 757.92 39.4
-6 -10 -3 692.43 38.8
6 10 3 639.94 40.3
6 10 3 713.33 39.2
-7 -10 -3 372.46 29
-7 -10 -3 340.37 28.8
7 10 3 424.46 29.3
7 10 3 351.66 31.5
-8 -10 -3 38.8 14.5
-8 -10 -3 44.7 15.6
8 10 3 35.7 13
8 10 3 51.59 17.7
10 -11 -3 43.2 8.8
10 -11 -3 52.79 8.8
-10 11 3 55.89 8.5
-10 11 3 52.19 8.4
9 -11 -3 188.98 15.4
9 -11 -3 207.48 15.3
-9 11 3 168.98 14.4
-9 11 3 169.28 14.5
8 -11 -3 51.29 9
8 -11 -3 48.6 8.8
-8 11 3 30.9 7.7
-8 11 3 28.7 7.7
7 -11 -3 52.69 9.4
7 -11 -3 68.69 10
-7 11 3 61.29 9.3
-7 11 3 74.69 11.1
6 -11 -3 289.67 18.9
6 -11 -3 299.07 19.4
-6 11 3 295.47 18.8
-6 11 3 288.47 18
5 -11 -3 14 7.8
5 -11 -3 20.9 8.3
-5 11 3 20.2 7.9
4 -11 -3 49.8 9.6
4 -11 -3 50.19 9.8
-4 11 3 69.79 10.5
3 -11 -3 15.8 8.6
3 -11 -3 19.6 8.7
-3 11 3 17.4 7.8
2 -11 -3 29.9 9.2
2 -11 -3 38.8 9.7
-2 11 3 24.2 8.5
-2 11 3 22 10.1
1 -11 -3 10.4 8.2
1 -11 -3 13.5 8.5
-1 11 3 20.4 10.9
-1 11 3 4.5 8.1
0 -11 -3 258.87 20.5
0 -11 -3 255.67 20.4
0 11 3 260.87 22.2
0 11 3 278.07 20.9
-1 -11 -3 552.14 32.4
-1 -11 -3 562.04 32.5
1 11 3 644.54 33.5
1 11 3 635.04 35.1
-2 -11 -3 462.55 29.1
-2 -11 -3 479.45 29.4
2 11 3 473.85 31.2
2 11 3 496.35 29.5
-3 -11 -3 74.69 13.1
-3 -11 -3 102.79 15.7
3 11 3 64.99 15.2
3 11 3 55.69 12.1
-4 -11 -3 300.17 24.5
-4 -11 -3 282.87 25
4 11 3 319.87 27.6
4 11 3 299.77 25
-5 -11 -3 212.78 23.9
-5 -11 -3 228.28 23
5 11 3 207.18 25.7
5 11 3 225.38 23.7
-6 -11 -3 199.48 25.1
-6 -11 -3 198.48 23.5
6 11 3 183.08 27.5
6 11 3 212.98 24.5
9 -12 -3 595.24 27.6
9 -12 -3 456.15 26.6
-9 12 3 479.45 26.3
-9 12 3 498.75 26.4
8 -12 -3 276.57 21.7
8 -12 -3 295.27 19.7
-8 12 3 311.97 18.8
-8 12 3 285.37 19.3
7 -12 -3 70.59 11.2
7 -12 -3 77.09 11.4
-7 12 3 76.89 10.8
-7 12 3 90.69 10.9
6 -12 -3 8 8.9
6 -12 -3 12.9 8.6
-6 12 3 12 8.2
-6 12 3 14.5 8.4
5 -12 -3 507.65 27.7
5 -12 -3 510.55 28.1
-5 12 3 481.25 27.7
4 -12 -3 690.73 35.3
4 -12 -3 718.53 35.8
-4 12 3 698.13 35.6
3 -12 -3 173.28 17.8
3 -12 -3 186.68 18.3
-3 12 3 205.88 18.3
2 -12 -3 5 9.3
2 -12 -3 7.9 9.6
-2 12 3 6.3 8.9
1 -12 -3 86.39 12.7
1 -12 -3 120.39 15
-1 12 3 128.19 17.5
-1 12 3 93.19 13.5
0 -12 -3 21.9 10.7
0 -12 -3 31.2 12.1
0 12 3 35.8 11.9
0 12 3 19.6 12.8
-1 -12 -3 5.4 10.5
-1 -12 -3 15.1 12
1 12 3 20.3 13.5
1 12 3 15.7 10.4
-2 -12 -3 5.5 12.1
-2 -12 -3 5.5 10.5
2 12 3 3.8 10
2 12 3 3.3 13.3
-3 -12 -3 48.9 12.6
-3 -12 -3 62.99 14.4
3 12 3 51.89 16.6
3 12 3 43.5 12
-4 -12 -3 34.9 12.3
-4 -12 -3 76.69 16.8
4 12 3 93.49 19.1
4 12 3 42.8 12.7
-5 -12 -3 78.59 17.6
5 12 3 58.89 18.5
5 12 3 35.6 13.5
7 -13 -3 33.9 11.1
7 -13 -3 34.2 13.3
-7 13 3 49.6 10.7
-7 13 3 53.69 10.9
6 -13 -3 204.88 22.7
6 -13 -3 176.98 18.3
-6 13 3 181.58 17.2
-6 13 3 186.08 18.1
5 -13 -3 281.57 25.3
5 -13 -3 283.87 21.6
-5 13 3 293.37 21.6
4 -13 -3 393.96 29
4 -13 -3 411.16 26.2
-4 13 3 407.76 25.8
3 -13 -3 312.57 26.2
3 -13 -3 326.57 23.9
-3 13 3 309.07 23.5
2 -13 -3 7.5 10.6
2 -13 -3 3 12.1
1 -13 -3 192.18 21.5
1 -13 -3 223.98 22.5
-1 13 3 213.58 24.8
-1 13 3 211.48 21.5
0 -13 -3 207.98 23.4
0 -13 -3 176.28 22.4
0 13 3 233.78 22.4
0 13 3 224.58 25.7
-1 -13 -3 308.47 26.9
-1 -13 -3 326.97 26.8
1 13 3 353.86 26.6
1 13 3 327.57 29.6
-2 -13 -3 22.2 12.9
-2 -13 -3 25.3 13.8
2 13 3 19 16
2 13 3 30.6 12.7
4 15 -4 308.97 25.5
-4 -15 4 296.17 27.6
-4 -15 4 279.47 26.8
3 15 -4 35 11.6
3 15 -4 17.5 12.5
-3 -15 4 46.7 14.6
-3 -15 4 31 12.7
2 15 -4 53.39 11.6
2 15 -4 60.49 15.1
-2 -15 4 75.69 14.7
-2 -15 4 67.29 14.1
1 15 -4 621.24 34
1 15 -4 551.94 35.5
-1 -15 4 686.33 35
-1 -15 4 673.73 36.1
0 15 -4 673.03 38.1
0 15 -4 686.33 36.4
0 -15 4 786.92 38.1
0 -15 4 726.93 37.3
-1 15 -4 79.29 11.6
-1 15 -4 79.49 13.8
1 -15 4 83.49 12.9
1 -15 4 79.79 12.3
-2 15 -4 339.07 21.2
-2 15 -4 326.87 23.6
2 -15 4 342.47 22.2
2 -15 4 328.87 22.2
-3 15 -4 352.36 20.7
-3 15 -4 307.77 22.5
3 -15 4 358.86 21.6
3 -15 4 335.97 21.5
-4 15 -4 29 7.6
-4 15 -4 36.2 10.5
4 -15 4 12.9 7.6
4 -15 4 18.1 8.6
-5 15 -4 7.9 6.3
5 -15 4 -1.4 7.6
5 -15 4 3.7 6.3
-6 15 -4 90.89 10.2
6 -15 4 92.69 11.3
6 -15 4 87.69 10.5
6 14 -4 174.38 22.4
-6 -14 4 158.88 23.6
-6 -14 4 193.18 22.1
5 14 -4 232.18 25.5
5 14 -4 230.98 23.4
-5 -14 4 298.57 25.3
-5 -14 4 291.87 23.9
4 14 -4 28.4 10.7
4 14 -4 18.4 11.4
-4 -14 4 24.3 11.5
-4 -14 4 31.3 11.4
3 14 -4 161.68 17.8
3 14 -4 153.68 20.7
-3 -14 4 158.98 18.6
-3 -14 4 149.49 19.5
2 14 -4 115.79 16
2 14 -4 131.09 18.5
-2 -14 4 118.89 16.8
-2 -14 4 118.39 17.3
1 14 -4 379.96 25.4
1 14 -4 415.06 23.9
-1 -14 4 349.77 23.4
-1 -14 4 350.16 23.9
0 14 -4 528.95 30
0 14 -4 564.54 28.5
0 -14 4 498.45 28.8
0 -14 4 512.05 28.5
-1 14 -4 296.77 21.6
-1 14 -4 290.47 19.6
1 -14 4 307.37 20.6
1 -14 4 330.07 20
-2 14 -4 95.49 12.3
-2 14 -4 94.59 12.6
2 -14 4 96.69 13.8
2 -14 4 96.39 12.5
-3 14 -4 144.39 12.6
-3 14 -4 122.89 14.6
3 -14 4 119.79 12.6
3 -14 4 126.29 13.7
-4 14 -4 -2.9 7.6
-4 14 -4 0.4 5.6
4 -14 4 12.7 7.1
4 -14 4 20.6 6.6
-5 14 -4 3.1 5.5
5 -14 4 21.2 6.8
5 -14 4 17 5.8
-6 14 -4 139.39 10.3
6 -14 4 132.19 10.4
6 -14 4 134.69 10.8
-7 14 -4 43.2 6.4
-7 14 -4 45.1 6.2
7 -14 4 55.39 7.3
7 -14 4 42.2 6.4
8 13 -4 104.09 17.9
8 13 -4 83.79 17.6
-8 -13 4 69.79 15.8
-8 -13 4 90.99 17.7
7 13 -4 85.09 15.4
7 13 -4 144.19 20.6
-7 -13 4 150.98 20.2
-7 -13 4 94.99 15
6 13 -4 190.28 23.7
6 13 -4 197.58 21.2
-6 -13 4 211.28 20.8
-6 -13 4 185.68 22
5 13 -4 -1.2 10.1
5 13 -4 -0.7 11.6
-5 -13 4 -6.3 9.7
-5 -13 4 -4.6 10.6
4 13 -4 11.3 10.1
4 13 -4 20.2 9.6
-4 -13 4 9.9 8.6
-4 -13 4 18.7 9.7
3 13 -4 7.3 7.8
3 13 -4 2.3 9.1
-3 -13 4 4.8 8.6
-3 -13 4 5.6 8.5
2 13 -4 244.88 18.1
2 13 -4 218.68 19.4
-2 -13 4 229.28 18.6
-2 -13 4 219.88 18.1
1 13 -4 46.7 9.9
1 13 -4 83.59 10.9
-1 -13 4 53.59 10.1
-1 -13 4 46.3 9.1
0 13 -4 182.18 16.6
0 13 -4 188.28 15.2
0 -13 4 187.68 16.1
0 -13 4 186.48 15.3
-1 13 -4 286.67 17.8
-1 13 -4 289.37 19.4
1 -13 4 289.77 18
1 -13 4 268.67 18.4
-2 13 -4 65.49 8.8
-2 13 -4 61.39 9.8
2 -13 4 49.6 8
2 -13 4 52.49 8.5
-3 13 -4 130.89 11.7
-3 13 -4 126.39 13.5
3 -13 4 166.78 12.9
3 -13 4 152.48 12.1
-4 13 -4 276.77 15.8
-4 13 -4 255.17 17.1
4 -13 4 296.97 16.4
4 -13 4 294.67 16.1
-5 13 -4 123.09 12
-5 13 -4 124.49 10.2
5 -13 4 148.09 10.3
5 -13 4 148.49 10.8
-6 13 -4 6.4 4.2
6 -13 4 9.4 4.8
6 -13 4 6.1 4.4
9 12 -4 79.79 16.6
9 12 -4 132.39 18
-9 -12 4 168.78 22
-9 -12 4 106.99 16.2
8 12 -4 93.49 18
8 12 -4 117.49 17.2
-8 -12 4 77.39 16
-8 -12 4 91.09 16.1
7 12 -4 410.56 30.1
7 12 -4 431.36 28.5
-7 -12 4 450.75 29.1
-7 -12 4 456.55 28.3
6 12 -4 817.62 41.6
6 12 -4 766.02 42.4
-6 -12 4 838.42 41.4
-6 -12 4 841.32 42
5 12 -4 345.47 24.3
5 12 -4 345.27 22.7
-5 -12 4 296.17 22.5
-5 -12 4 303.17 21.9
4 12 -4 94.19 12.6
4 12 -4 55.29 11.2
-4 -12 4 51.29 9.9
-4 -12 4 60.89 10.9
3 12 -4 94.59 13.2
3 12 -4 96.89 14.7
-3 -12 4 88.09 11.9
-3 -12 4 90.49 13.4
2 12 -4 1.9 6.5
2 12 -4 -0.1 7.3
-2 -12 4 -2.1 6.3
-2 -12 4 1.5 6.7
1 12 -4 102.99 12.5
1 12 -4 78.89 10.3
-1 -12 4 66.19 9.6
-1 -12 4 75.79 10.1
0 12 -4 49.4 8.8
0 12 -4 72.99 9.1
0 -12 4 64.29 8.9
0 -12 4 72.19 9.4
-1 12 -4 46.3 8.3
-1 12 -4 61.39 8.2
1 -12 4 68.29 9
1 -12 4 53.49 7.9
-2 12 -4 436.26 21.8
-2 12 -4 433.36 22.7
2 -12 4 422.26 21.9
2 -12 4 425.86 21.7
-3 12 -4 55.49 8.1
-3 12 -4 62.49 8.4
3 -12 4 49.2 7.4
3 -12 4 48.5 7
-4 12 -4 158.08 12
-4 12 -4 149.29 10.5
4 -12 4 144.99 10.5
4 -12 4 153.48 11
-5 12 -4 8.2 5.3
-5 12 -4 11.4 4.2
5 -12 4 7.3 4.1
5 -12 4 4.6 4.6
-6 12 -4 58.29 6
6 -12 4 52.39 6.1
6 -12 4 56.69 6.4
10 11 -4 313.37 26.4
10 11 -4 318.57 29
-10 -11 4 299.47 26.8
-10 -11 4 285.57 26.9
9 11 -4 61.79 12.4
9 11 -4 76.79 15.1
-9 -11 4 52.59 12.4
-9 -11 4 58.59 13.5
8 11 -4 165.18 19.4
8 11 -4 156.28 19
-8 -11 4 128.69 19.4
-8 -11 4 134.89 18.4
7 11 -4 364.46 24.1
7 11 -4 360.26 25.5
-7 -11 4 336.27 23.5
-7 -11 4 301.47 23.9
6 11 -4 722.13 38
6 11 -4 742.63 37
-6 -11 4 722.53 36.8
-6 -11 4 699.63 37
5 11 -4 469.75 25.2
5 11 -4 447.66 26.3
-5 -11 4 374.26 24.7
-5 -11 4 390.56 24.4
4 11 -4 259.67 17.7
4 11 -4 242.68 18.6
-4 -11 4 250.97 17.9
-4 -11 4 225.58 17.8
3 11 -4 287.57 18.4
3 11 -4 295.77 19.4
-3 -11 4 257.87 18.1
-3 -11 4 277.87 18.6
2 11 -4 173.88 14.9
2 11 -4 170.18 13.8
-2 -11 4 169.18 14.2
-2 -11 4 166.68 14.1
1 11 -4 486.35 26.3
1 11 -4 515.85 25.7
-1 -11 4 519.05 25.9
-1 -11 4 531.45 26.1
0 11 -4 784.42 36.1
0 11 -4 808.12 36.9
0 -11 4 793.92 36.3
0 -11 4 787.32 36.2
-1 11 -4 464.15 23.2
-1 11 -4 448.36 22.4
1 -11 4 432.96 22.3
1 -11 4 465.25 22.7
-2 11 -4 75.39 9.5
-2 11 -4 69.69 8.1
2 -11 4 54.89 7.2
2 -11 4 49.7 6.8
-3 11 -4 626.34 28.8
-3 11 -4 642.54 29.6
3 -11 4 672.83 29.2
3 -11 4 640.74 29
-4 11 -4 77.69 8.5
-4 11 -4 76.69 7.3
4 -11 4 60.29 7.4
4 -11 4 70.69 7.1
-5 11 -4 17.7 3.8
5 -11 4 15.8 4.1
5 -11 4 17.1 3.8
6 -11 4 18.3 3.3
11 10 -4 1 10.5
11 10 -4 -9.6 13.2
-11 -10 4 -0.2 12.1
-11 -10 4 6 11.4
10 10 -4 223.58 25
10 10 -4 261.97 22.5
-10 -10 4 232.68 23.6
-10 -10 4 235.88 23.3
9 10 -4 135.49 20.2
9 10 -4 156.88 18.5
-9 -10 4 143.29 17.1
-9 -10 4 134.89 18.8
8 10 -4 97.59 14.7
8 10 -4 67.19 10.8
-8 -10 4 58.59 10.5
-8 -10 4 108.09 14.6
7 10 -4 316.37 21.7
-7 -10 4 211.78 19.4
-7 -10 4 222.88 19.1
6 10 -4 462.25 25.1
6 10 -4 437.66 25.8
-6 -10 4 422.06 25.1
-6 -10 4 411.36 24.8
5 10 -4 658.03 33.2
5 10 -4 661.33 32.6
-5 -10 4 642.84 32.6
-5 -10 4 639.24 32.5
4 10 -4 127.09 12.6
4 10 -4 108.59 13.4
-4 -10 4 109.89 12.7
-4 -10 4 124.69 12.6
3 10 -4 501.65 26.6
3 10 -4 498.25 25.5
-3 -10 4 499.35 25.6
-3 -10 4 505.25 26.1
2 10 -4 893.71 40.8
2 10 -4 913.51 40.2
-2 -10 4 864.71 40.3
-2 -10 4 879.21 40.2
1 10 -4 1033.6 46.6
1 10 -4 1031 46
-1 -10 4 1070.29 46.4
-1 -10 4 1065.69 46.2
0 10 -4 542.15 26.1
0 10 -4 552.24 25.6
0 -10 4 517.45 25.4
0 -10 4 540.65 25.8
-1 10 -4 60.39 8.6
-1 10 -4 56.19 7.5
1 -10 4 62.79 7.5
1 -10 4 65.09 8.4
-2 10 -4 1006 41.4
-2 10 -4 987.2 41.8
2 -10 4 926.81 41.2
2 -10 4 923.01 41.3
-3 10 -4 1525.05 61.19
-3 10 -4 1507.85 61.49
3 -10 4 1416.66 61.09
3 -10 4 1436.96 60.99
-4 10 -4 532.05 23.4
-4 10 -4 528.85 22.8
4 -10 4 497.35 22.6
4 -10 4 498.55 22.8
-5 10 -4 178.08 9.4
5 -10 4 186.18 9.4
5 -10 4 193.88 9.5
12 9 -4 493.05 35.7
12 9 -4 498.05 33.1
-12 -9 4 560.44 35
-12 -9 4 533.45 34
11 9 -4 195.28 20.9
11 9 -4 191.58 23.5
-11 -9 4 198.18 22
-11 -9 4 180.78 21.9
10 9 -4 129.09 17.7
10 9 -4 136.69 20
-10 -9 4 131.39 16.8
-10 -9 4 138.89 18.9
9 9 -4 87.49 14.5
9 9 -4 53.59 10.2
-9 -9 4 48.3 10.2
-9 -9 4 85.29 13.5
8 9 -4 131.59 15.4
8 9 -4 138.89 16.8
-8 -9 4 129.99 16.2
-8 -9 4 140.29 15.8
7 9 -4 77.59 11.4
7 9 -4 47.2 9.6
-7 -9 4 75.59 11.1
-7 -9 4 55.49 9.6
6 9 -4 17.3 7.9
6 9 -4 18.1 7.8
-6 -9 4 15 7.6
-6 -9 4 9.6 7.1
5 9 -4 1214.28 53.29
5 9 -4 1171.68 53.69
-5 -9 4 1211.08 53.29
-5 -9 4 1193.48 53.49
4 9 -4 572.94 28.8
4 9 -4 560.84 28
-4 -9 4 577.24 28.2
-4 -9 4 572.44 28.4
3 9 -4 1823.52 77.39
3 9 -4 1882.91 77.89
-3 -9 4 1801.22 77.29
-3 -9 4 1814.82 77.49
2 9 -4 1724.03 72.59
2 9 -4 1773.52 72.29
-2 -9 4 1694.13 72.29
-2 -9 4 1649.63 72.09
1 9 -4 244.18 14
1 9 -4 241.68 14.7
-1 -9 4 240.58 14.3
-1 -9 4 237.28 13.9
0 9 -4 41.8 6
0 9 -4 50.59 6.7
0 -9 4 51.89 6.7
0 -9 4 54.39 6.6
-1 9 -4 1166.38 49.7
-1 9 -4 1172.08 49.4
1 -9 4 1153.58 49.4
1 -9 4 1173.88 49.4
-2 9 -4 1932.11 78.89
-2 9 -4 1909.91 79.19
2 -9 4 1949.51 78.99
2 -9 4 1890.01 78.89
-3 9 -4 1680.03 67.19
-3 9 -4 1653.63 67.49
3 -9 4 1630.44 67.19
3 -9 4 1580.04 67.09
-4 9 -4 305.17 13.5
-4 9 -4 307.37 13
4 -9 4 240.28 12.8
4 -9 4 258.17 13
-5 9 -4 489.55 20
5 -9 4 465.25 19.9
5 -9 4 478.55 20
13 8 -4 271.57 25.4
13 8 -4 250.97 28.1
-13 -8 4 287.07 26
-13 -8 4 291.07 27.2
12 8 -4 830.82 45.9
12 8 -4 881.61 45.1
-12 -8 4 888.11 45.8
-12 -8 4 907.31 46
11 8 -4 673.23 35.5
11 8 -4 653.53 36.7
-11 -8 4 607.44 35.6
-11 -8 4 637.54 35.8
10 8 -4 440.56 26.3
10 8 -4 427.86 27.3
-10 -8 4 404.56 26.5
-10 -8 4 422.36 26.6
9 8 -4 37.6 8.9
9 8 -4 55.59 11.7
-9 -8 4 46.6 10.5
-9 -8 4 28.1 8.7
8 8 -4 127.79 15.2
8 8 -4 125.09 14
-8 -8 4 88.79 12
7 8 -4 119.09 12.6
7 8 -4 128.79 14
-7 -8 4 101.09 12.6
-7 -8 4 108.59 13
6 8 -4 449.26 24.5
6 8 -4 463.55 23.9
-6 -8 4 430.26 24.1
-6 -8 4 443.16 23.8
5 8 -4 240.68 15.1
5 8 -4 218.38 15.8
-5 -8 4 225.48 15.5
-5 -8 4 231.48 15.3
4 8 -4 1958.1 81.89
4 8 -4 1960.8 81.59
-4 -8 4 1942.71 81.59
-4 -8 4 1886.11 81.59
3 8 -4 143.09 11.6
3 8 -4 148.69 11.1
-3 -8 4 154.18 11.2
-3 -8 4 155.38 11.5
2 8 -4 275.17 15.6
2 8 -4 270.17 15
-2 -8 4 270.47 15.3
-2 -8 4 275.47 15.1
1 8 -4 280.67 14.8
1 8 -4 256.67 15
-1 -8 4 294.77 14.9
-1 -8 4 280.67 15
0 8 -4 418.86 20.1
0 8 -4 417.76 19.7
0 -8 4 417.56 19.8
0 -8 4 411.36 19.7
-1 8 -4 333.57 16.2
-1 8 -4 324.87 16.4
1 -8 4 337.17 16.2
1 -8 4 352.56 16.4
-2 8 -4 571.24 26
-2 8 -4 572.64 25.8
2 -8 4 626.94 26
2 -8 4 606.44 25.8
-3 8 -4 1403.56 57.99
-3 8 -4 1369.16 57.79
3 -8 4 1419.96 57.79
3 -8 4 1452.95 57.89
-4 8 -4 233.08 10.5
-4 8 -4 221.88 10.8
4 -8 4 234.28 10.6
4 -8 4 223.38 10.4
13 7 -4 133.19 16.9
13 7 -4 116.39 18.6
-13 -7 4 89.19 15.4
-13 -7 4 101.29 16.3
12 7 -4 412.96 27.4
12 7 -4 399.86 28.7
-12 -7 4 438.06 28.2
-12 -7 4 452.95 28.3
11 7 -4 364.96 25.9
11 7 -4 364.26 24.3
-11 -7 4 388.46 25.3
-11 -7 4 394.06 25.6
10 7 -4 55.39 9.5
10 7 -4 64.59 12.2
-10 -7 4 97.99 13.4
-10 -7 4 61.69 10.6
9 7 -4 38.1 9.2
9 7 -4 30.1 9.2
-9 -7 4 34.6 8.5
-9 -7 4 57.29 10.9
8 7 -4 272.17 19.2
8 7 -4 306.37 19
-8 -7 4 290.67 19.1
-8 -7 4 292.07 19
7 7 -4 1822.92 77.79
7 7 -4 1841.62 78.19
-7 -7 4 1825.42 77.99
-7 -7 4 1797.32 77.79
6 7 -4 1893.31 78.19
6 7 -4 1883.81 77.79
-6 -7 4 1731.23 77.69
-6 -7 4 1818.42 77.79
5 7 -4 2.4 4.3
5 7 -4 2.7 5.4
-5 -7 4 6.2 5.4
-5 -7 4 2.8 4.3
4 7 -4 3053.19 121.09
4 7 -4 2996.3 121.19
-4 -7 4 2882.31 120.99
-4 -7 4 2823.02 120.89
3 7 -4 3017.2 117.59
3 7 -4 2955.4 117.69
-3 -7 4 2728.83 117.29
-3 -7 4 2738.33 117.39
2 7 -4 1239.58 54.69
2 7 -4 1266.37 54.59
-2 -7 4 1335.87 54.89
-2 -7 4 1327.17 54.79
1 7 -4 110.09 8.3
1 7 -4 114.79 8
-1 -7 4 107.29 8
-1 -7 4 96.39 8
0 7 -4 161.58 9.6
0 7 -4 162.38 9.8
0 -7 4 170.48 9.7
0 -7 4 169.38 9.6
-1 7 -4 60.69 5.5
-1 7 -4 62.19 5.8
1 -7 4 56.49 5.3
1 -7 4 56.19 5.5
-2 7 -4 3.5 2.6
-2 7 -4 7.8 2.6
2 -7 4 3.3 2.5
2 -7 4 4 2.5
-3 7 -4 356.26 15.3
-3 7 -4 361.26 15.5
3 -7 4 338.47 15.3
3 -7 4 337.07 15.2
-4 7 -4 32.2 2.8
-4 7 -4 33.1 3
4 -7 4 34 2.9
14 6 -4 57.79 13.9
14 6 -4 84.79 15
-14 -6 4 64.39 13.8
-14 -6 4 79.89 16.3
13 6 -4 12 10
13 6 -4 7.9 10.9
-13 -6 4 5.7 10.2
-13 -6 4 8.5 9.8
12 6 -4 128.79 16.3
12 6 -4 130.99 18.7
-12 -6 4 131.49 15.8
-12 -6 4 80.99 12.4
11 6 -4 468.95 26.5
11 6 -4 429.26 27
-11 -6 4 451.95 26.8
-11 -6 4 456.05 27
10 6 -4 74.39 10.1
10 6 -4 86.49 12.8
-10 -6 4 90.09 11.8
-10 -6 4 89.99 13.6
9 6 -4 453.25 25.5
9 6 -4 462.65 26.2
-9 -6 4 487.95 25.9
-9 -6 4 506.35 26.2
8 6 -4 1612.44 69.89
8 6 -4 1596.54 70.19
-8 -6 4 1626.94 70.09
-8 -6 4 1654.73 70.09
7 6 -4 948.71 42.1
7 6 -4 932.51 42.4
-7 -6 4 906.21 42.2
-7 -6 4 937.91 42.2
6 6 -4 117.19 11
6 6 -4 110.39 10
-6 -6 4 107.99 10.6
-6 -6 4 121.39 10.4
5 6 -4 73.99 8.8
5 6 -4 57.09 7.9
-5 -6 4 74.59 8.6
-5 -6 4 79.89 8.4
4 6 -4 1732.23 69.89
4 6 -4 1759.52 70.19
-4 -6 4 1586.44 69.69
-4 -6 4 1580.64 69.79
3 6 -4 3220.38 125.49
3 6 -4 3264.27 125.39
-3 -6 4 2884.61 125.09
-3 -6 4 2893.91 125.09
2 6 -4 1056.89 46.2
2 6 -4 995.1 45.9
-2 -6 4 1155.08 46.3
-2 -6 4 1141.59 46.3
1 6 -4 929.21 40.8
1 6 -4 971.9 41
-1 -6 4 986.8 41
-1 -6 4 973.2 40.9
0 6 -4 1006.3 42.4
0 6 -4 1001.8 42.3
0 -6 4 1027.1 42.3
0 -6 4 1005.9 42.3
-1 6 -4 519.35 23.8
-1 6 -4 500.15 23.6
1 -6 4 597.64 23.9
1 -6 4 593.44 23.9
-2 6 -4 901.01 38.9
-2 6 -4 882.11 38.7
2 -6 4 986.8 39
2 -6 4 989.8 38.8
-3 6 -4 743.03 30.7
-3 6 -4 728.33 30.8
3 -6 4 784.22 30.9
3 -6 4 746.33 30.8
14 5 -4 1.1 10.3
14 5 -4 -2.7 11.6
-14 -5 4 2.8 11.8
-14 -5 4 6.2 11.3
13 5 -4 130.29 16.9
13 5 -4 122.99 17.4
-13 -5 4 82.59 13.1
-13 -5 4 100.79 14.7
12 5 -4 12.8 10.4
12 5 -4 15 8.4
-12 -5 4 24.6 9.8
-12 -5 4 6.5 8.9
11 5 -4 19.8 9.2
11 5 -4 14.7 8.5
-11 -5 4 17.8 8.2
-11 -5 4 16.7 8.7
10 5 -4 191.18 15.5
10 5 -4 174.18 15.9
-10 -5 4 195.38 15.9
-10 -5 4 205.68 16
9 5 -4 1233.38 56.19
9 5 -4 1297.67 55.99
-9 -5 4 1254.07 55.99
-9 -5 4 1290.97 56.39
8 5 -4 853.61 39.5
8 5 -4 878.41 39.3
-8 -5 4 867.71 39.5
-8 -5 4 840.22 39.4
7 5 -4 61.89 8.2
7 5 -4 43.9 7.5
-7 -5 4 60.99 8
-7 -5 4 58.19 8.8
6 5 -4 195.58 12.6
6 5 -4 171.98 12.1
-6 -5 4 188.18 12.4
-6 -5 4 181.58 12.3
5 5 -4 638.64 29.3
5 5 -4 611.64 29.4
-5 -5 4 647.94 29.5
-5 -5 4 676.93 29.5
4 5 -4 3204.38 134.89
4 5 -4 3218.78 135.19
-4 -5 4 3405.86 135.29
-4 -5 4 3415.86 135.09
3 5 -4 2493.35 104.19
3 5 -4 2433.56 104.29
-3 -5 4 2659.83 104.39
-3 -5 4 2611.54 104.39
2 5 -4 849.61 36.9
2 5 -4 857.41 37.1
-2 -5 4 875.71 37
-2 -5 4 887.61 37.1
1 5 -4 1199.18 49.2
1 5 -4 1185.68 49.1
-1 -5 4 1166.58 49.1
-1 -5 4 1170.78 49.1
0 5 -4 2286.07 91.49
0 5 -4 2265.67 91.49
0 -5 4 2231.68 91.49
0 -5 4 2228.38 91.39
-1 5 -4 2784.52 116.89
-1 5 -4 2798.62 116.79
1 -5 4 2990.6 116.89
1 -5 4 3022.2 116.89
-2 5 -4 4949.5 198.58
2 -5 4 4962 198.48
-3 5 -4 994.3 38.4
-3 5 -4 985.3 38.3
3 -5 4 915.51 38.3
3 -5 4 879.61 38.2
-8 5 -4 46.5 3.9
-8 5 -4 48 4
8 -5 4 55.99 3.8
-9 5 -4 426.76 18.6
-9 5 -4 446.06 18.7
9 -5 4 417.66 18.4
-10 5 -4 129.29 7.9
-10 5 -4 132.89 8.1
10 -5 4 142.19 7.7
-11 5 -4 58.39 6.5
-11 5 -4 53.69 6
11 -5 4 51.59 5.9
-12 5 -4 83.29 7.9
-12 5 -4 94.59 7.8
12 -5 4 81.49 7.4
12 -5 4 87.39 8.9
-13 5 -4 -1.5 4.3
-13 5 -4 -0.2 4.7
13 -5 4 1.4 4.3
13 -5 4 0.2 5.4
-14 5 -4 66.69 9.2
-14 5 -4 66.29 9
14 -5 4 75.39 8.8
14 -5 4 79.39 8.6
15 4 -4 27.6 12.9
15 4 -4 1.2 12.7
-15 -4 4 19.2 12.6
-15 -4 4 21.4 12.5
-14 -4 4 43.9 11.9
-14 -4 4 48.6 11.7
13 4 -4 64.69 11.9
13 4 -4 62.29 10.9
-13 -4 4 70.89 12.1
-13 -4 4 56.89 10.7
12 4 -4 408.06 23.7
12 4 -4 378.16 24.4
-12 -4 4 385.66 23.8
-12 -4 4 393.86 24.3
11 4 -4 109.09 13
11 4 -4 103.09 13.6
-11 -4 4 106.39 13.7
-11 -4 4 95.19 13.3
10 4 -4 41 7.9
10 4 -4 69.79 9.4
-10 -4 4 39.1 8.1
-10 -4 4 39 8.1
9 4 -4 270.97 17.2
9 4 -4 278.77 17.8
-9 -4 4 302.77 17.8
-9 -4 4 312.87 17.9
8 4 -4 802.32 37.6
8 4 -4 824.62 37.3
-8 -4 4 829.82 37.6
-8 -4 4 843.72 37.7
7 4 -4 62.99 8.7
7 4 -4 66.39 8.1
-7 -4 4 59.59 8.4
-7 -4 4 61.99 7.9
6 4 -4 219.98 12.6
6 4 -4 209.08 12.9
-6 -4 4 200.68 12.6
-6 -4 4 210.78 12.8
5 4 -4 71.29 9.4
5 4 -4 75.49 7.2
-5 -4 4 71.19 7.3
-5 -4 4 68.39 9.8
4 4 -4 836.52 38.3
4 4 -4 873.01 38.3
-4 -4 4 915.31 38.5
-4 -4 4 940.81 38.5
3 4 -4 1531.15 64.29
3 4 -4 1509.65 64.39
-3 -4 4 1607.74 64.39
-3 -4 4 1566.84 64.39
2 4 -4 44.7 5
2 4 -4 44 4.9
-2 -4 4 42.5 4.9
-2 -4 4 42.2 4.9
1 4 -4 350.66 15.9
1 4 -4 359.46 15.8
-1 -4 4 340.17 15.8
-1 -4 4 342.27 15.8
0 4 -4 1308.07 51.39
0 4 -4 1342.87 51.49
0 -4 4 1192.58 51.29
0 -4 4 1164.08 51.19
-1 4 -4 2431.56 93.49
-1 4 -4 2398.76 93.59
1 -4 4 2260.77 93.49
1 -4 4 2185.28 93.49
-2 4 -4 2538.65 99.59
-2 4 -4 2450.35 99.59
2 -4 4 2522.85 99.59
2 -4 4 2390.16 99.49
-3 4 -4 676.93 27.8
3 -4 4 678.23 27.8
3 -4 4 674.83 27.7
-4 4 -4 1780.02 71.09
-4 4 -4 1703.53 70.99
4 -4 4 1811.52 70.99
4 -4 4 1753.72 70.99
-5 4 -4 1300.67 52.29
-5 4 -4 1334.37 52.39
5 -4 4 1250.27 52.29
5 -4 4 1279.97 52.19
-6 4 -4 1453.35 59.39
-6 4 -4 1468.95 59.49
6 -4 4 1469.45 59.39
-7 4 -4 1036 41.9
-7 4 -4 1006.5 41.8
7 -4 4 1001.4 41.7
-8 4 -4 137.79 7.9
-8 4 -4 139.49 7.9
8 -4 4 137.69 8.4
8 -4 4 132.79 7.7
-9 4 -4 712.13 29.9
-9 4 -4 684.13 29.8
9 -4 4 696.33 29.7
9 -4 4 687.23 30.1
-10 4 -4 78.39 7.6
-10 4 -4 92.99 8
10 -4 4 114.79 8.7
10 -4 4 121.09 7.9
-11 4 -4 190.48 11.3
-11 4 -4 198.48 11.5
11 -4 4 177.08 11.1
11 -4 4 185.68 12.1
-12 4 -4 48.5 6.8
-12 4 -4 40.7 6.1
12 -4 4 42.4 7.2
12 -4 4 32.6 5.9
-13 4 -4 16.5 6.1
-13 4 -4 18.6 5.9
13 -4 4 19.1 6.7
13 -4 4 19.3 5.8
-14 4 -4 4.5 6.9
-14 4 -4 4 5.8
14 -4 4 12.5 6.2
14 -4 4 7 7.2
15 3 -4 82.79 15.2
-15 -3 4 94.49 14.9
-15 -3 4 98.19 15.5
14 3 -4 117.09 14.5
14 3 -4 85.89 13.4
-14 -3 4 83.49 12.4
-14 -3 4 91.69 13.2
13 3 -4 203.48 18.7
13 3 -4 188.98 17.1
-13 -3 4 187.98 17.7
-13 -3 4 196.68 18.2
12 3 -4 121.89 13.8
12 3 -4 137.99 15
-12 -3 4 107.59 14.3
-12 -3 4 96.59 13.6
11 3 -4 493.55 26.6
11 3 -4 511.55 26.3
-11 -3 4 496.85 26.4
-11 -3 4 505.75 26.6
10 3 -4 2848.52 117.49
10 3 -4 2848.71 117.29
-10 -3 4 2798.42 117.39
-10 -3 4 2799.72 117.39
9 3 -4 2154.38 89.19
9 3 -4 2142.69 89.39
-9 -3 4 2093.89 89.19
-9 -3 4 2122.19 89.29
8 3 -4 1730.23 74.39
8 3 -4 1762.62 74.29
-8 -3 4 1789.72 74.39
-8 -3 4 1778.82 74.39
7 3 -4 217.28 14
7 3 -4 228.88 13.8
-7 -3 4 251.87 14.2
-7 -3 4 268.37 14.4
6 3 -4 72.59 7.2
6 3 -4 64.79 7.4
-6 -3 4 62.99 7.3
-6 -3 4 61.69 7.3
5 3 -4 1115.29 49.4
5 3 -4 1126.19 49.3
-5 -3 4 1223.58 49.6
-5 -3 4 1208.08 49.6
4 3 -4 1081.29 44.2
4 3 -4 1064.99 44
-4 -3 4 995.4 44
-4 -3 4 1023.2 44
3 3 -4 64.59 5.3
3 3 -4 60.49 5.6
-3 -3 4 46.4 5.4
-3 -3 4 60.09 5.4
2 3 -4 479.15 21.2
2 3 -4 475.55 21.3
-2 -3 4 497.35 21.3
-2 -3 4 482.75 21.2
1 3 -4 1421.96 59.59
1 3 -4 1483.15 59.79
-1 -3 4 1484.25 59.79
-1 -3 4 1448.26 59.69
0 3 -4 101.39 5.7
0 3 -4 105.29 5.9
0 -3 4 93.99 5.7
0 -3 4 99.89 5.8
-1 3 -4 298.87 13.1
-1 3 -4 285.37 13.1
1 -3 4 315.37 13.1
1 -3 4 292.87 13.1
-2 3 -4 318.77 13.3
-2 3 -4 341.27 13.2
2 -3 4 276.47 13.2
2 -3 4 273.67 13.1
-3 3 -4 567.34 23.9
-3 3 -4 584.14 24.1
3 -3 4 572.14 23.8
3 -3 4 563.34 23.9
-4 3 -4 865.41 36.8
-4 3 -4 875.31 36.9
4 -3 4 939.51 36.8
-5 3 -4 2123.69 85.09
-5 3 -4 2104.49 84.99
5 -3 4 2070.89 84.99
-6 3 -4 885.31 36.8
-6 3 -4 881.11 36.7
6 -3 4 872.61 36.6
6 -3 4 872.31 36.9
-7 3 -4 197.28 10.2
-7 3 -4 195.58 10.2
7 -3 4 183.98 9.9
7 -3 4 189.78 10.6
-8 3 -4 47.7 6
-8 3 -4 49.4 6
8 -3 4 62.59 5.9
8 -3 4 60.79 6.7
-9 3 -4 1185.98 51.39
-9 3 -4 1212.58 51.59
9 -3 4 1235.58 51.39
9 -3 4 1267.17 51.79
-10 3 -4 383.86 17.9
-10 3 -4 379.56 17.7
10 -3 4 315.57 17.1
10 -3 4 311.87 17.7
-11 3 -4 115.49 10
-11 3 -4 103.69 9.5
11 -3 4 85.19 10.2
11 -3 4 93.79 9.2
-12 3 -4 10.4 5.6
-12 3 -4 9.7 5.9
12 -3 4 4.2 5.3
12 -3 4 6.6 6.3
-13 3 -4 16 6.4
-13 3 -4 10.9 6.4
13 -3 4 6 7
13 -3 4 13.6 6.3
-14 3 -4 98.39 12.8
-14 3 -4 87.19 11.8
14 -3 4 102.99 12
14 -3 4 96.99 13.8
15 2 -4 358.26 27.4
15 2 -4 370.66 26.4
-15 -2 4 377.96 25.2
-15 -2 4 335.67 24.9
14 2 -4 450.25 26.4
14 2 -4 441.56 27.3
-14 -2 4 437.66 26.4
-14 -2 4 448.86 27
13 2 -4 204.08 16.8
13 2 -4 201.98 17.7
-13 -2 4 213.18 17.6
-13 -2 4 202.68 17.5
12 2 -4 492.55 26.3
12 2 -4 483.65 26.8
-12 -2 4 512.65 26.9
-12 -2 4 517.85 26.8
11 2 -4 60.29 8.4
11 2 -4 86.29 10.3
-11 -2 4 69.09 9.7
10 2 -4 906.01 40
10 2 -4 920.51 39.6
-10 -2 4 854.61 39.6
-10 -2 4 813.52 39.5
9 2 -4 2176.08 91.39
9 2 -4 2156.68 90.99
-9 -2 4 2212.28 91.29
-9 -2 4 2206.38 91.39
8 2 -4 559.44 27.2
8 2 -4 553.34 27.5
-8 -2 4 623.34 27.8
-8 -2 4 628.24 27.9
7 2 -4 13.8 4.3
7 2 -4 14.2 5.9
-7 -2 4 14 4.9
-7 -2 4 15.7 5.8
6 2 -4 457.05 23.9
6 2 -4 456.75 23
-6 -2 4 539.95 24
-6 -2 4 565.74 23.7
5 2 -4 1670.43 74.69
5 2 -4 1716.53 74.59
-5 -2 4 1951.8 74.99
-5 -2 4 1914.81 74.99
4 2 -4 2471.15 101.29
4 2 -4 2431.36 101.19
-4 -2 4 2482.25 101.29
-4 -2 4 2555.84 101.29
3 2 -4 2173.68 84.29
3 2 -4 2119.19 84.39
-3 -2 4 1995.2 84.29
-3 -2 4 1981.1 84.19
2 2 -4 1473.95 60.59
2 2 -4 1459.15 60.39
-2 -2 4 1402.36 60.39
-2 -2 4 1569.94 60.59
1 2 -4 6001.2 241.98
-1 -2 4 6080.09 242.08
-1 -2 4 6028.3 241.98
0 2 -4 2806.12 107.49
0 2 -4 2839.02 107.39
0 -2 4 2517.55 107.29
0 -2 4 2483.85 107.29
-1 2 -4 4610.74 184.18
1 -2 4 4569.44 184.18
-2 2 -4 1278.47 51.29
2 -2 4 1248.88 51.19
2 -2 4 1233.58 51.09
-3 2 -4 708.13 29.6
-3 2 -4 718.23 29.8
3 -2 4 689.53 29.6
-4 2 -4 224.28 10.9
-4 2 -4 223.68 10.7
4 -2 4 211.48 10.6
-5 2 -4 382.06 17.7
-5 2 -4 383.46 17.9
5 -2 4 400.86 17.8
5 -2 4 408.96 18.2
-6 2 -4 205.38 10.8
-6 2 -4 201.48 11.1
6 -2 4 207.48 10.9
6 -2 4 219.88 11.5
-7 2 -4 258.97 13.6
-7 2 -4 258.77 13.5
7 -2 4 269.97 14
7 -2 4 275.07 13.5
-8 2 -4 16.1 4.4
-8 2 -4 12.7 4.2
8 -2 4 19.3 4.9
8 -2 4 20 4.4
-9 2 -4 426.86 21.5
-9 2 -4 435.06 21.5
9 -2 4 466.25 22.1
9 -2 4 470.85 21.5
-10 2 -4 323.87 16.3
-10 2 -4 333.07 16.6
10 -2 4 252.27 16.3
10 -2 4 258.97 15.6
-11 2 -4 33.3 6.9
-11 2 -4 27.8 6.4
11 -2 4 36.5 7.5
11 -2 4 35.8 6.4
-12 2 -4 74.89 10.5
-12 2 -4 86.79 11.2
12 -2 4 92.29 10.9
12 -2 4 90.99 10.8
-13 2 -4 15.4 7.5
-13 2 -4 12 6.8
13 -2 4 34.5 7.8
13 -2 4 33.4 9
-14 2 -4 362.16 22.3
-14 2 -4 375.96 23.1
14 -2 4 427.16 23.6
14 -2 4 408.46 24.2
15 1 -4 2.7 9.9
15 1 -4 15 11.7
-15 -1 4 -0.4 9
-15 -1 4 7.2 9.1
14 1 -4 5.2 8.9
14 1 -4 6.2 7.8
-14 -1 4 0.7 8.2
-14 -1 4 -1.2 8
13 1 -4 152.18 14.3
13 1 -4 138.79 15
-13 -1 4 155.18 14.9
-13 -1 4 129.69 14.7
12 1 -4 -1.6 5.8
12 1 -4 0.5 6.6
-12 -1 4 -2.3 6.4
-12 -1 4 2.2 6.2
11 1 -4 129.79 12.5
11 1 -4 140.69 12.3
-11 -1 4 146.29 12.8
-11 -1 4 159.68 12.5
10 1 -4 313.47 18.3
10 1 -4 316.77 18
-10 -1 4 344.07 18.4
-10 -1 4 342.37 18.5
9 1 -4 672.83 30.3
9 1 -4 643.64 30.5
-9 -1 4 668.23 30.5
-9 -1 4 654.83 30.4
8 1 -4 379.46 19.5
8 1 -4 374.76 19.8
-8 -1 4 425.56 20
-8 -1 4 420.36 20
7 1 -4 69.89 7
7 1 -4 61.29 7.3
-7 -1 4 72.99 7.4
-7 -1 4 72.89 7.5
6 1 -4 1506.15 64.69
6 1 -4 1549.45 65.09
-6 -1 4 1577.14 65.09
-6 -1 4 1611.34 64.99
5 1 -4 2258.67 97.09
5 1 -4 2284.67 96.99
-5 -1 4 2515.55 97.29
-5 -1 4 2458.15 97.19
4 1 -4 3631.94 142.39
4 1 -4 3523.75 142.49
-4 -1 4 3433.46 142.39
-4 -1 4 3500.15 142.39
3 1 -4 467.55 21.5
3 1 -4 488.25 21.4
-3 -1 4 506.25 21.5
-3 -1 4 500.75 21.6
-2 -1 4 8212.48 328.97
1 1 -4 1388.66 61.69
1 1 -4 1407.86 61.59
-1 -1 4 1672.13 61.89
-1 -1 4 1574.44 61.79
0 1 -4 2711.13 117.99
0 1 -4 2711.63 117.79
0 -1 4 3155.88 118.19
0 -1 4 3124.99 117.99
-1 1 -4 1534.25 65.69
1 -1 4 1653.33 65.49
1 -1 4 1641.64 65.69
-2 1 -4 1417.36 59.39
-2 1 -4 1454.95 59.69
2 -1 4 1474.85 59.39
-3 1 -4 166.88 9.2
-3 1 -4 162.38 9.4
3 -1 4 187.58 9.8
3 -1 4 192.58 9.4
-4 1 -4 982.7 40.2
-4 1 -4 986.6 40
4 -1 4 932.91 40.2
4 -1 4 897.81 39.8
-5 1 -4 485.95 22.1
-5 1 -4 476.95 21.9
5 -1 4 500.15 22.4
5 -1 4 488.05 21.9
-6 1 -4 52.29 6
-6 1 -4 42.1 5.5
6 -1 4 41.8 5.7
6 -1 4 39.9 5.1
-7 1 -4 16 4.5
-7 1 -4 19.2 4.5
7 -1 4 20 4.4
7 -1 4 19.6 5.1
-8 1 -4 32.7 5.7
-8 1 -4 44.8 6.4
8 -1 4 32.2 5.4
8 -1 4 33.8 6.1
-9 1 -4 95.39 9.6
-9 1 -4 88.29 9.2
9 -1 4 93.69 10
9 -1 4 95.29 9.1
-10 1 -4 174.38 12.5
-10 1 -4 177.58 12.9
10 -1 4 153.78 13.2
10 -1 4 163.28 12.2
-11 1 -4 41.3 7.5
-11 1 -4 46.3 8
11 -1 4 54.19 9
11 -1 4 47.5 7.6
-12 1 -4 44 8.8
-12 1 -4 46.3 8.4
12 -1 4 26.6 8.6
12 -1 4 35.3 7.6
-13 1 -4 27.7 8.3
-13 1 -4 22.3 8.4
13 -1 4 26.1 9.5
13 -1 4 35.5 8.5
-14 1 -4 191.88 17.4
-14 1 -4 153.08 16.2
14 -1 4 150.78 18.5
14 -1 4 166.08 20
15 0 -4 453.55 27.1
15 0 -4 441.46 26.9
-15 0 4 408.16 25.7
-15 0 4 433.06 25.7
14 0 -4 73.29 11.3
14 0 -4 104.09 11.8
-14 0 4 96.69 14.1
-14 0 4 113.19 14.4
13 0 -4 282.87 18.5
13 0 -4 263.17 17.2
-13 0 4 248.78 17.7
-13 0 4 266.67 17.9
12 0 -4 15 6.3
12 0 -4 17.8 7
-12 0 4 15.7 6.5
-12 0 4 12.4 6.3
11 0 -4 380.76 20.3
11 0 -4 396.96 21
-11 0 4 385.46 20.7
-11 0 4 402.46 21
10 0 -4 705.93 32.8
10 0 -4 729.23 32.4
-10 0 4 707.83 32.7
-10 0 4 708.53 32.6
9 0 -4 20.1 4.8
9 0 -4 11.2 4.8
-9 0 4 18 5.1
-9 0 4 12.7 4.7
8 0 -4 209.98 12.2
8 0 -4 225.88 12.8
-8 0 4 215.38 12.7
-8 0 4 218.18 12.6
7 0 -4 849.81 36.9
7 0 -4 823.52 37.1
-7 0 4 880.01 37.2
-7 0 4 876.61 37.2
6 0 -4 411.26 20
6 0 -4 434.96 19.2
-6 0 4 389.76 19.9
-6 0 4 418.16 19.4
5 0 -4 1063.49 42.9
5 0 -4 1064.19 42.7
-5 0 4 987.8 42.8
-5 0 4 943.91 42.6
4 0 -4 199.18 10.6
4 0 -4 198.68 10.5
-4 0 4 210.78 10.7
-4 0 4 216.68 10.7
3 0 -4 2131.59 88.19
3 0 -4 2123.19 88.09
-3 0 4 2167.98 88.19
-3 0 4 2242.18 88.19
2 0 -4 1433.36 57.39
2 0 -4 1397.66 57.09
-2 0 4 1376.96 57.29
-2 0 4 1364.86 57.19
1 0 -4 1143.19 51.99
1 0 -4 1149.48 51.69
-1 0 4 1404.96 52.39
-1 0 4 1359.26 52.09
0 0 -4 3014.1 126.19
0 0 4 3226.58 126.29
0 0 4 3130.29 125.99
-1 0 -4 491.05 20.7
-1 0 -4 486.75 20.3
1 0 4 393.76 20
-2 0 -4 100.89 6.8
-2 0 -4 99.59 7.2
2 0 4 100.89 7.2
2 0 4 108.59 6.9
-3 0 -4 106.29 7.2
-3 0 -4 103.29 7.5
-4 0 -4 2871.11 112.89
-4 0 -4 2844.02 112.69
4 0 4 2660.63 112.49
4 0 4 2679.53 112.89
-5 0 -4 760.02 31.4
-5 0 -4 793.12 31.3
5 0 4 640.84 30.8
5 0 4 626.54 31.1
-6 0 -4 368.56 17.2
-6 0 -4 349.87 17.5
6 0 4 319.27 16.9
6 0 4 319.47 17.5
-7 0 -4 357.46 18.2
-7 0 -4 329.17 18.1
7 0 4 372.96 18.8
7 0 4 359.76 18
-8 0 -4 589.14 27.8
-8 0 -4 567.54 27.8
8 0 4 613.34 28.4
8 0 4 595.94 27.7
-9 0 -4 94.59 9.9
-9 0 -4 82.29 9.9
9 0 4 60.59 9
9 0 4 74.89 9.3
-10 0 -4 136.59 12.6
-10 0 -4 112.99 12
10 0 4 148.79 12.2
10 0 4 142.79 13.3
-11 0 -4 168.18 14.6
-11 0 -4 161.38 14
11 0 4 169.18 13.6
11 0 4 172.48 15.7
-12 0 -4 129.89 14.2
-12 0 -4 117.49 14.6
12 0 4 157.08 14.3
12 0 4 133.89 15.9
-13 0 -4 74.69 11
-13 0 -4 41.4 10.1
13 0 4 89.49 12.8
13 0 4 62.69 11.7
15 -1 -4 534.35 30
15 -1 -4 553.84 30
-15 1 4 545.45 29.3
-15 1 4 545.25 29.4
14 -1 -4 144.89 15.4
14 -1 -4 143.79 13.9
-14 1 4 161.58 15
-14 1 4 162.58 15.1
13 -1 -4 769.82 35.3
13 -1 -4 737.73 35.9
-13 1 4 771.12 35.9
-13 1 4 760.12 35.8
12 -1 -4 321.47 17.9
12 -1 -4 302.07 18.5
-12 1 4 328.47 18.6
-12 1 4 328.77 18.5
11 -1 -4 719.83 32.7
11 -1 -4 693.43 32
-11 1 4 690.93 32.4
-11 1 4 710.83 32.6
10 -1 -4 325.67 17.2
10 -1 -4 337.27 16.7
-10 1 4 294.37 16.9
-10 1 4 298.47 16.9
9 -1 -4 397.86 19.5
9 -1 -4 392.46 19
-9 1 4 370.76 19.2
-9 1 4 389.36 19.4
8 -1 -4 77.79 7.2
8 -1 -4 80.49 7.8
-8 1 4 85.59 7.7
-8 1 4 77.99 7.7
7 -1 -4 158.98 11
7 -1 -4 161.78 9.9
-7 1 4 168.78 10.8
-7 1 4 173.18 10.4
6 -1 -4 1393.96 59.39
6 -1 -4 1392.06 59.29
-6 1 4 1457.95 59.49
-6 1 4 1472.05 59.59
5 -1 -4 704.23 31.8
5 -1 -4 751.22 32
-5 1 4 767.72 32.2
-5 1 4 757.92 32
4 -1 -4 167.08 8.8
4 -1 -4 149.39 9
-4 1 4 167.18 9
-4 1 4 156.58 9
3 -1 -4 48.9 4.5
3 -1 -4 40.6 4.9
-3 1 4 42.1 4.9
-3 1 4 41.2 4.9
2 -1 -4 111.79 7.3
2 -1 -4 105.99 6.7
-2 1 4 123.99 7.5
-2 1 4 122.99 7.1
1 -1 -4 220.88 11.6
-1 1 4 227.98 11.6
-1 1 4 241.18 11.4
0 -1 -4 365.06 17
0 -1 -4 359.26 16.5
0 1 4 343.87 16.5
-1 -1 -4 785.82 34.1
-1 -1 -4 770.32 34.5
1 1 4 842.12 34.3
-2 -1 -4 264.87 13
-2 -1 -4 265.97 13.3
2 1 4 237.68 13.2
2 1 4 241.08 12.8
-3 -1 -4 776.32 33.5
-3 -1 -4 778.02 33.8
3 1 4 777.52 34
3 1 4 752.42 33.5
-4 -1 -4 3493.55 144.49
-4 -1 -4 3638.64 144.79
4 1 4 3542.05 144.79
4 1 4 3539.45 144.49
-5 -1 -4 532.75 22.8
-5 -1 -4 523.55 23
5 1 4 428.66 22.7
5 1 4 414.16 22.2
-6 -1 -4 9 5
-6 -1 -4 6.5 4.2
6 1 4 1.8 3.9
6 1 4 2.9 4.5
-7 -1 -4 85.49 9.8
-7 -1 -4 92.39 9.7
7 1 4 114.79 9.7
7 1 4 121.99 11
-8 -1 -4 853.61 39.6
-8 -1 -4 874.81 39.8
8 1 4 899.71 39.7
8 1 4 892.91 40.3
-9 -1 -4 818.62 37.9
-9 -1 -4 848.92 37.9
9 1 4 817.12 37.8
9 1 4 795.12 38.3
-10 -1 -4 313.37 19.5
-10 -1 -4 333.27 19.9
10 1 4 319.67 20.7
10 1 4 333.87 19.6
-11 -1 -4 88.89 13.2
-11 -1 -4 84.99 10.7
11 1 4 99.49 14.8
11 1 4 84.99 12.6
-12 -1 -4 86.69 11.4
-12 -1 -4 58.79 10.4
12 1 4 105.69 13.7
12 1 4 88.39 11.4
-13 -1 -4 179.68 19
-13 -1 -4 169.88 17.7
13 1 4 163.78 20.3
13 1 4 161.58 20.2
15 -2 -4 190.48 18.7
15 -2 -4 208.48 17.5
-15 2 4 164.98 16.4
-15 2 4 157.98 16
14 -2 -4 170.18 15.5
14 -2 -4 168.88 14.2
-14 2 4 163.38 14.5
-14 2 4 169.58 14.7
13 -2 -4 571.44 28.1
13 -2 -4 552.64 27.4
-13 2 4 558.04 27.9
-13 2 4 570.14 28.1
12 -2 -4 203.78 14.6
12 -2 -4 204.58 14
-12 2 4 240.08 14.9
-12 2 4 237.38 14.9
11 -2 -4 1880.51 81.99
11 -2 -4 1940.01 81.69
-11 2 4 2051.19 82.29
-11 2 4 1978.3 82.09
10 -2 -4 1104.29 47.6
10 -2 -4 1109.99 47.3
-10 2 4 1104.79 47.6
-10 2 4 1082.39 47.5
9 -2 -4 149.49 10.5
9 -2 -4 142.89 9.8
-9 2 4 132.49 9.9
-9 2 4 132.99 10
8 -2 -4 44.1 6.1
8 -2 -4 64.69 7
-8 2 4 55.59 6.7
-8 2 4 45.5 6.7
7 -2 -4 1663.13 65.29
7 -2 -4 1619.84 65.09
-7 2 4 1521.95 65.19
-7 2 4 1465.55 64.99
6 -2 -4 2440.46 100.19
6 -2 -4 2514.35 100.39
-6 2 4 2434.06 100.39
-6 2 4 2438.16 100.19
5 -2 -4 568.24 25.2
5 -2 -4 543.05 24.8
-5 2 4 573.94 25.2
-5 2 4 591.44 25.3
4 -2 -4 222.38 11.8
4 -2 -4 226.68 12.2
-4 2 4 253.67 12.3
-4 2 4 256.67 12.4
3 -2 -4 1142.39 47.3
3 -2 -4 1133.49 47.6
-3 2 4 1148.89 47.5
-3 2 4 1129.19 47.7
2 -2 -4 835.82 37
-2 2 4 880.61 36.7
-2 2 4 894.31 37.1
1 -2 -4 200.38 11.3
1 -2 -4 181.88 10.6
-1 2 4 217.48 10.9
0 -2 -4 206.58 11.5
0 -2 -4 191.28 10.9
0 2 4 209.48 11.1
-1 -2 -4 1710.83 67.69
-1 -2 -4 1650.03 67.19
1 2 4 1503.65 67.49
1 2 4 1617.14 67.29
-2 -2 -4 383.16 18.4
-2 -2 -4 369.16 18
2 2 4 359.96 17.9
2 2 4 368.36 18.4
-3 -2 -4 383.96 18.3
-3 -2 -4 383.16 18.5
3 2 4 346.57 18.7
3 2 4 344.87 18
-4 -2 -4 2333.67 95.29
-4 -2 -4 2312.67 94.99
4 2 4 2265.27 95.29
4 2 4 2280.37 94.99
-5 -2 -4 771.52 33.7
-5 -2 -4 808.12 34.1
5 2 4 688.13 33.8
5 2 4 700.43 33.4
-6 -2 -4 383.76 20.4
-6 -2 -4 405.26 20.8
6 2 4 401.26 20.5
6 2 4 388.66 21.1
-7 -2 -4 335.77 19.4
-7 -2 -4 338.07 19.2
7 2 4 355.56 19.2
7 2 4 368.26 20.1
-8 -2 -4 876.91 40.8
-8 -2 -4 886.01 41
8 2 4 886.31 41.5
8 2 4 935.61 41.2
-9 -2 -4 1476.15 63.39
-9 -2 -4 1441.26 63.49
9 2 4 1444.16 63.99
9 2 4 1449.76 63.39
-10 -2 -4 187.18 15.9
-10 -2 -4 211.88 16
10 2 4 165.28 17
10 2 4 160.18 15.3
-11 -2 -4 94.29 14.2
-11 -2 -4 104.09 14.6
11 2 4 73.69 12
11 2 4 89.59 11.7
-12 -2 -4 463.05 27.4
-12 -2 -4 468.45 26.9
12 2 4 433.06 28.6
12 2 4 427.16 26.4
-13 -2 -4 343.77 24.6
-13 -2 -4 355.86 24.7
13 2 4 331.77 26.6
13 2 4 327.77 26.4
15 -3 -4 56.89 11
15 -3 -4 61.69 10.3
-15 3 4 52.39 9.6
-15 3 4 71.99 10.4
14 -3 -4 103.39 13
14 -3 -4 95.09 11.8
-14 3 4 84.39 11.9
-14 3 4 81.99 10.1
13 -3 -4 2.8 6.3
13 -3 -4 7.4 5.9
-13 3 4 1.1 6.1
-13 3 4 6.9 6
12 -3 -4 233.08 15.3
12 -3 -4 228.38 14.8
-12 3 4 260.17 15.3
-12 3 4 258.07 15.4
11 -3 -4 896.71 40.6
11 -3 -4 918.31 40.4
-11 3 4 932.51 40.8
-11 3 4 939.81 40.8
10 -3 -4 262.67 14.4
10 -3 -4 283.17 15
-10 3 4 242.48 14.6
-10 3 4 244.38 14.7
9 -3 -4 128.99 10
9 -3 -4 120.49 9.2
-9 3 4 133.69 9.8
-9 3 4 135.19 9.8
8 -3 -4 233.28 12.8
8 -3 -4 233.38 13.2
-8 3 4 240.78 13.2
-8 3 4 247.98 13.3
7 -3 -4 912.71 37.4
7 -3 -4 863.61 36.9
-7 3 4 853.71 37.3
-7 3 4 826.22 37
6 -3 -4 1532.65 62.09
6 -3 -4 1465.25 61.49
-6 3 4 1489.85 61.89
-6 3 4 1460.25 61.79
5 -3 -4 733.43 32.1
5 -3 -4 713.93 31.6
-5 3 4 729.83 32
-5 3 4 779.02 32.3
4 -3 -4 225.88 13.1
-4 3 4 270.77 13.3
-4 3 4 262.67 13.3
3 -3 -4 1060.29 46.9
-3 3 4 1113.59 46.7
-3 3 4 1172.38 47.2
2 -3 -4 970.8 42.2
2 -3 -4 966.9 41.8
-2 3 4 1022.4 41.9
-2 3 4 963.2 41.4
1 -3 -4 363.76 18
1 -3 -4 376.56 18.5
-1 3 4 390.26 18.2
0 -3 -4 446.46 20.4
0 -3 -4 447.66 20.8
0 3 4 412.36 20.3
0 3 4 413.56 20.9
-1 -3 -4 35.6 5.1
-1 -3 -4 39.4 5.8
1 3 4 23.9 5
1 3 4 30.6 5.2
-2 -3 -4 878.21 38.9
-2 -3 -4 875.91 38.7
2 3 4 882.01 38.7
2 3 4 896.01 39.2
-3 -3 -4 129.29 10.2
-3 -3 -4 124.69 10
3 3 4 139.49 10.1
3 3 4 137.39 10.9
-4 -3 -4 814.72 35.1
-4 -3 -4 760.92 34.6
4 3 4 725.83 35
4 3 4 750.12 34.5
-5 -3 -4 725.43 33
-5 -3 -4 711.33 33.2
5 3 4 687.93 33.4
5 3 4 714.73 32.9
-6 -3 -4 214.08 15
-6 -3 -4 234.48 15.1
6 3 4 230.58 15
6 3 4 227.98 15.8
-7 -3 -4 6.6 6.4
-7 -3 -4 6.1 6.2
7 3 4 0.6 5.6
7 3 4 0.9 6.8
-8 -3 -4 126.59 13.2
-8 -3 -4 136.59 13.3
8 3 4 143.39 14.7
8 3 4 137.09 13.3
-9 -3 -4 235.38 17.3
-9 -3 -4 223.48 17.4
9 3 4 228.18 17.2
9 3 4 242.18 19.1
-10 -3 -4 104.29 14.4
-10 -3 -4 106.49 14.5
10 3 4 81.99 12.2
10 3 4 108.09 14.3
-11 -3 -4 231.98 19.6
-11 -3 -4 214.68 19.1
11 3 4 207.38 21.1
11 3 4 202.88 18.8
-12 -3 -4 347.07 24.3
-12 -3 -4 318.97 24
12 3 4 326.07 24.4
12 3 4 317.27 26.3
15 -4 -4 9.4 8
15 -4 -4 9.4 8
-15 4 4 16.2 7.7
-15 4 4 15.4 8.2
14 -4 -4 16.3 6.9
14 -4 -4 19.4 7.5
-14 4 4 13.7 6.8
-14 4 4 17.8 7.5
13 -4 -4 30.4 7
13 -4 -4 31.3 7.3
-13 4 4 27.8 7.1
-13 4 4 22.9 6.5
12 -4 -4 124.29 11.5
-12 4 4 138.29 11.8
-12 4 4 127.39 11.2
11 -4 -4 30.7 5.9
11 -4 -4 28.2 6.2
-11 4 4 35 6.6
-11 4 4 28.1 6
10 -4 -4 97.49 9.6
10 -4 -4 101.09 8.8
-10 4 4 108.99 9.7
-10 4 4 101.89 9.3
9 -4 -4 49.4 6
9 -4 -4 55.49 6.9
-9 4 4 48.9 6.6
-9 4 4 53.49 6.9
8 -4 -4 102.49 8
8 -4 -4 92.59 8.5
-8 4 4 104.79 8.6
-8 4 4 101.69 8.7
7 -4 -4 796.52 34.2
7 -4 -4 788.72 33.7
-7 4 4 772.82 34.2
-7 4 4 762.22 33.9
6 -4 -4 783.92 32.7
-6 4 4 715.93 32.6
-6 4 4 725.73 32.4
5 -4 -4 577.94 26.6
-5 4 4 600.34 26.5
-5 4 4 598.94 26.7
4 -4 -4 343.47 17
-4 4 4 357.66 17
-4 4 4 327.37 16.6
3 -4 -4 2811.62 111.89
3 -4 -4 2813.72 111.49
-3 4 4 2615.64 110.89
-3 4 4 2656.13 111.39
2 -4 -4 4360.96 171.68
2 -4 -4 4326.97 171.18
-2 4 4 3974.9 170.98
1 -4 -4 1651.53 67.79
1 -4 -4 1640.24 68.19
-1 4 4 1574.34 67.79
0 -4 -4 1837.72 75.19
0 -4 -4 1783.72 74.69
0 4 4 1829.22 74.89
0 4 4 1715.63 75.09
-1 -4 -4 127.69 9.9
-1 -4 -4 128.49 10
1 4 4 131.09 9.7
1 4 4 125.69 10.6
-2 -4 -4 1832.12 75.99
-2 -4 -4 1784.12 75.69
2 4 4 1800.52 76.29
2 4 4 1791.42 75.59
-3 -4 -4 1800.92 76.59
-3 -4 -4 1886.61 76.99
3 4 4 1801.92 76.59
3 4 4 1783.62 76.99
-4 -4 -4 273.77 16.8
-4 -4 -4 249.28 16.2
4 4 4 276.87 16.5
4 4 4 316.57 17.8
-5 -4 -4 88.69 10.9
-5 -4 -4 85.89 11.1
5 4 4 104.29 12.2
5 4 4 106.69 10.8
-6 -4 -4 187.68 14.5
-6 -4 -4 195.28 14.9
6 4 4 198.98 15.8
6 4 4 190.98 14.5
-7 -4 -4 100.49 12.5
-7 -4 -4 92.09 12.6
7 4 4 95.39 13.7
7 4 4 98.79 12.1
-8 -4 -4 111.69 13.6
-8 -4 -4 118.39 13.7
8 4 4 99.19 14.8
8 4 4 108.19 13.5
-9 -4 -4 63.59 10.1
-9 -4 -4 52.19 9.4
9 4 4 49.99 9.1
9 4 4 68.89 12
-10 -4 -4 82.69 12.4
-10 -4 -4 75.59 11.5
10 4 4 88.79 13.1
10 4 4 93.39 14.2
-11 -4 -4 67.09 12.9
-11 -4 -4 77.39 13.7
11 4 4 56.59 14.2
11 4 4 53.69 11.6
-12 -4 -4 211.88 22.1
-12 -4 -4 198.78 21.3
12 4 4 180.98 23.7
12 4 4 162.18 24.2
15 -5 -4 140.59 14.4
15 -5 -4 142.49 13.2
-15 5 4 122.59 14
-15 5 4 109.39 13.2
14 -5 -4 12.4 7.3
14 -5 -4 9.1 6.4
-14 5 4 5.6 6.2
-14 5 4 6.2 7
13 -5 -4 64.19 8.5
13 -5 -4 67.79 8.2
-13 5 4 61.99 8.4
-13 5 4 53.39 8.3
12 -5 -4 302.47 17
12 -5 -4 296.77 16.2
-12 5 4 288.57 16.9
-12 5 4 270.97 16.4
11 -5 -4 209.58 13.7
11 -5 -4 219.28 13.1
-11 5 4 209.68 13.6
-11 5 4 194.18 13.4
10 -5 -4 65.69 8.9
10 -5 -4 64.99 8
-10 5 4 70.59 8.8
-10 5 4 72.29 9.1
9 -5 -4 123.59 9.9
9 -5 -4 123.99 9.3
-9 5 4 117.89 10.1
-9 5 4 119.49 9.8
8 -5 -4 99.89 8.7
-8 5 4 97.29 8.5
-8 5 4 92.99 9
7 -5 -4 428.06 19.6
-7 5 4 363.86 19
-7 5 4 387.86 19.3
6 -5 -4 107.09 9.3
-6 5 4 130.59 9.5
-6 5 4 133.89 9.4
5 -5 -4 185.08 12.6
5 -5 -4 207.68 12.3
-5 5 4 209.38 12.1
-5 5 4 202.08 11.7
4 -5 -4 48.3 6.8
4 -5 -4 49.8 6.3
-4 5 4 52.09 7.2
-4 5 4 47.5 6.8
3 -5 -4 416.46 19.2
3 -5 -4 404.36 19.6
-3 5 4 328.77 18.7
2 -5 -4 933.51 39.2
2 -5 -4 918.51 38.8
-2 5 4 785.02 38.4
1 -5 -4 389.46 19.1
1 -5 -4 373.66 18.8
-1 5 4 324.27 18.4
0 -5 -4 780.72 35.4
0 -5 -4 779.12 35.7
0 5 4 810.82 35.5
0 5 4 777.92 36
-1 -5 -4 552.04 27
-1 -5 -4 567.94 26.8
1 5 4 552.44 27.4
1 5 4 558.44 26.7
-2 -5 -4 1749.92 76.39
-2 -5 -4 1852.01 76.89
2 5 4 1840.32 76.59
2 5 4 1798.72 77.09
-3 -5 -4 3994.2 164.18
-3 -5 -4 3906.01 163.88
3 5 4 4005.3 164.48
3 5 4 4095.99 164.08
-4 -5 -4 1079.29 49.4
-4 -5 -4 1141.99 49.8
4 5 4 1077.19 50.09
4 5 4 1142.19 49.6
-5 -5 -4 93.19 12
-5 -5 -4 83.29 11.5
5 5 4 81.69 11.4
5 5 4 106.19 12.8
-6 -5 -4 688.53 35.1
-6 -5 -4 706.23 35
6 5 4 738.93 35.2
6 5 4 734.53 35.9
-7 -5 -4 411.26 23.7
-7 -5 -4 407.56 23.3
7 5 4 363.16 24
7 5 4 356.56 22.7
-8 -5 -4 163.78 16.6
-8 -5 -4 168.38 16.8
8 5 4 172.48 16.6
8 5 4 176.98 18.5
-9 -5 -4 168.48 18
-9 -5 -4 182.48 18.1
9 5 4 160.88 19.8
9 5 4 153.38 16.9
-10 -5 -4 2.1 9.2
-10 -5 -4 2.7 9.1
10 5 4 -2.1 9
10 5 4 0.5 10.3
-11 -5 -4 10.2 11
-11 -5 -4 11 10.5
11 5 4 25.2 12.2
11 5 4 23.2 13.4
14 -6 -4 74.99 9.4
14 -6 -4 77.59 10.8
-14 6 4 76.59 9.7
-14 6 4 72.79 10.8
13 -6 -4 71.39 10.5
13 -6 -4 65.89 10
-13 6 4 74.69 9.4
-13 6 4 68.99 10
12 -6 -4 484.85 25.2
-12 6 4 521.85 25.1
-12 6 4 549.05 25.7
11 -6 -4 620.04 29.4
-11 6 4 655.33 29.7
-11 6 4 625.24 29.2
10 -6 -4 101.39 10.5
-10 6 4 142.29 10.7
-10 6 4 109.69 10.5
9 -6 -4 95.29 9.4
-9 6 4 99.39 9.7
-9 6 4 102.19 9.2
8 -6 -4 278.67 15.5
-8 6 4 285.07 15.3
-8 6 4 276.27 15.5
7 -6 -4 431.16 21.7
-7 6 4 460.15 21.7
-7 6 4 454.05 21.8
6 -6 -4 174.38 11.4
6 -6 -4 170.88 11.8
-6 6 4 138.89 10.6
-6 6 4 154.68 11.2
5 -6 -4 72.79 9
5 -6 -4 73.09 8.8
-5 6 4 77.99 8.2
-5 6 4 77.89 8.6
4 -6 -4 280.27 15.8
4 -6 -4 268.67 15.8
-4 6 4 278.47 14.9
-4 6 4 280.47 15.6
3 -6 -4 238.18 14.3
3 -6 -4 240.98 14.7
-3 6 4 245.98 14.4
2 -6 -4 40.8 6.8
2 -6 -4 36.8 6.9
-2 6 4 53.69 7.5
1 -6 -4 579.44 26.9
1 -6 -4 579.14 27.3
-1 6 4 560.04 26.8
-1 6 4 523.05 27.5
0 -6 -4 210.28 13.9
0 -6 -4 202.58 13.8
0 6 4 191.08 14.7
0 6 4 210.28 13.7
-1 -6 -4 169.68 13.3
-1 -6 -4 171.98 13.4
1 6 4 190.88 13.4
1 6 4 183.88 14.5
-2 -6 -4 981.6 45.3
-2 -6 -4 975.7 44.9
2 6 4 1016.6 45.9
2 6 4 1026 45.2
-3 -6 -4 1323.57 59.49
-3 -6 -4 1383.66 59.49
3 6 4 1353.16 59.99
3 6 4 1352.06 59.39
-4 -6 -4 504.15 27.3
-4 -6 -4 502.15 27.5
4 6 4 542.25 28.5
4 6 4 543.45 27.5
-5 -6 -4 280.97 19
-5 -6 -4 271.07 18.6
5 6 4 260.57 18.5
5 6 4 247.78 19.7
-6 -6 -4 388.96 22
-6 -6 -4 365.46 22.3
6 6 4 284.27 20.7
6 6 4 275.37 22.3
-7 -6 -4 685.23 35.9
-7 -6 -4 693.43 36.3
7 6 4 716.53 36.1
7 6 4 730.53 37.2
-8 -6 -4 945.61 46.9
-8 -6 -4 928.71 47.1
8 6 4 999.2 48.5
8 6 4 1031.7 47.4
-9 -6 -4 228.88 21.2
-9 -6 -4 250.57 21.6
9 6 4 258.07 21.3
9 6 4 241.08 23.3
-10 -6 -4 27.5 12.8
-10 -6 -4 26.5 12.4
10 6 4 31.2 13.5
10 6 4 28.9 11.8
-11 -6 -4 56.19 13.4
-11 -6 -4 81.89 15.5
11 6 4 42.3 15
11 6 4 77.09 15.4
14 -7 -4 83.59 11.5
-14 7 4 67.99 8.6
-14 7 4 56.09 8.9
13 -7 -4 103.69 11.6
-13 7 4 97.59 11.1
-13 7 4 102.69 11.9
12 -7 -4 320.37 19.2
-12 7 4 380.36 19.6
-12 7 4 358.66 19
11 -7 -4 661.03 30.5
-11 7 4 667.13 30.6
-11 7 4 642.04 30.3
10 -7 -4 519.55 24.6
-10 7 4 512.95 24.5
-10 7 4 491.35 24.6
9 -7 -4 77.99 10.7
9 -7 -4 68.29 9.6
-9 7 4 100.29 9.5
-9 7 4 102.89 10
8 -7 -4 134.49 11.9
8 -7 -4 139.19 11.3
-8 7 4 133.69 11
-8 7 4 152.18 11.5
7 -7 -4 745.83 34.5
7 -7 -4 748.63 35.2
-7 7 4 808.82 35
-7 7 4 785.82 34.6
6 -7 -4 489.55 24.2
6 -7 -4 479.25 24.5
-6 7 4 511.65 24
-6 7 4 506.15 24.3
5 -7 -4 20.9 6.2
5 -7 -4 17.2 5.9
-5 7 4 22.4 6
-5 7 4 17.8 5.7
4 -7 -4 229.28 14.5
4 -7 -4 224.28 14.2
-4 7 4 207.28 14
-4 7 4 218.98 13.5
3 -7 -4 309.97 17.4
3 -7 -4 302.77 17.8
-3 7 4 304.07 17.4
2 -7 -4 29.6 6.3
2 -7 -4 49.2 8.1
-2 7 4 41.4 7
1 -7 -4 85.99 10.6
1 -7 -4 92.39 10.6
-1 7 4 93.49 12.1
-1 7 4 100.59 10.6
0 -7 -4 15.7 6.5
0 -7 -4 16.5 6.5
0 7 4 2.3 6.5
0 7 4 6.5 5.6
-1 -7 -4 25.7 7.6
-1 -7 -4 19.3 6.5
1 7 4 19.4 7.4
1 7 4 30.1 7.9
-2 -7 -4 29.1 7.3
-2 -7 -4 34.8 7.9
2 7 4 45.1 9.1
2 7 4 41.8 7.7
-3 -7 -4 63.59 9.6
-3 -7 -4 62.29 9
3 7 4 95.99 12.4
3 7 4 66.29 9.9
-4 -7 -4 219.18 17.9
-4 -7 -4 228.48 17.7
4 7 4 254.87 19.4
4 7 4 245.98 18
-5 -7 -4 23.2 8.2
-5 -7 -4 21.8 9.2
5 7 4 18.5 9.3
5 7 4 21.8 8.9
-6 -7 -4 156.58 16.3
-6 -7 -4 166.98 17.3
6 7 4 136.99 15.8
6 7 4 100.09 14.1
-7 -7 -4 888.91 45.1
-7 -7 -4 881.31 45.4
7 7 4 965.3 45.4
7 7 4 952.5 46.8
-8 -7 -4 728.13 38.8
-8 -7 -4 706.63 39
8 7 4 744.53 40.3
8 7 4 737.73 38.6
-9 -7 -4 0.3 9.9
-9 -7 -4 3.8 11.8
9 7 4 0.3 9.3
9 7 4 -0.2 13.8
-10 -7 -4 454.15 31.7
-10 -7 -4 452.45 31.5
10 7 4 471.05 33.9
13 -8 -4 132.89 14
13 -8 -4 131.49 12.8
-13 8 4 131.39 12
-13 8 4 136.89 13
12 -8 -4 83.69 11.3
12 -8 -4 71.99 9.9
-12 8 4 81.89 10.6
-12 8 4 98.19 11.3
11 -8 -4 127.99 12.4
11 -8 -4 130.29 13
-11 8 4 138.59 12
-11 8 4 137.19 12.1
10 -8 -4 5.8 6.5
10 -8 -4 9 5.9
-10 8 4 4.3 5.7
-10 8 4 10.2 6.1
9 -8 -4 312.07 17.1
9 -8 -4 307.57 17.5
-9 8 4 266.47 16.3
-9 8 4 257.27 16.7
8 -8 -4 630.44 28.2
8 -8 -4 639.54 27.6
-8 8 4 500.75 27
-8 8 4 508.85 26.9
7 -8 -4 804.42 35.5
7 -8 -4 831.72 35
-7 8 4 675.93 34.1
-7 8 4 731.03 34.7
6 -8 -4 226.28 14.7
6 -8 -4 221.38 15.2
-6 8 4 204.88 13.8
-6 8 4 217.88 14.4
5 -8 -4 60.09 8.8
5 -8 -4 66.39 8.7
-5 8 4 56.59 7.5
-5 8 4 59.19 8.1
4 -8 -4 740.13 35.3
4 -8 -4 791.62 36
-4 8 4 770.92 35.5
3 -8 -4 1344.27 58.99
3 -8 -4 1350.46 59.39
-3 8 4 1391.86 59.19
2 -8 -4 658.63 31.5
2 -8 -4 666.23 31.8
-2 8 4 631.84 31.5
1 -8 -4 89.79 11.7
1 -8 -4 77.49 11.7
-1 8 4 64.19 10.4
-1 8 4 75.19 11.1
0 -8 -4 257.27 17.4
0 -8 -4 258.97 18
0 8 4 266.17 18.9
0 8 4 268.77 17.7
-1 -8 -4 477.35 25.5
-1 -8 -4 474.25 25.9
1 8 4 451.75 25.3
1 8 4 453.75 26.5
-2 -8 -4 583.14 30.1
-2 -8 -4 595.54 29.8
2 8 4 537.35 30.7
2 8 4 555.84 29.7
-3 -8 -4 204.68 17.1
-3 -8 -4 194.38 17.2
3 8 4 199.78 18.6
3 8 4 188.58 17.2
-4 -8 -4 780.92 39.7
-4 -8 -4 750.72 39.3
4 8 4 783.92 40.7
4 8 4 877.71 40.4
-5 -8 -4 241.68 20.1
-5 -8 -4 225.18 19.6
5 8 4 233.48 21.2
5 8 4 239.98 20.3
-6 -8 -4 212.68 19.9
-6 -8 -4 229.78 21
6 8 4 210.48 22.3
6 8 4 231.78 20.2
-7 -8 -4 232.18 21.8
-7 -8 -4 228.48 21.7
7 8 4 207.58 20.9
7 8 4 215.98 23.9
-8 -8 -4 42.5 11.5
-8 -8 -4 78.29 14.3
8 8 4 56.59 15.2
8 8 4 46.3 11.5
-9 -8 -4 60.69 15.8
-9 -8 -4 58.19 15.3
9 8 4 38 12.7
9 8 4 64.79 17.8
12 -9 -4 -0.3 6.9
12 -9 -4 -2.5 6.7
-12 9 4 1.5 6.7
-12 9 4 1.2 6.7
11 -9 -4 20.7 7.3
11 -9 -4 16.3 7.7
-11 9 4 15.7 6.7
-11 9 4 21.4 7.2
10 -9 -4 26.3 7.8
10 -9 -4 29.5 7.4
-10 9 4 27.9 7.2
-10 9 4 26.7 6.9
9 -9 -4 61.99 8.9
9 -9 -4 52.19 8.8
-9 9 4 62.19 8.7
-9 9 4 54.39 8.2
8 -9 -4 14.3 6.9
8 -9 -4 17 6.9
-8 9 4 16.8 6.5
-8 9 4 15.1 6.5
7 -9 -4 106.89 12
7 -9 -4 100.29 12
-7 9 4 101.89 10.9
-7 9 4 101.39 11.6
6 -9 -4 46.8 8.5
6 -9 -4 44.3 8.3
-6 9 4 44.1 7.9
-6 9 4 62.29 8.6
5 -9 -4 14.3 7
5 -9 -4 19.3 7.3
-5 9 4 13.8 6.3
-5 9 4 10.2 6.3
4 -9 -4 1368.76 60.19
4 -9 -4 1332.87 59.69
-4 9 4 1418.56 60.09
3 -9 -4 1843.62 77.69
3 -9 -4 1834.42 78.09
-3 9 4 1780.32 77.69
2 -9 -4 510.55 26.4
2 -9 -4 486.65 25.7
-2 9 4 459.35 25.9
1 -9 -4 13.5 6.9
1 -9 -4 15 7.4
-1 9 4 14.1 7.5
-1 9 4 9.5 8.5
0 -9 -4 174.98 15.9
0 -9 -4 165.48 15.5
0 9 4 171.68 15.7
0 9 4 177.28 17.3
-1 -9 -4 296.87 21
-1 -9 -4 318.87 21.7
1 9 4 343.27 21.9
1 9 4 355.16 23
-2 -9 -4 463.55 25.9
-2 -9 -4 442.36 25.5
2 9 4 379.76 26.3
2 9 4 385.26 25.1
-3 -9 -4 62.49 11.8
-3 -9 -4 72.19 12.5
3 9 4 48.3 11
3 9 4 62.49 13.7
-4 -9 -4 7.2 9
-4 -9 -4 2.9 8.6
4 9 4 7 10
4 9 4 11.1 9.1
-5 -9 -4 232.18 21.7
-5 -9 -4 249.78 21.7
5 9 4 236.08 23.4
5 9 4 254.67 22
-6 -9 -4 487.65 31.2
-6 -9 -4 496.05 31
6 9 4 485.15 33.1
-7 -9 -4 155.18 19.8
-7 -9 -4 155.98 18.9
7 9 4 162.78 21.2
7 9 4 159.98 21.1
-8 -9 -4 7.7 11.6
-8 -9 -4 6.1 12.5
8 9 4 2.7 14.4
8 9 4 8.1 11
11 -10 -4 53.39 9.1
11 -10 -4 52.29 9.3
-11 10 4 51.09 8.7
-11 10 4 53.09 8.4
10 -10 -4 10 8
10 -10 -4 13 7.7
-10 10 4 12.6 7.1
-10 10 4 11.3 7.1
9 -10 -4 78.69 10.2
9 -10 -4 72.59 10.2
-9 10 4 59.09 9.2
-9 10 4 68.69 9.4
8 -10 -4 71.69 10
8 -10 -4 71.19 9.8
-8 10 4 53.29 8.7
-8 10 4 64.69 9.4
7 -10 -4 5.5 7.3
7 -10 -4 -2.8 6.9
-7 10 4 3.5 6.8
-7 10 4 2.7 6.5
6 -10 -4 224.68 16.6
6 -10 -4 188.48 16.1
-6 10 4 217.48 16
-6 10 4 215.68 15.4
5 -10 -4 1 7.2
5 -10 -4 1.8 7
-5 10 4 1.3 6.7
-5 10 4 5.3 7
4 -10 -4 126.09 14
4 -10 -4 114.79 13.8
-4 10 4 115.09 13.8
3 -10 -4 233.68 17.6
3 -10 -4 243.08 18
-3 10 4 217.48 17.4
2 -10 -4 256.57 19.6
2 -10 -4 263.97 19.1
-2 10 4 296.27 19.5
1 -10 -4 200.58 17.6
1 -10 -4 190.78 16.9
-1 10 4 177.68 19.1
-1 10 4 186.98 17.2
0 -10 -4 373.46 24.3
0 -10 -4 368.46 23.9
0 10 4 378.06 25.8
0 10 4 428.06 25
-1 -10 -4 1039.7 49.7
-1 -10 -4 991 49.2
1 10 4 1098.59 49.9
1 10 4 1050.59 50.79
-2 -10 -4 1249.28 57.29
-2 -10 -4 1181.18 56.59
2 10 4 1230.78 58.09
2 10 4 1220.48 56.99
-3 -10 -4 128.09 18.3
-3 -10 -4 132.19 18.1
3 10 4 116.59 15.6
3 10 4 141.59 19.5
-4 -10 -4 88.89 13.9
-4 -10 -4 95.09 15.6
4 10 4 64.29 14.2
4 10 4 95.99 15.4
-5 -10 -4 440.96 29.7
5 10 4 389.56 31.3
-6 -10 -4 900.61 46.7
-6 -10 -4 893.71 46.3
6 10 4 838.52 48.4
6 10 4 871.01 46.5
-7 -10 -4 566.84 37.5
-7 -10 -4 609.44 37.7
7 10 4 586.84 40.2
7 10 4 626.14 37.2
10 -11 -4 57.89 10.2
10 -11 -4 65.49 10.4
-10 11 4 69.59 10.1
-10 11 4 66.09 10.2
9 -11 -4 115.99 16.4
9 -11 -4 121.89 15
-9 11 4 126.79 14.4
-9 11 4 121.89 13.9
8 -11 -4 120.89 14.7
8 -11 -4 107.89 14.6
-8 11 4 120.49 14
-8 11 4 124.49 13.6
7 -11 -4 177.48 16.8
7 -11 -4 173.08 16.6
-7 11 4 189.98 15.4
-7 11 4 198.68 16.3
6 -11 -4 26.4 9.1
6 -11 -4 24.5 9.1
-6 11 4 24.5 8.5
-6 11 4 30 9.2
5 -11 -4 51.79 10.8
5 -11 -4 50.29 10.6
-5 11 4 42.1 9.1
-5 11 4 38.1 9.4
4 -11 -4 89.39 12.4
4 -11 -4 98.59 12.8
-4 11 4 78.39 11.3
3 -11 -4 68.69 11.6
3 -11 -4 61.19 10.6
-3 11 4 73.39 10.8
2 -11 -4 195.98 18.8
2 -11 -4 176.48 18.2
-2 11 4 212.68 18.6
1 -11 -4 35.5 10.3
1 -11 -4 35.6 10.2
-1 11 4 43.3 13.2
-1 11 4 27 10
0 -11 -4 208.78 20.2
0 -11 -4 219.28 20
0 11 4 218.38 20.3
0 11 4 220.18 22.5
-1 -11 -4 256.97 21.9
-1 -11 -4 255.07 21.8
1 11 4 245.98 23.9
1 11 4 235.98 22
-2 -11 -4 402.46 27.2
-2 -11 -4 369.06 27
2 11 4 386.26 27.4
2 11 4 392.16 29.5
-3 -11 -4 52.99 13.6
3 11 4 39.3 15.9
3 11 4 34 12.3
-4 -11 -4 292.57 25.6
-4 -11 -4 283.77 25.9
4 11 4 313.27 26.2
4 11 4 293.17 28.8
-5 -11 -4 258.87 26.8
-5 -11 -4 271.87 25.8
5 11 4 264.47 29.7
5 11 4 284.57 26.8
8 -12 -4 313.77 24.7
8 -12 -4 311.57 21.3
-8 12 4 294.67 20.2
-8 12 4 308.07 21.1
7 -12 -4 21.1 12.7
7 -12 -4 40.1 10.9
-7 12 4 50.39 10.4
-7 12 4 36.4 9.9
6 -12 -4 99.59 13.1
6 -12 -4 77.89 14.2
-6 12 4 66.19 11.2
-6 12 4 60.79 10.9
5 -12 -4 310.27 22.3
5 -12 -4 281.67 21.6
-5 12 4 279.57 20.4
-5 12 4 291.77 21.5
4 -12 -4 630.44 34
4 -12 -4 624.34 33.4
-4 12 4 602.64 33.4
3 -12 -4 383.26 26.1
3 -12 -4 386.96 25.7
-3 12 4 400.66 25.9
2 -12 -4 52.69 12.2
2 -12 -4 57.19 12.9
-2 12 4 56.19 11.6
1 -12 -4 26.5 11.7
1 -12 -4 25.7 12.3
-1 12 4 24.3 11.6
-1 12 4 27.1 13.9
0 -12 -4 99.39 16
0 -12 -4 64.99 13.2
0 12 4 91.89 17.1
0 12 4 121.59 16.8
-1 -12 -4 92.39 15.8
-1 -12 -4 117.09 17.7
1 12 4 99.69 18.6
1 12 4 95.19 16.1
-2 -12 -4 -0.2 13.2
-2 -12 -4 7.4 12.1
2 12 4 10.7 11.6
2 12 4 -9.7 15.2
-3 -12 -4 1.7 12.8
-3 -12 -4 3.7 12.1
3 12 4 -3.3 11.7
3 12 4 -5 14.7
5 -13 -4 364.86 28.9
5 -13 -4 308.57 24.6
-5 13 4 346.57 23.9
-5 13 4 383.76 25.4
4 -13 -4 335.17 25.7
4 -13 -4 341.97 29.2
-4 13 4 374.26 25.8
3 -13 -4 233.68 22.8
3 -13 -4 226.28 26.3
-3 13 4 219.48 21.9
2 -13 -4 21.6 12.8
-2 13 4 12.3 11.2
1 -13 -4 66.79 15.5
1 -13 -4 49.7 16.6
-1 13 4 46.9 14.1
0 -13 -4 520.55 34.9
0 13 4 465.75 35.7
1 16 -5 313.97 23.8
1 16 -5 315.87 27.4
-1 -16 5 321.57 27.5
-1 -16 5 319.07 25.5
0 16 -5 659.53 33.9
0 16 -5 578.54 35.6
0 -16 5 625.94 34.7
0 -16 5 620.34 36
-1 16 -5 202.78 21.8
-1 16 -5 232.38 19.2
1 -16 5 187.88 21.9
1 -16 5 203.48 20
-2 16 -5 20.4 11.7
-2 16 -5 21.9 9.2
2 -16 5 25.2 11.7
2 -16 5 14.2 10.2
5 15 -5 653.83 37.9
4 15 -5 98.69 14.8
4 15 -5 147.79 19.9
-4 -15 5 121.89 17.7
-4 -15 5 176.68 20
3 15 -5 4.6 12.6
3 15 -5 5.3 9.8
-3 -15 5 2.6 12.1
-3 -15 5 5.9 11.8
2 15 -5 95.59 15.6
2 15 -5 80.39 12.6
-2 -15 5 74.79 13.1
-2 -15 5 72.89 13.1
1 15 -5 496.45 29
1 15 -5 467.75 30.6
-1 -15 5 526.95 30
-1 -15 5 542.55 30.4
0 15 -5 643.44 33.7
0 15 -5 630.14 35.5
0 -15 5 665.03 34.1
0 -15 5 687.73 34.7
-1 15 -5 40.7 9.5
-1 15 -5 48.1 11.7
1 -15 5 29.7 9.9
1 -15 5 33.3 9.2
-2 15 -5 200.38 18.8
-2 15 -5 217.88 16.7
2 -15 5 217.38 17.9
2 -15 5 214.38 16.8
-3 15 -5 129.89 16.2
-3 15 -5 144.69 13.8
3 -15 5 140.19 14.9
3 -15 5 131.79 14
-4 15 -5 35.2 9.7
-4 15 -5 43.4 8.2
4 -15 5 68.99 9.6
-5 15 -5 44.4 9.6
-5 15 -5 44.5 7.4
5 -15 5 72.29 8.8
-6 15 -5 10.3 5.5
6 -15 5 13.4 6.1
6 -15 5 14.8 6
7 14 -5 23.3 13.9
7 14 -5 22.3 16.2
-7 -14 5 13.4 14.5
-7 -14 5 23.3 13.2
6 14 -5 170.98 24.3
6 14 -5 174.78 22.1
-6 -14 5 184.18 21.9
-6 -14 5 187.58 23.1
5 14 -5 149.39 19.9
5 14 -5 127.49 18.2
-5 -14 5 162.68 21
-5 -14 5 178.48 20.2
4 14 -5 129.19 17.2
4 14 -5 118.79 17.5
-4 -14 5 155.18 17.4
-4 -14 5 89.79 13.5
3 14 -5 125.09 16.5
3 14 -5 85.89 14.1
-3 -14 5 121.69 16.9
-3 -14 5 99.39 14
2 14 -5 104.69 15
2 14 -5 96.89 13.5
-2 -14 5 99.89 13.5
-2 -14 5 117.99 14.9
1 14 -5 234.88 18.6
1 14 -5 220.98 20.3
-1 -14 5 277.57 19.2
-1 -14 5 266.17 19.9
0 14 -5 547.65 30
0 14 -5 542.65 28.6
0 -14 5 550.64 28.9
0 -14 5 555.64 29.5
-1 14 -5 85.09 12.1
-1 14 -5 89.19 12.4
1 -14 5 101.39 12.8
1 -14 5 107.59 14.1
-2 14 -5 80.39 11.6
-2 14 -5 96.69 13.9
2 -14 5 84.09 12.7
2 -14 5 77.29 11.5
-3 14 -5 210.48 15.1
-3 14 -5 200.18 16.7
3 -14 5 252.37 16.3
3 -14 5 240.38 15.3
-4 14 -5 227.88 16.9
-4 14 -5 222.08 15.2
4 -14 5 287.87 15.9
4 -14 5 288.47 16.3
-5 14 -5 124.29 10.3
-5 14 -5 110.39 12.4
5 -14 5 132.19 11.2
5 -14 5 123.19 10.8
-6 14 -5 86.99 7.9
6 -14 5 68.39 8.3
6 -14 5 72.29 8.2
8 13 -5 28.4 14
8 13 -5 22.4 15.6
-8 -13 5 30 14
-8 -13 5 25.5 14.1
7 13 -5 336.67 26.2
7 13 -5 304.27 27.7
-7 -13 5 353.66 27
-7 -13 5 347.07 26
6 13 -5 328.07 24.7
6 13 -5 317.57 26.6
-6 -13 5 321.97 25.2
-6 -13 5 335.77 24.5
5 13 -5 140.99 19.7
5 13 -5 151.78 18.2
-5 -13 5 119.19 17.3
-5 -13 5 132.29 18.2
4 13 -5 60.69 11.8
4 13 -5 102.69 13.2
-4 -13 5 61.69 11.3
-4 -13 5 87.99 12.1
3 13 -5 95.39 12.6
3 13 -5 65.19 12.1
-3 -13 5 56.79 10.5
-3 -13 5 102.59 13.4
2 13 -5 11.1 7.9
2 13 -5 13.1 8.6
-2 -13 5 12.9 8.3
-2 -13 5 3.6 7.6
1 13 -5 129.39 15.4
1 13 -5 117.89 13.3
-1 -13 5 117.99 13.5
-1 -13 5 116.29 14.2
0 13 -5 514.65 27.5
0 13 -5 535.75 26.4
0 -13 5 477.75 26.1
0 -13 5 501.05 26.7
-1 13 -5 465.55 25.7
-1 13 -5 496.35 24.9
1 -13 5 484.45 24.8
1 -13 5 486.15 25.2
-2 13 -5 172.48 13
-2 13 -5 155.28 14.2
2 -13 5 170.48 13
2 -13 5 168.38 13.6
-3 13 -5 244.28 14.3
-3 13 -5 241.28 15.6
3 -13 5 201.08 14.4
3 -13 5 190.28 13.6
-4 13 -5 417.46 19.7
-4 13 -5 416.76 20.8
4 -13 5 369.66 19.9
4 -13 5 371.26 19.6
-5 13 -5 61.79 7.7
-5 13 -5 58.89 7.8
5 -13 5 86.89 8.7
5 -13 5 83.39 8.4
-6 13 -5 0.4 3.5
6 -13 5 0.7 3.9
6 -13 5 2.8 3.7
9 12 -5 55.19 14.7
9 12 -5 83.19 17.5
-9 -12 5 68.09 14.5
-9 -12 5 80.29 16.3
8 12 -5 158.58 19.6
8 12 -5 149.39 20.1
-8 -12 5 143.99 19.6
-8 -12 5 136.19 17.8
7 12 -5 1128.69 54.79
7 12 -5 1099.19 53.39
-7 -12 5 1097.59 53.69
-7 -12 5 1158.98 53.59
6 12 -5 1565.94 71.69
6 12 -5 1578.04 70.79
-6 -12 5 1599.94 70.79
-6 -12 5 1571.04 70.89
5 12 -5 134.19 16.2
5 12 -5 146.49 18.4
-5 -12 5 131.59 16.6
-5 -12 5 140.39 16
4 12 -5 342.07 23.3
4 12 -5 358.26 22.1
-4 -12 5 313.97 21.9
-4 -12 5 366.06 22.4
3 12 -5 273.17 18.8
3 12 -5 288.67 20.5
-3 -12 5 279.97 19
-3 -12 5 281.87 19.4
2 12 -5 61.29 9.8
-2 -12 5 33.7 7.8
-2 -12 5 38.1 8.8
1 12 -5 -2.1 6.9
1 12 -5 1.2 5.7
-1 -12 5 2.5 5.9
-1 -12 5 -0.3 5.9
0 12 -5 45.7 7.4
0 12 -5 38.4 8.1
0 -12 5 35.9 7.4
0 -12 5 36 7.4
-1 12 -5 42.5 8
-1 12 -5 57.39 7.9
1 -12 5 56.29 7.8
1 -12 5 47.1 7.6
-2 12 -5 178.68 13.6
-2 12 -5 192.78 12.7
2 -12 5 192.18 13.1
2 -12 5 184.28 12.6
-3 12 -5 206.48 13.7
-3 12 -5 203.88 12.6
3 -12 5 202.68 12.9
3 -12 5 201.38 12.6
-4 12 -5 60.89 7.5
-4 12 -5 62.59 7.5
4 -12 5 53.69 7.5
4 -12 5 54.69 7.9
-5 12 -5 115.09 9.6
-5 12 -5 123.39 8.6
5 -12 5 141.89 8.9
5 -12 5 144.09 9.2
11 11 -5 128.09 19.1
11 11 -5 90.69 18.8
-11 -11 5 92.29 16.8
-11 -11 5 131.29 20.6
10 11 -5 91.99 15.9
10 11 -5 79.29 16.9
-10 -11 5 83.59 15.5
-10 -11 5 88.19 16.2
9 11 -5 86.59 16.5
9 11 -5 57.29 12.4
-9 -11 5 46.1 11.6
-9 -11 5 82.89 14.8
8 11 -5 117.69 16.8
8 11 -5 133.29 18.5
-8 -11 5 130.29 17.9
-8 -11 5 120.69 16.1
7 11 -5 557.84 32.3
7 11 -5 571.84 31.4
-7 -11 5 541.05 30.8
-7 -11 5 529.65 31.2
6 11 -5 813.22 40
6 11 -5 809.32 39.4
-6 -11 5 790.12 39.2
-6 -11 5 752.32 39.2
5 11 -5 130.69 14.5
5 11 -5 112.29 15.5
-5 -11 5 145.19 15.2
-5 -11 5 117.79 14.3
4 11 -5 86.89 11.5
4 11 -5 80.49 12.1
-4 -11 5 97.89 12
-4 -11 5 73.89 10.4
3 11 -5 417.86 24.4
3 11 -5 415.36 23.5
-3 -11 5 462.45 24.2
-3 -11 5 443.76 23.9
2 11 -5 502.45 28.6
2 11 -5 497.15 29.4
-2 -11 5 691.53 29.9
-2 -11 5 696.43 30
1 11 -5 795.72 38.6
1 11 -5 815.62 39.4
-1 -11 5 896.81 39.2
-1 -11 5 922.31 39.4
0 11 -5 580.74 27.7
0 11 -5 588.24 27
0 -11 5 550.14 26.9
0 -11 5 527.35 26.9
-1 11 -5 344.67 18.3
-1 11 -5 331.07 18.9
1 -11 5 362.26 18.3
1 -11 5 355.66 18.5
-2 11 -5 453.45 21.4
-2 11 -5 462.45 22
2 -11 5 419.76 21.3
2 -11 5 429.66 21.2
-3 11 -5 37.1 6.1
-3 11 -5 32.9 5.3
3 -11 5 44.5 5.9
3 -11 5 40.6 5.6
-4 11 -5 231.38 12.9
-4 11 -5 224.08 12.1
4 -11 5 228.68 12.2
4 -11 5 232.38 12.4
-5 11 -5 159.68 9.6
-5 11 -5 158.68 8.7
5 -11 5 159.48 8.9
5 -11 5 151.78 8.7
11 10 -5 104.79 16
11 10 -5 148.29 20.7
-11 -10 5 128.59 18.5
-11 -10 5 108.19 16.5
10 10 -5 38.8 11
10 10 -5 56.19 14.9
-10 -10 5 62.39 13.8
-10 -10 5 42.9 11.9
9 10 -5 290.27 24.1
9 10 -5 293.77 22.7
-9 -10 5 298.87 23
-9 -10 5 296.17 23.2
8 10 -5 52.89 12.7
8 10 -5 37.3 10.2
-8 -10 5 56.89 12.2
-8 -10 5 58.59 10.9
7 10 -5 16.8 9.6
7 10 -5 17.9 8.2
-7 -10 5 27.6 8.5
-7 -10 5 33.3 9.6
6 10 -5 125.29 14.5
6 10 -5 117.09 15.4
-6 -10 5 122.19 14.6
-6 -10 5 131.69 14.4
5 10 -5 1323.37 58.39
5 10 -5 1282.07 58.79
-5 -10 5 1310.47 58.49
-5 -10 5 1345.77 58.49
4 10 -5 83.69 12.5
4 10 -5 85.09 11.3
-4 -10 5 107.99 12.2
-4 -10 5 110.89 11.9
3 10 -5 728.73 33.1
3 10 -5 717.13 33.8
-3 -10 5 658.13 32.7
-3 -10 5 673.23 33.1
2 10 -5 1012.6 45.5
2 10 -5 1040 46.1
-2 -10 5 1017.9 45.7
-2 -10 5 1042.9 45.6
1 10 -5 1312.97 55.79
1 10 -5 1344.57 55.39
-1 -10 5 1263.17 55.49
-1 -10 5 1224.68 55.19
0 10 -5 599.94 26.9
0 10 -5 562.54 26.2
0 -10 5 528.05 26.2
0 -10 5 537.65 26
-1 10 -5 156.68 10.9
-1 10 -5 161.68 11.7
1 -10 5 171.68 11.3
1 -10 5 175.68 10.8
-2 10 -5 589.04 25.6
-2 10 -5 589.14 25.2
2 -10 5 509.85 24.8
2 -10 5 523.25 25.1
-3 10 -5 422.26 19.8
-3 10 -5 418.86 19.3
3 -10 5 410.16 19.3
3 -10 5 423.16 19.5
-4 10 -5 480.95 21.7
-4 10 -5 487.65 21.2
4 -10 5 484.45 21.3
4 -10 5 475.75 21.2
-5 10 -5 167.38 9
-5 10 -5 177.18 8.5
5 -10 5 174.88 8.5
5 -10 5 177.88 8.7
12 9 -5 604.04 38.8
12 9 -5 609.34 36.5
-12 -9 5 672.73 37.8
-12 -9 5 632.74 38
11 9 -5 341.27 27.3
11 9 -5 366.36 26
-11 -9 5 333.57 26.1
-11 -9 5 345.27 26.8
10 9 -5 103.89 15.8
10 9 -5 55.59 11.1
-10 -9 5 50.79 11.6
-10 -9 5 75.39 13.6
9 9 -5 44.7 11.6
9 9 -5 41.1 9.8
-9 -9 5 34.8 10.1
-9 -9 5 28 9.9
8 9 -5 45.6 9.8
8 9 -5 50.39 10.5
-8 -9 5 46.5 9.5
-8 -9 5 51.69 9.9
7 9 -5 62.59 10.5
7 9 -5 41.8 8.1
-7 -9 5 49 9.2
-7 -9 5 32.8 7.7
6 9 -5 133.79 14.3
6 9 -5 114.59 13
-6 -9 5 139.19 13.4
-6 -9 5 131.49 13.8
5 9 -5 1487.25 63.09
5 9 -5 1414.46 63.19
-5 -9 5 1454.45 63.19
-5 -9 5 1432.26 62.99
4 9 -5 174.98 14
4 9 -5 188.48 13.4
-4 -9 5 172.48 13.2
-4 -9 5 174.18 13.7
3 9 -5 867.01 37.6
3 9 -5 871.91 38.1
-3 -9 5 789.32 37.3
-3 -9 5 772.92 37.5
2 9 -5 625.54 27.6
2 9 -5 603.24 27.8
-2 -9 5 546.15 27.1
-2 -9 5 536.25 27.3
1 9 -5 566.94 25.8
1 9 -5 571.74 25.4
-1 -9 5 497.85 25
-1 -9 5 511.15 25.3
0 9 -5 44.7 5.8
0 9 -5 43.1 6.2
0 -9 5 47.6 6.6
0 -9 5 41.9 5.9
-1 9 -5 412.86 20
-1 9 -5 437.56 20.6
1 -9 5 433.26 20.1
1 -9 5 425.46 20.2
-2 9 -5 1628.04 66.89
-2 9 -5 1684.63 66.69
2 -9 5 1531.85 66.49
2 -9 5 1615.44 66.69
-3 9 -5 1137.69 47.5
-3 9 -5 1132.89 47.8
3 -9 5 1129.39 47.5
3 -9 5 1184.78 47.7
-4 9 -5 760.62 32.5
-4 9 -5 735.93 32.8
4 -9 5 793.22 32.6
4 -9 5 842.02 32.8
13 8 -5 587.54 38.4
13 8 -5 632.44 36.7
-13 -8 5 622.64 37.6
-13 -8 5 625.84 37.8
12 8 -5 994.3 51.89
12 8 -5 1027 50.59
-12 -8 5 1057.59 51.29
-12 -8 5 1061.99 51.39
11 8 -5 108.89 14.9
11 8 -5 139.09 17.8
-11 -8 5 135.79 16.5
-11 -8 5 125.69 18.1
10 8 -5 36.9 11.8
10 8 -5 35.3 10
-10 -8 5 27.3 10.5
-10 -8 5 31.3 10.4
9 8 -5 11.9 8.6
9 8 -5 19.5 8.4
-9 -8 5 14 8.6
-9 -8 5 10.3 7.8
8 8 -5 211.58 18
8 8 -5 192.38 17.1
-8 -8 5 250.27 17.9
-8 -8 5 258.67 18.1
7 8 -5 609.64 31.3
7 8 -5 608.64 30.9
-7 -8 5 623.84 30.9
-7 -8 5 610.54 31
6 8 -5 545.05 26.9
6 8 -5 531.65 26.4
-6 -8 5 500.05 26.4
-6 -8 5 471.65 26
5 8 -5 17.1 6.8
5 8 -5 25.5 6.9
-5 -8 5 13.7 6
-5 -8 5 17.7 6.6
4 8 -5 269.17 15.8
4 8 -5 264.57 16.2
-4 -8 5 263.67 15.8
-4 -8 5 267.37 16.2
3 8 -5 309.57 16.9
3 8 -5 319.27 16.5
-3 -8 5 267.67 16
-3 -8 5 276.87 16.4
2 8 -5 144.69 10.4
2 8 -5 143.69 10.8
-2 -8 5 139.99 10.1
-2 -8 5 145.59 10.6
1 8 -5 19.2 4.8
1 8 -5 23.6 4.6
-1 -8 5 20.8 4.7
-1 -8 5 22 4.7
0 8 -5 187.08 10.8
0 8 -5 187.28 11.1
0 -8 5 181.48 10.9
0 -8 5 182.88 10.7
-1 8 -5 446.16 21.1
-1 8 -5 453.55 20.9
1 -8 5 461.35 20.9
1 -8 5 482.95 21.1
-2 8 -5 1128.19 48.9
-2 8 -5 1146.69 49.1
2 -8 5 1231.58 49.2
2 -8 5 1219.48 49.1
-3 8 -5 106.49 6.7
-3 8 -5 108.09 7.1
3 -8 5 123.19 6.9
3 -8 5 123.69 7.1
-4 8 -5 19.1 2.9
-4 8 -5 19.8 2.6
4 -8 5 23.8 3.4
4 -8 5 27.3 3.5
14 7 -5 21.3 12.1
13 7 -5 49.7 12.7
13 7 -5 49.4 15.5
-13 -7 5 49.7 14.1
-13 -7 5 53.09 14.8
12 7 -5 303.67 23.1
12 7 -5 314.97 24.8
-12 -7 5 305.17 23.9
-12 -7 5 293.87 23.9
11 7 -5 321.87 22.7
11 7 -5 332.47 24.1
-11 -7 5 329.37 23.3
-11 -7 5 309.57 23.1
10 7 -5 150.98 15.9
10 7 -5 148.79 17.2
-10 -7 5 133.89 16.1
-10 -7 5 148.39 16.4
9 7 -5 131.29 15.8
9 7 -5 149.69 15.3
-9 -7 5 184.88 16
-9 -7 5 201.68 16.2
8 7 -5 935.51 45
8 7 -5 938.91 44.7
-8 -7 5 1029.1 45.3
-8 -7 5 1002.7 45.2
7 7 -5 1026.2 44.9
7 7 -5 1027.1 44.6
-7 -7 5 953.5 44.5
-7 -7 5 906.71 44.3
6 7 -5 817.02 37.5
6 7 -5 871.21 37.5
-6 -7 5 768.32 37.1
-6 -7 5 772.22 37.1
5 7 -5 240.48 15
5 7 -5 237.78 15.4
-5 -7 5 252.97 15.2
-5 -7 5 255.07 15.5
4 7 -5 789.02 34
4 7 -5 852.91 34.6
-4 -7 5 676.93 33.5
-4 -7 5 674.33 33.7
3 7 -5 1498.95 59.09
3 7 -5 1475.95 58.89
-3 -7 5 1288.37 58.49
-3 -7 5 1273.67 58.49
2 7 -5 735.93 34.4
2 7 -5 754.62 34.3
-2 -7 5 834.92 34.7
-2 -7 5 802.72 34.4
1 7 -5 1304.37 54.49
1 7 -5 1276.27 54.59
-1 -7 5 1311.87 54.49
-1 -7 5 1302.27 54.59
0 7 -5 230.08 12.3
0 7 -5 232.48 12.1
0 -7 5 241.68 12.2
0 -7 5 227.48 12.2
-1 7 -5 494.95 22.5
-1 7 -5 502.55 22.3
1 -7 5 506.55 22.4
1 -7 5 519.75 22.4
-2 7 -5 2442.76 97.59
-2 7 -5 2462.65 97.79
2 -7 5 2437.46 97.69
2 -7 5 2294.67 97.49
-3 7 -5 1272.87 52.69
-3 7 -5 1288.07 52.79
3 -7 5 1314.07 52.79
3 -7 5 1299.27 52.69
-4 7 -5 9.2 1.9
-4 7 -5 7 2
4 -7 5 6.4 1.8
4 -7 5 7.1 1.8
14 6 -5 57.09 12.9
14 6 -5 67.79 14.5
-14 -6 5 65.99 13.8
-14 -6 5 69.89 13.7
13 6 -5 151.08 21.9
13 6 -5 157.78 18.9
-13 -6 5 143.09 19.6
-13 -6 5 150.78 20.1
12 6 -5 200.38 20.5
12 6 -5 201.78 18.6
-12 -6 5 188.58 19.2
-12 -6 5 191.68 19.7
11 6 -5 378.66 23.2
11 6 -5 360.96 24.1
-11 -6 5 351.36 23.3
-11 -6 5 353.96 23.7
10 6 -5 159.38 15.5
10 6 -5 157.98 16.2
-10 -6 5 163.48 16
-10 -6 5 157.98 15.4
9 6 -5 1223.18 54.49
9 6 -5 1227.18 54.89
-9 -6 5 1234.48 54.79
-9 -6 5 1208.58 54.69
8 6 -5 2211.28 90.59
8 6 -5 2174.08 90.89
-8 -6 5 2060.49 90.59
-8 -6 5 2131.59 90.59
7 6 -5 819.32 36.3
7 6 -5 820.12 36.7
-7 -6 5 733.23 36.1
-7 -6 5 759.12 36.2
6 6 -5 225.78 14.7
6 6 -5 247.68 14.4
-6 -6 5 207.08 14.2
-6 -6 5 220.98 14.2
5 6 -5 474.85 23.2
5 6 -5 489.45 22.9
-5 -6 5 456.95 22.8
-5 -6 5 440.56 22.8
4 6 -5 3338.57 130.49
4 6 -5 3327.57 130.19
-4 -6 5 3039.3 129.99
-4 -6 5 3012.8 129.89
3 6 -5 4624.74 179.38
3 6 -5 4664.33 179.28
-3 -6 5 4187.88 178.98
-3 -6 5 4199.18 178.98
2 6 -5 1303.37 54.39
2 6 -5 1315.87 54.89
-2 -6 5 1269.77 54.69
-2 -6 5 1289.67 54.39
1 6 -5 1453.15 60.19
1 6 -5 1428.86 60.29
-1 -6 5 1479.35 60.29
-1 -6 5 1441.56 60.19
0 6 -5 1269.07 50.69
0 6 -5 1250.57 50.89
0 -6 5 1170.08 50.59
0 -6 5 1192.88 50.69
-1 6 -5 4130.39 169.48
-1 6 -5 4122.89 169.28
1 -6 5 4355.26 169.48
1 -6 5 4220.78 169.28
-2 6 -5 4083.69 166.48
-2 6 -5 4097.89 166.28
2 -6 5 4241.18 166.38
2 -6 5 4145.39 166.38
-3 6 -5 36.4 3.8
-3 6 -5 36.8 3.7
3 -6 5 55.69 3.9
3 -6 5 49.6 3.8
-4 6 -5 72.59 4.3
4 -6 5 77.59 4.3
4 -6 5 78.79 4.3
14 5 -5 2.1 10.7
14 5 -5 1 12.6
-14 -5 5 1.1 10.9
-14 -5 5 -0.5 10.7
13 5 -5 43.3 12.2
13 5 -5 27.9 9.5
-13 -5 5 39.4 10.6
-13 -5 5 45.5 11.4
12 5 -5 24.1 8.7
12 5 -5 19.6 9.6
-12 -5 5 24 9.8
-12 -5 5 24.8 9.3
11 5 -5 3.6 7
11 5 -5 0.8 8.1
-11 -5 5 5.9 8.2
-11 -5 5 7.2 8.3
10 5 -5 300.87 19.7
10 5 -5 298.27 19.4
-10 -5 5 302.97 19.8
-10 -5 5 301.57 19.7
9 5 -5 470.95 26
9 5 -5 497.65 25.6
-9 -5 5 479.05 25.7
-9 -5 5 504.25 25.9
8 5 -5 191.48 14.2
8 5 -5 206.08 13.8
-8 -5 5 185.78 14
-8 -5 5 182.78 14
7 5 -5 159.68 11.7
7 5 -5 145.59 12.1
-7 -5 5 146.39 11.8
-7 -5 5 151.68 11.9
6 5 -5 57.69 7.7
6 5 -5 50.99 7.7
-6 -5 5 66.79 8.2
-6 -5 5 62.29 7.7
5 5 -5 571.74 27.7
5 5 -5 578.54 27.5
-5 -5 5 628.34 27.8
-5 -5 5 618.24 27.8
4 5 -5 1629.74 70.69
4 5 -5 1647.04 70.89
-4 -5 5 1751.82 70.89
-4 -5 5 1764.92 70.99
3 5 -5 922.71 42.7
3 5 -5 871.61 42.7
-3 -5 5 1120.69 43.2
-3 -5 5 1112.19 43.2
2 5 -5 2069.79 88.29
2 5 -5 2077.69 88.39
-2 -5 5 2244.28 88.49
-2 -5 5 2239.88 88.49
1 5 -5 2292.87 90.89
1 5 -5 2223.88 90.99
-1 -5 5 2226.28 90.89
-1 -5 5 2167.58 90.79
0 5 -5 1564.54 62.29
0 5 -5 1590.14 62.19
0 -5 5 1495.85 62.19
0 -5 5 1411.16 62.09
-1 5 -5 7072.39 279.87
1 -5 5 7059.29 279.87
1 -5 5 6824.12 279.77
-2 5 -5 3768.62 149.09
-2 5 -5 3761.12 149.09
2 -5 5 3697.43 149.09
2 -5 5 3613.44 149.09
-3 5 -5 535.25 21.6
-3 5 -5 557.94 21.6
3 -5 5 490.15 21.5
3 -5 5 470.45 21.5
-4 5 -5 533.85 22.8
-4 5 -5 564.44 23.1
4 -5 5 547.35 22.9
4 -5 5 553.24 22.8
-5 5 -5 641.04 26.3
-5 5 -5 673.73 26.4
5 -5 5 606.14 26.2
5 -5 5 624.74 26.2
-6 5 -5 1149.89 46.1
-6 5 -5 1092.69 46
6 -5 5 1157.28 46
6 -5 5 1131.89 46
-7 5 -5 279.47 12.4
-7 5 -5 292.87 12.4
7 -5 5 266.47 12.2
7 -5 5 267.97 12.2
-8 5 -5 36.1 4.5
-8 5 -5 20.4 3.7
8 -5 5 28.7 3.4
8 -5 5 24.3 3.3
-9 5 -5 153.38 8.7
-9 5 -5 159.78 8.8
9 -5 5 160.58 8.5
-10 5 -5 39.9 5.7
-10 5 -5 39.7 4.8
10 -5 5 39.2 5.4
-11 5 -5 173.38 10.2
-11 5 -5 170.38 10
11 -5 5 149.49 9.6
-12 5 -5 8.6 4.6
-12 5 -5 8.7 4.8
12 -5 5 8.1 4.4
-13 5 -5 24.2 6
-13 5 -5 21.9 5.7
13 -5 5 19 5.4
15 4 -5 26.7 14.6
15 4 -5 18.6 13.5
-15 -4 5 29.9 12.3
-15 -4 5 37.7 12.6
14 4 -5 63.09 13.2
14 4 -5 59.79 11.3
13 4 -5 138.69 18
13 4 -5 155.58 17.4
-13 -4 5 176.18 17.8
-13 -4 5 171.08 18.2
12 4 -5 313.37 21.7
12 4 -5 321.67 20.8
-12 -4 5 303.07 21
-12 -4 5 300.37 21.2
11 4 -5 63.49 10.3
11 4 -5 44.8 8
-11 -4 5 42 8.4
-11 -4 5 50.49 9.5
10 4 -5 412.26 21.7
10 4 -5 394.06 21.9
-10 -4 5 356.76 21.6
-10 -4 5 348.97 21.3
9 4 -5 606.44 29.3
9 4 -5 615.54 28.9
-9 -4 5 570.44 28.7
-9 -4 5 558.64 28.8
8 4 -5 103.09 10
8 4 -5 92.79 10.4
-8 -4 5 99.59 10.5
-8 -4 5 103.89 10.3
7 4 -5 80.69 9.3
7 4 -5 77.49 8.5
-7 -4 5 77.89 9
-7 -4 5 85.89 9.2
6 4 -5 70.79 9.6
6 4 -5 83.49 8.1
-6 -4 5 103.59 10.5
-6 -4 5 93.99 8.6
5 4 -5 489.55 23.6
5 4 -5 497.95 23.9
-5 -4 5 533.15 23.9
-5 -4 5 514.25 23.9
4 4 -5 2827.12 116.79
4 4 -5 2914.21 116.69
-4 -4 5 2910.01 116.79
-4 -4 5 2784.02 116.69
3 4 -5 463.05 21.7
3 4 -5 456.25 21.6
-3 -4 5 503.35 21.8
-3 -4 5 485.15 21.8
2 4 -5 958.2 39.9
2 4 -5 977.5 39.8
-2 -4 5 923.31 39.8
-2 -4 5 912.01 39.8
1 4 -5 468.55 20.1
1 4 -5 464.95 20.3
-1 -4 5 446.36 20.1
-1 -4 5 433.46 20.1
0 4 -5 81.29 5.5
0 4 -5 85.59 5.2
0 -4 5 62.69 5.1
0 -4 5 55.59 5.1
-1 4 -5 859.91 33.9
-1 4 -5 875.21 33.9
1 -4 5 776.52 33.8
1 -4 5 738.33 33.8
-2 4 -5 220.38 10.8
-2 4 -5 217.08 10.6
2 -4 5 243.78 10.9
2 -4 5 248.38 10.8
-3 4 -5 44.1 3.7
3 -4 5 34.2 3.6
3 -4 5 36.1 3.7
-4 4 -5 993.3 41.5
-4 4 -5 971.5 41.3
4 -4 5 1013.7 41.3
4 -4 5 1039.4 41.2
-5 4 -5 1826.32 76.09
-5 4 -5 1879.21 76.29
5 -4 5 1902.41 75.99
5 -4 5 1900.91 76.09
-6 4 -5 1889.11 76.79
-6 4 -5 1827.22 76.69
6 -4 5 1945.81 76.69
-7 4 -5 332.97 15.5
-7 4 -5 344.77 15.7
7 -4 5 337.77 15.4
-8 4 -5 95.19 7.1
-8 4 -5 99.19 7.1
8 -4 5 92.79 6.8
-9 4 -5 725.73 31.7
-9 4 -5 721.03 31.5
9 -4 5 749.33 31.6
-10 4 -5 272.27 13.5
-10 4 -5 252.77 13.2
10 -4 5 219.48 13.8
10 -4 5 220.08 12.8
-11 4 -5 140.99 10.2
-11 4 -5 128.99 9.6
11 -4 5 112.89 10.7
11 -4 5 114.69 9.5
-12 4 -5 2.1 5.3
-12 4 -5 0.5 4.9
12 -4 5 2 6
12 -4 5 1.3 4.8
-13 4 -5 -0.9 6
-13 4 -5 0.2 5.7
13 -4 5 1.6 6.9
13 -4 5 -2.3 5.4
15 3 -5 180.08 23.5
15 3 -5 179.78 22.3
-15 -3 5 175.98 20.4
-15 -3 5 186.68 20.7
14 3 -5 283.77 21.5
14 3 -5 264.17 22.7
-14 -3 5 288.77 22.3
-14 -3 5 285.67 22
13 3 -5 287.67 20
13 3 -5 300.07 21.2
-13 -3 5 256.97 20.4
-13 -3 5 257.07 20.1
12 3 -5 743.03 35.3
12 3 -5 717.23 34.5
-12 -3 5 683.33 34.6
-12 -3 5 659.63 34.6
11 3 -5 112.59 13.3
11 3 -5 119.09 12.8
-11 -3 5 161.08 13.7
-11 -3 5 154.28 14
10 3 -5 293.97 17.7
10 3 -5 288.97 17.1
-10 -3 5 245.38 16.9
-10 -3 5 261.57 17.5
9 3 -5 2374.16 98.59
9 3 -5 2346.07 98.19
-9 -3 5 2349.67 98.39
-9 -3 5 2356.46 98.49
8 3 -5 600.24 29.7
8 3 -5 586.34 30.1
-8 -3 5 696.73 30.5
-8 -3 5 702.33 30.5
7 3 -5 1565.64 66.39
7 3 -5 1551.74 66.59
-7 -3 5 1568.44 66.59
-7 -3 5 1623.14 66.69
6 3 -5 1050.59 47.5
6 3 -5 1079.49 47.8
-6 -3 5 1150.08 48
-6 -3 5 1178.78 48
5 3 -5 1044.9 45.5
5 3 -5 1034.8 45.7
-5 -3 5 1103.89 45.8
-5 -3 5 1095.89 45.8
4 3 -5 307.27 14.5
4 3 -5 297.17 14.6
-4 -3 5 278.47 14.4
-4 -3 5 265.67 14.4
3 3 -5 1341.27 54.19
3 3 -5 1344.77 53.99
-3 -3 5 1283.77 53.99
-3 -3 5 1220.28 53.89
2 3 -5 1061.29 44.6
2 3 -5 1065.59 44.5
-2 -3 5 1058.49 44.6
-2 -3 5 1079.59 44.6
1 3 -5 53.69 4.8
1 3 -5 48.8 4.6
-1 -3 5 47.1 4.8
-1 -3 5 53.59 4.7
0 3 -5 1782.22 72.69
0 3 -5 1774.32 72.69
0 -3 5 1761.42 72.59
0 -3 5 1817.92 72.79
-1 3 -5 725.33 31.3
-1 3 -5 711.93 31.5
1 -3 5 775.82 31.6
1 -3 5 793.02 31.6
-2 3 -5 1321.27 55.39
2 -3 5 1346.87 55.39
2 -3 5 1389.16 55.29
-3 3 -5 76.79 5.7
-3 3 -5 70.39 5.3
3 -3 5 76.99 5.1
3 -3 5 70.09 5.2
-4 3 -5 1163.98 49.99
-4 3 -5 1200.78 50.19
4 -3 5 1277.27 49.8
4 -3 5 1214.88 49.99
-5 3 -5 2099.89 84.99
-5 3 -5 2042.2 84.79
5 -3 5 2112.19 84.89
-6 3 -5 997.2 42.8
-6 3 -5 994 42.6
6 -3 5 1063.39 42.7
-7 3 -5 420.36 19.5
-7 3 -5 423.06 19.7
7 -3 5 429.06 19.5
7 -3 5 430.66 20.1
-8 3 -5 150.38 9.6
-8 3 -5 146.79 9.4
8 -3 5 136.39 9.9
8 -3 5 138.49 9.1
-9 3 -5 697.43 30.9
-9 3 -5 683.93 31
9 -3 5 705.13 30.9
9 -3 5 704.53 31.4
-10 3 -5 409.36 19.8
-10 3 -5 436.56 20.1
10 -3 5 360.56 19.3
10 -3 5 384.36 20.3
-11 3 -5 55.59 7.5
-11 3 -5 42.5 6.4
11 -3 5 47.9 6.8
11 -3 5 45.5 7.9
-12 3 -5 56.69 8.3
-12 3 -5 43.7 7.2
12 -3 5 51.69 7.5
12 -3 5 65.79 9.3
-13 3 -5 30.6 7.9
-13 3 -5 21.6 6.7
13 -3 5 36.3 7.7
13 -3 5 34.6 8.6
15 2 -5 372.76 26.6
15 2 -5 372.66 27.1
-15 -2 5 351.26 25.1
-15 -2 5 357.86 25.1
14 2 -5 229.88 20.1
14 2 -5 217.18 18.8
-14 -2 5 217.28 19.4
-14 -2 5 231.28 19.5
13 2 -5 333.67 21.9
13 2 -5 275.57 20.3
-13 -2 5 365.56 21.7
-13 -2 5 336.77 21.7
12 2 -5 189.68 15.8
12 2 -5 188.08 16.1
-12 -2 5 223.38 16.5
-12 -2 5 219.08 16.4
11 2 -5 421.86 23.2
11 2 -5 453.35 23.7
-11 -2 5 431.76 23.6
-11 -2 5 436.46 23.3
10 2 -5 1063.99 45.7
10 2 -5 1077.19 46.1
-10 -2 5 957.7 45.5
-10 -2 5 1002.1 45.7
9 2 -5 1317.47 56.19
9 2 -5 1352.76 55.99
-9 -2 5 1251.47 55.89
-9 -2 5 1266.67 55.89
8 2 -5 1348.77 58.89
8 2 -5 1302.77 58.99
-8 -2 5 1458.55 59.29
-8 -2 5 1440.36 59.29
7 2 -5 1991.5 81.99
7 2 -5 1980.7 82.19
-7 -2 5 1963.5 82.19
-7 -2 5 1964.9 82.09
6 2 -5 2528.05 110.29
6 2 -5 2555.14 110.49
-6 -2 5 2825.32 110.79
-6 -2 5 2892.91 110.79
5 2 -5 6135.49 250.17
5 2 -5 5949.9 250.27
-5 -2 5 6348.56 250.37
-5 -2 5 6427.56 250.47
4 2 -5 4352.56 175.58
4 2 -5 4325.57 175.78
-4 -2 5 4356.76 175.78
-4 -2 5 4362.36 175.68
3 2 -5 1428.36 57.79
3 2 -5 1359.26 57.79
-3 -2 5 1410.66 57.89
-3 -2 5 1385.86 57.79
2 2 -5 1349.27 54.79
2 2 -5 1334.37 54.79
-2 -2 5 1294.57 54.79
-2 -2 5 1323.97 54.79
1 2 -5 113.09 7.3
1 2 -5 109.29 7.4
-1 -2 5 146.89 7.7
-1 -2 5 153.58 7.7
0 2 -5 1501.15 59.19
0 2 -5 1498.15 58.99
0 -2 5 1374.06 58.99
0 -2 5 1384.06 58.99
-1 2 -5 1324.87 56.09
-1 2 -5 1338.27 56.29
1 -2 5 1411.76 56.29
1 -2 5 1411.36 56.49
-2 2 -5 3702.43 151.08
2 -2 5 3722.73 151.08
2 -2 5 3821.02 150.88
-3 2 -5 907.61 38
-3 2 -5 927.51 38.3
3 -2 5 878.81 37.9
-4 2 -5 155.98 8.8
-4 2 -5 148.89 9.1
4 -2 5 155.78 8.7
-5 2 -5 312.37 15.1
-5 2 -5 310.67 14.9
5 -2 5 288.27 14.7
-6 2 -5 108.49 8
-6 2 -5 104.09 8.4
6 -2 5 126.19 8.2
6 -2 5 125.09 8.9
-7 2 -5 113.19 8.6
-7 2 -5 98.39 8
7 -2 5 106.39 8
7 -2 5 95.79 8.8
-8 2 -5 18.9 5
-8 2 -5 18.7 4.9
8 -2 5 22.7 4.8
8 -2 5 24.5 5.6
-9 2 -5 442.86 22
-9 2 -5 442.46 21.8
9 -2 5 460.55 22.6
9 -2 5 442.56 21.6
-10 2 -5 240.88 14.9
-10 2 -5 228.18 14.6
10 -2 5 235.78 15.3
10 -2 5 244.78 14.5
-11 2 -5 300.37 18.4
-11 2 -5 290.27 17.8
11 -2 5 331.67 19.2
11 -2 5 352.16 18.2
-12 2 -5 40 7.7
-12 2 -5 57.79 9.2
12 -2 5 57.89 8.3
12 -2 5 60.69 9.9
-13 2 -5 166.28 15.8
-13 2 -5 160.58 14.8
13 -2 5 212.78 17.1
13 -2 5 219.88 17.5
15 1 -5 36.3 11.7
15 1 -5 38 12.3
-15 -1 5 18.5 9.7
-15 -1 5 30.9 10.4
14 1 -5 36.9 10.2
14 1 -5 44.3 9.7
-14 -1 5 34.3 9.5
-14 -1 5 41.6 9.8
13 1 -5 93.49 12.1
13 1 -5 86.89 12.6
-13 -1 5 87.29 13.1
-13 -1 5 97.69 13.4
12 1 -5 94.79 12.3
12 1 -5 115.49 12.1
-12 -1 5 96.69 12.3
-12 -1 5 101.69 12
11 1 -5 331.07 18.8
11 1 -5 327.77 19.3
-11 -1 5 331.97 19.2
-11 -1 5 333.37 19.1
10 1 -5 702.73 33.4
10 1 -5 677.43 32.7
-10 -1 5 723.53 33.3
-10 -1 5 756.32 33.4
9 1 -5 154.88 12
9 1 -5 153.48 11.4
-9 -1 5 186.58 12.2
-9 -1 5 195.78 12.5
8 1 -5 440.96 21.6
8 1 -5 449.56 21.3
-8 -1 5 430.46 21.5
-8 -1 5 433.16 21.4
7 1 -5 1004.7 43.7
7 1 -5 1002 43.3
-7 -1 5 993.2 43.7
-7 -1 5 1036.8 43.6
6 1 -5 2618.34 107.49
6 1 -5 2623.94 107.69
-6 -1 5 2621.64 107.69
-6 -1 5 2655.33 107.69
5 1 -5 4645.04 185.68
5 1 -5 4670.83 185.48
-5 -1 5 4486.65 185.58
-5 -1 5 4568.34 185.58
4 1 -5 1139.09 44.2
4 1 -5 1066.69 44.2
-4 -1 5 1010.1 44.1
-4 -1 5 969 43.9
3 1 -5 967.9 41.5
3 1 -5 913.61 41.3
-3 -1 5 1028 41.5
-3 -1 5 1033.8 41.6
2 1 -5 1454.05 61.09
2 1 -5 1453.05 60.89
-2 -1 5 1496.45 61.09
-2 -1 5 1518.05 61.09
1 1 -5 1423.86 60.49
1 1 -5 1444.06 60.29
-1 -1 5 1506.45 60.49
-1 -1 5 1500.75 60.49
0 1 -5 1870.61 73.79
0 1 -5 1818.52 73.49
0 -1 5 1753.12 73.69
0 -1 5 1760.92 73.49
1 -1 5 329.27 15.5
1 -1 5 340.37 15.3
-2 1 -5 161.48 9.4
-2 1 -5 160.08 9
2 -1 5 145.79 8.8
-3 1 -5 727.43 31.1
-3 1 -5 733.73 30.8
3 -1 5 675.63 30.7
-4 1 -5 2697.23 108.79
-4 1 -5 2739.23 109.09
4 -1 5 2629.14 108.79
4 -1 5 2611.84 109.09
-5 1 -5 1183.58 49.8
-5 1 -5 1147.09 49.5
5 -1 5 1180.58 49.99
5 -1 5 1187.68 49.6
-6 1 -5 437.96 20.8
-6 1 -5 443.56 21.1
6 -1 5 438.66 21.4
6 -1 5 433.16 20.8
-7 1 -5 77.19 8
-7 1 -5 80.79 8.4
7 -1 5 84.59 9.1
7 -1 5 87.89 8.2
-8 1 -5 53.09 7.1
-8 1 -5 62.89 7.4
8 -1 5 52.79 7.9
8 -1 5 42.1 7.3
-9 1 -5 42.3 7
-9 1 -5 42.3 6.9
9 -1 5 42.1 7.5
9 -1 5 35.4 6.4
-10 1 -5 235.88 15.6
-10 1 -5 251.57 15.6
10 -1 5 238.08 15.4
10 -1 5 231.38 16.3
-11 1 -5 36.7 8
-11 1 -5 30.5 7.5
11 -1 5 40.4 8.7
11 -1 5 46.7 7.9
-12 1 -5 56.69 9
-12 1 -5 65.89 9.8
12 -1 5 83.39 10.2
12 -1 5 80.79 11.5
-13 1 -5 116.89 15.2
-13 1 -5 101.39 13.8
13 -1 5 77.59 12.2
13 -1 5 126.49 14.2
15 0 -5 231.38 20.1
15 0 -5 217.58 20.4
-15 0 5 204.78 18.6
-15 0 5 217.88 19.1
14 0 -5 366.36 23.6
14 0 -5 394.16 22.6
-14 0 5 373.66 23.1
-14 0 5 394.76 23.3
13 0 -5 280.97 19.1
13 0 -5 269.77 17.9
-13 0 5 303.77 19.1
-13 0 5 290.17 18.7
12 0 -5 204.08 14.4
12 0 -5 202.88 15.2
-12 0 5 196.78 14.9
-12 0 5 198.48 15
11 0 -5 170.88 13
11 0 -5 165.68 12.3
-11 0 5 130.59 12.2
-11 0 5 133.09 12.2
10 0 -5 137.29 11.4
10 0 -5 144.69 10.8
-10 0 5 121.99 11.2
-10 0 5 136.79 11.4
9 0 -5 109.89 9.2
9 0 -5 112.69 10
-9 0 5 113.99 10
-9 0 5 110.69 9.7
8 0 -5 63.09 7.3
8 0 -5 52.19 6.9
-8 0 5 45.9 6.2
-8 0 5 61.39 7.4
7 0 -5 68.09 7.5
7 0 -5 66.89 6.7
-7 0 5 53.59 7.1
-7 0 5 65.79 7.4
6 0 -5 726.23 29.9
6 0 -5 695.33 30
-6 0 5 640.44 29.8
-6 0 5 638.74 29.8
5 0 -5 189.28 9.9
5 0 -5 200.28 10.2
-5 0 5 134.19 9.6
-5 0 5 146.99 9.7
4 0 -5 204.58 12.2
4 0 -5 221.18 12.5
-4 0 5 287.07 12.9
-4 0 5 282.07 13
3 0 -5 521.25 23.5
3 0 -5 505.35 23.1
-3 0 5 543.95 23.4
-3 0 5 533.65 23.4
2 0 -5 82.29 6
2 0 -5 78.39 6.3
-2 0 5 86.19 6.4
-2 0 5 87.89 6.5
1 0 -5 1081.79 44.4
1 0 -5 1073.89 44
-1 0 5 1075.09 44.4
-1 0 5 994.5 44
0 0 -5 526.25 21.5
0 0 5 449.76 20.8
0 0 5 437.26 21
-1 0 -5 316.97 16
-1 0 -5 305.27 15.5
1 0 5 350.76 15.6
-2 0 -5 488.65 22.2
-2 0 -5 483.15 21.8
2 0 5 464.15 21.7
-3 0 -5 554.04 22.6
-3 0 -5 563.14 23.1
3 0 5 426.96 22.1
3 0 5 411.06 22.6
-4 0 -5 1745.33 73.39
-4 0 -5 1756.22 73.69
4 0 5 1784.22 73.49
4 0 5 1797.82 73.89
-5 0 -5 2285.27 91.99
-5 0 -5 2289.67 91.69
5 0 5 2171.38 91.99
5 0 5 2137.79 91.49
-6 0 -5 853.41 35.8
-6 0 -5 817.32 36
6 0 5 744.93 35.5
6 0 5 795.52 36.2
-7 0 -5 271.07 15.7
-7 0 -5 266.77 16.1
7 0 5 291.47 15.9
7 0 5 293.07 16.7
-8 0 -5 121.19 11
-8 0 -5 124.29 11.3
8 0 5 127.59 10.8
8 0 5 132.99 12
-9 0 -5 119.59 11.6
-9 0 -5 112.69 11.6
9 0 5 126.49 12.9
9 0 5 134.39 11.5
-10 0 -5 337.47 20.3
-10 0 -5 307.97 19.7
10 0 5 371.76 20.1
10 0 5 370.36 21.3
-11 0 -5 98.99 11.8
-11 0 -5 95.49 11.3
11 0 5 93.29 12.4
11 0 5 85.19 11.7
-12 0 -5 55.89 9.7
-12 0 -5 67.99 10.8
12 0 5 53.99 11
12 0 5 41.6 8.7
-13 0 -5 18 9
-13 0 -5 17 9.8
13 0 5 17.6 11.2
13 0 5 5.3 10.3
15 -1 -5 413.96 25.4
15 -1 -5 407.96 25.1
-15 1 5 388.46 24.2
-15 1 5 387.26 24.2
14 -1 -5 1001.8 45.7
14 -1 -5 998.1 44.6
-14 1 5 982.9 45.2
-14 1 5 936.61 45.1
13 -1 -5 360.26 21.8
13 -1 -5 348.27 20.7
-13 1 5 411.36 22.1
-13 1 5 397.06 21.7
12 -1 -5 30.5 7.4
12 -1 -5 35.3 6.9
-12 1 5 14.5 6.6
-12 1 5 16.8 6.7
11 -1 -5 904.21 40.8
11 -1 -5 907.71 41.3
-11 1 5 939.41 41.4
-11 1 5 935.01 41.4
10 -1 -5 691.43 31.4
10 -1 -5 701.73 31
-10 1 5 647.94 31.2
-10 1 5 655.63 31.1
9 -1 -5 36.9 5.9
9 -1 -5 33 6.3
-9 1 5 15.3 5.1
-9 1 5 20 5.6
8 -1 -5 176.98 11.4
8 -1 -5 168.28 10.8
-8 1 5 164.48 11.1
-8 1 5 163.98 11
7 -1 -5 113.89 8.3
7 -1 -5 112.69 8.6
-7 1 5 96.09 8.3
-7 1 5 95.49 8.4
6 -1 -5 143.99 9.2
6 -1 -5 131.69 9.4
-6 1 5 151.28 9.5
-6 1 5 150.08 9.6
5 -1 -5 56.59 6.2
5 -1 -5 66.59 7.6
-5 1 5 73.19 6.8
-5 1 5 68.09 7.2
4 -1 -5 338.87 16.3
4 -1 -5 347.87 16.7
-4 1 5 349.87 16.7
-4 1 5 350.16 16.7
3 -1 -5 2190.68 89.29
3 -1 -5 2209.38 89.59
-3 1 5 2192.78 89.59
-3 1 5 2157.68 89.49
2 -1 -5 1581.84 65.59
2 -1 -5 1606.34 65.99
-2 1 5 1568.14 65.69
-2 1 5 1621.34 66.09
1 -1 -5 288.67 16.4
-1 1 5 380.06 16.8
-1 1 5 374.76 16.4
0 -1 -5 1245.08 53.99
0 -1 -5 1223.78 53.49
0 1 5 1368.16 53.69
-1 -1 -5 591.64 26
-1 -1 -5 559.14 25.4
1 1 5 548.75 25.4
-2 -1 -5 1036.7 43.7
-2 -1 -5 1040.8 43.2
2 1 5 977.3 43.1
2 1 5 984.9 43.6
-3 -1 -5 613.54 26.9
-3 -1 -5 610.04 26.4
3 1 5 547.45 26.2
3 1 5 533.05 26.6
-4 -1 -5 1700.23 75.29
-4 -1 -5 1675.13 74.99
4 1 5 1912.71 75.89
4 1 5 1920.81 75.39
-5 -1 -5 1844.42 73.79
-5 -1 -5 1758.42 73.29
5 1 5 1681.83 73.19
5 1 5 1708.33 73.69
-6 -1 -5 538.15 24.9
-6 -1 -5 549.25 25.3
6 1 5 464.65 24.4
6 1 5 482.75 25.2
-7 -1 -5 242.28 15.5
-7 -1 -5 233.28 15.1
7 1 5 246.88 16.1
7 1 5 254.87 15.4
-8 -1 -5 656.53 31.8
-8 -1 -5 663.63 32.2
8 1 5 668.53 32.6
8 1 5 696.13 32.1
-9 -1 -5 527.75 27
-9 -1 -5 553.84 26.9
9 1 5 511.45 27.6
9 1 5 492.05 26.5
-10 -1 -5 191.88 16
-10 -1 -5 204.18 16.4
10 1 5 217.18 16
10 1 5 229.28 17.9
-11 -1 -5 35.3 8.8
-11 -1 -5 27.2 8.8
11 1 5 25.4 9.7
11 1 5 36 8.8
-12 -1 -5 192.98 17.5
-12 -1 -5 175.88 18
12 1 5 173.08 17.1
12 1 5 174.48 19.7
-13 -1 -5 69.89 11.6
-13 -1 -5 109.69 14.4
13 1 5 68.29 13.9
13 1 5 46.9 13.2
15 -2 -5 375.36 24.7
15 -2 -5 400.46 23.8
-15 2 5 363.76 22.8
-15 2 5 367.16 22.8
14 -2 -5 369.06 21
14 -2 -5 354.26 21.8
-14 2 5 352.46 21.4
-14 2 5 368.46 21.5
13 -2 -5 40.7 7.8
13 -2 -5 42.3 8.3
-13 2 5 52.89 8.7
-13 2 5 51.99 8.4
12 -2 -5 216.98 15.1
12 -2 -5 204.48 14.6
-12 2 5 229.68 15.1
-12 2 5 221.68 15.1
11 -2 -5 2040.6 86.19
11 -2 -5 2042.2 85.89
-11 2 5 2032 86.09
-11 2 5 2119.09 86.29
10 -2 -5 1534.75 64.49
10 -2 -5 1569.34 64.29
-10 2 5 1473.55 64.39
-10 2 5 1507.35 64.49
9 -2 -5 64.39 8.7
9 -2 -5 66.99 7.9
-9 2 5 92.99 9
8 -2 -5 60.99 7.8
8 -2 -5 56.09 7.1
-8 2 5 57.29 7.6
-8 2 5 60.39 7.8
7 -2 -5 923.81 38.8
7 -2 -5 902.81 38.5
-7 2 5 862.11 38.5
-7 2 5 873.51 38.6
6 -2 -5 995.8 45.1
6 -2 -5 1003.4 44.6
-6 2 5 1097.59 45.1
-6 2 5 1118.69 45.2
5 -2 -5 2546.15 105.79
5 -2 -5 2614.14 106.29
-5 2 5 2644.64 106.19
-5 2 5 2580.54 106.19
4 -2 -5 1270.97 53.49
4 -2 -5 1281.57 53.99
-4 2 5 1294.77 53.89
-4 2 5 1292.57 54.09
3 -2 -5 701.13 29.7
-3 2 5 648.64 29.3
-3 2 5 665.53 29.6
2 -2 -5 263.17 13.5
-2 2 5 252.37 13.4
-2 2 5 246.18 13
1 -2 -5 740.93 32.6
1 -2 -5 777.12 33.2
-1 2 5 709.33 32
-1 2 5 742.13 32.5
0 -2 -5 54.19 7.3
0 -2 -5 49.8 6.4
0 2 5 50.69 6.7
-1 -2 -5 466.85 21.9
-1 -2 -5 435.96 21.3
1 2 5 448.56 21.4
-2 -2 -5 97.49 8.8
-2 -2 -5 105.49 8.4
2 2 5 95.59 8.4
2 2 5 89.69 9.1
-3 -2 -5 113.99 9.5
-3 -2 -5 107.59 9.8
3 2 5 89.39 8.7
3 2 5 75.19 10.7
-4 -2 -5 1803.22 77.39
-4 -2 -5 1761.42 76.99
4 2 5 1905.61 77.89
4 2 5 1894.11 77.29
-5 -2 -5 619.24 28.8
-5 -2 -5 629.54 29.1
5 2 5 593.34 29.4
5 2 5 585.34 28.6
-6 -2 -5 853.71 38.2
-6 -2 -5 835.12 37.8
6 2 5 814.62 37.6
6 2 5 800.42 38.3
-7 -2 -5 304.27 19.1
-7 -2 -5 312.37 19.3
7 2 5 352.26 20.4
7 2 5 347.87 19.3
-8 -2 -5 613.44 29.1
-8 -2 -5 595.94 29.4
8 2 5 528.95 28.5
8 2 5 552.74 29.6
-9 -2 -5 356.46 20.2
-9 -2 -5 366.06 20.6
9 2 5 267.87 19.4
9 2 5 259.37 20.4
-10 -2 -5 52.89 9.6
-10 -2 -5 42.7 9.5
10 2 5 35.9 9.1
10 2 5 37.7 10.9
-11 -2 -5 112.39 15.3
-11 -2 -5 104.29 16
11 2 5 121.09 15.3
11 2 5 121.39 14.1
-12 -2 -5 181.88 18.9
-12 -2 -5 157.28 18.5
12 2 5 154.08 21.1
15 -3 -5 149.59 18.4
15 -3 -5 162.58 16.4
-15 3 5 148.19 16.4
-15 3 5 151.68 15.2
14 -3 -5 21.2 7.4
14 -3 -5 22.6 8
-14 3 5 23.3 8.4
-14 3 5 25 7.8
13 -3 -5 29.9 7.8
13 -3 -5 34.1 7.6
-13 3 5 20.1 7
-13 3 5 29 7.9
12 -3 -5 42.8 7.7
12 -3 -5 61.19 8.3
-12 3 5 73.59 10.5
-12 3 5 76.79 9.3
11 -3 -5 295.87 17.8
11 -3 -5 272.77 17.1
-11 3 5 357.36 18.3
-11 3 5 339.77 18
10 -3 -5 702.13 31.2
10 -3 -5 707.23 31.6
-10 3 5 663.23 31.4
-10 3 5 665.63 31.4
9 -3 -5 23.2 5.8
9 -3 -5 26.2 5.3
-9 3 5 34.9 6.2
-9 3 5 27.9 5.9
8 -3 -5 177.78 11
8 -3 -5 186.78 11.9
-8 3 5 184.58 11.7
-8 3 5 185.78 11.8
7 -3 -5 1746.63 73.09
7 -3 -5 1729.53 72.59
-7 3 5 1757.82 73.09
-7 3 5 1785.32 72.89
6 -3 -5 1497.55 64.99
6 -3 -5 1465.75 64.49
-6 3 5 1597.24 65.09
-6 3 5 1662.23 65.29
5 -3 -5 2046.3 84.99
5 -3 -5 1983.1 84.29
-5 3 5 2067.29 84.89
-5 3 5 2120.39 85.09
4 -3 -5 100.09 8.3
-4 3 5 91.89 8.1
-4 3 5 94.09 7.8
3 -3 -5 98.59 8.7
-3 3 5 122.29 8.8
-3 3 5 115.69 8.4
2 -3 -5 56.79 7.9
2 -3 -5 60.19 8.9
-2 3 5 65.89 7.4
1 -3 -5 682.43 31.5
1 -3 -5 730.73 31.9
-1 3 5 678.33 31.2
0 -3 -5 527.25 24
0 -3 -5 515.05 23.3
0 3 5 432.16 23
-1 -3 -5 505.75 24.5
-1 -3 -5 504.35 24
1 3 5 514.35 24.2
1 3 5 499.55 24.8
-2 -3 -5 86.79 9.1
-2 -3 -5 90.39 10.3
2 3 5 70.59 10.5
2 3 5 58.99 8.2
-3 -3 -5 127.09 10.6
-3 -3 -5 137.69 11.1
3 3 5 156.18 11.1
3 3 5 138.49 12.2
-4 -3 -5 838.92 38
-4 -3 -5 824.62 37.6
4 3 5 849.22 37.7
4 3 5 801.22 38.3
-5 -3 -5 519.85 26.9
-5 -3 -5 567.64 27.5
5 3 5 550.24 27.1
5 3 5 545.85 27.8
-6 -3 -5 50.89 8.9
-6 -3 -5 37.3 8.1
6 3 5 39.9 8.1
6 3 5 41.9 9.2
-7 -3 -5 48.3 9.3
-7 -3 -5 44.2 8.9
7 3 5 34.5 8.3
7 3 5 31.4 9.2
-8 -3 -5 58.59 10.2
-8 -3 -5 56.19 9.7
8 3 5 73.79 10.7
8 3 5 53.99 10.1
-9 -3 -5 24 8.4
-9 -3 -5 28.4 8.7
9 3 5 29 10.7
9 3 5 20 8.6
-10 -3 -5 35.2 9.4
-10 -3 -5 17.3 8.2
10 3 5 29.7 9
10 3 5 44.9 12
-11 -3 -5 103.19 13.9
-11 -3 -5 91.89 14.2
11 3 5 70.99 14.8
11 3 5 54.39 11.8
-12 -3 -5 160.48 19.6
12 3 5 109.29 16.1
12 3 5 104.59 15.6
15 -4 -5 66.69 10.6
15 -4 -5 65.59 11
-15 4 5 59.99 9.5
-15 4 5 61.09 10.3
14 -4 -5 111.39 12.7
14 -4 -5 124.49 13.7
-14 4 5 118.69 13.1
-14 4 5 112.89 13.8
13 -4 -5 65.99 9.1
13 -4 -5 72.29 8.8
-13 4 5 67.09 9.5
-13 4 5 58.59 8.7
12 -4 -5 184.58 14.1
12 -4 -5 192.38 13.3
-12 4 5 195.98 14.3
-12 4 5 182.68 13.8
11 -4 -5 205.68 13.5
11 -4 -5 205.78 14.6
-11 4 5 241.98 14.7
-11 4 5 223.38 14.6
10 -4 -5 350.16 18.4
10 -4 -5 342.07 17.6
-10 4 5 326.17 18.2
-10 4 5 323.97 18.2
9 -4 -5 94.29 9.6
9 -4 -5 92.39 8.6
-9 4 5 81.39 9.4
-9 4 5 87.39 9.5
8 -4 -5 61.89 7.4
8 -4 -5 65.69 8.2
-8 4 5 50.99 7
-8 4 5 61.09 7.9
7 -4 -5 874.11 38.1
7 -4 -5 847.32 37.4
-7 4 5 860.11 37.8
-7 4 5 877.81 38.2
6 -4 -5 2410.56 101.19
-6 4 5 2453.85 101.19
-6 4 5 2517.25 101.39
5 -4 -5 844.12 37.9
-5 4 5 867.41 37.8
-5 4 5 890.81 38.1
4 -4 -5 438.46 21.4
-4 4 5 442.46 21.3
-4 4 5 438.76 20.9
3 -4 -5 1581.64 67.29
3 -4 -5 1555.24 67.49
-3 4 5 1645.64 67.09
-3 4 5 1604.24 66.69
2 -4 -5 2760.42 117.69
2 -4 -5 2748.82 117.19
-2 4 5 3066.79 117.59
1 -4 -5 1800.22 79.09
1 -4 -5 1838.32 79.59
-1 4 5 2050.89 79.59
0 -4 -5 2288.47 95.59
0 -4 -5 2244.58 95.09
0 4 5 2349.76 95.39
-1 -4 -5 47.3 7.7
-1 -4 -5 48 7.7
1 4 5 52.49 7.5
1 4 5 56.29 8.5
-2 -4 -5 523.95 24.6
-2 -4 -5 522.15 24.3
2 4 5 443.96 24.5
2 4 5 425.06 23.6
-3 -4 -5 1790.52 75.19
-3 -4 -5 1776.12 74.89
3 4 5 1707.13 75.39
3 4 5 1775.92 74.89
-4 -4 -5 763.32 35.5
-4 -4 -5 762.22 35.8
4 4 5 739.83 36.2
4 4 5 761.42 35.5
-5 -4 -5 197.68 15.1
-5 -4 -5 188.38 14.5
5 4 5 199.78 16.1
5 4 5 192.28 14.7
-6 -4 -5 203.78 16.2
-6 -4 -5 214.88 15.9
6 4 5 209.38 17.1
6 4 5 197.38 15.5
-7 -4 -5 54.89 9.6
-7 -4 -5 75.99 11.3
7 4 5 87.69 12.9
7 4 5 75.09 10.7
-8 -4 -5 59.39 10
-8 -4 -5 54.39 9.7
8 4 5 47.9 8.9
8 4 5 53.19 10.5
-9 -4 -5 119.79 14.6
-9 -4 -5 112.19 14.2
9 4 5 105.49 15.2
9 4 5 103.39 15
-10 -4 -5 24.1 10.9
-10 -4 -5 13.5 9.2
10 4 5 13 9.1
10 4 5 20.9 12.6
-11 -4 -5 65.19 13.3
-11 -4 -5 38.5 11.5
11 4 5 59.59 13.1
11 4 5 38.9 13.4
14 -5 -5 18.4 7.7
14 -5 -5 16.4 8
-14 5 5 18.7 8
-14 5 5 18 7.5
13 -5 -5 42.9 8.4
13 -5 -5 40.4 7.7
-13 5 5 55.59 9
-13 5 5 49.8 8.2
12 -5 -5 325.67 18
12 -5 -5 330.67 19
-12 5 5 319.47 19
-12 5 5 322.77 18.7
11 -5 -5 99.59 10
11 -5 -5 94.89 11
-11 5 5 83.49 11
-11 5 5 99.89 10.8
10 -5 -5 184.58 12.7
10 -5 -5 189.28 13.6
-10 5 5 213.68 13.9
-10 5 5 201.38 13.5
9 -5 -5 142.99 11.3
9 -5 -5 144.79 10.8
-9 5 5 146.99 11.2
-9 5 5 146.49 11.8
8 -5 -5 44.7 7.1
-8 5 5 43.1 7
-8 5 5 45.3 7.2
7 -5 -5 32.5 6.3
-7 5 5 34.9 6.2
-7 5 5 40.7 6.5
6 -5 -5 152.98 11.6
-6 5 5 171.48 11.5
-6 5 5 176.78 11.7
5 -5 -5 97.49 9.7
5 -5 -5 109.29 10.4
-5 5 5 97.99 9.1
-5 5 5 116.59 9.7
4 -5 -5 144.89 11.5
4 -5 -5 155.78 11.3
-4 5 5 147.59 11
-4 5 5 137.49 10.5
3 -5 -5 1163.18 48.6
3 -5 -5 1177.08 49.1
-3 5 5 1102.19 48.4
-3 5 5 1028.6 47.6
2 -5 -5 486.35 23.3
2 -5 -5 489.35 22.7
-2 5 5 383.96 22.1
1 -5 -5 815.22 37.1
1 -5 -5 862.11 37.8
-1 5 5 800.72 37.2
0 -5 -5 609.24 29.4
0 -5 -5 603.44 28.9
0 5 5 614.14 29
0 5 5 607.94 29.8
-1 -5 -5 703.63 34.3
-1 -5 -5 729.53 34.7
1 5 5 769.82 35.5
1 5 5 763.12 34.6
-2 -5 -5 2262.87 95.19
-2 -5 -5 2345.17 95.69
2 5 5 2262.87 95.29
2 5 5 2208.28 95.79
-3 -5 -5 1791.62 73.99
-3 -5 -5 1765.42 73.59
3 5 5 1636.64 73.99
3 5 5 1656.63 73.29
-4 -5 -5 725.13 35.5
-4 -5 -5 776.52 36.1
4 5 5 712.83 35.4
4 5 5 752.62 36.6
-5 -5 -5 149.29 14.9
-5 -5 -5 140.49 14.1
5 5 5 141.09 14.1
5 5 5 155.98 16
-6 -5 -5 106.69 13.7
-6 -5 -5 106.49 14.2
6 5 5 79.29 11.2
6 5 5 84.89 12.6
-7 -5 -5 911.51 45.8
-7 -5 -5 925.91 46.4
7 5 5 1029.6 46.4
7 5 5 1044.4 47.7
-8 -5 -5 256.37 20.7
-8 -5 -5 254.07 20.5
8 5 5 267.67 22.5
8 5 5 274.57 20.5
-9 -5 -5 79.19 12.8
-9 -5 -5 71.39 11.5
9 5 5 61.79 11
9 5 5 67.99 12.8
-10 -5 -5 61.59 11.8
-10 -5 -5 44.8 11.1
10 5 5 56.89 13.7
10 5 5 86.69 13.6
-11 -5 -5 59.99 13.1
-11 -5 -5 57.19 12.8
11 5 5 85.09 16.4
14 -6 -5 14.3 7.5
14 -6 -5 14.6 7.4
-14 6 5 10.9 8
-14 6 5 10.9 7.4
13 -6 -5 131.09 13.8
-13 6 5 162.48 14.5
-13 6 5 162.98 13.5
12 -6 -5 549.85 28.6
-12 6 5 613.44 29.2
-12 6 5 612.04 28.6
11 -6 -5 378.16 20.5
-11 6 5 359.16 20.2
-11 6 5 385.76 20.7
10 -6 -5 2 5.7
-10 6 5 0.6 5.7
-10 6 5 0.6 5.7
9 -6 -5 275.27 16.4
-9 6 5 280.67 16.1
-9 6 5 290.07 16.7
8 -6 -5 920.91 41.2
-8 6 5 918.61 41
-8 6 5 949.21 41.3
7 -6 -5 509.45 25.4
-7 6 5 528.05 25.4
-7 6 5 530.75 25.3
6 -6 -5 144.79 11.6
6 -6 -5 135.49 12.3
-6 6 5 155.98 11.7
-6 6 5 153.98 11.3
5 -6 -5 63.39 8.3
5 -6 -5 53.49 7.9
-5 6 5 43 7
-5 6 5 43 6.5
4 -6 -5 179.18 13.1
4 -6 -5 160.08 12.7
-4 6 5 177.48 11.9
-4 6 5 178.38 12.6
3 -6 -5 297.17 17.3
3 -6 -5 310.77 17.9
-3 6 5 299.47 17.4
2 -6 -5 709.03 33
2 -6 -5 695.23 32.5
-2 6 5 681.03 32.5
1 -6 -5 70.59 9.6
1 -6 -5 65.79 9.9
-1 6 5 48.9 7.5
0 -6 -5 386.16 20.9
0 -6 -5 391.16 21.3
0 6 5 389.26 21
0 6 5 364.46 21.9
-1 -6 -5 194.48 15.1
-1 -6 -5 203.38 15.4
1 6 5 219.68 15.3
1 6 5 228.18 16.8
-2 -6 -5 976.1 44.4
-2 -6 -5 993.8 44.7
2 6 5 923.11 45.1
2 6 5 978.8 44.4
-3 -6 -5 779.82 37
-3 -6 -5 837.32 37
3 6 5 694.43 37.3
3 6 5 730.03 36.4
-4 -6 -5 102.29 13.1
-4 -6 -5 89.69 13.4
4 6 5 102.09 13.2
4 6 5 107.79 14.8
-5 -6 -5 102.29 14.1
-5 -6 -5 117.49 15.1
5 6 5 88.19 12.8
5 6 5 118.29 14.3
-6 -6 -5 184.68 18.1
-6 -6 -5 179.88 17.5
6 6 5 172.28 19.2
6 6 5 192.38 17.6
-7 -6 -5 1704.33 76.39
-7 -6 -5 1664.63 76.69
7 6 5 1807.72 76.69
7 6 5 1735.13 77.49
-8 -6 -5 882.11 44.6
-8 -6 -5 897.91 45
8 6 5 908.41 44.7
8 6 5 882.01 46.1
-9 -6 -5 47.2 13.4
-9 -6 -5 29.4 12.1
9 6 5 28 14.6
9 6 5 30.8 12
-10 -6 -5 110.59 17.4
-10 -6 -5 95.99 17
10 6 5 119.69 19.9
10 6 5 126.89 17.1
13 -7 -5 304.37 19.2
-13 7 5 313.17 19.2
-13 7 5 304.07 18.6
12 -7 -5 568.24 28.4
-12 7 5 561.24 27.9
-12 7 5 579.54 28.3
11 -7 -5 473.45 24.1
-11 7 5 445.56 23.7
-11 7 5 480.65 24.2
10 -7 -5 26.5 7.2
-10 7 5 31.3 7.4
-10 7 5 39.9 7.4
9 -7 -5 117.49 12.7
9 -7 -5 131.89 11.8
-9 7 5 88.69 11
-9 7 5 83.89 10.7
8 -7 -5 355.36 18.6
-8 7 5 259.47 16.8
-8 7 5 266.87 17.1
7 -7 -5 501.15 23.3
7 -7 -5 504.25 24.2
-7 7 5 428.56 23
-7 7 5 377.86 22.3
6 -7 -5 153.18 13
6 -7 -5 147.09 12.2
-6 7 5 143.39 12.2
-6 7 5 137.39 11.6
5 -7 -5 34.1 7.6
5 -7 -5 22.6 7.1
-5 7 5 23.9 6.6
-5 7 5 36.6 6.9
4 -7 -5 22.1 6.9
4 -7 -5 32.9 7.5
-4 7 5 29.1 7.3
-4 7 5 25.8 6.1
3 -7 -5 11.2 6.3
3 -7 -5 13.7 6.3
-3 7 5 32 6.6
2 -7 -5 288.57 18.4
2 -7 -5 296.17 18.9
-2 7 5 356.96 19
1 -7 -5 73.79 11
1 -7 -5 64.19 8.8
-1 7 5 71.59 9.1
0 -7 -5 451.55 24.3
0 -7 -5 435.36 23.8
0 7 5 426.76 23.8
0 7 5 436.06 25.1
-1 -7 -5 155.08 14.6
-1 -7 -5 141.69 13.9
1 7 5 152.38 15.5
1 7 5 161.78 14.5
-2 -7 -5 142.79 15.2
-2 -7 -5 155.78 15.1
2 7 5 184.18 15.2
2 7 5 169.38 16.7
-3 -7 -5 198.28 17.4
-3 -7 -5 191.58 17
3 7 5 212.98 18.9
3 7 5 243.28 17.9
-4 -7 -5 298.57 22.1
-4 -7 -5 303.17 21.4
4 7 5 340.77 22.2
4 7 5 340.17 23.5
-5 -7 -5 217.78 18.6
-5 -7 -5 236.08 19.6
5 7 5 203.28 20.1
5 7 5 205.68 18.5
-6 -7 -5 381.56 25
-6 -7 -5 388.46 25.6
6 7 5 368.96 24.8
6 7 5 352.76 26.4
-7 -7 -5 1127.79 54.89
-7 -7 -5 1195.58 55.79
7 7 5 1079.59 56.09
7 7 5 1219.98 55.19
-8 -7 -5 520.75 32.2
-8 -7 -5 488.75 32.2
8 7 5 525.35 34.3
8 7 5 550.14 32.3
-9 -7 -5 106.49 16.3
-9 -7 -5 60.89 13.2
9 7 5 78.39 14.2
9 7 5 106.69 19
13 -8 -5 51.99 9.3
13 -8 -5 48.1 10.4
-13 8 5 49.99 9.2
-13 8 5 41.1 8.4
12 -8 -5 82.19 10.4
12 -8 -5 60.89 10.4
-12 8 5 57.09 9.3
-12 8 5 52.29 9
11 -8 -5 45.7 9.4
11 -8 -5 51.59 8.9
-11 8 5 48.8 8.7
-11 8 5 56.99 8.8
10 -8 -5 -2.2 7.1
10 -8 -5 4.3 6.8
-10 8 5 -3.2 5.9
-10 8 5 -0.5 6.3
9 -8 -5 81.49 10
9 -8 -5 71.69 10.3
-9 8 5 93.79 11.7
-9 8 5 91.89 11.5
8 -8 -5 143.69 14.4
-8 8 5 184.98 14.1
-8 8 5 183.38 13.8
7 -8 -5 485.15 25.7
7 -8 -5 487.55 24.9
-7 8 5 499.15 25.1
-7 8 5 470.55 24.4
6 -8 -5 169.88 13.9
6 -8 -5 178.68 14.3
-6 8 5 130.69 12.4
-6 8 5 135.69 12.9
5 -8 -5 22.5 7.4
5 -8 -5 32.4 7.9
-5 8 5 27.4 7.5
-5 8 5 31.5 7
4 -8 -5 762.52 36.3
4 -8 -5 750.32 35.7
-4 8 5 757.32 34.9
-4 8 5 754.62 35.8
3 -8 -5 634.14 30.7
3 -8 -5 625.54 30
-3 8 5 549.15 29.7
2 -8 -5 127.99 13.7
2 -8 -5 121.69 13.2
-2 8 5 150.48 13.7
1 -8 -5 21.1 8.6
1 -8 -5 15.1 7
-1 8 5 35.7 9
0 -8 -5 211.98 17.2
0 -8 -5 221.78 16.6
0 8 5 208.68 18.4
0 8 5 221.98 17
-1 -8 -5 123.59 14.4
-1 -8 -5 133.89 15
1 8 5 109.99 14.3
1 8 5 110.39 15.6
-2 -8 -5 85.59 12.7
-2 -8 -5 88.09 12.4
2 8 5 50.49 11
2 8 5 54.79 12.3
-3 -8 -5 6.9 9.1
-3 -8 -5 1.8 8.3
3 8 5 9.3 10.4
3 8 5 4.1 8.3
-4 -8 -5 7.9 8.6
-4 -8 -5 5.5 9.1
4 8 5 5.9 8.7
4 8 5 13.7 10.8
-5 -8 -5 19.3 11.3
-5 -8 -5 21.7 9.8
5 8 5 16.8 12.9
5 8 5 11.3 9
-6 -8 -5 27 12.1
-6 -8 -5 46.7 13.3
6 8 5 48.8 15.5
6 8 5 32.6 10.8
-7 -8 -5 69.49 13.8
-7 -8 -5 104.19 17.5
7 8 5 75.29 15.6
7 8 5 120.19 16.8
-8 -8 -5 84.09 16.4
-8 -8 -5 63.79 14.6
8 8 5 81.19 15.4
8 8 5 92.29 19.1
12 -9 -5 27.2 8.7
12 -9 -5 18.8 9.3
-12 9 5 23.5 8.2
-12 9 5 23.7 8.3
11 -9 -5 11.3 7.8
11 -9 -5 7 9
-11 9 5 9 7.3
-11 9 5 11.3 7.4
10 -9 -5 7.1 8.1
10 -9 -5 10.6 7.7
-10 9 5 11.2 7.4
-10 9 5 14.5 7.3
9 -9 -5 101.29 13.3
9 -9 -5 108.99 13.8
-9 9 5 94.09 12.8
-9 9 5 95.69 12.7
8 -9 -5 253.17 17.2
8 -9 -5 238.48 18
-8 9 5 256.77 17.4
-8 9 5 255.17 17
7 -9 -5 121.49 13.6
7 -9 -5 111.19 13.6
-7 9 5 143.29 13.5
-7 9 5 134.49 12.8
6 -9 -5 269.47 18
6 -9 -5 260.57 18
-6 9 5 237.28 17.1
-6 9 5 227.48 16.4
5 -9 -5 78.79 10.8
5 -9 -5 86.29 12.8
-5 9 5 91.79 11.9
-5 9 5 93.79 12.4
4 -9 -5 562.34 28.5
4 -9 -5 542.25 28.7
-4 9 5 525.35 28.3
3 -9 -5 1007.6 45.9
3 -9 -5 988 45.4
-3 9 5 955.4 45.4
2 -9 -5 323.17 20.9
2 -9 -5 311.77 20.4
-2 9 5 316.17 20.7
1 -9 -5 108.89 14.8
1 -9 -5 104.19 14.4
-1 9 5 117.89 14.8
0 -9 -5 239.98 19.7
0 -9 -5 254.27 19.4
0 9 5 281.17 19.8
0 9 5 263.07 21.6
-1 -9 -5 463.25 27.7
-1 -9 -5 465.55 28.1
1 9 5 509.65 28.4
1 9 5 490.85 29.6
-2 -9 -5 660.93 36.9
-2 -9 -5 695.73 37.3
2 9 5 772.02 39.3
2 9 5 750.02 37.6
-3 -9 -5 181.78 19.5
-3 -9 -5 184.18 19.5
3 9 5 203.28 19.7
3 9 5 164.88 21.3
-4 -9 -5 52.39 11.4
-4 -9 -5 102.89 15.6
4 9 5 89.49 16.7
4 9 5 53.99 11.2
-5 -9 -5 142.29 20
-5 -9 -5 135.29 20.1
5 9 5 186.78 21
5 9 5 181.48 23.6
-6 -9 -5 105.39 17.2
-6 -9 -5 93.89 15.6
6 9 5 116.79 19.9
6 9 5 88.29 15
-7 -9 -5 202.18 23.4
-7 -9 -5 195.58 24
7 9 5 143.59 20.5
11 -10 -5 63.69 10.1
11 -10 -5 47.8 10.6
-11 10 5 65.89 10.1
-11 10 5 44.4 9.3
10 -10 -5 38.1 9.7
10 -10 -5 30.4 11
-10 10 5 46.2 9.4
-10 10 5 48.2 9.6
9 -10 -5 44.9 10.1
9 -10 -5 52.19 10.1
-9 10 5 60.09 9.8
-9 10 5 67.89 10.2
8 -10 -5 10.5 8.6
8 -10 -5 20.7 8.6
-8 10 5 17.6 7.9
-8 10 5 13.5 8
7 -10 -5 203.98 17.7
7 -10 -5 201.38 17.1
-7 10 5 211.68 16.9
-7 10 5 202.98 16
6 -10 -5 5.8 8.1
6 -10 -5 5.2 8.5
-6 10 5 3.5 7.6
-6 10 5 7 7.9
5 -10 -5 85.49 11.8
5 -10 -5 93.19 11.9
-5 10 5 69.19 10.6
-5 10 5 85.39 11.3
4 -10 -5 48.8 10.6
4 -10 -5 38.6 9.3
-4 10 5 33 9.2
3 -10 -5 121.09 15.5
3 -10 -5 132.19 15.6
-3 10 5 140.49 15.6
2 -10 -5 362.76 23.6
2 -10 -5 357.46 22.9
-2 10 5 343.97 23.1
1 -10 -5 40.6 10.3
1 -10 -5 40.7 10.5
-1 10 5 30.2 9.5
0 -10 -5 273.87 21.6
0 -10 -5 292.87 22
0 10 5 297.47 22
0 10 5 280.77 24.1
-1 -10 -5 1210.78 57.19
-1 -10 -5 1286.97 57.99
1 10 5 1263.57 57.79
1 10 5 1167.38 58.49
-2 -10 -5 958.1 46.6
-2 -10 -5 978.6 47.2
2 10 5 865.21 47.6
2 10 5 922.41 46.7
-3 -10 -5 36.1 13.4
-3 -10 -5 19.2 11
3 10 5 19 12.9
3 10 5 36.3 13.6
-4 -10 -5 230.88 23.1
-4 -10 -5 211.18 23.2
4 10 5 201.58 25.2
-5 -10 -5 600.64 35.9
-5 -10 -5 584.14 36.1
5 10 5 580.64 35.9
5 10 5 573.34 38.2
-6 -10 -5 432.76 31.9
-6 -10 -5 434.66 32.1
6 10 5 419.06 31.8
6 10 5 417.46 34.8
9 -11 -5 67.89 11.6
9 -11 -5 42.6 13.1
-9 11 5 71.79 11.1
-9 11 5 69.09 11.1
8 -11 -5 242.38 19
8 -11 -5 217.18 22.1
-8 11 5 233.48 18.9
-8 11 5 237.58 18.2
7 -11 -5 98.79 12.8
7 -11 -5 99.19 12.7
-7 11 5 76.29 11.5
-7 11 5 104.69 14.5
6 -11 -5 22.8 10.3
6 -11 -5 17.9 9.6
-6 11 5 17.4 9.4
-6 11 5 16.5 9.3
5 -11 -5 110.29 16.5
5 -11 -5 118.09 16.6
-5 11 5 123.29 16.1
-5 11 5 96.99 14.6
4 -11 -5 360.66 23.8
4 -11 -5 382.96 24.8
-4 11 5 346.97 24.1
3 -11 -5 150.38 18
3 -11 -5 165.88 19.3
-3 11 5 161.28 18.1
2 -11 -5 8.4 10.1
2 -11 -5 4.8 10
-2 11 5 2.2 9.2
1 -11 -5 38.9 12.2
1 -11 -5 44 12.1
-1 11 5 33.3 10.6
0 -11 -5 52.29 12.5
0 -11 -5 40.8 11.2
0 11 5 45.5 11.8
0 11 5 44.6 13.7
-1 -11 -5 334.37 25.5
-1 -11 -5 319.57 25.4
1 11 5 328.87 28
1 11 5 337.37 25.9
-2 -11 -5 178.78 22.3
-2 -11 -5 217.18 22.5
2 11 5 184.58 22.6
2 11 5 198.18 25.3
-3 -11 -5 15 12.5
-3 -11 -5 22.4 13.3
3 11 5 11.7 14.6
3 11 5 17.5 13.4
-4 -11 -5 172.08 24.4
-4 -11 -5 187.18 24.2
4 11 5 194.08 24.7
7 -12 -5 23.7 11.1
7 -12 -5 9.6 13.3
-7 12 5 26.4 10.9
-7 12 5 48 11.2
6 -12 -5 80.19 13.7
6 -12 -5 48.1 15.1
-6 12 5 62.09 11.8
-6 12 5 49.4 11.6
5 -12 -5 183.28 20.1
5 -12 -5 162.38 23.9
-5 12 5 192.28 19.6
-5 12 5 179.28 18.5
4 -12 -5 258.17 25.5
4 -12 -5 230.28 21.3
-4 12 5 209.38 21
3 -12 -5 219.88 23.4
3 -12 -5 226.98 21.6
-3 12 5 204.58 21.1
2 -12 -5 89.79 14.5
2 -12 -5 93.49 15.7
-2 12 5 72.69 13.3
1 -12 -5 20.4 12.5
1 -12 -5 10.2 11.8
-1 12 5 14.7 10.9
0 -12 -5 317.37 27.4
0 -12 -5 307.27 25.6
0 12 5 310.27 26.3
0 12 5 301.97 28.9
-1 -12 -5 104.59 17.8
-1 -12 -5 67.59 14.4
1 12 5 117.09 20.4
1 12 5 73.19 15.4
-2 -12 -5 35.4 15.8
-2 -12 -5 44.6 14.4
2 12 5 40.2 14.9
2 12 5 46 19.1
2 16 -6 11.2 10.7
1 16 -6 547.55 34.8
1 16 -6 623.84 33.4
-1 -16 6 603.34 35.1
-1 -16 6 585.84 33.9
0 16 -6 1102.19 50.49
0 16 -6 1075.49 51.59
0 -16 6 1087.59 50.79
0 -16 6 992.8 50.89
-1 16 -6 166.58 17.2
-1 16 -6 149.39 19.3
1 -16 6 152.68 18
1 -16 6 141.59 21
-2 16 -6 83.49 11.3
-2 16 -6 79.69 13.6
2 -16 6 89.09 14
2 -16 6 70.69 11.8
-3 16 -6 5.8 10.3
-3 16 -6 10.3 7.9
3 -16 6 8.6 8.7
3 -16 6 2.5 8.8
5 15 -6 397.06 32.3
5 15 -6 422.26 30.4
-5 -15 6 445.56 30.8
-5 -15 6 500.65 31.6
4 15 -6 50.09 12.9
4 15 -6 34.7 13.5
-4 -15 6 42.3 12.1
-4 -15 6 40.7 13.2
3 15 -6 6.4 10.1
3 15 -6 -1.7 12
-3 -15 6 -2.2 10.3
-3 -15 6 0.5 10.2
2 15 -6 123.69 17.5
2 15 -6 133.09 20.2
-2 -15 6 155.48 18.8
-2 -15 6 157.88 18.4
1 15 -6 528.45 32.2
1 15 -6 581.04 30.8
-1 -15 6 541.65 30.5
-1 -15 6 582.14 31.7
0 15 -6 627.84 34.4
0 15 -6 669.93 33.3
0 -15 6 622.44 32.7
0 -15 6 637.74 33.5
-1 15 -6 112.19 16.6
-1 15 -6 117.59 14.2
1 -15 6 100.39 14.5
1 -15 6 105.69 15.3
-2 15 -6 117.19 15.8
-2 15 -6 124.99 13.8
2 -15 6 113.79 14.6
2 -15 6 122.89 14
-3 15 -6 56.09 10.5
-3 15 -6 85.19 11.8
3 -15 6 90.89 11.1
3 -15 6 94.79 11.2
-4 15 -6 328.27 21.4
-4 15 -6 341.47 19.7
4 -15 6 394.36 20.3
4 -15 6 399.36 20.7
-5 15 -6 124.69 11.3
-5 15 -6 127.09 13.4
5 -15 6 158.58 12.4
5 -15 6 138.29 11.9
-6 15 -6 5.4 4.6
6 -15 6 1.5 5.1
6 -15 6 1.7 4.9
7 14 -6 24.5 14.1
7 14 -6 30.9 12.9
-7 -14 6 16 11.3
-7 -14 6 9.8 12.4
6 14 -6 72.59 15.4
6 14 -6 97.59 15.4
-6 -14 6 67.19 13.5
-6 -14 6 102.89 15.5
5 14 -6 19.2 10.6
5 14 -6 14 11.5
-5 -14 6 25.9 10.5
-5 -14 6 30.6 11.6
4 14 -6 56.09 12.4
4 14 -6 49.8 14
-4 -14 6 62.39 13.5
-4 -14 6 47.3 11.6
3 14 -6 113.09 15
3 14 -6 137.99 16.8
-3 -14 6 126.09 17.3
-3 -14 6 120.29 16.5
2 14 -6 142.79 17.9
2 14 -6 136.79 16.1
-2 -14 6 147.89 16.7
-2 -14 6 138.49 15.7
1 14 -6 271.17 22.1
1 14 -6 313.67 21.1
-1 -14 6 356.46 21.2
-1 -14 6 356.36 22
0 14 -6 285.07 21.8
0 14 -6 302.57 20.5
0 -14 6 382.36 21.8
0 -14 6 370.36 20.9
-1 14 -6 80.19 10.3
-1 14 -6 54.59 10.4
1 -14 6 83.49 10.4
1 -14 6 68.39 10
-2 14 -6 160.48 13.6
-2 14 -6 149.39 15
2 -14 6 173.48 14
2 -14 6 180.18 14.7
-3 14 -6 221.78 16.5
-3 14 -6 235.58 15.2
3 -14 6 238.48 15.6
3 -14 6 246.48 15.9
-4 14 -6 552.14 27.8
-4 14 -6 581.94 26.8
4 -14 6 570.84 27
4 -14 6 577.94 27.1
-5 14 -6 206.08 12.5
-5 14 -6 193.88 14.1
5 -14 6 209.68 12.9
5 -14 6 217.28 13.2
-6 14 -6 14.2 4
6 -14 6 10.6 4
6 -14 6 8.1 4.3
8 13 -6 16.4 13.1
8 13 -6 14.3 14
-8 -13 6 12.8 12.5
-8 -13 6 28.7 13.1
7 13 -6 177.38 23.4
7 13 -6 197.08 22
-7 -13 6 207.18 21.6
-7 -13 6 178.18 21.5
6 13 -6 351.16 25.2
6 13 -6 335.97 26.8
-6 -13 6 336.17 25.2
-6 -13 6 362.76 24.9
5 13 -6 174.38 18.9
5 13 -6 167.18 20.4
-5 -13 6 161.98 18
-5 -13 6 158.38 18.2
4 13 -6 8 9.8
4 13 -6 22.4 8.9
-4 -13 6 22.3 8.7
-4 -13 6 19.3 8.4
3 13 -6 139.69 15.7
3 13 -6 111.59 15
-3 -13 6 103.89 14.4
-3 -13 6 118.19 14.3
2 13 -6 357.96 21.9
2 13 -6 360.96 23.1
-2 -13 6 348.97 22.3
-2 -13 6 372.16 21.9
1 13 -6 313.27 19.3
1 13 -6 266.87 19.9
-1 -13 6 308.67 19
-1 -13 6 306.67 19.6
0 13 -6 331.07 21
0 13 -6 346.47 20
0 -13 6 336.27 20.3
0 -13 6 352.06 20.1
-1 13 -6 51.49 9.2
-1 13 -6 43 7.7
1 -13 6 70.99 9
1 -13 6 45.9 8.1
-2 13 -6 254.37 15.9
-2 13 -6 235.28 16.9
2 -13 6 288.97 16.7
2 -13 6 291.37 16.5
-3 13 -6 339.87 18.5
-3 13 -6 345.47 17.4
3 -13 6 292.57 17.6
3 -13 6 301.67 17.3
-4 13 -6 305.27 14.9
-4 13 -6 281.77 15.9
4 -13 6 235.88 14.7
4 -13 6 248.48 15
-5 13 -6 150.08 10.9
-5 13 -6 159.18 9.7
5 -13 6 145.59 10.1
5 -13 6 136.29 9.7
10 12 -6 272.77 27.4
10 12 -6 259.77 29.4
-10 -12 6 288.67 28.2
-10 -12 6 293.97 27.8
9 12 -6 30 12.2
9 12 -6 28.4 15
-9 -12 6 28.2 12.3
-9 -12 6 43 14.5
8 12 -6 153.18 20.4
8 12 -6 94.39 14.8
-8 -12 6 86.79 13.7
7 12 -6 1222.08 57.69
7 12 -6 1237.48 56.99
-7 -12 6 1177.38 56.89
-7 -12 6 1194.18 56.69
6 12 -6 1300.87 57.29
6 12 -6 1162.78 57.39
-6 -12 6 1243.08 56.89
-6 -12 6 1206.28 57.09
5 12 -6 139.39 17.9
5 12 -6 133.49 16
-5 -12 6 137.39 15.5
-5 -12 6 150.38 16.8
4 12 -6 260.97 20.8
4 12 -6 282.97 19.7
-4 -12 6 275.27 20
-4 -12 6 295.77 19.5
3 12 -6 231.78 18
3 12 -6 222.58 16.6
-3 -12 6 207.08 17
-3 -12 6 220.48 16.7
2 12 -6 403.26 24.3
2 12 -6 414.16 23.6
-2 -12 6 475.05 24.3
-2 -12 6 444.26 23.8
1 12 -6 819.52 39.3
1 12 -6 856.91 38.7
-1 -12 6 851.31 38.7
-1 -12 6 823.52 38.7
0 12 -6 72.39 10.1
0 12 -6 75.49 11.4
0 -12 6 77.39 9.3
0 -12 6 71.29 10.4
-1 12 -6 12.2 6.3
-1 12 -6 19.4 5.9
1 -12 6 18.1 5.9
1 -12 6 16.8 6.1
-2 12 -6 121.99 10.4
-2 12 -6 119.79 11.4
2 -12 6 129.99 10.7
2 -12 6 126.49 10.9
-3 12 -6 155.48 10.6
-3 12 -6 139.69 11.5
3 -12 6 151.18 11
3 -12 6 147.49 10.6
-4 12 -6 163.18 11.1
-4 12 -6 171.48 10.1
4 -12 6 146.99 10.3
4 -12 6 139.99 10
-5 12 -6 8.9 3.6
-5 12 -6 10.3 4.4
5 -12 6 14 4.1
5 -12 6 14.6 3.8
11 11 -6 201.38 27.3
11 11 -6 189.98 23.8
-11 -11 6 195.48 25.3
-11 -11 6 167.18 25.2
10 11 -6 30 13.6
10 11 -6 27.7 15.2
-10 -11 6 52.49 15
-10 -11 6 48.4 15.2
9 11 -6 270.97 23.4
9 11 -6 249.28 24.3
-9 -11 6 272.47 23.8
-9 -11 6 250.97 23.5
8 11 -6 233.28 20.8
8 11 -6 216.18 21.8
-8 -11 6 200.78 20.1
-8 -11 6 200.38 20.2
7 11 -6 318.37 23.5
7 11 -6 306.27 24.3
-7 -11 6 342.37 23.6
-7 -11 6 342.87 23.4
6 11 -6 475.85 28.7
6 11 -6 465.65 27.6
-6 -11 6 500.15 28.1
-6 -11 6 507.05 27.6
5 11 -6 278.17 19.3
5 11 -6 251.07 20.1
-5 -11 6 285.07 19.6
-5 -11 6 272.07 19
4 11 -6 323.07 21.2
4 11 -6 344.57 20.4
-4 -11 6 316.67 20
-4 -11 6 320.27 20.5
3 11 -6 947.91 44.2
3 11 -6 934.11 44.8
-3 -11 6 1013.4 44.7
-3 -11 6 995.1 44.4
2 11 -6 1805.42 77.29
2 11 -6 1781.82 77.69
-2 -11 6 1867.21 77.49
-2 -11 6 1817.22 77.29
1 11 -6 863.51 39.5
1 11 -6 879.41 39
-1 -11 6 842.22 39.1
-1 -11 6 855.41 39
0 11 -6 432.26 21.4
0 11 -6 414.36 20.5
0 -11 6 388.96 20.7
0 -11 6 356.66 20.2
-1 11 -6 222.78 14.3
-1 11 -6 211.88 13.4
1 -11 6 223.88 13.5
1 -11 6 229.78 13.7
-2 11 -6 341.67 18
-2 11 -6 348.37 17.4
2 -11 6 338.77 17.5
2 -11 6 344.07 17.6
-3 11 -6 28.5 5.7
-3 11 -6 31.9 5.2
3 -11 6 43.3 5.7
3 -11 6 41.5 5.8
-4 11 -6 117.79 9.3
-4 11 -6 135.29 8.6
4 -11 6 150.18 8.8
4 -11 6 141.59 8.9
-5 11 -6 89.49 6.8
-5 11 -6 93.49 6
5 -11 6 89.79 6.3
5 -11 6 83.79 6.1
12 10 -6 10.3 14.4
12 10 -6 3.1 13.6
-12 -10 6 -1.3 14.5
-12 -10 6 4 12.8
11 10 -6 54.59 14.1
11 10 -6 35.4 14
-11 -10 6 40.4 13.4
-11 -10 6 63.29 15.2
10 10 -6 183.48 22.9
10 10 -6 175.28 20.2
-10 -10 6 224.48 21.7
-10 -10 6 180.48 21.3
9 10 -6 43.4 12.9
9 10 -6 53.29 13
-9 -10 6 48 12.8
-9 -10 6 49.4 12.1
8 10 -6 40.7 11.6
8 10 -6 54.69 11.4
-8 -10 6 55.59 11.4
-8 -10 6 63.09 11.7
7 10 -6 233.78 19.8
7 10 -6 239.58 20.5
-7 -10 6 308.87 20.6
-7 -10 6 313.37 20.9
6 10 -6 423.06 24.4
6 10 -6 432.76 25.1
-6 -10 6 411.26 24.6
-6 -10 6 422.66 24.2
5 10 -6 615.94 30.7
5 10 -6 624.74 31.3
-5 -10 6 587.44 30.4
-5 -10 6 600.94 30.8
4 10 -6 29.9 8.3
4 10 -6 23.6 7.5
-4 -10 6 20.9 6.9
-4 -10 6 13.1 6.6
3 10 -6 616.94 29.5
3 10 -6 617.24 30
-3 -10 6 595.04 29.3
-3 -10 6 590.04 29.5
2 10 -6 1291.57 55.79
2 10 -6 1319.47 55.39
-2 -10 6 1222.28 55.19
-2 -10 6 1278.17 55.59
1 10 -6 485.25 23.2
1 10 -6 480.05 22.7
-1 -10 6 425.16 22.6
-1 -10 6 424.66 22.4
0 10 -6 283.87 16.1
0 10 -6 306.87 15.6
0 -10 6 267.17 15.2
0 -10 6 256.67 15.5
-1 10 -6 529.25 26
-1 10 -6 540.15 26.5
1 -10 6 614.14 26.5
1 -10 6 606.24 26.3
-2 10 -6 1095.49 45.8
-2 10 -6 1080.29 46.2
2 -10 6 1080.99 45.9
2 -10 6 1075.09 46
-3 10 -6 298.77 13.9
-3 10 -6 294.87 14.6
3 -10 6 246.08 13.5
3 -10 6 250.67 13.8
-4 10 -6 331.77 15.3
-4 10 -6 331.47 15.8
4 -10 6 338.27 15.4
4 -10 6 345.47 15.6
12 9 -6 503.65 34.1
12 9 -6 510.45 32
-12 -9 6 470.35 32.6
-12 -9 6 496.65 32.7
11 9 -6 168.58 23.1
11 9 -6 177.28 20.7
-11 -9 6 225.08 21.7
-11 -9 6 225.08 22.4
10 9 -6 143.29 17.7
10 9 -6 152.48 20.3
-10 -9 6 153.68 18.6
-10 -9 6 141.19 18.7
9 9 -6 49.8 10.7
9 9 -6 74.29 11.8
-9 -9 6 55.69 10.5
-9 -9 6 60.79 11.5
8 9 -6 70.19 10.1
8 9 -6 75.39 11.9
-8 -9 6 55.99 9.7
-8 -9 6 81.99 11.8
7 9 -6 114.69 14.7
7 9 -6 127.59 14.2
-7 -9 6 118.89 14.4
-7 -9 6 121.09 14
6 9 -6 19.8 7.4
6 9 -6 32.7 9
-6 -9 6 28.9 8.3
-6 -9 6 22.1 7.3
5 9 -6 145.39 13.4
5 9 -6 138.99 12.7
-5 -9 6 124.19 12.6
-5 -9 6 133.29 13
4 9 -6 27.8 7
4 9 -6 44.8 7.9
-4 -9 6 42.7 8
-4 -9 6 34.6 6.9
3 9 -6 8.2 4.9
3 9 -6 12.5 6
-3 -9 6 8.1 5
-3 -9 6 8.8 5.8
2 9 -6 527.55 24.3
2 9 -6 538.15 24.9
-2 -9 6 463.15 23.9
-2 -9 6 469.95 24.2
1 9 -6 585.94 27.3
1 9 -6 570.14 26.9
-1 -9 6 581.04 26.9
-1 -9 6 585.84 27.2
0 9 -6 50.19 6.9
0 9 -6 56.79 7.6
0 -9 6 58.59 7.2
0 -9 6 49.6 7.1
-1 9 -6 143.79 9.9
-1 9 -6 141.19 10.2
1 -9 6 191.98 10.5
1 -9 6 180.78 10.4
-2 9 -6 618.84 28.1
-2 9 -6 619.94 28.4
2 -9 6 656.83 28.2
2 -9 6 683.63 28.4
-3 9 -6 592.04 27.4
-3 9 -6 584.74 27.7
3 -9 6 684.73 27.7
3 -9 6 710.83 27.9
-4 9 -6 833.22 36.5
-4 9 -6 844.02 36.3
4 -9 6 926.21 36.5
4 -9 6 908.61 36.4
13 8 -6 706.13 40.8
13 8 -6 696.93 38.8
-13 -8 6 667.63 39.8
-13 -8 6 676.63 39.7
12 8 -6 509.95 33.5
12 8 -6 539.65 32
-12 -8 6 511.25 33
-12 -8 6 534.55 32.7
11 8 -6 677.33 38.1
11 8 -6 662.43 36.6
-11 -8 6 734.23 37.6
-11 -8 6 696.43 37.4
10 8 -6 276.87 21
10 8 -6 284.57 22.7
-10 -8 6 280.57 21.5
-10 -8 6 271.17 21.6
9 8 -6 76.49 12.1
9 8 -6 70.59 12.8
-9 -8 6 101.09 14.5
-9 -8 6 100.69 13.1
8 8 -6 963.7 48
8 8 -6 993.4 47.6
-8 -8 6 1071.79 48.1
-8 -8 6 1138.99 48.7
7 8 -6 584.94 30.2
7 8 -6 596.04 30.8
-7 -8 6 599.74 30.3
-7 -8 6 628.04 30.7
6 8 -6 125.99 11.8
6 8 -6 120.49 12.9
-6 -8 6 107.39 11.7
-6 -8 6 100.99 12.3
5 8 -6 142.59 12.5
5 8 -6 155.28 12.1
-5 -8 6 138.09 12.2
-5 -8 6 147.59 12.2
4 8 -6 39.5 6.3
4 8 -6 50.29 8.1
-4 -8 6 45 6.6
-4 -8 6 54.39 8
3 8 -6 298.97 17.1
3 8 -6 310.27 16.8
-3 -8 6 304.27 16.9
-3 -8 6 310.67 16.8
2 8 -6 20.2 5.2
2 8 -6 21.8 5.3
-2 -8 6 14.1 4.6
-2 -8 6 19.3 5
1 8 -6 190.58 11.6
1 8 -6 191.58 11.9
-1 -8 6 199.88 11.8
-1 -8 6 186.88 11.6
0 8 -6 229.48 12.3
0 8 -6 230.28 12.6
0 -8 6 212.18 12.2
0 -8 6 223.28 12.4
-1 8 -6 312.07 14.8
-1 8 -6 305.67 14.5
1 -8 6 277.27 14.4
1 -8 6 274.27 14.4
-2 8 -6 413.86 18.7
-2 8 -6 429.16 19
2 -8 6 408.46 18.9
2 -8 6 411.76 18.7
-3 8 -6 739.53 30.7
-3 8 -6 745.03 31
3 -8 6 718.33 30.8
3 -8 6 722.23 30.8
-4 8 -6 40.2 3.9
-4 8 -6 33.1 4.1
4 -8 6 38.4 4
4 -8 6 43.6 3.9
14 7 -6 16.6 12.9
14 7 -6 15.2 15
-14 -7 6 34.6 15.1
-14 -7 6 17 13.2
13 7 -6 6 13.5
13 7 -6 16.2 10.7
-13 -7 6 24.5 11.7
-13 -7 6 55.69 14.8
12 7 -6 213.88 21.1
12 7 -6 237.88 23
-12 -7 6 245.68 21.7
-12 -7 6 235.48 22.3
11 7 -6 224.38 20.6
11 7 -6 221.38 19.5
-11 -7 6 210.68 19.6
-11 -7 6 210.28 20.1
10 7 -6 52.19 11
10 7 -6 63.89 10.3
-10 -7 6 42.5 9.9
-10 -7 6 71.49 12.3
9 7 -6 958.9 46
9 7 -6 932.21 46.3
-9 -7 6 1046.4 46.7
-9 -7 6 1047.6 46.7
8 7 -6 1773.42 78.79
8 7 -6 1725.03 78.89
-8 -7 6 1920.31 79.39
-8 -7 6 1947.21 79.39
7 7 -6 1368.56 60.59
7 7 -6 1419.16 60.39
-7 -7 6 1377.96 60.39
-7 -7 6 1365.46 60.49
6 7 -6 284.17 17
6 7 -6 302.87 16.8
-6 -7 6 244.28 16.4
-6 -7 6 239.38 16.2
5 7 -6 158.28 11.6
5 7 -6 150.38 12.2
-5 -7 6 154.68 11.7
-5 -7 6 141.89 11.8
4 7 -6 40.8 6.7
4 7 -6 36.8 6.2
3 7 -6 1057.79 42.5
3 7 -6 1014.2 42.7
-3 -7 6 899.71 42.1
-3 -7 6 909.31 42.1
2 7 -6 868.11 35.9
2 7 -6 859.61 35.5
-2 -7 6 734.53 35
-2 -7 6 749.23 35.5
1 7 -6 182.08 11.2
-1 -7 6 202.38 12
-1 -7 6 206.38 11.4
0 7 -6 352.96 17.6
0 7 -6 371.46 17.4
0 -7 6 357.26 17.2
0 -7 6 375.16 17.7
-1 7 -6 2029.5 85.09
-1 7 -6 2041.3 85.29
1 -7 6 2079.79 85.09
1 -7 6 2194.18 85.39
-2 7 -6 819.42 34.3
-2 7 -6 806.12 34
2 -7 6 831.92 34.2
2 -7 6 788.42 34.1
-3 7 -6 378.56 16.6
-3 7 -6 379.06 16.8
3 -7 6 375.16 16.6
3 -7 6 373.96 16.6
-4 7 -6 173.48 8.6
-4 7 -6 183.28 8.5
4 -7 6 182.88 8.7
4 -7 6 182.48 8.6
14 6 -6 134.89 20.4
14 6 -6 120.29 17
-14 -6 6 146.79 18.2
-14 -6 6 148.49 22
13 6 -6 70.79 13
13 6 -6 51.29 13.1
-13 -6 6 62.49 13.5
-13 -6 6 59.79 12.7
12 6 -6 151.88 17.2
12 6 -6 141.79 18.6
-12 -6 6 155.88 18.2
-12 -6 6 142.29 18.7
11 6 -6 115.29 14.8
11 6 -6 117.49 16.2
-11 -6 6 118.79 16
-11 -6 6 120.89 15.7
10 6 -6 4.7 7.8
10 6 -6 3.1 7.3
-10 -6 6 1.7 6.5
-10 -6 6 -3.9 8
9 6 -6 670.43 31.7
9 6 -6 661.93 31.9
-9 -6 6 589.44 31.4
-9 -6 6 584.94 31.1
8 6 -6 881.51 39.2
8 6 -6 871.51 39.5
-8 -6 6 813.32 39
-8 -6 6 784.22 38.8
7 6 -6 781.72 35.6
7 6 -6 793.22 35.3
-7 -6 6 712.83 35
-7 -6 6 732.73 35.1
6 6 -6 35.2 6.3
6 6 -6 46.1 7
-6 -6 6 36.1 6.2
-6 -6 6 43.4 7.1
5 6 -6 484.45 23.7
5 6 -6 507.05 23.5
-5 -6 6 453.65 23.3
-5 -6 6 467.35 23.5
4 6 -6 1640.64 67.99
4 6 -6 1691.53 67.79
-4 -6 6 1540.05 67.49
-4 -6 6 1561.34 67.89
3 6 -6 1739.63 70.09
3 6 -6 1767.82 70.39
-3 -6 6 1627.54 69.99
-3 -6 6 1576.34 69.89
2 6 -6 1532.55 64.29
2 6 -6 1535.95 64.49
-2 -6 6 1582.14 64.39
-2 -6 6 1525.65 64.39
1 6 -6 1045 44.7
1 6 -6 1051.39 44.9
-1 -6 6 1053.49 44.8
-1 -6 6 1083.99 44.8
0 6 -6 323.67 13.9
0 6 -6 313.67 14.2
0 -6 6 246.38 13.5
0 -6 6 246.38 13.7
-1 6 -6 4601.84 185.48
-1 6 -6 4612.54 185.68
1 -6 6 4674.73 185.58
1 -6 6 4553.14 185.58
-2 6 -6 1305.87 54.29
-2 6 -6 1298.57 54.39
2 -6 6 1383.76 54.39
2 -6 6 1303.67 54.29
-3 6 -6 125.19 7.2
-3 6 -6 119.99 6.8
3 -6 6 135.59 7.2
3 -6 6 129.89 7.1
-4 6 -6 30.8 3.8
4 -6 6 29.2 3.7
4 -6 6 30.5 3.2
-5 6 -6 93.99 5.8
-5 6 -6 86.69 5.5
5 -6 6 105.09 5.5
5 -6 6 108.39 5.6
-6 6 -6 17.6 2.4
-6 6 -6 23.5 2.7
6 -6 6 21.5 2.4
-10 6 -6 22.2 3.5
-10 6 -6 15.8 3.3
10 -6 6 28.9 4.1
10 -6 6 30.5 3.3
-11 6 -6 114.99 7.6
-11 6 -6 99.99 7.3
11 -6 6 128.79 7
-12 6 -6 104.59 7.9
-12 6 -6 101.49 7.7
12 -6 6 114.59 7.4
-13 6 -6 20.2 4.7
-13 6 -6 18.9 4.7
13 -6 6 20.5 4.2
13 -6 6 20.9 4.4
14 5 -6 147.59 19.2
-14 -5 6 146.89 20.6
-14 -5 6 137.09 20.3
13 5 -6 28 9.5
13 5 -6 29.9 10.7
-13 -5 6 57.59 11.6
-13 -5 6 56.79 12.6
12 5 -6 119.79 17.1
12 5 -6 140.49 16
-12 -5 6 160.28 17.5
-12 -5 6 160.48 17.1
11 5 -6 50.79 9.4
11 5 -6 45.8 9.2
-11 -5 6 55.79 9.7
-11 -5 6 47.9 9.3
10 5 -6 2.6 7.2
10 5 -6 5.8 6.8
-10 -5 6 6.7 8
-10 -5 6 8.8 7
9 5 -6 47.8 8.9
9 5 -6 55.09 8.8
-9 -5 6 42.6 8.4
-9 -5 6 46.4 9
8 5 -6 178.78 13.9
8 5 -6 182.88 13.2
-8 -5 6 176.68 13.8
-8 -5 6 172.08 13.5
7 5 -6 198.78 13.9
7 5 -6 206.28 13.5
-7 -5 6 211.98 14
-7 -5 6 199.48 13.7
6 5 -6 183.28 12.9
6 5 -6 186.28 12.4
-6 -5 6 198.18 12.9
-6 -5 6 205.68 13.1
5 5 -6 497.05 23.2
5 5 -6 496.45 24.1
-5 -5 6 493.35 23.4
-5 -5 6 447.76 23.7
4 5 -6 1883.21 74.89
4 5 -6 1842.52 75.09
-4 -5 6 1724.63 74.79
-4 -5 6 1735.53 74.79
3 5 -6 865.31 39.4
3 5 -6 875.21 38.9
-3 -5 6 921.81 39
-3 -5 6 952.5 39.6
2 5 -6 314.37 16.1
2 5 -6 311.37 15.8
-2 -5 6 352.46 16.3
-2 -5 6 336.57 16.1
1 5 -6 96.19 7.1
1 5 -6 95.79 6.6
-1 -5 6 79.29 6.5
-1 -5 6 85.39 7
0 5 -6 1999.5 79.09
0 5 -6 2036.2 79.39
0 -5 6 1837.72 79.09
0 -5 6 1875.41 79.19
-1 5 -6 5718.83 224.88
-1 5 -6 5744.33 224.98
1 -5 6 5614.74 224.88
1 -5 6 5321.27 224.88
-2 5 -6 1013.9 41.2
-2 5 -6 985.8 41
2 -5 6 974.8 41.1
2 -5 6 989.5 41.1
-3 5 -6 87.99 5.9
3 -5 6 98.59 6
3 -5 6 99.59 6.1
-4 5 -6 189.48 9.7
-4 5 -6 196.08 10.2
4 -5 6 202.28 9.6
4 -5 6 202.58 9.7
-5 5 -6 1300.07 54.29
-5 5 -6 1275.67 54.09
5 -5 6 1356.36 54.09
5 -5 6 1361.26 54.09
-6 5 -6 1039.3 43.7
-6 5 -6 1035.5 43.5
6 -5 6 1075.69 43.4
6 -5 6 1073.79 43.6
-7 5 -6 258.87 12.1
-7 5 -6 261.17 12
7 -5 6 233.98 11.7
7 -5 6 237.98 11.6
-8 5 -6 9.5 3.5
-8 5 -6 9.7 3.5
8 -5 6 6.3 3
8 -5 6 10 3.2
-9 5 -6 281.47 13.7
-9 5 -6 257.57 13.6
9 -5 6 285.47 13.4
-10 5 -6 81.09 7.3
-10 5 -6 77.19 7.4
10 -5 6 67.39 7
-11 5 -6 73.39 7.9
-11 5 -6 69.89 7.7
11 -5 6 57.39 7.4
-12 5 -6 3.6 5
-12 5 -6 8.5 5.2
12 -5 6 5.5 4.7
-13 5 -6 5.7 5.6
-13 5 -6 7.3 5.8
13 -5 6 9.8 5.3
15 4 -6 88.99 16.8
15 4 -6 53.59 14.4
-15 -4 6 90.79 15.1
-15 -4 6 89.39 15.1
14 4 -6 607.54 34.2
14 4 -6 549.15 34.6
-14 -4 6 664.73 34.8
-14 -4 6 641.34 34.7
13 4 -6 507.25 27.7
13 4 -6 477.65 28.5
-13 -4 6 437.46 27.6
-13 -4 6 432.56 27.4
12 4 -6 253.27 19
12 4 -6 213.28 17.5
-12 -4 6 199.68 18.1
-12 -4 6 196.98 17.8
11 4 -6 251.27 17.5
11 4 -6 252.47 18.2
-11 -4 6 242.58 17.9
-11 -4 6 233.38 17.7
10 4 -6 323.57 19.6
10 4 -6 328.27 19.9
-10 -4 6 335.67 19.7
-10 -4 6 310.57 19.9
9 4 -6 486.85 25.6
9 4 -6 496.45 25.1
-9 -4 6 514.95 25.6
-9 -4 6 475.85 25.2
8 4 -6 54.29 8.1
8 4 -6 43.3 7.4
-8 -4 6 75.29 9.6
7 4 -6 388.36 20.1
7 4 -6 394.26 20.6
-7 -4 6 390.86 20.3
-7 -4 6 399.46 20.5
6 4 -6 72.99 8.6
6 4 -6 80.79 8.1
-6 -4 6 78.19 8.3
-6 -4 6 66.59 8.4
5 4 -6 1010.2 43.8
5 4 -6 1004.5 44
-5 -4 6 1021.4 43.9
-5 -4 6 1026.8 44
4 4 -6 701.03 32.3
4 4 -6 712.53 31.9
-4 -4 6 734.23 32.4
-4 -4 6 756.92 32.2
3 4 -6 409.86 20.6
3 4 -6 432.36 20.5
-3 -4 6 469.95 20.9
-3 -4 6 470.35 20.8
2 4 -6 344.67 16.7
2 4 -6 351.16 16.5
-2 -4 6 344.27 16.6
-2 -4 6 361.56 16.8
1 4 -6 579.74 26.4
1 4 -6 589.74 26.3
-1 -4 6 622.84 26.5
-1 -4 6 634.64 26.6
0 4 -6 514.45 22.8
0 4 -6 522.75 22.9
0 -4 6 505.65 22.8
0 -4 6 537.75 22.8
-1 4 -6 2740.63 106.59
-1 4 -6 2764.42 106.39
1 -4 6 2479.05 106.39
1 -4 6 2524.35 106.29
-2 4 -6 2938.21 116.19
-2 4 -6 2982.7 115.99
2 -4 6 2783.82 115.99
2 -4 6 2784.42 116.09
-3 4 -6 222.28 10.6
3 -4 6 203.88 10.4
3 -4 6 207.18 10.4
-4 4 -6 916.31 38.3
-4 4 -6 903.41 38
4 -4 6 915.41 37.8
4 -4 6 891.71 37.9
-5 4 -6 2957.4 118.39
-5 4 -6 2878.61 118.19
5 -4 6 2888.61 118.19
5 -4 6 2962.8 117.99
-6 4 -6 2783.32 113.79
-6 4 -6 2773.92 113.89
6 -4 6 2867.71 113.49
6 -4 6 2802.52 113.69
-7 4 -6 526.65 23.4
-7 4 -6 530.75 23.5
7 -4 6 519.15 23.3
-8 4 -6 530.65 23.7
-8 4 -6 529.35 23.6
8 -4 6 503.75 23.3
-9 4 -6 273.27 14.1
-9 4 -6 269.17 14
9 -4 6 244.18 13.6
-10 4 -6 326.27 16.6
-10 4 -6 342.97 17
10 -4 6 295.67 16.2
-11 4 -6 58.79 8.6
-11 4 -6 61.69 9.2
11 -4 6 59.89 8.4
-12 4 -6 84.89 10.3
-12 4 -6 76.89 9.9
12 -4 6 81.79 9.9
-13 4 -6 -1.7 6.4
-13 4 -6 -0.1 6.1
13 -4 6 4 6.4
15 3 -6 95.79 14.4
15 3 -6 108.69 15.4
-15 -3 6 110.89 14.7
-15 -3 6 70.99 12.8
14 3 -6 268.67 21.2
14 3 -6 283.67 22.7
-14 -3 6 276.67 22
-14 -3 6 281.07 22
13 3 -6 309.27 20.5
13 3 -6 281.07 21.4
-13 -3 6 258.37 20.5
-13 -3 6 274.07 20.5
12 3 -6 254.87 18.2
12 3 -6 250.57 18.6
-12 -3 6 238.08 18.3
-12 -3 6 243.88 18
11 3 -6 31 8.2
11 3 -6 30.1 8.4
-11 -3 6 38.4 9
-11 -3 6 39 8.5
10 3 -6 123.99 12.3
10 3 -6 122.49 11.9
-10 -3 6 92.99 11.3
9 3 -6 370.56 21
9 3 -6 356.66 21.2
-9 -3 6 457.35 21.9
-9 -3 6 420.46 21.6
8 3 -6 909.51 41.1
8 3 -6 946.91 40.9
-8 -3 6 913.11 41
-8 -3 6 898.51 41
7 3 -6 1259.27 54.39
7 3 -6 1299.97 54.19
-7 -3 6 1263.27 54.29
-7 -3 6 1231.08 54.29
6 3 -6 688.13 32.6
6 3 -6 692.43 32.3
-6 -3 6 751.02 32.7
-6 -3 6 772.42 32.9
5 3 -6 402.26 18.7
5 3 -6 407.66 18.2
-5 -3 6 329.77 18.2
-5 -3 6 339.07 18
4 3 -6 517.85 21.6
4 3 -6 528.85 22
-4 -3 6 406.06 21.3
-4 -3 6 407.96 21.2
3 3 -6 1026.7 44.2
3 3 -6 1017.9 44.5
-3 -3 6 1082.29 44.6
-3 -3 6 1074.29 44.5
2 3 -6 2238.48 92.69
2 3 -6 2310.47 92.69
-2 -3 6 2279.07 92.69
-2 -3 6 2250.67 92.79
1 3 -6 826.52 34.6
1 3 -6 780.12 34.5
-1 -3 6 808.62 34.6
-1 -3 6 834.22 34.6
0 3 -6 931.61 40.2
0 3 -6 948.41 40.5
0 -3 6 995 40.4
0 -3 6 973.7 40.4
-1 3 -6 794.32 34
-1 3 -6 789.22 34.2
1 -3 6 822.52 34.2
1 -3 6 827.92 34.3
-2 3 -6 164.78 9.3
2 -3 6 180.98 9.3
2 -3 6 173.28 9.4
-3 3 -6 83.29 6.4
-3 3 -6 84.89 6.9
3 -3 6 75.59 5.9
3 -3 6 78.39 6.1
-4 3 -6 805.02 34.4
-4 3 -6 811.62 34.6
4 -3 6 790.42 34.2
4 -3 6 803.22 34
-5 3 -6 1259.87 52.79
-5 3 -6 1283.77 53.09
5 -3 6 1264.07 52.79
-6 3 -6 1502.35 63.49
-6 3 -6 1543.55 63.79
6 -3 6 1554.44 63.59
-7 3 -6 141.49 9.7
-7 3 -6 147.59 10.1
7 -3 6 165.58 9.9
-8 3 -6 361.56 17.9
-8 3 -6 362.86 18.2
8 -3 6 359.76 17.8
-9 3 -6 342.57 17.2
-9 3 -6 332.27 16.9
9 -3 6 316.97 16.7
9 -3 6 298.47 17.6
-10 3 -6 488.95 25
-10 3 -6 509.35 25.4
10 -3 6 552.94 26.3
10 -3 6 579.24 25.5
-11 3 -6 648.64 31.4
-11 3 -6 647.94 31
11 -3 6 696.23 31.1
11 -3 6 690.63 32.2
-12 3 -6 31.9 7.3
-12 3 -6 29.2 7.5
12 -3 6 38.7 7.5
12 -3 6 20.8 8
-13 3 -6 148.89 14.6
-13 3 -6 123.69 13.4
13 -3 6 167.48 16.4
13 -3 6 153.08 13.8
15 2 -6 138.39 16.7
15 2 -6 83.49 13.9
-15 -2 6 97.39 14
-15 -2 6 90.69 13.6
14 2 -6 26.8 10.2
14 2 -6 26.4 9.2
-14 -2 6 11.4 8.9
-14 -2 6 16.2 9
13 2 -6 256.67 19.9
13 2 -6 251.17 18.8
-13 -2 6 294.07 19.7
-13 -2 6 293.77 19.9
12 2 -6 76.29 10.9
12 2 -6 77.69 10.2
-12 -2 6 73.49 10
-12 -2 6 69.89 9.8
11 2 -6 442.06 23.8
11 2 -6 427.16 23.2
-11 -2 6 435.26 23.8
-11 -2 6 446.46 23.6
10 2 -6 527.15 27.5
10 2 -6 539.25 26.9
-10 -2 6 567.34 27.4
-10 -2 6 561.84 27.6
9 2 -6 1116.69 51.29
9 2 -6 1097.49 50.89
-9 -2 6 1235.78 51.59
-9 -2 6 1259.07 51.59
8 2 -6 1595.94 65.39
8 2 -6 1540.15 65.59
-8 -2 6 1510.25 65.49
-8 -2 6 1525.85 65.39
7 2 -6 601.04 27.8
7 2 -6 582.94 27.3
-7 -2 6 593.54 27.6
-7 -2 6 603.34 27.8
6 2 -6 2932.41 122.89
6 2 -6 2953 122.59
-6 -2 6 3038.1 122.89
-6 -2 6 3085.99 122.99
5 2 -6 6732.23 274.77
5 2 -6 6873.41 274.47
-5 -2 6 6806.82 274.67
-5 -2 6 6861.91 274.67
4 2 -6 2481.95 101.49
4 2 -6 2566.94 101.39
-4 -2 6 2471.05 101.59
-4 -2 6 2396.26 101.39
3 2 -6 1645.44 70.89
3 2 -6 1688.73 70.99
-3 -2 6 1781.62 70.99
-3 -2 6 1762.22 71.19
2 2 -6 1066.99 46.3
2 2 -6 1099.89 46.2
-2 -2 6 1098.79 46.2
-2 -2 6 1143.79 46.5
1 2 -6 258.47 13.6
1 2 -6 255.07 13.4
-1 -2 6 299.37 13.8
-1 -2 6 305.37 13.8
0 2 -6 504.65 24
0 2 -6 496.65 24.2
0 -2 6 621.74 24.7
0 -2 6 597.54 24.5
-1 2 -6 289.17 15
1 -2 6 335.57 15.2
1 -2 6 329.87 15
-2 2 -6 440.06 20.1
2 -2 6 442.96 20
2 -2 6 445.56 19.8
-3 2 -6 476.15 22.2
-3 2 -6 479.25 21.8
3 -2 6 485.05 21.8
3 -2 6 489.45 21.5
-4 2 -6 58.49 7.3
-4 2 -6 59.69 6.8
4 -2 6 65.39 6.5
-5 2 -6 32.4 4.9
-5 2 -6 34.6 5.4
5 -2 6 34.8 5
-6 2 -6 44.1 6.6
-6 2 -6 59.39 7
6 -2 6 64.09 7.2
-7 2 -6 18 4.8
-7 2 -6 18.2 5.2
7 -2 6 15.8 4.7
7 -2 6 18 5.4
-8 2 -6 308.57 17.2
-8 2 -6 308.27 16.7
8 -2 6 316.37 17.5
8 -2 6 326.77 16.8
-9 2 -6 90.59 10.2
-9 2 -6 105.19 10
9 -2 6 124.89 10.1
9 -2 6 120.99 11.5
-10 2 -6 253.17 17
-10 2 -6 268.07 16.7
10 -2 6 326.77 17.3
10 -2 6 319.17 18.3
-11 2 -6 373.06 20.7
-11 2 -6 381.36 21.3
11 -2 6 388.96 20.9
11 -2 6 372.36 22.1
-12 2 -6 2 7
-12 2 -6 4.3 6.6
12 -2 6 11.8 7
12 -2 6 7.6 8.1
-13 2 -6 137.69 14.3
-13 2 -6 151.08 15.9
13 -2 6 150.38 17.5
13 -2 6 145.29 17.3
15 1 -6 51.09 11.5
15 1 -6 59.59 12.5
-15 -1 6 43.6 10.5
-15 -1 6 72.59 12.4
14 1 -6 51.19 11.2
14 1 -6 58.59 10.3
-14 -1 6 42.9 9.8
-14 -1 6 67.39 11.5
13 1 -6 44.9 9.9
13 1 -6 48.6 9.1
-13 -1 6 38.9 8.9
-13 -1 6 52.69 9.7
12 1 -6 230.38 16.8
12 1 -6 239.58 16.2
-12 -1 6 236.08 16.9
-12 -1 6 236.98 16.7
11 1 -6 519.25 25.4
11 1 -6 515.15 26
-11 -1 6 487.45 25.6
-11 -1 6 483.85 25.6
10 1 -6 558.74 28.6
10 1 -6 554.94 27.9
-10 -1 6 611.84 29
-10 -1 6 632.14 28.8
9 1 -6 485.95 25.6
9 1 -6 498.25 25.1
-9 -1 6 561.74 25.8
-9 -1 6 564.84 25.9
8 1 -6 247.68 13.4
8 1 -6 232.08 14
-8 -1 6 192.98 13.2
-8 -1 6 205.18 13.6
7 1 -6 55.29 7
7 1 -6 37.6 5.4
-7 -1 6 40.6 6.3
-7 -1 6 36.3 5.6
6 1 -6 415.36 20.7
6 1 -6 407.26 20.3
-6 -1 6 441.36 20.8
-6 -1 6 458.75 20.9
5 1 -6 4730.73 194.08
5 1 -6 4771.12 194.28
-5 -1 6 4828.32 194.28
-5 -1 6 4878.01 194.38
4 1 -6 3185.18 127.89
4 1 -6 3211.08 127.99
-4 -1 6 3108.19 127.89
-4 -1 6 3072.79 127.99
3 1 -6 41.7 5.3
3 1 -6 36.9 5.5
-3 -1 6 60.39 5.8
2 1 -6 380.96 18.9
2 1 -6 398.36 19.4
-2 -1 6 445.46 19.5
-2 -1 6 453.35 19.5
1 1 -6 942.91 42.8
1 1 -6 933.71 42.5
-1 -1 6 1099.39 43
-1 -1 6 1090.89 43.1
0 1 -6 1993 84.29
0 -1 6 2081.49 84.39
0 -1 6 2098.19 84.19
-1 1 -6 423.76 19.6
1 -1 6 424.86 19.4
1 -1 6 412.46 19.1
-2 1 -6 81.79 7.2
-2 1 -6 81.89 7.8
2 -1 6 82.39 7.1
2 -1 6 95.29 6.9
-3 1 -6 396.86 18.7
-3 1 -6 404.16 18.2
3 -1 6 326.37 17.8
-4 1 -6 925.21 41
-4 1 -6 964.9 41.5
4 -1 6 978.5 41.2
-5 1 -6 1041.7 45.4
-5 1 -6 1079.99 45.9
5 -1 6 1066.89 45.6
-6 1 -6 648.94 30.3
-6 1 -6 680.93 30
6 -1 6 654.83 30.6
6 -1 6 657.53 30
-7 1 -6 94.89 9.2
-7 1 -6 102.89 10
7 -1 6 100.09 9.4
7 -1 6 98.09 10.3
-8 1 -6 116.49 10.9
-8 1 -6 103.79 10
8 -1 6 103.39 11.3
8 -1 6 110.89 10.1
-9 1 -6 12.6 5.9
-9 1 -6 13.4 5.7
9 -1 6 7.3 6.5
9 -1 6 13.8 5.8
-10 1 -6 73.79 11.2
-10 1 -6 57.89 8.5
10 -1 6 102.79 11.6
10 -1 6 84.49 10.9
-11 1 -6 41.4 8.6
-11 1 -6 38.2 8.2
11 -1 6 52.09 10.1
11 -1 6 53.39 8.9
-12 1 -6 20.9 8
-12 1 -6 24.2 8.6
12 -1 6 25.3 9.7
12 -1 6 19.2 7.8
-13 1 -6 122.79 15.8
-13 1 -6 104.59 14.3
13 -1 6 88.69 13.6
13 -1 6 77.79 12.8
15 0 -6 65.09 12.4
15 0 -6 88.19 13.1
-15 0 6 57.59 11
-15 0 6 59.79 10.9
14 0 -6 601.24 30.9
14 0 -6 601.34 32
-14 0 6 607.04 31.7
-14 0 6 627.44 31.9
13 0 -6 139.99 15
13 0 -6 146.89 13.9
-13 0 6 164.38 15.3
-13 0 6 181.48 15.2
12 0 -6 18.9 7.2
12 0 -6 20.4 6.4
-12 0 6 23.7 7.4
-12 0 6 22.5 7.5
11 0 -6 13.1 6.4
11 0 -6 16.5 6.3
-11 0 6 10.8 6.2
-11 0 6 6.8 6
10 0 -6 27 6.2
10 0 -6 23.7 7.1
-10 0 6 13.9 6.5
-10 0 6 18.6 6.2
9 0 -6 60.99 9.2
9 0 -6 62.19 8.2
-9 0 6 66.89 9.1
-9 0 6 67.09 8.9
8 0 -6 330.57 17.8
8 0 -6 342.37 17.4
-8 0 6 340.07 17.8
-8 0 6 325.47 17.7
7 0 -6 157.78 10.3
7 0 -6 166.78 11
-7 0 6 143.99 10.4
-7 0 6 145.99 10.7
6 0 -6 190.18 11.9
6 0 -6 200.48 11.6
-6 0 6 203.28 11.9
-6 0 6 209.38 12.1
5 0 -6 637.84 27.4
5 0 -6 620.04 27.2
-5 0 6 590.04 27.3
-5 0 6 576.54 27.1
4 0 -6 1557.54 64.49
4 0 -6 1609.74 64.29
-4 0 6 1486.35 64.29
-4 0 6 1523.75 64.29
3 0 -6 213.38 11.5
3 0 -6 220.38 12.1
-3 0 6 207.78 11.8
-3 0 6 231.08 12.1
2 0 -6 812.22 35.1
2 0 -6 798.62 34.7
-2 0 6 800.72 35
-2 0 6 834.82 35.2
1 0 -6 1156.58 49.6
-1 0 6 1184.98 49.6
-1 0 6 1188.38 49.3
0 0 -6 3187.08 125.69
0 0 6 3021.6 125.49
0 0 6 3042.9 125.19
-1 0 -6 329.57 17.6
-1 0 -6 336.97 18.2
1 0 6 397.56 17.9
1 0 6 399.16 17.6
-2 0 -6 1788.32 73.99
-2 0 -6 1811.62 73.59
2 0 6 1709.03 73.39
-3 0 -6 1395.96 57.39
-3 0 -6 1362.06 56.89
3 0 6 1290.27 56.79
-4 0 -6 2389.56 99.69
-4 0 -6 2317.17 99.19
4 0 6 2467.05 99.49
4 0 6 2472.55 99.99
-5 0 -6 2474.15 103.29
-5 0 -6 2530.85 103.69
5 0 6 2482.95 103.79
5 0 6 2528.25 103.39
-6 0 -6 695.93 31.1
-6 0 -6 681.73 30.7
6 0 6 648.14 30.6
6 0 6 624.24 31.1
-7 0 -6 36.6 6.7
-7 0 -6 39.7 7.1
7 0 6 48.6 8.3
7 0 6 43.3 6.9
-8 0 -6 179.48 13.7
-8 0 -6 180.18 14.1
8 0 6 188.68 13.9
8 0 6 212.78 15.2
-9 0 -6 405.36 23.2
-9 0 -6 419.06 23
9 0 6 454.65 23.5
9 0 6 439.66 24.2
-10 0 -6 177.58 15.1
-10 0 -6 174.58 14.8
10 0 6 184.88 14.6
10 0 6 178.18 16.6
-11 0 -6 7 7.7
-11 0 -6 2.9 7.1
11 0 6 4.6 7.2
11 0 6 2.1 8.8
-12 0 -6 134.89 15.3
-12 0 -6 104.89 15.9
12 0 6 126.29 18
12 0 6 121.09 18.2
15 -1 -6 492.35 28.8
15 -1 -6 518.85 28.3
-15 1 6 444.36 27
-15 1 6 435.26 26.8
14 -1 -6 979.7 44.7
14 -1 -6 968.5 45.5
-14 1 6 984.1 45.2
-14 1 6 948.11 45.1
13 -1 -6 112.49 13.6
13 -1 -6 107.49 12.8
-13 1 6 123.99 13.5
-13 1 6 126.59 13.7
12 -1 -6 533.75 25.8
12 -1 -6 553.74 26.5
-12 1 6 457.15 25.8
-12 1 6 480.05 26
11 -1 -6 699.83 31.5
11 -1 -6 668.73 30.9
-11 1 6 619.64 31
-11 1 6 624.24 31.1
10 -1 -6 813.92 36.3
10 -1 -6 810.92 35.9
-10 1 6 761.92 36
-10 1 6 772.52 36
9 -1 -6 334.67 17.9
9 -1 -6 331.77 17.3
-9 1 6 306.07 17.4
-9 1 6 312.07 17.6
8 -1 -6 30.1 5.5
8 -1 -6 39.9 6.5
-8 1 6 33.3 5.7
-8 1 6 34.3 6.6
7 -1 -6 234.28 13.3
7 -1 -6 238.78 13.7
-7 1 6 226.28 13.6
-7 1 6 236.08 13.6
6 -1 -6 10.3 4.1
6 -1 -6 6.6 4
-6 1 6 11.6 4.2
-6 1 6 12.1 4.2
5 -1 -6 20.9 4.2
5 -1 -6 33.6 5.3
-5 1 6 35.3 5.2
-5 1 6 33.8 5.4
4 -1 -6 169.88 10.3
4 -1 -6 153.48 12.3
-4 1 6 217.18 13.1
-4 1 6 172.48 10.9
3 -1 -6 617.74 26.6
3 -1 -6 601.54 27.1
-3 1 6 581.74 26.8
-3 1 6 593.44 27.1
2 -1 -6 416.46 19.6
-2 1 6 409.36 19.6
-2 1 6 397.56 19.2
1 -1 -6 278.57 16
-1 1 6 336.37 16.3
-1 1 6 347.47 16
0 -1 -6 206.78 13.3
0 -1 -6 210.28 12.7
0 1 6 252.07 12.9
0 1 6 238.08 12.5
-1 -1 -6 271.97 15.7
-1 -1 -6 265.67 15.6
1 1 6 316.17 15.5
-2 -1 -6 62.79 7.5
-2 -1 -6 49.7 7.1
2 1 6 38.1 6.2
-3 -1 -6 1553.64 65.09
-3 -1 -6 1515.75 64.49
3 1 6 1535.75 64.69
3 1 6 1522.95 65.19
-4 -1 -6 1105.99 49.99
-4 -1 -6 1163.18 50.49
4 1 6 1166.68 50.79
4 1 6 1202.68 50.29
-5 -1 -6 575.44 28.9
-5 -1 -6 607.14 29.4
5 1 6 638.74 29.2
5 1 6 649.54 30
-6 -1 -6 445.06 22.2
-6 -1 -6 445.96 22.7
6 1 6 406.46 22
6 1 6 409.16 22.8
-7 -1 -6 1422.46 61.89
-7 -1 -6 1398.66 61.39
7 1 6 1419.16 62.09
7 1 6 1444.56 61.59
-8 -1 -6 902.11 40.7
-8 -1 -6 899.51 40.3
8 1 6 858.11 40.3
8 1 6 821.82 40.9
-9 -1 -6 449.76 24
-9 -1 -6 439.36 23.5
9 1 6 361.46 24.1
9 1 6 409.86 23.5
-10 -1 -6 213.88 17.5
-10 -1 -6 220.08 17
10 1 6 210.68 16.9
10 1 6 204.68 18.8
-11 -1 -6 63.19 10.9
-11 -1 -6 50.29 10.2
11 1 6 67.99 13
11 1 6 52.09 10.5
-12 -1 -6 129.69 17.4
-12 -1 -6 114.79 16.8
12 1 6 123.09 15.9
12 1 6 93.89 14.4
15 -2 -6 477.55 27.6
15 -2 -6 458.25 26.1
-15 2 6 402.96 25.2
-15 2 6 400.16 25
14 -2 -6 168.38 15.3
14 -2 -6 171.88 16.1
-14 2 6 164.08 15.6
-14 2 6 164.68 15.7
13 -2 -6 53.39 8.6
13 -2 -6 66.39 9.9
-13 2 6 49.4 8.9
-13 2 6 44.2 8.7
12 -2 -6 746.23 33.9
12 -2 -6 703.03 33.1
-12 2 6 668.93 33.4
-12 2 6 704.03 33.6
11 -2 -6 854.11 37.8
11 -2 -6 855.51 38.2
-11 2 6 799.22 38.1
-11 2 6 808.62 37.9
10 -2 -6 947.41 42
10 -2 -6 926.11 42.3
-10 2 6 947.51 42.3
-10 2 6 982.1 42.6
9 -2 -6 197.68 12.9
9 -2 -6 214.18 12.5
-9 2 6 156.48 12.3
-9 2 6 150.18 12.3
8 -2 -6 312.17 16
8 -2 -6 303.57 16.6
-8 2 6 290.67 16.3
-8 2 6 280.57 16.3
7 -2 -6 576.04 27.7
7 -2 -6 597.84 28.2
-7 2 6 637.14 28.4
-7 2 6 644.44 28.3
6 -2 -6 1771.72 77.69
6 -2 -6 1839.92 78.29
-6 2 6 1935.01 78.19
-6 2 6 1977.8 78.49
5 -2 -6 2431.16 98.59
5 -2 -6 2428.86 99.29
-5 2 6 2344.27 98.99
-5 2 6 2415.06 99.09
4 -2 -6 225.98 13.3
4 -2 -6 222.18 12.6
-4 2 6 242.58 13.5
-4 2 6 248.78 13.3
3 -2 -6 594.94 26.4
-3 2 6 557.74 25.9
-3 2 6 562.04 26.2
2 -2 -6 714.23 30.5
-2 2 6 671.53 30.2
-2 2 6 635.64 29.8
1 -2 -6 697.33 29.8
1 -2 -6 693.53 30.3
-1 2 6 600.74 29.2
-1 2 6 610.34 28.8
0 -2 -6 281.57 16.1
0 -2 -6 282.77 15.3
0 2 6 283.27 15.5
-1 -2 -6 51.49 6.7
-1 -2 -6 61.19 8.2
1 2 6 54.39 7.1
-2 -2 -6 140.79 11.1
-2 -2 -6 136.29 10.5
2 2 6 136.39 10.6
-3 -2 -6 92.89 9.5
-3 -2 -6 94.59 10
3 2 6 102.69 9.6
3 2 6 105.39 11
-4 -2 -6 150.28 12.1
-4 -2 -6 161.98 12.7
4 2 6 168.98 12.3
4 2 6 170.58 13.4
-5 -2 -6 318.57 17.9
-5 -2 -6 312.17 18.4
5 2 6 294.97 17.8
5 2 6 312.77 19
-6 -2 -6 353.36 20.3
-6 -2 -6 352.16 20
6 2 6 334.57 20.9
6 2 6 350.76 19.9
-7 -2 -6 982.4 44.6
-7 -2 -6 976.7 45.1
7 2 6 1004.4 45.6
7 2 6 950.6 44.5
-8 -2 -6 364.36 21.8
-8 -2 -6 369.46 21.3
8 2 6 331.97 21.1
8 2 6 343.47 22.5
-9 -2 -6 135.79 14.4
-9 -2 -6 152.28 15.2
9 2 6 100.49 13.2
9 2 6 95.99 14.1
-10 -2 -6 45.7 10.2
-10 -2 -6 57.59 11.3
10 2 6 40.6 9.5
10 2 6 46.1 11.3
-11 -2 -6 5.2 8.8
-11 -2 -6 7.9 9.7
11 2 6 -1.3 8.3
11 2 6 1.1 10.7
-12 -2 -6 29.8 10.6
-12 -2 -6 30.5 11.4
12 2 6 53.99 14.6
12 2 6 35 13.2
15 -3 -6 40.5 11.8
15 -3 -6 47.1 10.3
-15 3 6 31.2 9.1
-15 3 6 42.1 10
14 -3 -6 10.2 7.9
14 -3 -6 9 7.4
-14 3 6 1.8 8
-14 3 6 2.4 7.4
13 -3 -6 12.1 7
13 -3 -6 10.1 7.2
-13 3 6 12.5 7.6
-13 3 6 14.5 7.4
12 -3 -6 92.59 11.9
12 -3 -6 96.59 11.6
-12 3 6 89.69 11.9
-12 3 6 86.49 11.8
11 -3 -6 252.07 16.7
11 -3 -6 239.78 15.9
-11 3 6 290.87 16.9
-11 3 6 277.77 16.7
10 -3 -6 860.71 37.6
10 -3 -6 823.62 38.1
-10 3 6 847.02 38.1
-10 3 6 836.82 38.1
9 -3 -6 444.86 22.4
9 -3 -6 458.35 21.7
-9 3 6 420.36 22.2
-9 3 6 435.96 22.6
8 -3 -6 244.18 13.7
8 -3 -6 250.47 14.5
-8 3 6 223.58 14.2
-8 3 6 234.58 14.5
7 -3 -6 1630.54 69.69
7 -3 -6 1684.13 70.39
-7 3 6 1706.13 70.19
-7 3 6 1669.53 70.39
6 -3 -6 3385.96 137.19
6 -3 -6 3326.87 136.49
-6 3 6 3377.66 137.19
-6 3 6 3324.87 136.99
5 -3 -6 1059.69 43.8
-5 3 6 969 43.4
-5 3 6 982.5 43.7
4 -3 -6 1.9 4
-4 3 6 0.8 3.9
-4 3 6 -0.4 3.7
3 -3 -6 298.87 17.6
-3 3 6 324.47 16.7
-3 3 6 302.77 16.8
2 -3 -6 1768.72 75.69
2 -3 -6 1795.62 75.29
-2 3 6 1818.22 75.19
-2 3 6 1797.62 74.59
1 -3 -6 1971.6 81.99
1 -3 -6 1906.31 81.39
-1 3 6 1974 81.49
0 -3 -6 312.37 17.2
0 -3 -6 300.37 16.7
0 3 6 278.37 16.4
-1 -3 -6 176.38 13
-1 -3 -6 196.58 12.7
1 3 6 183.18 12.7
-2 -3 -6 65.59 8.8
-2 -3 -6 70.79 9.4
2 3 6 62.29 9.3
2 3 6 57.29 8.6
-3 -3 -6 275.27 17.3
-3 -3 -6 267.37 16.7
3 3 6 303.27 17.1
3 3 6 294.87 18
-4 -3 -6 36.7 7.6
-4 -3 -6 29 6.8
4 3 6 30.5 7.6
4 3 6 20.4 5.8
-5 -3 -6 377.16 21.3
-5 -3 -6 389.06 22
5 3 6 392.96 21.6
5 3 6 383.26 22.5
-6 -3 -6 127.39 13.1
-6 -3 -6 126.69 13.7
6 3 6 114.29 12.8
6 3 6 121.19 14.3
-7 -3 -6 256.47 17.8
-7 -3 -6 247.68 18.3
7 3 6 219.78 17.2
7 3 6 231.48 18.9
-8 -3 -6 211.38 17.6
-8 -3 -6 207.08 17.9
8 3 6 218.88 17.5
8 3 6 216.78 19.2
-9 -3 -6 78.39 11.5
-9 -3 -6 94.69 12.6
9 3 6 50.09 10
9 3 6 73.19 12.6
-10 -3 -6 7.9 9.8
-10 -3 -6 8.3 9.8
10 3 6 8.5 9.2
10 3 6 9.2 11.6
-11 -3 -6 10 10.1
-11 -3 -6 6.6 10.5
11 3 6 22.8 12.7
11 3 6 13.8 12.4
15 -4 -6 128.99 18.2
15 -4 -6 121.29 15.7
-15 4 6 128.19 16
-15 4 6 132.99 15.1
14 -4 -6 88.69 11.2
14 -4 -6 90.59 13
-14 4 6 67.09 10.1
-14 4 6 78.79 11.2
13 -4 -6 12 7.5
13 -4 -6 13.7 6.8
-13 4 6 9.9 7.3
-13 4 6 15.7 7.9
12 -4 -6 35.5 8.3
12 -4 -6 38.7 7.3
-12 4 6 43.5 8.2
-12 4 6 38.5 8.4
11 -4 -6 57.49 7.9
11 -4 -6 55.59 8.6
-11 4 6 74.69 9.3
-11 4 6 70.79 9.3
10 -4 -6 209.68 13.5
10 -4 -6 203.78 14.3
-10 4 6 200.98 14.4
-10 4 6 204.78 14.3
9 -4 -6 65.39 8.2
9 -4 -6 57.79 8.7
-9 4 6 71.89 9.3
-9 4 6 77.49 9.2
8 -4 -6 115.39 10.7
8 -4 -6 118.59 9.8
-8 4 6 101.09 10.7
-8 4 6 103.79 10.1
7 -4 -6 706.83 32.5
-7 4 6 716.73 32.4
-7 4 6 704.93 32.6
6 -4 -6 1016.5 45.8
-6 4 6 1060.79 45.7
-6 4 6 1077.59 46
5 -4 -6 133.89 11.5
-5 4 6 181.08 11.9
-5 4 6 192.38 12.1
4 -4 -6 468.75 23.1
-4 4 6 472.25 23.1
-4 4 6 471.95 22.7
3 -4 -6 2673.13 109.19
3 -4 -6 2498.75 108.39
-3 4 6 2600.84 107.99
-3 4 6 2741.03 108.69
2 -4 -6 1929.11 83.99
2 -4 -6 1892.41 83.39
-2 4 6 2038.3 83.09
-2 4 6 2133.29 83.89
1 -4 -6 2217.78 93.29
1 -4 -6 2166.38 92.69
-1 4 6 2292.17 92.99
0 -4 -6 447.06 23.9
0 -4 -6 456.15 23.4
0 4 6 501.15 23.9
-1 -4 -6 36 6.7
-1 -4 -6 62.49 8.5
1 4 6 34.3 6.3
-2 -4 -6 1123.89 49.1
-2 -4 -6 1080.09 48.4
2 4 6 1063.69 49.4
2 4 6 1109.09 48.7
-3 -4 -6 1299.97 55.89
-3 -4 -6 1222.98 55.19
3 4 6 1250.97 56.09
3 4 6 1255.17 55.39
-4 -4 -6 440.86 24.9
-4 -4 -6 444.96 24.4
4 4 6 473.85 24.7
4 4 6 471.75 25.9
-5 -4 -6 187.78 15.8
-5 -4 -6 180.58 14.9
5 4 6 160.68 16.2
5 4 6 165.78 14.7
-6 -4 -6 330.87 20.5
-6 -4 -6 352.06 21.8
6 4 6 303.47 20.4
6 4 6 307.27 22
-7 -4 -6 59.39 10.5
-7 -4 -6 31.9 8.9
7 4 6 36.8 8.7
7 4 6 44.8 10.6
-8 -4 -6 202.38 18.9
-8 -4 -6 173.78 17.8
8 4 6 187.08 20.2
8 4 6 222.38 18
-9 -4 -6 67.39 11.9
-9 -4 -6 85.49 13.5
9 4 6 93.29 13.5
9 4 6 80.19 14.3
-10 -4 -6 79.19 14.2
-10 -4 -6 71.19 13.2
10 4 6 77.39 16.1
10 4 6 38.5 11
-11 -4 -6 8.8 10.8
-11 -4 -6 19.3 12.2
11 4 6 15.9 13.8
11 4 6 21.8 13.2
14 -5 -6 36 10.3
14 -5 -6 32 9
-14 5 6 25.4 8.6
-14 5 6 27.2 9.1
13 -5 -6 99.69 13.7
13 -5 -6 82.89 11.8
-13 5 6 94.99 12.7
-13 5 6 104.19 13.6
12 -5 -6 183.98 13.9
12 -5 -6 180.78 15.4
-12 5 6 199.88 14.9
-12 5 6 195.28 15.6
11 -5 -6 195.78 13.6
11 -5 -6 190.68 14.7
-11 5 6 175.98 14.7
-11 5 6 178.68 14.4
10 -5 -6 91.29 10.2
10 -5 -6 94.29 11.1
-10 5 6 77.49 9.4
-10 5 6 77.69 9.6
9 -5 -6 32 7
-9 5 6 31.2 7.4
-9 5 6 28.3 6.6
8 -5 -6 563.14 26.7
-8 5 6 541.15 26.6
-8 5 6 529.65 26.3
7 -5 -6 99.59 10.5
-7 5 6 100.39 10.3
-7 5 6 86.29 10.1
6 -5 -6 42.5 7.1
-6 5 6 65.49 8.2
-6 5 6 55.19 7.3
5 -5 -6 50.09 7.5
5 -5 -6 53.79 8.5
-5 5 6 37.2 6.3
-5 5 6 58.19 8.1
4 -5 -6 278.77 17
4 -5 -6 272.97 16.5
-4 5 6 282.37 16.3
-4 5 6 265.57 15.7
3 -5 -6 825.92 37.7
3 -5 -6 796.82 37.1
-3 5 6 803.62 36.3
-3 5 6 827.12 37.2
2 -5 -6 532.45 25.8
2 -5 -6 495.75 24.9
-2 5 6 468.45 24.8
1 -5 -6 978.1 43.5
1 -5 -6 957.2 44
-1 5 6 971.6 43.5
0 -5 -6 115.79 12.1
0 -5 -6 112.59 11.3
0 5 6 114.29 11.7
-1 -5 -6 770.42 37.1
-1 -5 -6 760.32 36.5
1 5 6 837.32 37.1
1 5 6 769.92 37.7
-2 -5 -6 1355.56 58.39
-2 -5 -6 1314.27 57.69
2 5 6 1291.57 58.69
2 5 6 1289.87 57.79
-3 -5 -6 1180.68 50.69
-3 -5 -6 1202.58 50.29
3 5 6 1019.4 49.6
3 5 6 1013.4 50.49
-4 -5 -6 82.39 12.6
-4 -5 -6 101.69 13.5
4 5 6 101.89 13
4 5 6 100.09 14.6
-5 -5 -6 471.45 26.7
-5 -5 -6 458.05 26
5 5 6 444.76 26.1
5 5 6 467.35 27.6
-6 -5 -6 228.78 19.6
-6 -5 -6 215.58 18
6 5 6 227.38 20.3
6 5 6 238.08 18.5
-7 -5 -6 350.76 24.4
-7 -5 -6 336.37 23.6
7 5 6 366.86 23.9
7 5 6 400.06 26.6
-8 -5 -6 266.97 22.1
-8 -5 -6 244.58 22.3
8 5 6 286.87 24.4
8 5 6 317.07 22
-9 -5 -6 31 10.8
-9 -5 -6 23.1 10.4
9 5 6 13.7 9.5
9 5 6 13.4 11.9
-10 -5 -6 126.59 16.4
10 5 6 129.39 16.6
10 5 6 99.89 16.7
14 -6 -6 28.4 9
-14 6 6 29.7 9.5
-14 6 6 29.4 8.6
13 -6 -6 596.24 30.8
-13 6 6 627.64 31.1
-13 6 6 612.44 30.5
12 -6 -6 945.91 43.8
-12 6 6 963.1 43.6
-12 6 6 977 44
11 -6 -6 271.07 17.9
-11 6 6 274.57 17.7
-11 6 6 288.47 18.1
10 -6 -6 7.8 6.5
-10 6 6 10.1 6.4
-10 6 6 9.4 6.7
9 -6 -6 30.9 7.5
-9 6 6 22.1 7.2
-9 6 6 22.9 6.7
8 -6 -6 385.06 20.8
-8 6 6 383.16 20.7
-8 6 6 369.36 20.5
7 -6 -6 743.03 34
7 -6 -6 716.13 34.8
-7 6 6 712.93 33.7
-7 6 6 747.93 34.1
6 -6 -6 614.14 30.7
6 -6 -6 592.94 29.7
-6 6 6 656.63 30.2
-6 6 6 640.64 29.7
5 -6 -6 98.19 11.6
5 -6 -6 101.29 12.1
-5 6 6 99.79 11.2
-5 6 6 116.49 10.8
4 -6 -6 237.08 16.2
4 -6 -6 242.48 16.5
-4 6 6 241.28 15.3
-4 6 6 271.87 16.2
3 -6 -6 578.24 28.4
3 -6 -6 563.94 28.9
-3 6 6 581.74 28.5
-3 6 6 581.04 27.7
2 -6 -6 716.03 33.3
2 -6 -6 703.73 33.9
-2 6 6 674.23 33.2
1 -6 -6 45.5 9.1
1 -6 -6 43.7 8.7
-1 6 6 35.3 8.2
0 -6 -6 85.19 11.8
0 -6 -6 86.19 11.4
0 6 6 80.79 11.5
-1 -6 -6 106.09 13.1
-1 -6 -6 126.09 13.6
1 6 6 116.69 15.1
1 6 6 113.39 13
-2 -6 -6 330.97 20.4
-2 -6 -6 338.07 21.2
2 6 6 311.87 21.6
2 6 6 341.57 20.9
-3 -6 -6 87.29 13.5
3 6 6 141.39 16
3 6 6 131.09 14.5
-4 -6 -6 50.29 10.4
-4 -6 -6 48.9 11.5
4 6 6 53.59 11.9
4 6 6 53.89 10.8
-5 -6 -6 403.46 24.9
-5 -6 -6 411.46 25.7
5 6 6 387.96 26.7
5 6 6 418.76 25.3
-6 -6 -6 523.25 30.4
-6 -6 -6 482.65 29.1
6 6 6 509.75 29.4
6 6 6 487.15 31.1
-7 -6 -6 1360.86 63.69
-7 -6 -6 1384.96 63.19
7 6 6 1411.46 63.39
7 6 6 1330.27 64.39
-8 -6 -6 755.32 39.8
-8 -6 -6 709.33 40.3
8 6 6 773.62 39.9
8 6 6 726.93 41.7
-9 -6 -6 15.4 11.8
-9 -6 -6 9.8 12.5
9 6 6 26 15.6
9 6 6 17 11.7
13 -7 -6 501.45 27
-13 7 6 482.25 26.3
-13 7 6 508.85 26.8
12 -7 -6 672.83 31.8
-12 7 6 607.94 31.2
-12 7 6 619.84 31.3
11 -7 -6 216.78 16.4
-11 7 6 218.48 16.3
-11 7 6 215.08 16.1
10 -7 -6 29 7.9
-10 7 6 27.9 7.9
-10 7 6 23.8 7.4
9 -7 -6 63.49 10.3
9 -7 -6 66.99 9.5
-9 7 6 50.39 8.6
-9 7 6 53.49 8.9
8 -7 -6 262.37 18.1
8 -7 -6 276.57 17.4
-8 7 6 253.17 16.9
-8 7 6 262.37 17.2
7 -7 -6 313.87 19.8
7 -7 -6 305.67 18.7
-7 7 6 302.77 18.2
-7 7 6 313.67 18.7
6 -7 -6 178.28 15.3
6 -7 -6 192.38 14.7
-6 7 6 191.58 14.6
-6 7 6 184.68 13.8
5 -7 -6 213.78 15.6
5 -7 -6 197.08 15.8
-5 7 6 220.08 14.7
-5 7 6 210.38 15.4
4 -7 -6 243.18 16.9
4 -7 -6 229.18 17.1
-4 7 6 235.58 15.6
-4 7 6 255.47 16.7
3 -7 -6 801.32 39.1
3 -7 -6 783.42 38.3
-3 7 6 889.11 39
2 -7 -6 881.01 41.9
2 -7 -6 871.81 42.5
-2 7 6 976.3 42.5
1 -7 -6 29.5 8.8
1 -7 -6 28.3 8.8
-1 7 6 28.1 8.5
0 -7 -6 100.49 13.2
0 -7 -6 105.69 13.5
0 7 6 104.29 13.2
-1 -7 -6 178.38 16.3
-1 -7 -6 181.88 15.7
1 7 6 159.78 17.3
1 7 6 141.19 15.3
-2 -7 -6 319.07 22.2
-2 -7 -6 345.57 21.9
2 7 6 339.97 23.4
2 7 6 350.26 22.2
-3 -7 -6 63.79 12.1
-3 -7 -6 59.49 11.9
3 7 6 77.19 14.1
3 7 6 68.99 12.3
-4 -7 -6 54.39 12.8
-4 -7 -6 36.4 9.8
4 7 6 49.5 11.8
4 7 6 56.59 11.9
-5 -7 -6 5.7 11.1
-5 -7 -6 0.1 9.9
5 7 6 8.5 12
5 7 6 10.4 10
-6 -7 -6 471.55 28.8
-6 -7 -6 454.45 29.1
6 7 6 441.46 28.3
6 7 6 406.96 30.1
-7 -7 -6 793.52 41.8
-7 -7 -6 764.12 40.6
7 7 6 744.43 40.3
7 7 6 722.33 42.4
-8 -7 -6 358.36 28.4
-8 -7 -6 384.66 29.1
8 7 6 356.96 31.5
8 7 6 352.46 27.5
12 -8 -6 37.3 11.9
12 -8 -6 42 9.4
-12 8 6 31.5 9.1
-12 8 6 30.8 9.2
11 -8 -6 46.3 10.4
11 -8 -6 50.39 9.5
-11 8 6 50.69 9.2
-11 8 6 36.1 9.1
10 -8 -6 45.5 10
10 -8 -6 47 9.2
-10 8 6 41.8 9
-10 8 6 51.09 9.1
9 -8 -6 200.68 16.6
9 -8 -6 204.98 17.4
-9 8 6 217.58 16.4
-9 8 6 220.88 16.4
8 -8 -6 988.6 46.4
8 -8 -6 992.3 47.3
-8 8 6 1082.99 46.9
-8 8 6 1053.49 46.5
7 -8 -6 555.44 31
7 -8 -6 569.14 30.1
-7 8 6 668.53 30.9
-7 8 6 650.03 30.3
6 -8 -6 377.66 21.3
6 -8 -6 363.16 21.9
-6 8 6 313.27 20
-6 8 6 355.36 21.2
5 -8 -6 39.5 9.3
5 -8 -6 26.9 8.5
-5 8 6 48.8 8.9
-5 8 6 42.4 9.1
4 -8 -6 144.39 14.5
4 -8 -6 149.99 14.3
-4 8 6 112.49 12.7
-4 8 6 106.89 13.5
3 -8 -6 333.07 21
3 -8 -6 361.86 21.8
-3 8 6 323.77 21
2 -8 -6 219.08 17.2
2 -8 -6 219.28 17.9
-2 8 6 246.08 17.9
1 -8 -6 10.9 7.8
1 -8 -6 9.5 7.3
-1 8 6 3.1 7
0 -8 -6 293.97 21.1
0 -8 -6 304.07 21.7
0 8 6 349.57 21.8
-1 -8 -6 101.29 15
-1 -8 -6 72.39 10.9
1 8 6 111.99 15.2
1 8 6 89.69 13
-2 -8 -6 37.2 10.2
-2 -8 -6 32.4 9.7
2 8 6 47.8 11.7
2 8 6 64.19 11.3
-3 -8 -6 5.1 9.7
-3 -8 -6 3 8.7
3 8 6 -1.7 10.1
3 8 6 3.5 9.8
-4 -8 -6 133.59 19.2
-4 -8 -6 135.69 18.4
4 8 6 150.98 20.8
4 8 6 129.89 18.7
-5 -8 -6 138.19 17.8
-5 -8 -6 89.69 13.2
5 8 6 82.99 14.7
5 8 6 138.89 18.8
-6 -8 -6 22.8 12.1
-6 -8 -6 23.4 11.2
6 8 6 27.4 11.9
6 8 6 28.2 13.5
-7 -8 -6 16.8 13
-7 -8 -6 16.3 11.9
7 8 6 43.2 17
7 8 6 18.8 10.7
11 -9 -6 10.8 8.6
11 -9 -6 12.6 11.6
-11 9 6 11.8 8.3
-11 9 6 8.5 8.1
10 -9 -6 0.8 8.8
10 -9 -6 1.1 8.4
-10 9 6 8.3 8
-10 9 6 9 8
9 -9 -6 40.3 10.2
9 -9 -6 40 9.6
-9 9 6 40.7 9.3
-9 9 6 28.2 8.9
8 -9 -6 332.17 21.2
8 -9 -6 332.67 22.2
-8 9 6 352.96 21.1
-8 9 6 339.27 21.5
7 -9 -6 53.69 10.3
7 -9 -6 43.7 10.2
-7 9 6 44.9 8.9
-7 9 6 46.2 9.4
6 -9 -6 33.6 9.2
6 -9 -6 44.8 10
-6 9 6 24.3 8.4
-6 9 6 28.6 8.4
5 -9 -6 364.46 21.8
5 -9 -6 329.97 21.8
-5 9 6 313.27 20.3
-5 9 6 321.67 21.2
-4 9 6 137.89 14.4
-4 9 6 134.19 15.3
3 -9 -6 225.98 18.3
3 -9 -6 220.68 17.8
-3 9 6 151.78 16.9
2 -9 -6 359.66 23.8
2 -9 -6 365.56 23.4
-2 9 6 386.86 23.8
1 -9 -6 122.89 14.9
1 -9 -6 78.99 11.6
-1 9 6 105.29 14
0 -9 -6 146.59 17.9
0 -9 -6 159.78 17.9
0 9 6 170.08 18
-1 -9 -6 1334.77 61.09
-1 -9 -6 1407.66 61.99
1 9 6 1355.86 61.59
1 9 6 1254.77 62.49
-2 -9 -6 685.63 36.3
-2 -9 -6 701.73 36.8
2 9 6 642.44 36.4
2 9 6 637.24 37.8
-3 -9 -6 162.58 20.2
-3 -9 -6 199.88 21.1
3 9 6 163.28 20.7
3 9 6 170.18 20.7
-4 -9 -6 106.19 16.8
-4 -9 -6 76.69 13.4
4 9 6 85.69 15.9
4 9 6 127.79 17.5
-5 -9 -6 81.09 15.4
-5 -9 -6 78.09 15.4
5 9 6 102.29 18.5
5 9 6 99.19 15.9
-6 -9 -6 120.79 17.1
-6 -9 -6 114.69 17.5
6 9 6 84.09 14.9
6 9 6 114.69 19.2
10 -10 -6 11.4 12.5
10 -10 -6 22.4 10.1
-10 10 6 11.7 9.1
-10 10 6 23 9.6
9 -10 -6 60.29 13.5
9 -10 -6 82.99 12.2
-9 10 6 113.49 15.2
-9 10 6 106.39 15
8 -10 -6 56.99 11.3
8 -10 -6 51.29 11.2
-8 10 6 36.2 9.8
-8 10 6 45.8 10
7 -10 -6 18.1 10
7 -10 -6 29.9 10.3
-7 10 6 21.8 9
-7 10 6 20 9
6 -10 -6 52.79 11.1
6 -10 -6 46.7 11.2
-6 10 6 49.8 10.7
-6 10 6 44.3 10.2
5 -10 -6 21.7 9.8
5 -10 -6 29.4 10.1
-5 10 6 28.2 9.7
-5 10 6 12.9 8.9
4 -10 -6 190.28 18.8
4 -10 -6 185.78 18.4
-4 10 6 203.68 18.5
-4 10 6 183.88 17.2
3 -10 -6 76.39 13
3 -10 -6 88.09 13
2 -10 -6 165.48 18.1
2 -10 -6 148.09 18.1
-2 10 6 127.89 17.7
1 -10 -6 76.19 12.2
1 -10 -6 111.49 14.7
-1 10 6 120.89 15.5
0 -10 -6 229.48 22.1
0 -10 -6 216.18 21
0 10 6 243.08 21.8
-1 -10 -6 1434.06 64.99
-1 -10 -6 1438.76 64.39
1 10 6 1292.17 65.79
1 10 6 1406.86 64.79
-2 -10 -6 519.45 31.9
-2 -10 -6 527.95 32.3
2 10 6 485.45 31.8
2 10 6 486.55 33.8
-3 -10 -6 11.9 12.2
-3 -10 -6 15.1 11.7
3 10 6 20 13.8
3 10 6 15 11.9
-4 -10 -6 107.59 18
-4 -10 -6 102.49 17.2
4 10 6 110.69 19.9
4 10 6 111.09 18.7
-5 -10 -6 376.66 30.6
5 10 6 379.56 33.6
8 -11 -6 222.78 20.1
8 -11 -6 195.28 23.3
-8 11 6 241.48 19.3
-8 11 6 217.08 19.7
7 -11 -6 -4.4 9.7
7 -11 -6 -5.4 12.2
-7 11 6 -3.6 9.2
-7 11 6 5.3 9.9
6 -11 -6 110.59 14.9
6 -11 -6 94.99 15.5
-6 11 6 78.89 12.6
-6 11 6 80.09 12.2
5 -11 -6 68.09 12.9
5 -11 -6 105.79 14.8
-5 11 6 45.8 11.3
-5 11 6 69.89 12.6
4 -11 -6 173.18 20.3
4 -11 -6 199.28 20
-4 11 6 181.38 19.7
-4 11 6 177.18 18.7
3 -11 -6 16.8 11.4
3 -11 -6 25.8 12.2
-3 11 6 24.2 11.8
2 -11 -6 131.29 19.5
2 -11 -6 141.79 20.7
-2 11 6 151.68 19.3
1 -11 -6 26.8 12.7
1 -11 -6 27.6 12.3
-1 11 6 23.4 12.4
0 -11 -6 -2 11.6
0 -11 -6 4.7 11
0 11 6 0.3 11.8
-1 -11 -6 87.59 14.3
1 11 6 81.39 14.4
1 11 6 120.89 20
-2 -11 -6 197.78 24.1
-2 -11 -6 200.38 24.3
2 11 6 195.48 27.8
2 11 6 196.78 24.8
-3 -11 -6 91.09 15.6
-3 -11 -6 160.68 20.9
3 11 6 155.28 20
3 11 6 103.79 18.9
5 -12 -6 31.8 15.3
5 -12 -6 74.59 14.4
-5 12 6 63.19 13.7
-5 12 6 53.69 12.6
4 -12 -6 5.2 16
4 -12 -6 8.9 12.3
-4 12 6 3.9 11.1
-4 12 6 9.2 11.3
3 -12 -6 42.3 13.2
3 -12 -6 53.99 16.4
-3 12 6 36.6 12.2
2 -12 -6 99.19 17.2
2 -12 -6 142.39 18.3
-2 12 6 145.39 21.4
1 -12 -6 10.4 14
1 -12 -6 10.5 12.8
-1 12 6 6.3 13.8
2 16 -7 81.19 15.3
2 16 -7 74.09 13.5
-2 -16 7 55.09 12.5
-2 -16 7 82.89 17.1
1 16 -7 649.54 34.4
1 16 -7 612.64 35.6
-1 -16 7 643.14 37
-1 -16 7 624.84 35.3
0 16 -7 382.96 24.3
0 16 -7 398.36 26.5
0 -16 7 323.67 26.9
0 -16 7 345.57 24.8
-1 16 -7 66.59 13.4
-1 16 -7 69.09 11.5
1 -16 7 97.19 13.2
1 -16 7 94.09 14.4
-2 16 -7 89.99 13.5
-2 16 -7 119.09 14.6
2 -16 7 126.09 18.8
2 -16 7 120.79 16
-3 16 -7 9.1 7.6
-3 16 -7 9.7 9.9
3 -16 7 2.8 8.6
3 -16 7 4.7 8.3
5 15 -7 60.09 15.4
5 15 -7 97.39 16.3
-5 -15 7 101.99 18.3
-5 -15 7 53.89 13.4
4 15 -7 116.39 17.2
4 15 -7 123.59 17
-4 -15 7 158.08 23.2
-4 -15 7 162.78 18.4
3 15 -7 -5.8 9.3
3 15 -7 -2.7 11
-3 -15 7 1 9.9
-3 -15 7 6 11.1
2 15 -7 146.79 17.3
2 15 -7 151.18 19.8
-2 -15 7 131.39 18.7
-2 -15 7 133.19 18.2
1 15 -7 510.35 28.2
1 15 -7 555.84 30.3
-1 -15 7 443.96 28.3
-1 -15 7 475.75 28.2
0 15 -7 491.75 26.6
0 15 -7 474.65 28.4
0 -15 7 466.35 27.2
0 -15 7 474.85 26.8
-1 15 -7 181.48 16.1
-1 15 -7 170.58 17.7
1 -15 7 199.38 17.3
1 -15 7 207.08 16.7
-2 15 -7 16.9 7.5
-2 15 -7 23.7 9.3
2 -15 7 15 7.9
2 -15 7 14.5 8.5
-3 15 -7 110.69 12.2
-3 15 -7 113.19 14.3
3 -15 7 95.89 12.9
3 -15 7 114.69 13.2
-4 15 -7 554.64 26.6
-4 15 -7 538.55 27.9
4 -15 7 552.44 27
4 -15 7 573.44 26.9
-5 15 -7 294.07 15.9
-5 15 -7 286.57 17.5
5 -15 7 301.37 16.6
5 -15 7 289.07 16.1
7 14 -7 19.8 15.8
7 14 -7 10.1 12.1
-7 -14 7 18.8 12.6
-7 -14 7 5.4 13.5
6 14 -7 76.49 14
6 14 -7 92.99 16.9
-6 -14 7 72.19 13.7
-6 -14 7 91.79 15.5
5 14 -7 27.5 11.9
5 14 -7 34.7 13.5
-5 -14 7 19.9 11.5
-5 -14 7 31.5 12.2
4 14 -7 109.99 16.5
4 14 -7 97.49 13.7
-4 -14 7 104.19 13.7
-4 -14 7 106.69 14.8
3 14 -7 12 10.5
3 14 -7 16.4 9.1
-3 -14 7 18.6 9.7
-3 -14 7 14.3 9.5
2 14 -7 262.37 21.8
2 14 -7 261.97 19.9
-2 -14 7 301.57 20.9
-2 -14 7 296.87 20.9
1 14 -7 336.77 21.8
1 14 -7 322.37 23.2
-1 -14 7 393.36 23
-1 -14 7 391.56 22.7
0 14 -7 305.57 19.6
0 14 -7 293.77 21
0 -14 7 322.57 20.1
0 -14 7 316.07 20.2
-1 14 -7 28 8.8
-1 14 -7 31.1 7.9
1 -14 7 23.9 8
1 -14 7 21.9 7.8
-2 14 -7 105.69 13.2
-2 14 -7 119.69 12.2
2 -14 7 123.99 13.1
2 -14 7 134.49 12.7
-3 14 -7 445.16 23.4
-3 14 -7 454.95 22.3
3 -14 7 428.76 22.6
3 -14 7 418.76 22.4
-4 14 -7 481.25 24.6
-4 14 -7 515.15 23.6
4 -14 7 505.85 23.9
4 -14 7 461.75 23.5
-5 14 -7 207.28 13.5
-5 14 -7 215.08 12
5 -14 7 205.28 12.6
5 -14 7 208.68 12.3
9 13 -7 342.07 28.6
9 13 -7 332.67 31
-9 -13 7 336.07 28.6
-9 -13 7 331.97 29.5
8 13 -7 0.4 10.7
8 13 -7 12.2 14.7
-8 -13 7 -2.4 13.1
-8 -13 7 1.7 10.9
7 13 -7 275.87 23.5
7 13 -7 272.37 25.7
-7 -13 7 227.28 22.9
-7 -13 7 231.18 23.8
6 13 -7 293.67 23.1
6 13 -7 290.47 24.5
-6 -13 7 275.47 22.8
-6 -13 7 237.68 22.4
5 13 -7 98.69 15.1
5 13 -7 77.19 12.4
-5 -13 7 89.39 13.7
-5 -13 7 91.69 13.1
4 13 -7 22 10.4
4 13 -7 23.8 9.2
-4 -13 7 27 10.3
-4 -13 7 17.8 9
3 13 -7 9.5 7.9
3 13 -7 10.7 9
-3 -13 7 8.7 8.1
-3 -13 7 9.6 7.9
2 13 -7 199.68 17.6
2 13 -7 208.88 16.3
-2 -13 7 184.08 16.4
-2 -13 7 177.98 16
1 13 -7 717.23 36.2
1 13 -7 697.63 35
-1 -13 7 770.72 35.5
-1 -13 7 766.72 35.6
0 13 -7 542.25 29.3
0 13 -7 544.65 28.3
0 -13 7 601.64 28.7
0 -13 7 605.74 28.8
-1 13 -7 85.79 12.1
-1 13 -7 94.19 10.9
1 -13 7 89.29 11.3
-2 13 -7 64.99 9.5
-2 13 -7 55.09 8.6
2 -13 7 78.39 10.3
2 -13 7 70.19 10.3
-3 13 -7 158.48 11.5
-3 13 -7 147.99 12.3
3 -13 7 152.88 12
3 -13 7 155.78 11.6
-4 13 -7 156.38 10.4
-4 13 -7 144.79 11.5
4 -13 7 139.59 10.8
4 -13 7 145.99 10.7
-5 13 -7 192.58 10.3
-5 13 -7 175.38 11.3
5 -13 7 168.58 10.6
5 -13 7 170.08 10.5
10 12 -7 83.39 16.2
10 12 -7 91.09 15.1
-10 -12 7 85.59 15.3
9 12 -7 44.9 13.2
9 12 -7 25.5 13.2
-9 -12 7 21.6 12.4
-9 -12 7 20.2 12.1
8 12 -7 141.69 17.2
8 12 -7 140.49 18.1
-8 -12 7 129.59 19.7
-8 -12 7 135.79 19.4
7 12 -7 540.75 31.7
7 12 -7 519.25 30.2
-7 -12 7 413.56 29.2
-7 -12 7 500.05 29.9
6 12 -7 554.64 30.5
6 12 -7 548.75 31.7
-6 -12 7 471.15 29.8
-6 -12 7 511.15 30.1
5 12 -7 382.76 24.7
5 12 -7 368.26 25.7
-5 -12 7 444.76 25.2
-5 -12 7 410.96 24.9
4 12 -7 251.57 18.8
4 12 -7 249.68 19.8
-4 -12 7 257.77 19
-4 -12 7 273.17 19.2
3 12 -7 378.46 22.2
3 12 -7 338.47 23.1
-3 -12 7 398.16 22.6
-3 -12 7 406.66 22.9
2 12 -7 1263.57 56.89
2 12 -7 1259.57 57.69
-2 -12 7 1361.46 57.49
-2 -12 7 1305.37 57.09
1 12 -7 439.26 25
1 12 -7 457.85 24.2
-1 -12 7 477.55 24.5
-1 -12 7 501.65 24.8
0 12 -7 115.59 12.2
0 12 -7 119.09 11.3
0 -12 7 112.49 11.7
0 -12 7 110.19 11.4
-1 12 -7 193.88 13.3
-1 12 -7 190.98 14.2
1 -12 7 205.48 13.5
1 -12 7 199.88 13.6
-2 12 -7 8.6 5.8
-2 12 -7 10.1 5.1
2 -12 7 5.6 5.1
2 -12 7 12.8 5.4
-3 12 -7 61.69 7
-3 12 -7 51.29 7.2
3 -12 7 54.09 7.9
3 -12 7 57.19 6.9
-4 12 -7 22.5 5.4
-4 12 -7 22 4.5
4 -12 7 20.3 5
4 -12 7 23.1 4.7
-5 12 -7 103.69 7.1
-5 12 -7 98.09 7.7
5 -12 7 94.79 7.2
5 -12 7 91.39 7
11 11 -7 486.65 34.8
11 11 -7 454.85 31.9
-11 -11 7 430.16 32.5
-11 -11 7 451.05 32.7
10 11 -7 38.9 12.5
10 11 -7 39.8 13.6
-10 -11 7 54.89 13
-10 -11 7 65.79 13.8
9 11 -7 75.89 13.2
9 11 -7 61.09 14.2
-9 -11 7 71.09 13.5
-9 -11 7 67.39 12.8
8 11 -7 257.27 21.7
8 11 -7 263.27 23.5
-8 -11 7 262.67 21.5
-8 -11 7 251.57 22
7 11 -7 908.21 44.5
7 11 -7 850.11 45
-7 -11 7 932.11 44.8
-7 -11 7 958 44.6
6 11 -7 853.71 40.8
6 11 -7 837.02 41.4
-6 -11 7 831.12 40.9
-6 -11 7 807.22 40.5
5 11 -7 422.96 24.3
5 11 -7 402.76 24.8
-5 -11 7 415.26 24.4
-5 -11 7 419.16 24.3
4 11 -7 35.3 8.6
4 11 -7 39.9 9.3
-4 -11 7 43.3 8.9
-4 -11 7 33.3 8.7
3 11 -7 1258.87 57.59
3 11 -7 1249.07 56.99
-3 -11 7 1377.46 57.69
-3 -11 7 1325.37 57.29
2 11 -7 2438.66 101.39
2 11 -7 2477.55 101.89
-2 -11 7 2399.06 101.59
-2 -11 7 2400.36 101.39
1 11 -7 717.73 32.7
1 11 -7 693.53 33.2
-1 -11 7 700.23 32.9
-1 -11 7 696.03 32.7
0 11 -7 3.2 5.5
0 11 -7 4.1 4.9
0 -11 7 13.1 5.4
0 -11 7 10.1 5.2
-1 11 -7 340.87 18.1
-1 11 -7 361.06 18.9
1 -11 7 345.77 18.3
1 -11 7 363.46 18.4
-2 11 -7 221.78 13
-2 11 -7 217.38 13.7
2 -11 7 223.18 13
2 -11 7 229.98 13.1
-3 11 -7 116.19 8.9
-3 11 -7 124.99 9.9
3 -11 7 120.79 9
3 -11 7 131.19 9
-4 11 -7 1.1 3.9
-4 11 -7 2.4 3.4
4 -11 7 1.4 3.6
4 -11 7 2.8 3.6
-5 11 -7 38.4 5.4
-5 11 -7 40.4 4.5
5 -11 7 37.2 4.6
5 -11 7 39.9 4.8
12 10 -7 51.19 17.4
12 10 -7 50.19 15
-12 -10 7 47.3 16.7
-12 -10 7 52.09 16.4
11 10 -7 61.39 13.7
11 10 -7 79.49 16.1
-11 -10 7 78.49 15.5
-11 -10 7 66.19 14
10 10 -7 140.19 21.4
10 10 -7 168.18 20.4
-10 -10 7 143.89 20.4
-10 -10 7 138.19 19.9
9 10 -7 290.27 24.2
9 10 -7 289.67 22.7
-9 -10 7 282.47 23.1
-9 -10 7 308.77 22.6
8 10 -7 58.29 11.3
8 10 -7 60.79 12.2
-8 -10 7 84.29 12.4
-8 -10 7 68.09 11.3
7 10 -7 561.84 32.5
7 10 -7 613.64 32
-7 -10 7 624.44 32.1
-7 -10 7 627.04 32.5
6 10 -7 258.37 19.3
6 10 -7 286.87 18.5
-6 -10 7 222.88 18.3
-6 -10 7 252.17 18.4
5 10 -7 26.2 8.1
5 10 -7 14.9 7.3
-5 -10 7 13.6 7.3
-5 -10 7 15.3 7.2
4 10 -7 187.48 15
4 10 -7 182.18 14.3
-4 -10 7 175.18 14.3
-4 -10 7 192.08 14.6
3 10 -7 344.57 19.8
3 10 -7 342.47 20.9
-3 -10 7 367.86 20
-3 -10 7 369.06 20.6
2 10 -7 801.62 37.5
2 10 -7 830.12 37.1
-2 -10 7 813.42 37.1
-2 -10 7 819.42 37.4
1 10 -7 567.94 26.4
1 10 -7 572.44 27
-1 -10 7 536.05 26.5
-1 -10 7 540.25 26.3
0 10 -7 13.3 5.2
0 10 -7 10.9 4.7
0 -10 7 10.2 4.9
0 -10 7 11.7 4.9
-1 10 -7 519.45 25.1
-1 10 -7 528.35 24.8
1 -10 7 543.45 24.8
1 -10 7 558.04 25.1
-2 10 -7 716.33 32.9
-2 10 -7 723.23 32.5
2 -10 7 779.82 32.6
2 -10 7 762.82 32.7
-3 10 -7 429.56 20.3
-3 10 -7 425.86 19.8
3 -10 7 446.46 20
3 -10 7 441.06 19.9
-4 10 -7 131.09 8.2
-4 10 -7 117.49 7.7
4 -10 7 124.09 7.7
4 -10 7 119.19 7.6
-5 10 -7 88.79 5.2
13 9 -7 753.92 42.5
12 9 -7 567.74 33.6
12 9 -7 529.15 35.1
-12 -9 7 497.75 33.4
-12 -9 7 476.55 34
11 9 -7 292.47 23.9
11 9 -7 256.97 25.8
-11 -9 7 291.57 25.2
-11 -9 7 294.57 25
10 9 -7 913.61 45.1
10 9 -7 862.31 46.1
-10 -9 7 925.31 45.7
-10 -9 7 967 46.1
9 9 -7 13.7 9.4
9 9 -7 16.3 9.1
-9 -9 7 22 9.8
-9 -9 7 15.2 8.9
8 9 -7 158.98 16.4
8 9 -7 99.29 14.9
-8 -9 7 108.69 13.9
-8 -9 7 114.69 15.1
7 9 -7 3.4 7
7 9 -7 1.7 7
-7 -9 7 9.6 7.5
-7 -9 7 3 6.6
6 9 -7 40.1 8.9
6 9 -7 30.7 8.1
-6 -9 7 31.7 8.2
-6 -9 7 32.7 8.5
5 9 -7 -0.4 6.4
5 9 -7 2.6 5.9
-5 -9 7 2.7 6.4
-5 -9 7 3.5 6
4 9 -7 51.69 8.7
4 9 -7 59.29 8.8
-4 -9 7 51.69 8.7
-4 -9 7 44.5 8.3
3 9 -7 264.67 17.2
3 9 -7 289.87 16.9
-3 -9 7 305.17 17.3
-3 -9 7 327.67 17.4
2 9 -7 233.28 14.4
2 9 -7 225.28 15
-2 -9 7 275.47 15
-2 -9 7 260.67 15.2
1 9 -7 269.07 15.2
1 9 -7 280.67 14.7
-1 -9 7 240.58 14.6
-1 -9 7 249.48 14.8
0 9 -7 146.19 10.5
0 9 -7 154.68 10.1
0 -9 7 139.39 10
0 -9 7 144.79 10.3
-1 9 -7 577.74 25.8
-1 9 -7 548.15 26
1 -9 7 584.94 26
1 -9 7 584.54 25.9
-2 9 -7 1283.47 55.29
-2 9 -7 1281.47 54.99
2 -9 7 1371.96 55.39
2 -9 7 1366.96 55.19
-3 9 -7 853.11 36.7
-3 9 -7 868.71 36.5
3 -9 7 882.41 36.7
3 -9 7 862.51 36.6
-4 9 -7 91.99 6.3
-4 9 -7 95.09 6.8
4 -9 7 98.99 6.4
4 -9 7 98.89 6.4
13 8 -7 265.57 24
-13 -8 7 238.68 25.6
-13 -8 7 234.68 25.4
12 8 -7 524.95 31.5
12 8 -7 522.35 33.5
-12 -8 7 537.05 32.7
-12 -8 7 506.05 32.5
11 8 -7 766.32 40.6
11 8 -7 748.73 41.5
-11 -8 7 834.22 41.3
-11 -8 7 833.02 41.5
10 8 -7 230.18 21
10 8 -7 245.98 19.7
-10 -8 7 222.48 20.4
-10 -8 7 233.98 20.2
9 8 -7 605.34 32.6
9 8 -7 587.84 33.3
-9 -8 7 664.93 33.4
-9 -8 7 669.83 33.6
8 8 -7 1993.5 87.09
8 8 -7 1962.2 86.69
-8 -8 7 2063.79 87.09
-8 -8 7 2087.69 87.09
7 8 -7 1229.38 54.99
7 8 -7 1169.78 54.99
-7 -8 7 1266.67 55.19
-7 -8 7 1269.07 55.29
6 8 -7 14.9 6.7
6 8 -7 10.1 6
-6 -8 7 14.9 6
-6 -8 7 26.3 7.4
5 8 -7 50.09 8.2
5 8 -7 61.79 8.5
-5 -8 7 44.9 8.1
-5 -8 7 44.4 7.9
4 8 -7 147.49 12
4 8 -7 142.79 11.3
-4 -8 7 126.69 11.4
-4 -8 7 135.69 11.3
3 8 -7 298.17 16.6
3 8 -7 289.97 16.1
-3 -8 7 290.47 16.3
-3 -8 7 268.17 16.1
2 8 -7 2.8 4.2
2 8 -7 -0.1 3.9
-2 -8 7 -1.7 4
-2 -8 7 2 4.1
1 8 -7 270.77 15.5
1 8 -7 297.57 15.2
-1 -8 7 291.07 15.2
-1 -8 7 292.77 15.5
0 8 -7 224.88 12.7
0 8 -7 237.48 13.1
0 -8 7 239.58 13
0 -8 7 238.08 12.9
-1 8 -7 381.76 17.3
-1 8 -7 382.96 17.6
1 -8 7 349.87 17.1
1 -8 7 333.47 17.2
-2 8 -7 833.52 34.5
-2 8 -7 827.92 34.1
2 -8 7 775.32 34.2
2 -8 7 775.72 34.2
-3 8 -7 343.87 15.5
-3 8 -7 352.96 15.4
3 -8 7 316.27 15.3
3 -8 7 315.97 15.3
-4 8 -7 11.7 2.8
-4 8 -7 11.6 3
4 -8 7 8.4 2.7
4 -8 7 8.6 2.9
-5 8 -7 174.08 8.6
5 -8 7 187.78 8.5
5 -8 7 181.08 8.5
14 7 -7 90.09 16.8
14 7 -7 135.49 17.7
-14 -7 7 99.49 15.8
-14 -7 7 158.18 23.1
13 7 -7 224.38 22.3
13 7 -7 226.58 25.4
-13 -7 7 279.57 24
-13 -7 7 285.57 24.7
12 7 -7 391.46 26
12 7 -7 391.66 27.3
-12 -7 7 380.06 27
-12 -7 7 405.96 27
11 7 -7 242.48 21.6
11 7 -7 260.97 20.7
-11 -7 7 292.57 22.1
-11 -7 7 278.27 21.4
10 7 -7 59.39 11.6
10 7 -7 61.39 11
-10 -7 7 44.6 10.6
-10 -7 7 56.09 11.3
9 7 -7 839.02 40.1
9 7 -7 812.12 39.5
-9 -7 7 809.42 39.8
-9 -7 7 837.42 39.9
8 7 -7 1022.6 46.6
8 7 -7 1006.4 46.1
-8 -7 7 990.8 46.2
-8 -7 7 1004.7 46.3
7 7 -7 710.03 34.3
7 7 -7 705.93 34.8
-7 -7 7 731.43 34.6
-7 -7 7 745.23 34.7
6 7 -7 8.2 5.5
6 7 -7 5.7 5.5
-6 -7 7 5.6 5.2
-6 -7 7 9.1 6
5 7 -7 559.04 28.3
5 7 -7 609.64 28.2
-5 -7 7 598.94 28.3
-5 -7 7 589.44 28.4
4 7 -7 793.22 34.4
4 7 -7 784.22 34
-4 -7 7 709.33 33.8
-4 -7 7 694.33 33.8
3 7 -7 1130.09 45.8
3 7 -7 1117.19 46.2
-3 -7 7 965.2 45.4
-3 -7 7 1004.3 45.6
2 7 -7 460.35 22
2 7 -7 461.85 21.7
-2 -7 7 445.86 21.7
-2 -7 7 454.35 21.9
1 7 -7 59.09 6.5
1 7 -7 57.19 7.1
-1 -7 7 52.99 6.5
-1 -7 7 48.2 6.9
0 7 -7 105.59 8.2
0 7 -7 117.49 7.8
0 -7 7 96.09 7.6
0 -7 7 107.69 8.2
-1 7 -7 159.68 9
-1 7 -7 158.88 9.3
1 -7 7 141.09 9.2
1 -7 7 146.19 9
-2 7 -7 451.25 20.6
-2 7 -7 449.26 20.7
2 -7 7 483.05 20.8
2 -7 7 471.55 20.7
-3 7 -7 297.57 13.8
-3 7 -7 301.07 14.1
3 -7 7 302.17 14
3 -7 7 295.87 13.9
-4 7 -7 16 3.2
4 -7 7 19.4 3.3
4 -7 7 21.7 3.3
-5 7 -7 29.5 3.4
-5 7 -7 26.7 3.7
5 -7 7 25.8 3.8
5 -7 7 27.3 3.8
-6 7 -7 638.14 26.6
14 6 -7 10.2 10.5
14 6 -7 45.3 15
-14 -6 7 19.6 12
-14 -6 7 34 13.5
13 6 -7 31 11.7
13 6 -7 19.2 9.2
-13 -6 7 30.7 11.5
-13 -6 7 28.5 11.4
12 6 -7 67.89 11.2
-12 -6 7 98.39 14.2
-12 -6 7 48.6 10.8
11 6 -7 107.69 14.6
11 6 -7 120.19 16.4
-11 -6 7 110.49 15.9
-11 -6 7 107.79 15.4
10 6 -7 4.3 6.9
10 6 -7 4.6 8.3
-10 -6 7 12.9 8.3
-10 -6 7 -1.1 6.9
9 6 -7 55.19 8.1
9 6 -7 60.79 9.4
-9 -6 7 43.1 8
-9 -6 7 39.6 8.2
8 6 -7 275.27 17.5
8 6 -7 275.57 18.2
-8 -6 7 281.17 17.9
-8 -6 7 282.97 18.2
7 6 -7 528.85 26.8
7 6 -7 563.14 26.5
-7 -6 7 495.05 26.4
-7 -6 7 520.15 26.5
6 6 -7 153.48 11.5
6 6 -7 147.49 12.1
-6 -6 7 136.09 11.5
-6 -6 7 136.99 12
5 6 -7 1003.6 43.3
5 6 -7 1016 43.7
-5 -6 7 980.8 43.4
-5 -6 7 936.01 43.3
4 6 -7 1179.58 49.3
4 6 -7 1173.78 49
-4 -6 7 1091.79 48.8
-4 -6 7 1092.49 49
3 6 -7 2785.22 113.29
3 6 -7 2756.62 113.59
-3 -6 7 2765.02 113.29
-3 -6 7 2741.43 113.59
2 6 -7 1566.04 66.09
2 6 -7 1605.44 65.89
-2 -6 7 1554.94 65.89
-2 -6 7 1591.94 65.99
1 6 -7 273.67 13.9
1 6 -7 279.27 14.4
-1 -6 7 278.67 14.3
-1 -6 7 266.87 14
0 6 -7 233.28 11.7
0 6 -7 212.18 11.1
0 -6 7 190.38 11.2
0 -6 7 198.68 11.4
-1 6 -7 568.54 26.1
-1 6 -7 588.94 26.3
1 -6 7 609.74 26.2
1 -6 7 627.94 26.4
-2 6 -7 753.52 32.2
-2 6 -7 760.32 32.4
2 -6 7 754.22 32.3
2 -6 7 768.12 32.3
-3 6 -7 348.47 15.8
-3 6 -7 352.06 15.5
3 -6 7 334.07 15.7
3 -6 7 335.47 15.7
-4 6 -7 98.19 6.3
4 -6 7 86.99 6.2
4 -6 7 85.49 6.1
-5 6 -7 116.09 7.5
-5 6 -7 112.89 6.9
5 -6 7 114.09 7
5 -6 7 112.69 6.7
-6 6 -7 64.49 5.5
-6 6 -7 65.19 5.8
6 -6 7 68.69 5.3
6 -6 7 72.09 5.5
-7 6 -7 300.27 14.4
-7 6 -7 304.07 14.2
7 -6 7 318.67 14.1
7 -6 7 323.27 14.2
-8 6 -7 528.75 23.2
-8 6 -7 527.75 23.3
8 -6 7 556.94 23.1
8 -6 7 541.25 23.1
-9 6 -7 597.44 25.8
-9 6 -7 621.44 26
9 -6 7 593.24 25.7
9 -6 7 601.04 25.7
-10 6 -7 48.3 6.1
-10 6 -7 43.5 6.1
10 -6 7 55.79 5.9
10 -6 7 60.99 5.8
-11 6 -7 141.29 9.4
-11 6 -7 141.89 9.3
11 -6 7 144.59 9
11 -6 7 155.48 9
-12 6 -7 17 4.9
-12 6 -7 17.2 4.9
12 -6 7 29.3 4.7
14 5 -7 265.77 25.3
14 5 -7 298.17 24.2
-14 -5 7 326.87 24.9
-14 -5 7 290.07 24.5
13 5 -7 207.28 21.4
13 5 -7 221.88 19.8
-13 -5 7 204.48 20.6
-13 -5 7 218.98 20.3
12 5 -7 69.89 10.5
12 5 -7 84.49 12.6
-12 -5 7 66.49 10.9
-12 -5 7 65.89 10.8
11 5 -7 266.97 18.9
11 5 -7 252.97 19.6
-11 -5 7 281.37 19.8
-11 -5 7 261.37 19
10 5 -7 431.76 24.4
10 5 -7 446.76 24.3
-10 -5 7 429.76 24.2
-10 -5 7 417.16 24.2
9 5 -7 174.78 14.3
9 5 -7 172.08 14.8
-9 -5 7 183.98 14.5
-9 -5 7 180.48 14.7
8 5 -7 190.38 13.5
8 5 -7 165.68 13.8
-8 -5 7 164.78 13.5
-8 -5 7 174.78 13.5
7 5 -7 145.99 12.1
7 5 -7 150.88 11.8
-7 -5 7 154.38 12.3
-7 -5 7 140.89 12.1
6 5 -7 238.68 14.4
6 5 -7 236.78 14.8
-6 -5 7 244.98 14.6
-6 -5 7 235.08 14.8
5 5 -7 381.06 19.3
5 5 -7 374.26 18.9
-5 -5 7 345.87 19
-5 -5 7 379.56 19.1
4 5 -7 1307.77 53.69
4 5 -7 1262.77 53.29
-4 -5 7 1222.08 53.29
-4 -5 7 1223.28 53.39
3 5 -7 2239.58 91.29
3 5 -7 2147.69 91.39
-3 -5 7 2222.28 91.39
-3 -5 7 2257.87 91.59
2 5 -7 939.61 39.6
2 5 -7 924.01 39.9
-2 -5 7 927.61 39.8
-2 -5 7 909.91 39.7
1 5 -7 1284.97 51.99
1 5 -7 1269.87 52.39
-1 -5 7 1244.88 52.19
-1 -5 7 1167.78 51.99
0 5 -7 1773.62 69.79
0 5 -7 1798.52 69.79
0 -5 7 1614.04 69.59
0 -5 7 1572.04 69.49
-1 5 -7 1525.85 66.59
-1 5 -7 1533.55 66.49
1 -5 7 1700.53 66.79
1 -5 7 1718.33 66.69
-2 5 -7 1398.36 59.49
-2 5 -7 1433.86 59.29
2 -5 7 1433.46 59.49
2 -5 7 1506.65 59.49
-3 5 -7 518.55 22.8
3 -5 7 531.05 22.7
3 -5 7 510.75 22.8
-4 5 -7 167.38 9.6
-4 5 -7 164.38 10.3
4 -5 7 201.48 10
4 -5 7 194.28 9.8
-5 5 -7 1477.05 62.09
-5 5 -7 1444.06 61.69
5 -5 7 1549.14 61.69
5 -5 7 1541.95 61.79
-6 5 -7 1140.39 47.1
-6 5 -7 1117.99 46.8
6 -5 7 1126.29 46.6
6 -5 7 1114.59 46.8
-7 5 -7 408.86 19.6
-7 5 -7 407.36 19.4
7 -5 7 451.45 19.2
7 -5 7 434.56 19.3
-8 5 -7 382.26 18.1
-8 5 -7 372.26 18
8 -5 7 390.46 17.6
8 -5 7 384.26 17.9
-9 5 -7 93.39 8.3
-9 5 -7 94.19 8.3
9 -5 7 95.09 7.8
9 -5 7 97.99 7.8
-10 5 -7 11.6 4.8
-10 5 -7 8.8 4.7
10 -5 7 7.3 4.5
10 -5 7 6.1 4.1
-11 5 -7 31.2 6.1
-11 5 -7 25.6 5.9
11 -5 7 30.2 5.6
-12 5 -7 51.89 7.2
-12 5 -7 49.99 7.2
12 -5 7 54.99 7
15 4 -7 206.48 23.8
15 4 -7 221.38 24.7
-15 -4 7 220.68 22.9
-15 -4 7 245.08 23.4
14 4 -7 683.93 38.9
14 4 -7 706.63 37.9
-14 -4 7 759.52 38.7
-14 -4 7 750.72 38.6
13 4 -7 448.06 26.6
13 4 -7 439.46 27.7
-13 -4 7 443.86 27.2
-13 -4 7 435.26 26.9
12 4 -7 71.79 11
-12 -4 7 52.79 10.8
-12 -4 7 41.7 10.1
11 4 -7 79.79 10.5
11 4 -7 75.29 10.9
-11 -4 7 103.19 12.3
-11 -4 7 64.69 9.7
10 4 -7 105.29 12.4
10 4 -7 93.79 12.5
-10 -4 7 125.39 13.4
-10 -4 7 119.89 12.7
9 4 -7 856.61 42.1
9 4 -7 871.61 41.8
-9 -4 7 981.8 42.5
-9 -4 7 984.6 42.5
8 4 -7 616.94 29.2
8 4 -7 576.04 29.4
-8 -4 7 628.04 29.6
-8 -4 7 615.04 29.5
7 4 -7 65.69 8.4
7 4 -7 60.79 8.4
-7 -4 7 58.19 7.8
-7 -4 7 64.59 9.3
6 4 -7 52.19 7.7
6 4 -7 73.29 8.6
-6 -4 7 54.99 8
-6 -4 7 78.39 8.8
5 4 -7 270.57 15.6
5 4 -7 266.57 14.7
-5 -4 7 277.47 15.6
-5 -4 7 265.47 14.8
4 4 -7 68.69 7.2
4 4 -7 72.39 7.9
-4 -4 7 71.19 7.8
-4 -4 7 79.59 7.5
3 4 -7 57.69 6.6
3 4 -7 71.89 9.3
-3 -4 7 39.9 6.2
-3 -4 7 81.99 9.2
2 4 -7 1206.08 50.89
2 4 -7 1190.28 50.69
-2 -4 7 1221.48 50.99
-2 -4 7 1211.98 50.89
1 4 -7 86.59 6.8
1 4 -7 77.89 6.4
-1 -4 7 65.79 6.5
-1 -4 7 66.49 6.4
0 4 -7 1682.13 65.49
0 4 -7 1673.43 65.59
0 -4 7 1459.45 65.29
0 -4 7 1519.15 65.19
-1 4 -7 1776.62 71.89
-1 4 -7 1754.52 72.19
1 -4 7 1776.82 72.09
1 -4 7 1702.53 71.99
-2 4 -7 1172.78 48.5
-2 4 -7 1211.08 48.2
2 -4 7 1137.89 48.3
2 -4 7 1115.69 48.4
-3 4 -7 328.37 15.7
3 -4 7 320.97 15.7
3 -4 7 337.47 15.7
-4 4 -7 456.85 20.7
-4 4 -7 481.35 21.3
4 -4 7 444.46 20.4
4 -4 7 446.16 20.7
-5 4 -7 2926.41 121.19
-5 4 -7 3031.8 121.59
5 -4 7 2935.31 121.19
5 -4 7 3052.69 120.99
-6 4 -7 2656.23 106.69
-6 4 -7 2630.14 106.79
6 -4 7 2569.34 106.49
6 -4 7 2603.74 106.19
-7 4 -7 355.76 17.6
-7 4 -7 364.76 17.7
7 -4 7 349.27 17.3
7 -4 7 347.17 17
-8 4 -7 1.6 4.3
-8 4 -7 -0.8 4.2
8 -4 7 1.9 3.8
-9 4 -7 227.48 13.4
-9 4 -7 214.88 13.2
9 -4 7 220.48 12.8
-10 4 -7 468.75 23.7
-10 4 -7 495.65 24
10 -4 7 527.45 23.9
-11 4 -7 394.36 21.3
-11 4 -7 438.36 21.9
11 -4 7 433.06 21.2
-12 4 -7 39.4 7.8
-12 4 -7 35.8 7.3
12 -4 7 35.9 7.1
15 3 -7 56.89 12.9
15 3 -7 43.6 13
-15 -3 7 67.49 13.7
-15 -3 7 66.49 13.6
14 3 -7 476.55 27.8
14 3 -7 441.96 28.8
-14 -3 7 469.15 28.1
-14 -3 7 448.96 28
13 3 -7 782.22 37.7
13 3 -7 754.42 38.4
-13 -3 7 742.63 38
-13 -3 7 755.02 38
12 3 -7 58.59 10.2
12 3 -7 57.29 10.4
-12 -3 7 58.19 9.8
-12 -3 7 42.8 8.8
11 3 -7 96.79 12
11 3 -7 82.49 12.3
-11 -3 7 83.89 10.9
-11 -3 7 69.79 10
10 3 -7 283.47 18.6
10 3 -7 301.37 19.4
-10 -3 7 351.46 19.8
-10 -3 7 368.36 20
9 3 -7 401.66 22.4
9 3 -7 418.46 23.1
-9 -3 7 464.85 23.4
-9 -3 7 476.05 23.4
8 3 -7 841.42 36.8
8 3 -7 825.22 37.2
-8 -3 7 789.02 37
-8 -3 7 787.12 36.8
7 3 -7 417.56 21.3
7 3 -7 408.46 20.7
-7 -3 7 405.36 20.9
-7 -3 7 420.96 21.3
6 3 -7 131.49 10.4
6 3 -7 126.09 9.6
-6 -3 7 110.29 9.6
-6 -3 7 123.69 10.2
5 3 -7 425.26 21
5 3 -7 412.46 20.4
-5 -3 7 435.96 20.8
-5 -3 7 433.36 20.9
4 3 -7 2329.37 92.39
4 3 -7 2266.97 92.59
-4 -3 7 2200.08 92.49
-4 -3 7 2179.18 92.49
3 3 -7 312.37 15.7
3 3 -7 315.27 15.9
-3 -3 7 309.37 15.8
-3 -3 7 316.67 15.8
2 3 -7 690.33 30.3
2 3 -7 697.13 30.2
-2 -3 7 677.23 30.1
-2 -3 7 685.83 30.3
1 3 -7 808.52 33.9
1 3 -7 790.52 34
-1 -3 7 763.92 33.8
-1 -3 7 776.02 33.9
0 3 -7 195.08 10.1
0 3 -7 179.98 10.4
0 -3 7 175.38 10.2
0 -3 7 177.48 10.2
-1 3 -7 295.97 13.9
-1 3 -7 278.87 14.4
1 -3 7 276.17 14.7
1 -3 7 265.47 14
-2 3 -7 696.23 30.2
2 -3 7 694.03 30
2 -3 7 689.13 30.1
-3 3 -7 791.12 33.6
-3 3 -7 738.83 32.9
3 -3 7 766.22 32.9
3 -3 7 735.83 32.7
-4 3 -7 681.13 28.6
-4 3 -7 695.73 29
4 -3 7 601.74 27.9
4 -3 7 595.24 28.2
-5 3 -7 1183.28 48.8
-5 3 -7 1159.38 48.5
5 -3 7 1091.79 48.2
5 -3 7 1142.19 48
-6 3 -7 1049.7 44.6
-6 3 -7 1057.49 44.9
6 -3 7 1023.8 44.5
-7 3 -7 54.89 7.2
-7 3 -7 44.2 6.9
7 -3 7 61.39 7.7
-8 3 -7 186.48 12
-8 3 -7 182.98 12.2
8 -3 7 155.38 11.5
-9 3 -7 240.08 14.6
-9 3 -7 222.98 14.3
9 -3 7 244.38 14.5
-10 3 -7 1321.97 56.79
-10 3 -7 1312.97 56.49
-11 3 -7 697.03 32.2
-11 3 -7 685.83 32.5
11 -3 7 673.43 32.2
-12 3 -7 34 8.3
-12 3 -7 34.5 8
12 -3 7 23.8 7.7
15 2 -7 75.09 13.8
15 2 -7 76.29 14.4
-15 -2 7 84.49 13.8
-15 -2 7 59.09 11.9
14 2 -7 27.7 10
14 2 -7 25.3 8.9
-14 -2 7 46.8 11.2
-14 -2 7 26.3 9.2
13 2 -7 230.88 17.6
13 2 -7 234.68 19
-13 -2 7 213.88 18.1
-13 -2 7 193.28 17.8
12 2 -7 117.09 13.9
12 2 -7 114.89 13.2
-12 -2 7 112.89 13.6
-12 -2 7 121.29 13.9
11 2 -7 57.59 8.1
11 2 -7 60.59 8.8
-11 -2 7 37.5 7.8
-11 -2 7 48 9.1
10 2 -7 1361.36 61.49
10 2 -7 1356.86 61.99
-10 -2 7 1488.45 62.39
-10 -2 7 1520.25 62.29
9 2 -7 1288.17 58.09
9 2 -7 1295.57 57.59
-9 -2 7 1379.86 58.19
-9 -2 7 1399.26 58.29
8 2 -7 368.06 18.7
8 2 -7 340.97 17.8
-8 -2 7 302.97 17.9
-8 -2 7 304.67 18.2
7 2 -7 356.36 18.5
7 2 -7 351.46 17.9
-7 -2 7 333.97 18.2
-7 -2 7 327.27 18.2
6 2 -7 962.1 42
6 2 -7 946.21 41.6
-6 -2 7 960.2 42
-6 -2 7 966.3 42
5 2 -7 749.92 32.6
5 2 -7 739.13 32.8
-5 -2 7 724.33 32.8
-5 -2 7 719.23 32.7
4 2 -7 2537.85 103.59
4 2 -7 2599.94 103.39
-4 -2 7 2468.35 103.39
-4 -2 7 2466.25 103.39
3 2 -7 94.79 7.7
3 2 -7 101.59 7.5
-3 -2 7 77.79 7.4
-3 -2 7 83.09 7.4
2 2 -7 198.48 11.5
2 2 -7 196.98 11.1
-2 -2 7 208.48 11.5
-2 -2 7 207.38 11.4
1 2 -7 872.51 37.8
1 2 -7 899.31 37.5
-1 -2 7 881.51 37.8
-1 -2 7 863.01 37.8
0 2 -7 771.42 33.4
0 2 -7 791.72 33.1
0 -2 7 756.12 33.4
0 -2 7 755.02 33.2
-1 2 -7 76.79 8.7
1 -2 7 100.09 7.5
-2 2 -7 374.96 18.3
2 -2 7 383.16 18.2
2 -2 7 385.76 18
-3 2 -7 71.09 8.2
-3 2 -7 72.19 8.2
3 -2 7 73.09 8.4
3 -2 7 59.69 7
-4 2 -7 62.49 7.8
-4 2 -7 65.39 7.3
4 -2 7 62.99 7
-5 2 -7 170.78 11.6
-5 2 -7 178.68 11.3
5 -2 7 181.48 11.3
-6 2 -7 54.39 7.7
-6 2 -7 58.99 7.4
6 -2 7 50.69 7.6
-7 2 -7 50.39 7.3
-7 2 -7 50.09 6.9
7 -2 7 64.99 7.8
-8 2 -7 360.46 19.6
-8 2 -7 362.96 19.1
8 -2 7 358.06 19.1
-9 2 -7 114.99 11.7
-9 2 -7 117.39 11.2
9 -2 7 124.89 11.2
-10 2 -7 636.14 31.7
-10 2 -7 638.14 31.3
10 -2 7 677.13 32.9
10 -2 7 691.43 31.7
-11 2 -7 221.68 16.8
-11 2 -7 224.28 15.9
11 -2 7 229.28 18.5
11 -2 7 219.78 16.2
-12 2 -7 125.79 14.6
-12 2 -7 102.19 13.4
12 -2 7 110.29 16.7
12 -2 7 119.29 16.8
15 1 -7 29.9 11.7
15 1 -7 41.8 12.4
-15 -1 7 26.2 10.3
-15 -1 7 24.5 10.5
14 1 -7 132.29 17
14 1 -7 139.89 15.6
-14 -1 7 129.19 16.3
-14 -1 7 132.49 16.3
13 1 -7 5.9 7.4
13 1 -7 -3 7.3
-13 -1 7 4.1 7.6
-13 -1 7 9 7.9
12 1 -7 42.3 8
12 1 -7 31.6 8.1
-12 -1 7 48.9 9.7
-12 -1 7 51.49 9.5
11 1 -7 1.8 6.3
11 1 -7 2.1 5.7
-11 -1 7 2.1 5.9
-11 -1 7 0.3 6.5
10 1 -7 629.44 30
10 1 -7 638.04 30.7
-10 -1 7 639.04 30.7
-10 -1 7 623.34 30.6
9 1 -7 463.35 23.2
9 1 -7 457.65 23.9
-9 -1 7 463.85 23.8
-9 -1 7 483.25 24
8 1 -7 11.6 6
8 1 -7 17 5.5
-8 -1 7 18.9 5.6
-8 -1 7 15.8 5.9
7 1 -7 187.58 12.7
7 1 -7 182.38 12
-7 -1 7 196.68 12.6
-7 -1 7 198.78 12.8
6 1 -7 569.24 27.6
6 1 -7 562.44 27.3
-6 -1 7 621.04 27.8
-6 -1 7 640.44 27.9
5 1 -7 1496.55 62.49
5 1 -7 1437.06 62.29
-5 -1 7 1524.45 62.59
-5 -1 7 1479.95 62.39
4 1 -7 2545.65 101.79
4 1 -7 2510.85 101.99
-4 -1 7 2413.16 101.69
-4 -1 7 2448.16 101.89
3 1 -7 704.43 29.9
3 1 -7 705.33 30.3
-3 -1 7 638.54 29.9
-3 -1 7 651.03 29.9
2 1 -7 313.57 16.2
2 1 -7 312.27 16.7
-2 -1 7 363.66 16.9
-2 -1 7 352.76 16.8
1 1 -7 1370.26 55.59
1 1 -7 1395.46 55.19
-1 -1 7 1257.77 55.29
-1 -1 7 1256.67 55.49
0 1 -7 2171.18 80.39
0 -1 7 1788.92 79.59
0 -1 7 1853.11 79.99
-1 1 -7 386.56 19.3
1 -1 7 400.66 18.9
1 -1 7 403.86 19.2
-2 1 -7 991.9 42.4
-2 1 -7 961.9 41.9
2 -1 7 955.3 41.3
2 -1 7 970.2 41.8
-3 1 -7 330.57 17.1
-3 1 -7 315.07 16.4
3 -1 7 306.67 16.3
-4 1 -7 549.65 26.3
-4 1 -7 521.65 25.7
4 -1 7 592.74 26
-5 1 -7 453.05 22
-5 1 -7 474.15 22.7
5 -1 7 425.56 21.9
-6 1 -7 120.19 10.7
-6 1 -7 120.69 10.2
6 -1 7 109.79 10.2
-7 1 -7 113.79 11.1
-7 1 -7 106.09 10.2
7 -1 7 98.79 10.5
7 -1 7 97.79 11.7
-8 1 -7 53.29 7.9
-8 1 -7 53.09 8.4
8 -1 7 50.59 8.9
8 -1 7 66.79 8.5
-9 1 -7 60.09 9.2
-9 1 -7 56.69 8.5
9 -1 7 45.9 9
9 -1 7 41.1 7.7
-10 1 -7 119.19 13.1
-10 1 -7 118.19 13.4
10 -1 7 132.49 12.8
10 -1 7 132.69 15.3
-11 1 -7 16.1 7.7
-11 1 -7 9.7 7.7
11 -1 7 13.7 9.4
11 -1 7 11.5 7.2
-12 1 -7 13.5 8.8
-12 1 -7 14.5 8.4
12 -1 7 20.1 11
12 -1 7 18.1 10.7
15 0 -7 63.49 11.7
15 0 -7 82.69 13.8
-15 0 7 90.99 13.1
-15 0 7 92.49 13.4
14 0 -7 161.98 17.2
14 0 -7 171.38 16.5
-14 0 7 183.78 17.1
-14 0 7 173.18 17.1
13 0 -7 115.89 13.8
13 0 -7 120.09 14.7
-13 0 7 114.49 14.3
-13 0 7 102.69 14.1
12 0 -7 23.6 7.5
12 0 -7 27 7.9
-12 0 7 14.8 7.3
-12 0 7 20.8 7.5
11 0 -7 4.9 5.6
11 0 -7 8.1 6.9
-11 0 7 10.7 6.6
-11 0 7 6.3 6.2
10 0 -7 107.39 11.6
10 0 -7 108.39 10.8
-10 0 7 115.39 11.4
-10 0 7 98.09 11.5
9 0 -7 308.97 17.6
9 0 -7 291.97 16.8
-9 0 7 290.17 17.2
-9 0 7 294.27 17.2
8 0 -7 32.3 6.3
8 0 -7 44.9 7.1
-8 0 7 41.1 6.9
-8 0 7 42.4 7.1
7 0 -7 40.1 6.2
7 0 -7 31.6 5.8
-7 0 7 27.8 5.5
-7 0 7 33.7 6.1
6 0 -7 1164.48 50.29
6 0 -7 1172.68 50.49
-6 0 7 1155.38 50.29
-6 0 7 1211.08 50.59
5 0 -7 1821.82 77.89
5 0 -7 1883.11 78.29
-5 0 7 1906.01 78.09
-5 0 7 1902.71 78.29
4 0 -7 810.42 34.3
4 0 -7 805.22 34.7
-4 0 7 742.63 34.4
-4 0 7 767.72 34.5
3 0 -7 478.85 23.5
3 0 -7 512.55 22.5
-3 0 7 458.55 23.4
-3 0 7 490.65 22.9
2 0 -7 5.9 4.4
2 0 -7 6.5 3.5
-2 0 7 18.1 4.9
-2 0 7 15 4.3
1 0 -7 1410.56 54.19
-1 0 7 1201.48 53.49
-1 0 7 1184.28 53.39
0 0 -7 588.04 24.2
0 0 7 475.85 23.4
0 0 7 455.45 23.1
-1 0 -7 379.86 20.1
-1 0 -7 405.26 20.8
1 0 7 415.76 19.7
1 0 7 449.16 20.3
-2 0 -7 530.45 25
-2 0 -7 516.35 24.7
2 0 7 485.35 24
-3 0 -7 2148.78 87.19
-3 0 -7 2091.59 86.59
3 0 7 2008.8 86.49
-4 0 -7 2179.18 93.29
-4 0 -7 2266.67 93.99
4 0 7 2309.47 93.59
-5 0 -7 1399.16 61.89
-5 0 -7 1478.05 62.59
5 0 7 1489.05 62.19
-6 0 -7 184.58 13.1
-6 0 -7 195.28 14
6 0 7 180.78 14.6
6 0 7 189.38 13.4
-7 0 -7 41.7 7.4
-7 0 -7 43 7.9
7 0 7 54.59 8.1
7 0 7 49.5 8.7
-8 0 -7 222.08 15.3
-8 0 -7 212.68 15.9
8 0 7 184.78 16.3
8 0 7 206.98 15.2
-9 0 -7 333.87 19.9
-9 0 -7 327.67 20.4
9 0 7 297.07 21
9 0 7 323.57 19.9
-10 0 -7 239.58 17.9
-10 0 -7 248.18 17.4
10 0 7 215.68 19.3
10 0 7 218.78 17.4
-11 0 -7 111.69 15.5
-11 0 -7 134.09 14.9
11 0 7 119.39 17.8
11 0 7 121.19 15
-12 0 -7 115.89 15.3
-12 0 -7 130.89 17.4
12 0 7 104.69 15.2
12 0 7 82.89 14.2
15 -1 -7 375.06 26.3
15 -1 -7 420.46 25.4
-15 1 7 341.27 23.8
-15 1 7 352.16 24.2
14 -1 -7 280.87 19.8
14 -1 -7 273.17 20.6
-14 1 7 286.37 20.3
-14 1 7 307.87 20.7
13 -1 -7 21.6 8.3
13 -1 -7 26.8 8
-13 1 7 31.5 8.4
-13 1 7 28.3 8.5
12 -1 -7 550.94 26.4
12 -1 -7 545.85 27.1
-12 1 7 477.85 26.5
-12 1 7 454.55 26.3
11 -1 -7 715.33 32.3
11 -1 -7 703.23 31.7
-11 1 7 610.94 31.7
-11 1 7 604.04 31.5
10 -1 -7 488.95 24.5
10 -1 -7 493.55 25.1
-10 1 7 479.75 24.9
-10 1 7 491.45 24.9
9 -1 -7 96.59 9.9
9 -1 -7 88.69 10.6
-9 1 7 92.19 10.7
-9 1 7 97.79 10.8
8 -1 -7 60.59 8.4
8 -1 -7 64.39 9.3
-8 1 7 62.29 9.1
-8 1 7 64.99 9.1
7 -1 -7 85.69 9.4
7 -1 -7 80.19 8.7
-7 1 7 93.79 9.5
-7 1 7 102.99 9.6
6 -1 -7 529.35 24.4
6 -1 -7 506.75 23.8
-6 1 7 491.35 24
-6 1 7 496.95 24.2
5 -1 -7 358.26 17.5
5 -1 -7 362.86 18.4
-5 1 7 345.07 18.1
-5 1 7 338.87 18
4 -1 -7 233.28 13.6
4 -1 -7 225.88 12.8
-4 1 7 225.18 13.3
-4 1 7 229.48 13.5
3 -1 -7 195.98 11.6
3 -1 -7 196.08 12.3
-3 1 7 196.88 12.2
-3 1 7 212.98 12.5
2 -1 -7 436.46 21.5
-2 1 7 446.36 21.2
-2 1 7 445.16 21.5
1 -1 -7 366.76 19.7
-1 1 7 418.86 19.6
-1 1 7 411.26 19.9
0 -1 -7 333.27 18.7
0 -1 -7 349.07 19.3
0 1 7 405.96 18.9
0 1 7 377.96 18.3
-1 -1 -7 185.08 13.4
-1 -1 -7 192.98 13.4
1 1 7 205.38 12.7
-2 -1 -7 125.29 10.9
-2 -1 -7 131.69 10.4
2 1 7 114.29 10.2
-3 -1 -7 1201.98 51.19
-3 -1 -7 1187.48 51.79
3 1 7 1156.58 51.19
-4 -1 -7 1995.8 84.19
-4 -1 -7 2047.6 84.89
4 1 7 1983.8 84.29
-5 -1 -7 803.72 36.5
-5 -1 -7 836.92 37.3
5 1 7 791.02 37.5
5 1 7 755.52 36.5
-6 -1 -7 500.85 26
-6 -1 -7 517.15 25.3
6 1 7 493.85 26.3
6 1 7 466.15 25.2
-7 -1 -7 1539.95 69.09
-7 -1 -7 1600.94 69.69
7 1 7 1607.74 70.09
7 1 7 1677.33 69.59
-8 -1 -7 1400.46 62.19
-8 -1 -7 1399.96 62.59
8 1 7 1398.36 63.09
8 1 7 1474.65 62.49
-9 -1 -7 526.35 28.7
-9 -1 -7 504.55 27.9
9 1 7 543.45 29.7
9 1 7 521.35 28
-10 -1 -7 150.68 16.1
-10 -1 -7 163.68 17
10 1 7 200.28 17.4
10 1 7 185.08 19.3
-11 -1 -7 26.2 10.4
-11 -1 -7 25.8 9.4
11 1 7 20.6 10.8
11 1 7 19.7 10.9
-12 -1 -7 74.19 11.8
-12 -1 -7 100.69 14.8
12 1 7 60.09 13.9
12 1 7 62.79 14.6
15 -2 -7 216.28 21.4
15 -2 -7 199.88 18.9
-15 2 7 175.48 19.4
-15 2 7 184.18 17.9
14 -2 -7 171.98 15.9
14 -2 -7 164.28 16.7
-14 2 7 135.09 16.7
-14 2 7 143.09 15.9
13 -2 -7 24.5 8.7
13 -2 -7 24.2 7.9
-13 2 7 26.4 8.4
-13 2 7 28.8 9
12 -2 -7 100.29 12.2
12 -2 -7 90.19 12.8
-12 2 7 93.89 11.2
-12 2 7 79.19 10.4
11 -2 -7 325.67 18
11 -2 -7 334.77 18.8
-11 2 7 253.47 18
-11 2 7 250.27 17.8
10 -2 -7 480.95 25.4
10 -2 -7 479.25 25.9
-10 2 7 575.34 26.5
-10 2 7 541.75 26.2
9 -2 -7 1134.59 48.4
9 -2 -7 1117.49 48.8
-9 2 7 1117.09 48.8
-9 2 7 1071.59 48.7
8 -2 -7 79.39 8.9
8 -2 -7 89.39 10
-8 2 7 87.99 9.7
-8 2 7 94.69 10.1
7 -2 -7 1331.87 59.29
7 -2 -7 1386.86 59.99
-7 2 7 1456.65 60.09
-7 2 7 1443.76 59.89
6 -2 -7 1781.32 73.69
6 -2 -7 1774.62 73.09
-6 2 7 1725.13 73.59
-6 2 7 1718.83 73.39
5 -2 -7 621.84 28.5
5 -2 -7 638.24 27.9
-5 2 7 603.84 28.5
-5 2 7 576.04 28.2
4 -2 -7 74.79 8.6
4 -2 -7 71.09 7.6
-4 2 7 67.59 8.5
-4 2 7 65.09 8.3
3 -2 -7 144.59 11.6
-3 2 7 158.28 11.3
-3 2 7 158.28 11.3
2 -2 -7 168.88 13.4
-2 2 7 195.58 13.4
-2 2 7 183.18 12.3
1 -2 -7 150.28 11.7
1 -2 -7 127.39 11.6
-1 2 7 114.09 10.3
-1 2 7 129.29 10.9
0 -2 -7 135.19 11.5
0 -2 -7 127.99 10.8
0 2 7 123.19 10.5
-1 -2 -7 116.09 10.4
-1 -2 -7 113.99 10.9
1 2 7 111.29 10.2
-2 -2 -7 135.29 11.7
-2 -2 -7 155.68 12.4
2 2 7 162.48 11.8
-3 -2 -7 36.6 7.8
-3 -2 -7 27.9 6.5
3 2 7 42.8 7.4
-4 -2 -7 105.09 11.5
-4 -2 -7 89.39 10.6
4 2 7 80.59 10.7
4 2 7 82.59 12.1
-5 -2 -7 38 7.5
-5 -2 -7 55.89 9.6
5 2 7 45.6 8.2
5 2 7 29.2 7.7
-6 -2 -7 9.2 6.1
-6 -2 -7 13.4 7.4
6 2 7 13.7 7.5
6 2 7 13.5 7.6
-7 -2 -7 610.94 32
-7 -2 -7 593.34 31.2
7 2 7 657.43 31.8
7 2 7 634.94 32.7
-8 -2 -7 693.93 34.8
-8 -2 -7 700.53 34.2
8 2 7 647.84 35.3
8 2 7 682.23 34.3
-9 -2 -7 242.58 19.6
-9 -2 -7 231.18 18.5
9 2 7 228.78 18.7
9 2 7 237.58 20.9
-10 -2 -7 218.98 19.3
-10 -2 -7 225.68 20.2
10 2 7 256.07 20.7
10 2 7 231.58 22.5
-11 -2 -7 78.49 13.2
-11 -2 -7 61.79 11.4
11 2 7 125.29 16.9
11 2 7 95.89 15.1
15 -3 -7 22.7 9.7
15 -3 -7 23.7 12.1
-15 3 7 18.2 9.7
-15 3 7 28.3 9.8
14 -3 -7 7.1 8.3
14 -3 -7 8.4 8.2
-14 3 7 2.7 8.1
-14 3 7 6.5 8.6
13 -3 -7 28.1 8.8
13 -3 -7 32.7 8.3
-13 3 7 32.7 9
-13 3 7 29.5 8.4
12 -3 -7 340.37 20.7
12 -3 -7 350.56 19.5
-12 3 7 318.67 20.3
-12 3 7 302.37 19.9
11 -3 -7 384.26 19.6
11 -3 -7 375.56 20.6
-11 3 7 300.37 19.7
-11 3 7 303.07 19.7
10 -3 -7 370.36 20.8
10 -3 -7 359.56 19.8
-10 3 7 384.36 20.8
-10 3 7 371.46 20.7
9 -3 -7 883.61 38.9
9 -3 -7 852.31 39.4
-9 3 7 864.81 39.4
-9 3 7 890.61 39.7
8 -3 -7 199.88 13.2
8 -3 -7 201.88 14
-8 3 7 212.58 14.3
-8 3 7 213.18 13.8
7 -3 -7 1817.32 76.89
7 -3 -7 1913.51 77.79
-7 3 7 1803.52 77.39
-7 3 7 1842.02 77.69
6 -3 -7 2109.79 89.39
6 -3 -7 2125.89 90.09
-6 3 7 2205.18 90.29
-6 3 7 2202.58 90.09
5 -3 -7 1559.64 65.79
-5 3 7 1555.44 65.89
-5 3 7 1534.55 65.59
4 -3 -7 59.09 9
-4 3 7 63.89 8.9
-4 3 7 65.59 8.6
3 -3 -7 526.05 25.9
-3 3 7 540.45 25.9
-3 3 7 538.85 25.4
2 -3 -7 1499.75 65.29
2 -3 -7 1494.05 64.59
-2 3 7 1523.45 63.99
-2 3 7 1548.65 64.69
1 -3 -7 1591.14 69.49
1 -3 -7 1706.93 70.39
-1 3 7 1679.13 69.69
-1 3 7 1575.94 68.79
0 -3 -7 572.74 28.2
0 -3 -7 552.14 27.4
0 3 7 574.14 27.5
-1 -3 -7 521.65 26.8
-1 -3 -7 544.75 26.3
1 3 7 517.25 26.2
-2 -3 -7 22.8 6
-2 -3 -7 32.5 7
2 3 7 14.9 5.6
-3 -3 -7 388.46 21.6
-3 -3 -7 376.06 20.8
3 3 7 355.56 21.9
3 3 7 360.86 20.7
-4 -3 -7 410.16 23.2
-4 -3 -7 393.96 22.2
4 3 7 420.46 22.7
4 3 7 404.26 23.8
-5 -3 -7 14.8 7.1
-5 -3 -7 18.8 8.3
5 3 7 13.7 7.4
5 3 7 11.3 7.7
-6 -3 -7 430.26 24.5
-6 -3 -7 466.85 25.8
6 3 7 428.06 24.8
6 3 7 420.06 25.7
-7 -3 -7 391.36 24.6
-7 -3 -7 449.16 26
7 3 7 434.06 25
7 3 7 428.16 26.4
-8 -3 -7 465.85 26.6
-8 -3 -7 478.95 27.8
8 3 7 451.55 26.8
8 3 7 436.56 28.2
-9 -3 -7 5.2 8.7
-9 -3 -7 5.1 9.4
9 3 7 -3 8.3
9 3 7 2 10.1
-10 -3 -7 4.5 10
-10 -3 -7 6.1 10.7
10 3 7 -0.1 9.8
10 3 7 6.4 12.7
-11 -3 -7 58.39 13.3
-11 -3 -7 48.1 12.6
11 3 7 99.99 17
11 3 7 87.79 16.6
14 -4 -7 -1.5 9.9
-14 4 7 0.3 8.1
-14 4 7 -1.4 8.5
13 -4 -7 65.29 10.5
13 -4 -7 94.19 10.7
-13 4 7 62.69 10.6
-13 4 7 73.99 10.8
12 -4 -7 40.5 8.1
12 -4 -7 37.9 8.7
-12 4 7 37.7 8.7
-12 4 7 41.1 9.1
11 -4 -7 69.59 9.8
11 -4 -7 66.99 9
-11 4 7 53.99 9.2
-11 4 7 53.79 9.2
10 -4 -7 258.07 16.6
10 -4 -7 239.58 15.6
-10 4 7 254.17 17.1
-10 4 7 250.77 16.6
9 -4 -7 318.67 17.8
9 -4 -7 315.47 18.6
-9 4 7 317.57 18.5
-9 4 7 331.27 19.2
8 -4 -7 69.89 9.6
8 -4 -7 80.59 10.6
-8 4 7 99.09 11.3
-8 4 7 83.99 10.3
7 -4 -7 542.15 25.4
-7 4 7 489.85 24.9
-7 4 7 472.05 25
6 -4 -7 608.74 29.2
-6 4 7 587.84 28.9
-6 4 7 635.04 29.4
5 -4 -7 115.89 11.2
-5 4 7 114.79 10.8
-5 4 7 126.59 11.1
4 -4 -7 191.78 13.8
-4 4 7 183.28 12.9
-4 4 7 195.98 13.6
3 -4 -7 1257.67 57.59
3 -4 -7 1275.67 56.99
-3 4 7 1353.86 56.69
-3 4 7 1393.06 57.39
2 -4 -7 2748.32 113.89
2 -4 -7 2721.93 113.29
-2 4 7 2684.43 112.49
-2 4 7 2763.72 113.39
1 -4 -7 2172.88 93.09
1 -4 -7 2195.98 92.49
-1 4 7 2248.77 92.69
0 -4 -7 69.69 10.2
0 -4 -7 57.39 8.9
0 4 7 72.29 10.5
-1 -4 -7 782.12 36.1
-1 -4 -7 757.72 36.7
1 4 7 767.32 36.1
-2 -4 -7 1391.06 60.49
-2 -4 -7 1399.96 59.89
2 4 7 1310.27 59.79
-3 -4 -7 915.61 40.8
-3 -4 -7 931.21 41.5
3 4 7 818.82 40.4
3 4 7 801.92 41.5
-4 -4 -7 148.79 14.2
-4 -4 -7 165.78 15.5
4 4 7 155.88 16.3
4 4 7 147.59 14.6
-5 -4 -7 201.28 16.7
-5 -4 -7 212.38 17.7
5 4 7 212.58 18.6
5 4 7 192.78 16.9
-6 -4 -7 439.76 26.2
-6 -4 -7 433.66 25.1
6 4 7 418.06 26.7
6 4 7 409.86 25.2
-7 -4 -7 11.1 9.3
-7 -4 -7 17.3 9
7 4 7 13.2 10.1
7 4 7 24.4 9.3
-8 -4 -7 223.88 19.9
-8 -4 -7 214.38 20.7
8 4 7 248.58 23.2
-9 -4 -7 97.49 15.6
-9 -4 -7 97.79 15
9 4 7 95.89 14.9
9 4 7 99.59 16.6
-10 -4 -7 199.58 21.2
10 4 7 213.08 25
10 4 7 185.58 24.4
14 -5 -7 -8.6 9.7
14 -5 -7 0.5 8.5
-14 5 7 5.2 9.1
-14 5 7 -0.2 8.3
13 -5 -7 259.17 19.5
13 -5 -7 248.08 17.3
-13 5 7 256.17 19.2
-13 5 7 251.37 18.3
12 -5 -7 396.56 21.6
12 -5 -7 401.96 23.1
-12 5 7 406.36 23.2
-12 5 7 355.16 22.6
11 -5 -7 175.28 14.2
11 -5 -7 168.48 15.1
-11 5 7 193.28 16
-11 5 7 187.68 15.5
10 -5 -7 228.08 15.9
-10 5 7 204.08 15.4
-10 5 7 203.98 16.2
9 -5 -7 500.55 25.3
-9 5 7 483.25 24.8
-9 5 7 475.95 25.4
8 -5 -7 206.98 14.9
-8 5 7 194.58 14.7
-8 5 7 183.38 14.3
7 -5 -7 337.17 19.5
-7 5 7 334.07 19.3
-7 5 7 343.37 19.3
6 -5 -7 138.79 12.9
-6 5 7 154.18 12.8
-6 5 7 140.19 12.8
5 -5 -7 173.78 13.7
5 -5 -7 162.88 14.4
-5 5 7 170.08 12.9
-5 5 7 171.58 13.4
4 -5 -7 341.47 20
4 -5 -7 359.46 20.6
-4 5 7 350.86 19.8
-4 5 7 335.97 19
3 -5 -7 268.67 17.4
3 -5 -7 275.87 18
-3 5 7 276.17 17.4
-3 5 7 281.87 16.5
2 -5 -7 817.42 37.8
2 -5 -7 794.12 37.1
-2 5 7 818.42 37.3
-2 5 7 745.73 36.1
1 -5 -7 483.15 25.6
1 -5 -7 496.95 26.4
-1 5 7 502.25 25.9
0 -5 -7 158.78 14.6
0 -5 -7 169.38 14
0 5 7 161.68 14.1
-1 -5 -7 697.83 33.8
-1 -5 -7 689.23 33
1 5 7 628.34 32.8
-2 -5 -7 210.08 17
-2 -5 -7 200.58 16.1
2 5 7 229.78 18.2
2 5 7 230.38 16.7
-3 -5 -7 584.64 33.7
-3 -5 -7 608.44 34.6
3 5 7 789.72 36.6
3 5 7 805.02 35.4
-4 -5 -7 31 9.5
-4 -5 -7 42.1 9.7
4 5 7 44 9.2
4 5 7 44.2 11.4
-5 -5 -7 119.59 16.5
-5 -5 -7 105.99 14.6
5 5 7 86.79 13
5 5 7 121.59 15.3
-6 -5 -7 485.05 28.2
-6 -5 -7 481.25 29.4
6 5 7 459.55 29.9
6 5 7 491.45 28.6
-7 -5 -7 804.42 40.9
-7 -5 -7 770.02 39.6
7 5 7 771.52 39.9
7 5 7 738.63 41
-8 -5 -7 307.47 25.1
-8 -5 -7 297.37 23.7
8 5 7 308.67 27.1
-9 -5 -7 28.3 11.9
-9 -5 -7 46.5 13.5
9 5 7 50.09 15.7
9 5 7 46.3 13
13 -6 -7 442.26 25.4
-13 6 7 408.86 24.5
-13 6 7 438.96 25.5
12 -6 -7 794.72 37.4
-12 6 7 762.42 37.4
-12 6 7 763.12 37.2
11 -6 -7 395.06 23
-11 6 7 399.46 23
-11 6 7 414.96 23.4
10 -6 -7 93.19 12.7
-10 6 7 91.79 12.4
-10 6 7 89.39 13.1
9 -6 -7 41.6 8.7
-9 6 7 31.6 7.9
-9 6 7 26.7 8.1
8 -6 -7 88.09 12.1
-8 6 7 58.79 9.4
-8 6 7 68.89 9.8
7 -6 -7 9.5 7.8
7 -6 -7 11.9 7.1
-7 6 7 1.3 5.9
-7 6 7 3.7 6.8
6 -6 -7 -2.7 6.6
6 -6 -7 0.3 6.3
-6 6 7 2.8 6.7
-6 6 7 4.5 5.9
5 -6 -7 158.48 14.1
5 -6 -7 153.58 15
-5 6 7 171.48 13.3
-5 6 7 167.28 14.1
4 -6 -7 14.3 7.3
4 -6 -7 14.5 7.6
-4 6 7 12 6.5
-4 6 7 15.8 6.5
3 -6 -7 519.35 27.9
3 -6 -7 523.25 27.2
-3 6 7 520.15 26.2
-3 6 7 537.55 27.4
2 -6 -7 46.7 8.2
2 -6 -7 53.19 9.4
-2 6 7 45 8.2
1 -6 -7 106.59 13.5
1 -6 -7 101.89 12.8
-1 6 7 122.99 13.3
0 -6 -7 84.09 12.2
0 -6 -7 70.19 10.7
0 6 7 86.49 12.6
-1 -6 -7 154.18 14.7
-1 -6 -7 143.09 15.4
1 6 7 153.08 15.2
-2 -6 -7 193.18 17.2
-2 -6 -7 181.68 17.7
2 6 7 235.18 19.5
2 6 7 243.78 18.2
-3 -6 -7 592.94 33.4
-3 -6 -7 627.24 34.3
3 6 7 686.93 34.2
3 6 7 706.13 35.8
-4 -6 -7 490.55 27.9
-4 -6 -7 494.25 29.2
4 6 7 442.56 29.2
4 6 7 476.05 28
-5 -6 -7 3.7 10
-5 -6 -7 2 9
5 6 7 -3.7 8.9
5 6 7 -4.1 10.3
-6 -6 -7 378.46 26.7
-6 -6 -7 359.96 25.2
6 6 7 344.17 25
6 6 7 355.36 27.4
-7 -6 -7 945.81 46.5
-7 -6 -7 971.1 47.8
7 6 7 852.91 48
-8 -6 -7 257.87 24
8 6 7 234.38 27.1
9 6 7 33.1 12.9
13 -7 -7 301.87 21.5
-13 7 7 291.27 20.8
-13 7 7 295.87 21
12 -7 -7 482.45 26.3
-12 7 7 458.55 26.2
-12 7 7 460.05 26.2
11 -7 -7 177.68 16.6
-11 7 7 199.88 16.4
-11 7 7 198.58 16.8
10 -7 -7 90.79 13.7
-10 7 7 87.49 13.2
-10 7 7 84.39 11.1
9 -7 -7 258.97 19.6
9 -7 -7 268.07 18.4
-9 7 7 257.37 18.1
-9 7 7 233.98 18
8 -7 -7 1279.77 58.39
8 -7 -7 1320.97 57.69
-8 7 7 1299.27 57.39
-8 7 7 1317.37 57.79
7 -7 -7 589.64 32.3
7 -7 -7 619.74 31.5
-7 7 7 648.14 31.3
-7 7 7 675.53 31.9
6 -7 -7 293.77 19.1
6 -7 -7 290.77 20
-6 7 7 280.47 18.1
-6 7 7 280.67 18.9
5 -7 -7 160.68 15.1
5 -7 -7 169.88 15.9
-5 7 7 160.08 14.9
-5 7 7 161.78 14
4 -7 -7 566.44 29.4
4 -7 -7 559.34 30.1
-4 7 7 575.74 29.6
-4 7 7 566.44 28.4
3 -7 -7 1868.41 80.89
-3 7 7 1902.31 80.39
-3 7 7 1826.92 79.29
2 -7 -7 509.65 28.1
2 -7 -7 513.15 28.8
-2 7 7 569.14 28.7
1 -7 -7 145.89 15
1 -7 -7 136.09 15.5
-1 7 7 142.39 15.1
0 -7 -7 42.1 10.6
0 -7 -7 41.8 9
0 7 7 50.89 10.9
-1 -7 -7 39.2 9.9
-1 -7 -7 33.9 9.5
1 7 7 46.3 10.1
-2 -7 -7 9.8 8.5
-2 -7 -7 13.3 8.4
2 7 7 16.5 8.9
2 7 7 14.1 9.7
-3 -7 -7 121.09 16.9
-3 -7 -7 157.68 18.8
3 7 7 133.69 17.7
3 7 7 153.98 19.8
-4 -7 -7 141.19 17.9
-4 -7 -7 129.59 19.2
4 7 7 134.39 20.4
4 7 7 135.69 18
-5 -7 -7 61.09 11.7
-5 -7 -7 88.39 14.7
5 7 7 65.79 13.9
5 7 7 84.29 13.8
-6 -7 -7 372.66 28.1
-6 -7 -7 359.46 27
6 7 7 378.66 27.1
6 7 7 369.26 30
-7 -7 -7 312.07 26.5
-7 -7 -7 322.27 27.6
7 7 7 312.77 26.2
7 7 7 296.97 29.7
-8 -7 -7 126.89 18.2
-8 -7 -7 175.68 23.1
8 7 7 134.89 18
8 7 7 128.39 21.3
12 -8 -7 91.29 12.3
12 -8 -7 78.29 15.4
-12 8 7 103.49 12.6
-12 8 7 95.49 12.7
11 -8 -7 16 12.4
11 -8 -7 10.5 9
-11 8 7 11.3 9
-11 8 7 9.7 8.4
10 -8 -7 44.2 10.8
10 -8 -7 55.79 10.8
-10 8 7 53.89 10.2
-10 8 7 48.4 10.2
9 -8 -7 336.67 21.3
9 -8 -7 302.07 22
-9 8 7 320.47 20.8
-9 8 7 305.97 20.9
8 -8 -7 942.81 46.4
8 -8 -7 949.01 45.4
-8 8 7 1023.7 45.9
-8 8 7 1014.5 45.4
7 -8 -7 170.88 16
7 -8 -7 177.88 17.2
-7 8 7 159.78 15.9
-7 8 7 167.38 15.4
6 -8 -7 4.2 7.7
6 -8 -7 -0.7 8.5
-6 8 7 8.3 8.3
-6 8 7 4.1 7.5
5 -8 -7 194.18 17.7
5 -8 -7 190.28 18
-5 8 7 202.98 17.3
-5 8 7 203.48 16.3
4 -8 -7 257.17 19.5
4 -8 -7 271.17 19.8
-4 8 7 254.07 18.1
-4 8 7 261.97 19.1
3 -8 -7 554.04 29.7
3 -8 -7 521.65 29
-3 8 7 514.65 28.9
-3 8 7 528.35 27.9
2 -8 -7 708.73 37.3
2 -8 -7 702.53 36.6
-2 8 7 788.42 37.4
1 -8 -7 19.8 8.9
1 -8 -7 23 9.6
-1 8 7 16.6 8.6
0 -8 -7 156.28 17.6
0 -8 -7 135.49 16.8
0 8 7 161.48 17.5
-1 -8 -7 440.76 27.8
-1 -8 -7 467.05 28.5
1 8 7 493.45 28.7
-2 -8 -7 53.29 10.8
2 8 7 70.89 12.9
-3 -8 -7 -3.2 9.8
-3 -8 -7 6 11.8
3 8 7 14.2 11.4
3 8 7 1 11.8
-4 -8 -7 160.98 20.4
-4 -8 -7 163.38 21.2
4 8 7 162.48 20.7
4 8 7 170.48 21.2
-5 -8 -7 291.47 25.3
-5 -8 -7 285.77 26.6
5 8 7 318.37 28.6
5 8 7 293.67 25.4
-6 -8 -7 9.9 13
-6 -8 -7 5.4 12.3
6 8 7 3.7 11.3
6 8 7 5.9 15.9
11 -9 -7 36.6 10.7
11 -9 -7 30.5 13.9
-11 9 7 22.5 9.9
-11 9 7 43.1 10.3
10 -9 -7 -7.9 12.2
10 -9 -7 -0.2 9.8
-10 9 7 0.1 8.5
-10 9 7 -2.6 8.8
9 -9 -7 14.5 10.3
9 -9 -7 18.5 9.8
-9 9 7 8.2 9.2
-9 9 7 11.8 9.2
8 -9 -7 43.3 11.3
8 -9 -7 52.59 10.9
-8 9 7 51.69 10.6
-8 9 7 50.79 10.3
7 -9 -7 94.99 13.6
7 -9 -7 100.49 13.1
-7 9 7 54.09 10.7
-7 9 7 64.39 10.9
6 -9 -7 23 10.3
6 -9 -7 25.9 10.1
-6 9 7 23.8 9.2
-6 9 7 21.5 9
5 -9 -7 34.3 10.6
5 -9 -7 40.2 11.4
-5 9 7 27.5 9.7
-5 9 7 34.6 10.7
4 -9 -7 3.5 8.9
4 -9 -7 9 9.4
-4 9 7 5.9 8.2
-4 9 7 15.3 8.8
3 -9 -7 64.99 12.7
3 -9 -7 68.29 11.7
-3 9 7 63.99 11.9
2 -9 -7 455.45 27.7
2 -9 -7 434.96 27.1
-2 9 7 437.26 27.3
1 -9 -7 368.06 25.2
1 -9 -7 361.86 25
-1 9 7 370.96 25.2
0 -9 -7 411.06 27.6
0 -9 -7 405.96 26.8
0 9 7 416.26 27.3
-1 -9 -7 1376.76 61.89
-1 -9 -7 1285.87 60.59
1 9 7 1264.27 60.99
-2 -9 -7 493.35 30.5
-2 -9 -7 507.95 31.6
2 9 7 453.75 32.8
2 9 7 481.05 31.2
-3 -9 -7 80.29 14.9
-3 -9 -7 81.29 16.4
3 9 7 69.99 15
3 9 7 98.99 19.5
-4 -9 -7 77.19 14.8
-4 -9 -7 106.09 18
4 9 7 72.09 16.8
4 9 7 105.69 17.4
-5 -9 -7 166.78 23.9
-5 -9 -7 181.88 25.7
5 9 7 123.69 19.3
9 -10 -7 269.27 25.8
9 -10 -7 292.77 22.7
-9 10 7 270.17 21.8
-9 10 7 280.27 21.4
8 -10 -7 200.78 23.3
8 -10 -7 223.28 19.8
-8 10 7 202.58 19.6
-8 10 7 192.78 18.7
7 -10 -7 0.6 11.6
7 -10 -7 -0.2 9.7
-7 10 7 -2.2 8.9
-7 10 7 -4.3 9.2
6 -10 -7 53.19 12.1
6 -10 -7 37 11.8
-6 10 7 30.6 10.4
-6 10 7 35.4 10.5
5 -10 -7 27.2 11.4
5 -10 -7 17.9 10.8
-5 10 7 40 11.6
-5 10 7 38.2 11.3
4 -10 -7 138.29 18.4
4 -10 -7 150.68 19.4
-4 10 7 140.69 18.4
-4 10 7 109.09 16.7
3 -10 -7 68.19 12.9
3 -10 -7 55.39 12
-3 10 7 69.59 12
2 -10 -7 24.5 11.7
2 -10 -7 37.3 12.8
-2 10 7 28.7 11.1
1 -10 -7 72.59 14.9
1 -10 -7 70.99 15.2
-1 10 7 69.89 14.7
0 -10 -7 280.57 25.2
0 -10 -7 294.07 24.6
0 10 7 283.87 24.7
-1 -10 -7 586.64 34.3
-1 -10 -7 616.64 35.4
1 10 7 498.25 34.2
-2 -10 -7 375.26 27.7
-2 -10 -7 346.97 27.9
2 10 7 308.17 30.2
2 10 7 328.57 28
-3 -10 -7 41.2 14.3
-3 -10 -7 46.5 13.9
3 10 7 27 13.4
3 10 7 50.59 16.5
7 -11 -7 2.4 14.5
7 -11 -7 3.8 11.5
-7 11 7 6.6 10.5
-7 11 7 7.5 10.9
6 -11 -7 84.19 15.3
6 -11 -7 66.09 15.8
-6 11 7 84.29 13.4
-6 11 7 54.59 12.5
5 -11 -7 14.8 13.5
5 -11 -7 10.7 11.8
-5 11 7 12 11.1
-5 11 7 18.2 11.4
4 -11 -7 61.49 15.8
4 -11 -7 97.89 15.4
-4 11 7 94.79 13.6
-4 11 7 115.39 16.3
3 -11 -7 44.8 13.1
3 -11 -7 32 14.5
-3 11 7 60.79 14.4
2 -11 -7 268.27 25.2
2 -11 -7 233.18 23.9
-2 11 7 254.17 23.9
1 -11 -7 6 13.4
1 -11 -7 -1 12.4
-1 11 7 7.8 13.3
0 -11 -7 15.8 14.2
0 -11 -7 16.8 13.5
0 11 7 0.5 13.5
-1 -11 -7 43.5 14.4
-1 -11 -7 61.29 15.8
1 11 7 35.9 14.5
2 16 -8 125.59 15.6
2 16 -8 83.49 15
-2 -16 8 111.99 15.4
-2 -16 8 90.49 16.2
-1 -16 8 113.59 16.5
-1 -16 8 89.39 13.4
0 16 -8 42 12.3
0 16 -8 42.4 10.8
0 -16 8 32.3 12.8
0 -16 8 23.5 10.4
-1 16 -8 141.39 18.5
-1 16 -8 140.09 16
1 -16 8 169.98 21.3
1 -16 8 163.48 17.6
-2 16 -8 85.49 11.2
-2 16 -8 99.79 13.3
2 -16 8 103.09 12.7
2 -16 8 121.09 13.8
5 15 -8 309.27 25.2
5 15 -8 333.17 27.9
-5 -15 8 238.98 26.9
-5 -15 8 246.58 24.5
4 15 -8 146.29 17.7
4 15 -8 150.18 19.7
-4 -15 8 136.59 18.3
-4 -15 8 139.39 19.7
3 15 -8 34.3 12.9
3 15 -8 38.7 11
-3 -15 8 31.3 12.6
-3 -15 8 47.8 12.2
2 15 -8 281.37 23
2 15 -8 259.97 20.6
-2 -15 8 221.38 20.7
-2 -15 8 237.98 21.5
1 15 -8 303.37 22.9
1 15 -8 305.77 21.1
-1 -15 8 266.97 21.5
-1 -15 8 284.67 21.5
0 15 -8 384.56 24.9
0 15 -8 363.36 23.3
0 -15 8 416.26 24.1
0 -15 8 398.86 24.1
-1 15 -8 168.18 17.2
-1 15 -8 174.48 15.6
1 -15 8 192.28 16.6
1 -15 8 196.58 16.7
-2 15 -8 85.29 10.5
-2 15 -8 77.39 11.5
2 -15 8 77.89 10.4
2 -15 8 83.89 10.6
-3 15 -8 207.88 17.3
-3 15 -8 241.58 16.1
3 -15 8 258.57 16.5
3 -15 8 244.38 16.7
-4 15 -8 560.04 28.1
-4 15 -8 563.34 26.8
4 -15 8 558.54 27
4 -15 8 595.74 27.5
-5 15 -8 301.07 15.6
-5 15 -8 273.77 16.9
5 -15 8 303.57 16.1
5 -15 8 291.27 15.9
7 14 -8 -6.7 12.3
7 14 -8 2.2 13
-7 -14 8 -2.3 11.9
-7 -14 8 -3.3 11.2
6 14 -8 4.8 12.2
6 14 -8 10.8 13.4
-6 -14 8 1.5 11.6
-6 -14 8 4.2 11.4
5 14 -8 86.19 16.1
5 14 -8 69.69 13.5
-5 -14 8 49 12.8
-5 -14 8 72.39 14.1
4 14 -8 18.2 11.6
4 14 -8 17.3 9.5
-4 -14 8 21.9 10.5
-4 -14 8 14.2 9.8
3 14 -8 23.7 9.8
3 14 -8 22.2 10.3
-3 -14 8 27.8 9.9
-3 -14 8 24.9 9.6
2 14 -8 405.96 26
2 14 -8 411.66 24.6
-2 -14 8 417.66 25.1
-2 -14 8 411.86 25
1 14 -8 1154.38 52.39
1 14 -8 1131.99 51.29
-1 -14 8 1103.59 51.29
-1 -14 8 1140.39 51.49
0 14 -8 708.83 35.6
0 14 -8 741.33 34.6
0 -14 8 699.63 34.6
0 -14 8 706.53 34.6
-1 14 -8 113.09 13.9
-1 14 -8 113.09 12.6
1 -14 8 93.19 12.9
1 -14 8 110.89 12.9
-2 14 -8 28 8.1
-2 14 -8 22.8 6.9
2 -14 8 21.6 7.1
2 -14 8 17.8 7
-3 14 -8 386.66 22
-3 14 -8 411.46 21.2
3 -14 8 432.26 21.8
3 -14 8 421.06 21.4
-4 14 -8 619.04 30
-4 14 -8 678.73 29.2
4 -14 8 656.23 29.6
4 -14 8 626.74 29.2
-5 14 -8 243.28 14.3
-5 14 -8 246.88 13.1
5 -14 8 242.48 13.4
5 -14 8 249.38 13.7
9 13 -8 94.69 17.2
-9 -13 8 93.69 15.2
-9 -13 8 93.39 15.8
8 13 -8 57.39 14.6
8 13 -8 81.69 16.5
-8 -13 8 60.89 13.6
-8 -13 8 83.39 16.1
7 13 -8 147.59 20.3
7 13 -8 150.48 22.5
-7 -13 8 143.79 20.2
-7 -13 8 156.78 19
6 13 -8 64.79 13.1
6 13 -8 89.99 13.6
-6 -13 8 51.09 12.4
-6 -13 8 42.6 10.8
5 13 -8 182.38 20.7
5 13 -8 199.18 19.4
-5 -13 8 228.98 19.8
-5 -13 8 217.48 19.4
4 13 -8 68.39 10.9
4 13 -8 109.79 14.7
-4 -13 8 53.39 10.7
-4 -13 8 65.69 11.6
3 13 -8 42.1 9.7
3 13 -8 31.5 10
-3 -13 8 35.2 9.2
-3 -13 8 27.9 8.4
2 13 -8 239.78 17.8
2 13 -8 246.98 19.4
-2 -13 8 247.28 18.2
-2 -13 8 233.98 17.8
1 13 -8 268.37 18.2
1 13 -8 261.87 19.2
-1 -13 8 275.67 18.3
-1 -13 8 283.97 18.3
0 13 -8 120.99 13.8
0 13 -8 126.89 12.5
0 -13 8 144.99 13.2
0 -13 8 138.39 13.2
-1 13 -8 43.9 8.4
-1 13 -8 52.99 8.1
1 -13 8 53.19 8.3
1 -13 8 54.39 8.3
-2 13 -8 111.79 12.1
-2 13 -8 105.99 10.7
2 -13 8 99.29 10.8
2 -13 8 99.79 10.9
-3 13 -8 309.37 17.2
-3 13 -8 317.17 18.3
3 -13 8 348.77 17.7
3 -13 8 350.36 17.9
-4 13 -8 424.86 20.1
-4 13 -8 421.76 21
4 -13 8 438.36 20.7
4 -13 8 426.86 20.5
-5 13 -8 58.59 7.8
-5 13 -8 74.09 7.1
5 -13 8 67.49 7.2
5 -13 8 66.19 7.4
10 12 -8 56.39 15.2
10 12 -8 45.6 17
-10 -12 8 57.59 15.5
-10 -12 8 61.49 16.6
9 12 -8 31.1 12.6
9 12 -8 19.5 14.8
-9 -12 8 32.1 14.5
-9 -12 8 18.5 12.4
8 12 -8 108.59 15.9
8 12 -8 104.59 17.7
-8 -12 8 111.59 16.2
-8 -12 8 123.09 17.3
7 12 -8 365.46 25.9
7 12 -8 351.46 24.5
-7 -12 8 305.67 23.9
-7 -12 8 281.47 24.1
6 12 -8 205.88 21
6 12 -8 197.38 19.4
-6 -12 8 185.78 19.2
-6 -12 8 205.08 19.2
5 12 -8 1152.78 55.39
5 12 -8 1188.38 54.69
-5 -12 8 1206.28 55.09
-5 -12 8 1241.68 54.99
4 12 -8 396.76 23.4
4 12 -8 381.76 24.4
-4 -12 8 373.96 23.3
-4 -12 8 381.76 23.4
3 12 -8 467.85 26.5
3 12 -8 479.15 27.4
-3 -12 8 525.85 27.1
-3 -12 8 518.45 27
2 12 -8 492.25 26
2 12 -8 508.85 25.3
-2 -12 8 431.86 24.9
-2 -12 8 452.95 25
1 12 -8 284.57 17.8
1 12 -8 288.17 16.8
-1 -12 8 222.38 16.5
-1 -12 8 225.88 16.4
0 12 -8 8.7 5.6
0 12 -8 11.1 6.6
0 -12 8 18.3 6.4
0 -12 8 10.4 6.1
-1 12 -8 178.28 12.9
-1 12 -8 194.18 14
1 -12 8 177.78 12.9
1 -12 8 184.98 13.1
-2 12 -8 172.88 11.9
-2 12 -8 161.48 12.7
2 -12 8 182.78 12.1
2 -12 8 160.78 11.8
-3 12 -8 84.49 8.4
-3 12 -8 79.19 9.5
3 -12 8 92.59 8.9
3 -12 8 92.69 8.8
-4 12 -8 25.7 5.4
-4 12 -8 28 4.8
4 -12 8 27.6 5.1
4 -12 8 30.2 5.2
-5 12 -8 50.69 6.5
-5 12 -8 49.4 5.4
5 -12 8 46.6 5.8
5 -12 8 48.8 6
11 11 -8 321.97 28.4
11 11 -8 286.97 29.6
-11 -11 8 292.67 27.7
-11 -11 8 301.27 29.3
10 11 -8 42.1 13.7
10 11 -8 37.1 15.9
-10 -11 8 56.99 14.5
-10 -11 8 60.49 15.5
9 11 -8 34.1 11.7
9 11 -8 36.3 13.4
-9 -11 8 38.1 12.2
-9 -11 8 37 11.9
8 11 -8 275.07 24.8
8 11 -8 284.57 22.9
-8 -11 8 320.17 23.4
-8 -11 8 311.57 23.8
7 11 -8 684.03 36
7 11 -8 631.04 36.7
-7 -11 8 728.33 36.4
-7 -11 8 725.93 36.8
6 11 -8 575.84 31.1
6 11 -8 549.54 31.8
-6 -11 8 589.44 31.7
-6 -11 8 623.24 31.6
5 11 -8 606.84 32.4
5 11 -8 621.94 31.9
-5 -11 8 621.54 32.1
-5 -11 8 633.14 32.2
4 11 -8 52.49 9.5
4 11 -8 59.59 10.7
-4 -11 8 69.89 10.1
-4 -11 8 70.29 10.5
3 11 -8 644.64 32.7
3 11 -8 673.83 32.2
-3 -11 8 665.63 32.4
-3 -11 8 657.83 32.2
2 11 -8 1737.93 74.19
2 11 -8 1709.53 74.59
-2 -11 8 1803.82 74.59
-2 -11 8 1731.03 74.29
1 11 -8 489.65 24.6
1 11 -8 469.55 25.1
-1 -11 8 504.45 24.8
-1 -11 8 511.35 25
0 11 -8 74.19 9.2
0 11 -8 71.09 10
0 -11 8 84.69 9.5
0 -11 8 79.89 9.5
-1 11 -8 155.28 12.1
-1 11 -8 163.18 11.5
1 -11 8 158.88 11.6
1 -11 8 177.18 11.6
-2 11 -8 171.08 11.7
-2 11 -8 160.78 10.9
2 -11 8 163.98 11
2 -11 8 164.38 11
-3 11 -8 180.48 11.3
-3 11 -8 177.88 10.6
3 -11 8 155.38 10.6
3 -11 8 168.68 10.7
-4 11 -8 43.1 5.5
-4 11 -8 46.4 6.3
4 -11 8 30.1 4.7
4 -11 8 32.8 4.9
-5 11 -8 53.19 5.8
-5 11 -8 58.59 5.1
5 -11 8 61.29 5.5
5 -11 8 58.69 5.5
12 10 -8 56.09 13.4
12 10 -8 71.99 17.8
-12 -10 8 68.39 15.4
-12 -10 8 76.79 16.1
11 10 -8 170.78 25
11 10 -8 172.28 21.4
-11 -10 8 154.18 22.2
-11 -10 8 162.58 23.2
10 10 -8 35.2 13
10 10 -8 30.5 12.5
-10 -10 8 29.5 10.9
-10 -10 8 44.2 13.6
9 10 -8 154.98 18
9 10 -8 118.29 15
-9 -10 8 137.89 18.8
-9 -10 8 131.99 18.3
8 10 -8 414.46 26.9
8 10 -8 444.96 27.7
-8 -10 8 511.15 27.9
-8 -10 8 404.06 27
7 10 -8 660.93 34
7 10 -8 642.04 34.5
-7 -10 8 635.64 34
-7 -10 8 688.83 34.4
6 10 -8 281.57 20
6 10 -8 294.67 19.6
-6 -10 8 283.87 19.6
-6 -10 8 279.67 19.6
5 10 -8 57.89 9.3
5 10 -8 85.79 11.8
-5 -10 8 54.49 8.9
-5 -10 8 89.39 11.5
4 10 -8 130.39 13
4 10 -8 116.99 12.3
-4 -10 8 124.79 12.4
-4 -10 8 120.69 12.7
3 10 -8 236.28 15.6
3 10 -8 218.68 16.2
-3 -10 8 248.38 16.1
-3 -10 8 263.57 16.2
2 10 -8 1667.03 71.19
2 10 -8 1666.83 70.69
-2 -10 8 1661.33 70.99
-2 -10 8 1676.63 70.89
1 10 -8 661.53 30.5
1 10 -8 641.84 29.9
-1 -10 8 626.34 29.9
-1 -10 8 649.43 30.2
0 10 -8 44.5 6.5
0 10 -8 34 6.4
0 -10 8 47.1 6.8
0 -10 8 42.8 6.4
-1 10 -8 658.23 30.7
-1 10 -8 689.03 30.3
1 -10 8 677.83 30.5
1 -10 8 673.63 30.2
-2 10 -8 1368.66 60.69
-2 10 -8 1386.56 60.29
2 -10 8 1517.05 60.59
2 -10 8 1532.55 60.79
-3 10 -8 2040.1 85.79
-3 10 -8 2027.9 86.09
3 -10 8 2158.38 85.99
3 -10 8 2167.78 85.99
-4 10 -8 687.83 29.3
-4 10 -8 663.73 29.6
4 -10 8 698.43 29.4
4 -10 8 700.73 29.4
-5 10 -8 53.99 5.3
5 -10 8 49.4 4.9
5 -10 8 53.09 4.8
13 9 -8 214.28 29
-13 -9 8 104.19 16.7
-13 -9 8 143.49 19
12 9 -8 334.57 25.6
12 9 -8 317.97 29.3
-12 -9 8 277.27 26.7
-12 -9 8 287.47 27.1
11 9 -8 432.16 27.8
11 9 -8 393.96 29.4
-11 -9 8 386.46 28.5
-11 -9 8 431.76 28.7
10 9 -8 162.18 20.1
10 9 -8 171.68 18.4
-10 -9 8 173.08 19.9
-10 -9 8 177.68 19.6
9 9 -8 16 9.3
9 9 -8 11.5 8.4
-9 -9 8 21.5 9.1
-9 -9 8 14.6 9.1
8 9 -8 566.34 31.5
8 9 -8 579.34 31.2
-8 -9 8 581.44 31.4
-8 -9 8 607.34 31.3
7 9 -8 139.09 15.1
7 9 -8 134.69 14.6
-7 -9 8 124.19 14.8
-7 -9 8 131.59 14.6
6 9 -8 17.4 7.8
6 9 -8 10.4 6.6
-6 -9 8 9.9 6.3
-6 -9 8 15.4 7.8
5 9 -8 330.27 20.5
5 9 -8 347.47 19.8
-5 -9 8 331.67 20
-5 -9 8 350.66 21
4 9 -8 18.6 6.2
4 9 -8 19 6.7
-4 -9 8 16.8 6.2
-4 -9 8 15.5 6.7
3 9 -8 102.49 10.5
3 9 -8 98.79 11.1
-3 -9 8 122.29 11.1
-3 -9 8 121.39 10.9
2 9 -8 8.7 4.8
2 9 -8 11.3 5.4
-2 -9 8 11.3 4.9
-2 -9 8 11.5 5.1
1 9 -8 87.69 8.6
1 9 -8 81.29 9.1
-1 -9 8 56.49 8.4
-1 -9 8 60.39 8.1
0 9 -8 70.89 8.4
0 9 -8 76.99 8.1
0 -9 8 83.79 8.2
0 -9 8 73.49 8.3
-1 9 -8 435.56 20.4
-1 9 -8 448.66 20.9
1 -9 8 427.76 20.7
1 -9 8 422.16 20.4
-2 9 -8 808.72 34
-2 9 -8 791.72 33.5
2 -9 8 750.42 33.6
2 -9 8 755.12 33.6
-3 9 -8 669.13 29.4
-3 9 -8 659.93 29.1
3 -9 8 687.13 29.2
3 -9 8 679.73 29.2
-4 9 -8 166.98 9.2
-4 9 -8 169.98 8.8
4 -9 8 146.59 8.7
4 -9 8 148.79 8.9
-5 9 -8 304.17 13.4
5 -9 8 287.37 13.2
5 -9 8 284.87 13.2
13 8 -8 309.47 29.6
13 8 -8 294.97 25.4
-13 -8 8 320.17 28
-13 -8 8 307.87 27.7
12 8 -8 813.82 44.1
12 8 -8 799.52 42
-12 -8 8 834.82 43.5
-12 -8 8 818.22 43.3
11 8 -8 608.74 32.9
11 8 -8 553.84 34.1
-11 -8 8 589.94 33.7
-11 -8 8 613.74 34
10 8 -8 384.36 25.8
10 8 -8 384.56 24.6
-10 -8 8 400.56 25.8
-10 -8 8 400.86 25.4
9 8 -8 447.66 25.8
9 8 -8 396.66 24.6
-9 -8 8 392.46 24.8
-9 -8 8 411.86 25.6
8 8 -8 1448.36 63.99
8 8 -8 1455.35 64.49
-8 -8 8 1449.46 64.19
-8 -8 8 1438.06 64.19
7 8 -8 458.85 24.8
7 8 -8 460.55 25.4
-7 -8 8 444.66 24.9
-7 -8 8 454.65 25
6 8 -8 105.09 12
6 8 -8 102.29 12.6
-6 -8 8 137.39 12.9
-6 -8 8 136.89 12.8
5 8 -8 21.9 6.5
5 8 -8 17.2 5.9
-5 -8 8 13.3 6.2
-5 -8 8 13 5.9
4 8 -8 315.97 18
4 8 -8 299.27 17.3
-4 -8 8 302.67 17.5
-4 -8 8 301.47 17.6
3 8 -8 60.79 9
3 8 -8 60.99 8.7
-3 -8 8 76.69 9.2
-3 -8 8 60.69 8.8
2 8 -8 55.19 7.7
2 8 -8 71.19 8.3
-2 -8 8 50.19 6.7
-2 -8 8 55.09 8.3
1 8 -8 45.8 6
1 8 -8 47.5 6.5
-1 -8 8 39.1 5.8
-1 -8 8 45 6.3
0 8 -8 251.57 14.3
0 8 -8 262.67 13.8
0 -8 8 258.57 13.9
0 -8 8 259.47 14.2
-1 8 -8 31.6 4.8
-1 8 -8 28.6 5.1
1 -8 8 35 5.3
1 -8 8 37.8 5.2
-2 8 -8 126.39 8.1
-2 8 -8 107.49 8.1
2 -8 8 94.79 7.7
2 -8 8 102.99 8.1
-3 8 -8 116.39 8.3
-3 8 -8 110.39 7.9
3 -8 8 145.99 8.4
3 -8 8 138.99 8.4
-4 8 -8 34.4 4.9
-4 8 -8 40 4.6
4 -8 8 37.9 5.1
4 -8 8 38.8 4.5
-5 8 -8 78.29 5.7
5 -8 8 64.79 5.5
5 -8 8 67.09 5.4
-6 8 -8 88.79 5.6
6 -8 8 65.39 4.9
6 -8 8 69.19 4.9
14 7 -8 200.38 26.6
-14 -7 8 247.68 26
-14 -7 8 210.58 25.3
13 7 -8 472.45 32.3
13 7 -8 476.45 29.7
-13 -7 8 454.65 31.1
-13 -7 8 467.35 31.4
12 7 -8 482.85 28.2
12 7 -8 458.55 29.7
-12 -7 8 418.46 28.6
-12 -7 8 422.76 28.2
11 7 -8 67.29 10.4
-11 -7 8 57.09 10.9
10 7 -8 122.39 14.4
10 7 -8 111.29 15.8
-10 -7 8 120.69 15.9
-10 -7 8 121.39 15.4
9 7 -8 209.58 16.8
9 7 -8 223.68 18
-9 -7 8 233.88 18.1
-9 -7 8 217.48 17.3
8 7 -8 1339.27 63.79
8 7 -8 1471.05 64.69
-8 -7 8 1499.35 64.49
-8 -7 8 1556.94 64.69
7 7 -8 832.62 38.1
7 7 -8 821.72 38.5
-7 -7 8 780.82 38.1
-7 -7 8 817.82 38.2
6 7 -8 96.49 11.5
6 7 -8 89.09 10.5
-6 -7 8 112.69 11.2
-6 -7 8 94.99 11.5
5 7 -8 351.06 18.7
5 7 -8 346.57 19.3
-5 -7 8 322.67 18.9
-5 -7 8 317.67 18.5
4 7 -8 1451.45 60.99
4 7 -8 1427.46 61.29
-4 -7 8 1414.96 60.99
-4 -7 8 1414.26 61.09
3 7 -8 2124.69 87.59
3 7 -8 2095.19 87.79
-3 -7 8 2115.19 87.79
-3 -7 8 2089.09 87.59
2 7 -8 1283.77 55.19
2 7 -8 1301.77 54.89
-2 -7 8 1285.67 54.99
-2 -7 8 1305.57 55.19
1 7 -8 122.49 9.8
1 7 -8 143.19 9.4
-1 -7 8 133.49 9.8
-1 -7 8 131.39 9.4
0 7 -8 429.66 19.3
0 7 -8 430.96 19.7
0 -7 8 371.86 19.3
0 -7 8 387.26 19.2
-1 7 -8 546.35 24.3
-1 7 -8 551.64 24.1
1 -7 8 516.35 24
1 -7 8 522.45 24.1
-2 7 -8 116.99 7.7
-2 7 -8 115.49 7.9
2 -7 8 86.09 7.6
2 -7 8 103.39 7.6
-3 7 -8 104.09 7.5
-3 7 -8 108.29 7.2
3 -7 8 99.89 7.4
3 -7 8 103.39 7.4
-4 7 -8 12.1 3.5
4 -7 8 16.1 3.6
4 -7 8 15.3 3.5
-5 7 -8 304.87 15
-5 7 -8 304.37 14.5
5 -7 8 312.67 14.5
5 -7 8 317.27 14.4
-6 7 -8 242.18 11.8
-6 7 -8 240.88 11.4
6 -7 8 228.98 11.2
6 -7 8 223.08 11.3
-7 7 -8 47.3 4.9
7 -7 8 33.2 4.6
7 -7 8 30.2 4.5
-8 7 -8 3.4 2.8
-8 7 -8 0.8 2.8
8 -7 8 1.1 2.4
8 -7 8 1.2 2.6
-9 7 -8 92.39 6.3
14 6 -8 60.09 14.4
14 6 -8 65.09 16.1
-14 -6 8 38.8 13.4
-14 -6 8 64.79 15.6
13 6 -8 17 11.3
13 6 -8 18.1 11.1
-13 -6 8 28.1 13.1
-13 -6 8 17.3 10.3
12 6 -8 67.49 13.9
12 6 -8 61.09 11.1
-12 -6 8 90.79 13.9
-12 -6 8 47.4 10.9
11 6 -8 102.79 15.1
11 6 -8 114.89 16.5
-11 -6 8 117.89 15.3
-11 -6 8 134.09 16.6
10 6 -8 114.49 14.8
10 6 -8 123.89 14.3
-10 -6 8 120.29 14.3
9 6 -8 52.69 8.8
9 6 -8 50.39 9.5
-9 -6 8 63.79 10.2
-9 -6 8 51.29 9.4
8 6 -8 490.65 26.3
8 6 -8 520.95 25.8
-8 -6 8 470.45 25.7
-8 -6 8 467.45 25.9
7 6 -8 381.86 20.3
7 6 -8 388.46 20.9
-7 -6 8 328.57 20.1
-7 -6 8 322.57 19.9
6 6 -8 87.49 10.6
6 6 -8 97.59 10
-6 -6 8 89.09 10.6
-6 -6 8 84.89 10.2
5 6 -8 620.04 30.4
5 6 -8 629.24 30
-5 -6 8 667.43 30.6
-5 -6 8 669.03 30.4
4 6 -8 1953.6 83.59
4 6 -8 1991.4 83.29
-4 -6 8 1970.6 83.49
-4 -6 8 2084.39 83.59
3 6 -8 3399.46 141.19
3 6 -8 3363.96 140.79
-3 -6 8 3524.75 141.09
-3 -6 8 3531.75 141.29
2 6 -8 359.46 18.3
2 6 -8 358.56 18.7
-2 -6 8 388.56 18.6
-2 -6 8 389.96 18.9
1 6 -8 488.65 23.1
1 6 -8 502.55 22.8
-1 -6 8 493.05 23
-1 -6 8 492.75 23
0 6 -8 1474.05 60.19
0 6 -8 1481.05 59.99
0 -6 8 1425.76 59.99
0 -6 8 1369.06 59.89
-1 6 -8 450.35 19.6
-1 6 -8 445.86 19.8
1 -6 8 394.76 19.5
1 -6 8 387.86 19.4
-2 6 -8 100.29 7.6
-2 6 -8 94.29 7.2
2 -6 8 114.69 7.8
2 -6 8 116.79 7.8
-3 6 -8 609.54 27.1
-3 6 -8 625.64 26.9
3 -6 8 622.84 27.2
3 -6 8 630.74 27
-4 6 -8 115.79 8
4 -6 8 127.49 8.2
4 -6 8 129.59 8
-5 6 -8 128.99 9
-5 6 -8 125.59 8.2
5 -6 8 124.99 8.1
5 -6 8 125.09 8
-6 6 -8 142.79 9.6
-6 6 -8 135.49 9
6 -6 8 166.48 9
6 -6 8 171.38 9.2
-7 6 -8 71.99 6.7
-7 6 -8 65.69 7.1
7 -6 8 79.19 6.5
7 -6 8 82.39 6.9
-8 6 -8 375.66 17.7
-8 6 -8 376.56 18
8 -6 8 398.26 17.6
8 -6 8 364.96 17.5
-9 6 -8 16.7 4.3
-9 6 -8 16.7 4.5
9 -6 8 17.3 4.3
9 -6 8 16.6 4.1
-10 6 -8 48.4 6
-10 6 -8 44.1 5.7
10 -6 8 45.5 5.5
10 -6 8 42.3 5.4
-11 6 -8 130.99 9.8
-11 6 -8 132.59 10
11 -6 8 134.29 9.6
11 -6 8 140.99 9.6
-12 6 -8 28.2 6.1
-12 6 -8 27.8 5.9
12 -6 8 32.7 5.6
12 -6 8 35.4 5.8
14 5 -8 345.57 27.4
14 5 -8 352.66 26
-14 -5 8 356.96 26.4
-14 -5 8 351.76 26.6
13 5 -8 224.48 19.9
13 5 -8 208.68 22
-13 -5 8 239.08 21.4
-13 -5 8 237.18 21.2
12 5 -8 16.9 9.3
12 5 -8 21.3 8.6
-12 -5 8 15.4 8.8
-12 -5 8 12.8 8.2
11 5 -8 116.09 14.4
11 5 -8 123.09 15.6
-11 -5 8 123.89 15.6
-11 -5 8 123.69 15
10 5 -8 205.58 17
10 5 -8 219.68 16.7
-10 -5 8 206.58 16.9
-10 -5 8 229.68 17.5
9 5 -8 326.47 19.5
9 5 -8 298.17 19.8
-9 -5 8 341.87 20.1
-9 -5 8 316.97 19.9
8 5 -8 41.1 8
8 5 -8 40.2 7.3
-8 -5 8 41.5 7.5
-8 -5 8 42.3 7.5
7 5 -8 243.58 15.1
7 5 -8 251.47 15.9
-7 -5 8 228.28 15.5
-7 -5 8 223.98 15.2
6 5 -8 14.4 4.9
6 5 -8 24.3 6.9
-6 -5 8 15 5
-6 -5 8 27.6 6.8
5 5 -8 638.64 31.1
5 5 -8 673.63 30.8
-5 -5 8 677.43 31.2
-5 -5 8 696.43 31.1
4 5 -8 790.02 36.1
4 5 -8 827.42 35.8
-4 -5 8 822.82 36.2
-4 -5 8 784.72 35.8
3 5 -8 1873.31 75.69
3 5 -8 1843.22 76.19
-3 -5 8 1800.72 75.89
-3 -5 8 1762.82 75.99
2 5 -8 1104.19 47.7
2 5 -8 1110.19 47.5
-2 -5 8 1122.49 47.7
-2 -5 8 1129.39 47.8
1 5 -8 109.39 8.6
1 5 -8 107.29 8.2
-1 -5 8 109.39 8.5
-1 -5 8 114.89 8.4
0 5 -8 1932.21 81.89
0 5 -8 1981.4 82.09
0 -5 8 1991 82.09
0 -5 8 2067.89 82.09
-1 5 -8 1422.76 61.69
-1 5 -8 1486.25 61.49
1 -5 8 1524.65 61.69
1 -5 8 1506.85 61.69
-2 5 -8 842.52 35.7
-2 5 -8 830.82 35.3
2 -5 8 813.32 35.6
2 -5 8 833.52 35.5
-3 5 -8 1221.68 50.49
3 -5 8 1189.88 50.39
3 -5 8 1202.48 50.29
-4 5 -8 755.82 33.7
-4 5 -8 730.43 33.1
4 -5 8 793.32 33.1
4 -5 8 794.12 33.2
-5 5 -8 1689.23 68.69
-5 5 -8 1663.93 68.29
5 -5 8 1632.44 68.09
5 -5 8 1624.44 68.19
-6 5 -8 705.63 30.5
-6 5 -8 739.33 30.9
6 -5 8 656.43 30.2
6 -5 8 677.43 30.2
-7 5 -8 263.77 15.2
-7 5 -8 274.27 15.6
7 -5 8 335.17 15.6
7 -5 8 337.77 15.1
-8 5 -8 130.59 9.9
-8 5 -8 137.49 10.4
8 -5 8 138.19 9.7
8 -5 8 143.59 9.4
-9 5 -8 93.49 8.9
-9 5 -8 102.59 9.1
9 -5 8 77.39 8.3
9 -5 8 79.89 8.4
-10 5 -8 66.59 8.8
-10 5 -8 68.39 9.4
10 -5 8 58.89 8.4
10 -5 8 66.99 8.4
-11 5 -8 29.3 6.8
-11 5 -8 37.8 7
11 -5 8 33.6 6.3
11 -5 8 36.1 6.2
-12 5 -8 39.6 7.8
-12 5 -8 34.9 7.4
12 -5 8 46.8 7.3
12 -5 8 39.1 7
15 4 -8 228.28 25.3
15 4 -8 233.08 24.9
-15 -4 8 249.08 23.4
-15 -4 8 220.58 23.1
14 4 -8 939.21 45.9
14 4 -8 935.01 44.6
-14 -4 8 882.41 45
-14 -4 8 830.82 44.6
13 4 -8 495.85 30.4
13 4 -8 530.85 29.5
-13 -4 8 536.85 30.1
-13 -4 8 534.25 30.4
12 4 -8 82.39 11.6
12 4 -8 82.19 12.9
-12 -4 8 101.59 14.7
-12 -4 8 101.59 15.2
11 4 -8 112.29 13.5
11 4 -8 121.49 14.4
-11 -4 8 105.39 14.1
-11 -4 8 102.29 13.9
10 4 -8 513.15 28.8
10 4 -8 511.55 28.1
-10 -4 8 629.64 29.4
-10 -4 8 573.44 29
9 4 -8 521.05 26.9
9 4 -8 517.65 28
-9 -4 8 557.54 27.9
-9 -4 8 560.94 27.7
8 4 -8 208.48 14.3
8 4 -8 208.08 15.3
-8 -4 8 228.18 15.4
-8 -4 8 228.98 15.1
7 4 -8 58.49 8.6
7 4 -8 72.69 9.3
-7 -4 8 72.39 8.8
-7 -4 8 70.79 9.3
6 4 -8 180.78 12.9
6 4 -8 167.58 11.8
-6 -4 8 179.18 12.2
-6 -4 8 171.38 12.6
5 4 -8 312.27 16.3
5 4 -8 292.27 16.9
-5 -4 8 313.57 16.9
-5 -4 8 306.37 16.6
4 4 -8 596.74 28.4
4 4 -8 623.14 27.5
-4 -4 8 590.84 27.7
-4 -4 8 590.74 28.2
3 4 -8 332.87 16.9
3 4 -8 342.27 17.3
-3 -4 8 328.17 17.2
-3 -4 8 336.67 17.2
2 4 -8 263.97 14.6
2 4 -8 268.77 14.4
-2 -4 8 285.17 14.7
-2 -4 8 286.87 14.7
1 4 -8 138.59 9.1
1 4 -8 139.09 8.9
-1 -4 8 123.69 8.8
-1 -4 8 111.59 8.7
0 4 -8 923.41 38.2
0 4 -8 920.91 38.5
0 -4 8 847.92 38.2
0 -4 8 869.81 38.2
-1 4 -8 1586.54 65.69
-1 4 -8 1521.75 65.99
1 -4 8 1679.03 66.09
1 -4 8 1570.84 65.99
-2 4 -8 980.7 44.2
2 -4 8 1060.99 44.3
2 -4 8 1089.99 44.4
-3 4 -8 153.98 9.9
3 -4 8 164.88 10
3 -4 8 163.48 9.9
-4 4 -8 423.46 20.1
-4 4 -8 441.16 20.9
4 -4 8 416.46 19.8
4 -4 8 425.26 20.1
-5 4 -8 1176.88 49.3
-5 4 -8 1166.28 48.8
5 -4 8 1129.89 48.4
5 -4 8 1135.99 48.7
-6 4 -8 1593.34 64.19
-6 4 -8 1571.14 63.89
6 -4 8 1478.15 63.29
6 -4 8 1465.45 63.69
-7 4 -8 115.09 10.2
-7 4 -8 113.39 10
7 -4 8 134.39 9.3
7 -4 8 144.09 10.2
-8 4 -8 157.88 11.4
-8 4 -8 171.58 12
8 -4 8 157.38 11.2
8 -4 8 146.99 10.6
-9 4 -8 180.08 12.6
-9 4 -8 181.08 12.8
9 -4 8 159.28 11.9
-10 4 -8 736.33 34.4
-10 4 -8 763.42 34.7
10 -4 8 771.32 34.4
-11 4 -8 246.48 16.2
-11 4 -8 245.78 15.8
11 -4 8 236.18 15.4
-12 4 -8 2.1 6.9
-12 4 -8 1.3 6.9
12 -4 8 3.3 6.3
15 3 -8 145.89 21.5
15 3 -8 100.69 15.2
-15 -3 8 166.08 20.3
-15 -3 8 175.18 20.7
14 3 -8 408.46 26.2
14 3 -8 426.66 27.7
-14 -3 8 423.06 26.9
-14 -3 8 415.56 26.7
13 3 -8 324.47 21.6
13 3 -8 297.27 22.8
-13 -3 8 314.77 22.2
-13 -3 8 326.17 22.3
12 3 -8 141.49 16.4
12 3 -8 154.08 15.1
-12 -3 8 176.28 16.3
-12 -3 8 159.78 16.1
11 3 -8 7.8 6.2
11 3 -8 20.2 8.4
-11 -3 8 12.8 7.7
-11 -3 8 12.1 7.4
10 3 -8 1455.65 66.39
10 3 -8 1503.65 65.89
-10 -3 8 1564.24 66.69
-10 -3 8 1589.64 66.59
9 3 -8 1478.95 63.29
9 3 -8 1462.75 63.79
-9 -3 8 1459.65 63.69
-9 -3 8 1470.35 63.59
8 3 -8 621.54 30.6
8 3 -8 629.24 29.9
-8 -3 8 649.24 30.6
-8 -3 8 638.54 30.4
7 3 -8 51.09 8.3
7 3 -8 61.89 7.8
-7 -3 8 66.89 8.8
-7 -3 8 68.29 9.2
6 3 -8 420.46 20.7
6 3 -8 395.66 19.9
-6 -3 8 359.36 20.1
-6 -3 8 395.16 20.3
5 3 -8 871.31 38
5 3 -8 882.91 38.4
-5 -3 8 856.71 38.3
-5 -3 8 835.22 38.2
4 3 -8 1152.38 49.9
4 3 -8 1139.19 49.8
-4 -3 8 1190.68 49.99
-4 -3 8 1174.68 49.99
3 3 -8 393.66 19.1
3 3 -8 385.36 18.8
-3 -3 8 374.36 18.9
-3 -3 8 383.46 19
2 3 -8 47.2 6
2 3 -8 40.8 5.9
-2 -3 8 31.6 5.5
-2 -3 8 33.2 5.5
1 3 -8 601.64 27.3
1 3 -8 602.74 27.7
-1 -3 8 621.74 27.6
-1 -3 8 631.54 27.7
0 3 -8 1571.94 62.99
0 3 -8 1544.35 63.39
0 -3 8 1479.05 63.19
0 -3 8 1464.15 63.19
-1 3 -8 653.63 29
-1 3 -8 690.43 28.8
1 -3 8 642.74 29
1 -3 8 614.14 28.8
-2 3 -8 46.2 6.5
2 -3 8 42.2 5.6
2 -3 8 44.8 6.4
-3 3 -8 19.1 4.7
-3 3 -8 11.4 4.8
3 -3 8 11.7 4
3 -3 8 13.7 4.2
-4 3 -8 504.05 23.6
-4 3 -8 489.85 24
4 -3 8 500.45 23.5
4 -3 8 519.65 23.2
-5 3 -8 926.21 41.1
-5 3 -8 913.81 40.8
5 -3 8 939.31 40.2
5 -3 8 970 40.8
-6 3 -8 504.15 23.7
-6 3 -8 493.25 23.3
6 -3 8 473.95 22.6
6 -3 8 460.35 23
-7 3 -8 41.5 6.7
-7 3 -8 54.49 7.6
7 -3 8 43.6 6.8
-8 3 -8 32.9 7
-8 3 -8 37.8 6.9
8 -3 8 43.1 6.9
-9 3 -8 629.84 30.3
-9 3 -8 618.94 29.9
9 -3 8 642.64 29.8
-10 3 -8 1385.86 59.79
-10 3 -8 1422.46 60.09
10 -3 8 1349.56 59.69
-11 3 -8 396.56 22.4
-11 3 -8 419.96 23
11 -3 8 412.46 22.4
-12 3 -8 4.2 7.6
-12 3 -8 5.9 7.5
12 -3 8 3.5 8.1
15 2 -8 22.2 12.4
15 2 -8 16.7 11.2
-15 -2 8 11.1 10.4
-15 -2 8 15 10.4
14 2 -8 18.5 9
14 2 -8 25.5 10.9
-14 -2 8 11.2 9.2
-14 -2 8 27.9 10.7
13 2 -8 69.29 10.2
13 2 -8 78.49 11.6
-13 -2 8 90.89 12.2
-13 -2 8 69.69 10.6
12 2 -8 34 9.6
12 2 -8 35.9 8.1
-12 -2 8 36.2 8.6
-12 -2 8 19.1 7.9
11 2 -8 196.48 15.4
11 2 -8 207.28 16.6
-11 -2 8 231.38 16.7
-11 -2 8 226.68 16.9
10 2 -8 683.63 33.3
10 2 -8 684.93 32.6
-10 -2 8 686.03 33.3
-10 -2 8 686.13 33.3
9 2 -8 727.13 33.7
9 2 -8 713.23 34.5
-9 -2 8 714.33 34.3
-9 -2 8 748.23 34.5
8 2 -8 291.77 16.7
8 2 -8 294.87 17.6
-8 -2 8 295.77 17.3
-8 -2 8 290.77 17.3
7 2 -8 9.3 5.4
7 2 -8 11.3 5.1
-7 -2 8 19.6 6.2
-7 -2 8 13.8 5.8
6 2 -8 247.28 15.2
6 2 -8 258.77 15.7
-6 -2 8 298.67 16
-6 -2 8 305.87 16.2
5 2 -8 1506.35 63.59
5 2 -8 1423.66 63.19
-5 -2 8 1512.45 63.49
-5 -2 8 1561.04 63.69
4 2 -8 3820.52 162.58
4 2 -8 3817.22 162.38
-4 -2 8 4214.28 162.88
-4 -2 8 4139.69 162.68
3 2 -8 977.6 39.9
3 2 -8 976 39.6
-3 -2 8 861.31 39.3
-3 -2 8 814.92 39.3
2 2 -8 733.73 33.4
2 2 -8 750.12 34
-2 -2 8 787.32 34
-2 -2 8 795.72 34
1 2 -8 243.98 12.8
1 2 -8 230.58 13.2
-1 -2 8 226.78 13.1
-1 -2 8 232.98 13.2
0 2 -8 381.16 18.3
0 2 -8 405.06 17.9
0 -2 8 331.77 17.9
0 -2 8 345.17 18.1
-1 2 -8 438.86 21.4
1 -2 8 455.85 21.2
1 -2 8 451.35 21.4
-2 2 -8 14.3 4.8
-2 2 -8 11 5
2 -2 8 6.9 3.9
2 -2 8 17.8 4.5
-3 2 -8 755.62 33.5
-3 2 -8 765.02 34.1
3 -2 8 747.23 32.9
3 -2 8 732.43 33.4
-4 2 -8 165.38 11.7
-4 2 -8 170.88 12.3
4 -2 8 187.08 11.3
4 -2 8 172.28 11.6
-5 2 -8 152.38 11.6
-5 2 -8 151.78 11.2
5 -2 8 144.69 10.9
-6 2 -8 72.79 9.8
-6 2 -8 78.59 10
6 -2 8 85.29 9.4
-7 2 -8 47.2 7.3
-7 2 -8 45.1 7.6
7 -2 8 48.7 7.5
-8 2 -8 90.99 10.3
-8 2 -8 72.49 10.4
8 -2 8 70.99 10.4
-9 2 -8 255.17 16.6
-9 2 -8 265.47 17.3
9 -2 8 249.58 16.6
-10 2 -8 276.47 17.9
-10 2 -8 266.07 18.2
10 -2 8 266.67 17.8
-11 2 -8 37.3 8.8
-11 2 -8 28.4 8.6
11 -2 8 39.2 8.6
-12 2 -8 46.8 10.2
-12 2 -8 61.49 10.3
12 -2 8 66.39 12.6
15 1 -8 156.68 21.6
15 1 -8 163.48 20.1
-15 -1 8 174.38 19.3
-15 -1 8 159.48 19.4
14 1 -8 149.49 16.8
14 1 -8 149.88 17.6
-14 -1 8 146.09 17.3
-14 -1 8 138.79 17.2
13 1 -8 30.4 9.7
13 1 -8 37.2 9.3
-13 -1 8 28.7 9.6
-13 -1 8 33.2 9.9
12 1 -8 29.4 7.9
12 1 -8 50.09 10.1
-12 -1 8 27.1 8
-12 -1 8 38.2 9.4
11 1 -8 88.99 11.2
11 1 -8 79.29 11.7
-11 -1 8 87.29 12.3
-11 -1 8 67.99 9.9
10 1 -8 19 6.1
10 1 -8 27.6 7.3
-10 -1 8 23.6 7.5
-10 -1 8 23.8 6.9
9 1 -8 209.88 14.2
9 1 -8 209.68 15.3
-9 -1 8 220.58 14.8
-9 -1 8 202.08 14.8
8 1 -8 76.09 10.4
8 1 -8 68.79 9.2
-8 -1 8 94.69 10.4
-8 -1 8 91.79 9.9
7 1 -8 254.67 14.7
7 1 -8 251.47 15.3
-7 -1 8 226.08 15
-7 -1 8 245.88 15
6 1 -8 1914.41 78.29
6 1 -8 1887.91 78.49
-6 -1 8 1847.02 78.49
-6 -1 8 1832.72 78.29
5 1 -8 1298.47 56.79
5 1 -8 1305.57 56.99
-5 -1 8 1388.26 57.29
-5 -1 8 1359.36 56.99
4 1 -8 1139.69 51.79
4 1 -8 1158.18 51.39
-4 -1 8 1240.98 51.89
-4 -1 8 1305.17 52.09
3 1 -8 929.41 38.6
3 1 -8 901.01 39.1
-3 -1 8 857.61 38.8
-3 -1 8 855.71 38.8
2 1 -8 935.41 40
2 1 -8 881.91 40.4
-2 -1 8 936.41 40.5
-2 -1 8 951.5 40.5
1 1 -8 1777.12 67.39
1 1 -8 1781.72 66.79
-1 -1 8 1408.96 66.69
-1 -1 8 1420.16 66.49
0 -1 8 311.17 16.2
0 -1 8 292.47 15.7
-1 1 -8 649.43 29.6
1 -1 8 624.04 29.2
1 -1 8 648.54 29.1
-2 1 -8 292.97 16.5
-2 1 -8 269.27 15.6
2 -1 8 270.37 14.9
2 -1 8 283.37 15.5
-3 1 -8 286.57 16.4
-3 1 -8 288.67 15.8
3 -1 8 266.97 15
3 -1 8 257.67 15.4
-4 1 -8 501.85 24.8
-4 1 -8 502.95 24.3
4 -1 8 481.45 24.1
-5 1 -8 184.48 13.3
-5 1 -8 173.08 12.7
5 -1 8 174.98 12.5
-6 1 -8 170.78 12.7
-6 1 -8 171.48 13.2
6 -1 8 146.39 12.4
-7 1 -8 402.66 22.3
-7 1 -8 425.76 23
7 -1 8 444.46 22.6
-8 1 -8 54.79 9.5
-8 1 -8 45 8.2
8 -1 8 53.69 8.5
-9 1 -8 190.38 15.9
-9 1 -8 182.88 14.9
9 -1 8 178.98 15.1
-10 1 -8 101.29 14.2
-10 1 -8 99.59 13.2
10 -1 8 112.79 13.9
-11 1 -8 28.2 9
-11 1 -8 31.9 9
11 -1 8 32.7 11.6
11 -1 8 18.7 10.3
15 0 -8 342.57 26.5
15 0 -8 343.47 24.8
-15 0 8 338.27 24
-15 0 8 363.16 24.6
14 0 -8 83.09 12.8
14 0 -8 85.79 12.5
-14 0 8 53.29 11.2
13 0 -8 93.39 12.2
13 0 -8 79.19 10.7
-13 0 8 61.89 10.4
-13 0 8 90.99 12.2
12 0 -8 69.89 10.6
12 0 -8 48.3 9.4
-12 0 8 70.99 10.9
-12 0 8 50.49 9.4
11 0 -8 85.49 12.9
11 0 -8 112.89 12.1
-11 0 8 69.69 9.7
-11 0 8 92.39 12.3
10 0 -8 161.28 13.1
10 0 -8 152.08 13.7
-10 0 8 145.49 13.3
-10 0 8 140.59 13.4
9 0 -8 24.8 7
9 0 -8 34.5 6.6
-9 0 8 28.3 6.8
-9 0 8 30.5 7.2
8 0 -8 44.5 7
8 0 -8 46.5 7.3
-8 0 8 45.8 7.3
-8 0 8 53.29 8
7 0 -8 315.37 17.7
7 0 -8 304.97 17.1
-7 0 8 319.67 17.8
-7 0 8 323.97 17.9
6 0 -8 1428.86 59.49
6 0 -8 1401.16 59.79
-6 0 8 1368.06 59.69
-6 0 8 1392.46 59.59
5 0 -8 398.76 20.8
5 0 -8 410.06 20.1
-5 0 8 418.16 20.7
-5 0 8 406.46 20.6
4 0 -8 230.48 14.4
4 0 -8 230.98 13.5
-4 0 8 262.07 14.6
-4 0 8 242.08 14.3
3 0 -8 368.26 18.5
3 0 -8 384.46 19.8
-3 0 8 366.66 19.6
-3 0 8 382.46 19.3
2 0 -8 1263.27 53.89
2 0 -8 1200.88 54.29
-2 0 8 1289.07 54.29
-2 0 8 1343.67 54.69
-1 0 8 98.89 9.4
-1 0 8 100.39 9.2
0 0 -8 468.25 22.4
0 0 8 433.86 21.8
0 0 8 444.66 22
-1 0 -8 1014.8 44.6
-1 0 -8 1039.2 45.3
1 0 8 1017.8 44.5
1 0 8 995.9 43.8
-2 0 -8 155.78 11.4
-2 0 -8 156.18 12.3
2 0 8 130.59 11
2 0 8 134.49 10.6
-3 0 -8 1036.6 44.1
-3 0 -8 945.01 43.1
3 0 8 948.61 43.2
-4 0 -8 1993.8 84.29
-4 0 -8 2052.19 84.99
4 0 8 1981.4 84.29
-5 0 -8 1154.78 49.99
-5 0 -8 1134.89 49.4
5 0 8 1071.69 49.3
-6 0 -8 2.6 6.5
-6 0 -8 0.5 5.6
6 0 8 3.4 6.1
-7 0 -8 80.99 12.3
-7 0 -8 81.99 11.7
7 0 8 81.99 11.8
-8 0 -8 468.35 26.6
-8 0 -8 459.15 25.6
8 0 8 515.05 26.3
8 0 8 503.85 27.8
-9 0 -8 488.95 26.8
-9 0 -8 516.25 26.3
9 0 8 434.36 27.7
9 0 8 447.96 26
-10 0 -8 19.1 8.9
-10 0 -8 14.5 8.2
10 0 8 21.4 11
10 0 8 15.7 8.4
-11 0 -8 52.49 10.6
-11 0 -8 53.19 10.5
11 0 8 63.29 12.9
11 0 8 72.19 14.1
15 -1 -8 458.75 28.9
15 -1 -8 455.35 30.4
-15 1 8 512.45 29.1
-15 1 8 507.65 29
14 -1 -8 41.5 10.5
14 -1 -8 35.8 9.2
-14 1 8 21.5 9.5
-14 1 8 27.4 9.9
13 -1 -8 82.39 11.4
13 -1 -8 93.79 13.6
-13 1 8 104.09 12.8
-13 1 8 104.19 12.8
12 -1 -8 79.29 10.9
12 -1 -8 58.89 10
-12 1 8 93.59 13.3
-12 1 8 88.39 11.4
11 -1 -8 170.28 14.9
11 -1 -8 173.68 14
-11 1 8 141.49 14.2
-11 1 8 143.49 14.6
10 -1 -8 348.87 19.2
10 -1 -8 356.86 20
-10 1 8 300.87 19.4
-10 1 8 308.17 19.3
9 -1 -8 798.82 37.5
9 -1 -8 790.52 37.1
-9 1 8 835.72 37.8
-9 1 8 832.12 37.6
8 -1 -8 143.29 12.2
8 -1 -8 132.79 11.4
-8 1 8 123.39 11.8
-8 1 8 133.39 11.9
7 -1 -8 469.55 23.6
7 -1 -8 459.75 23
-7 1 8 464.75 23.4
-7 1 8 475.35 23.7
6 -1 -8 330.87 18.5
6 -1 -8 325.47 17.6
-6 1 8 352.06 18.5
-6 1 8 341.77 18.3
5 -1 -8 279.07 16.7
5 -1 -8 304.37 16
-5 1 8 313.67 16.9
-5 1 8 278.27 16.5
4 -1 -8 525.35 23.9
4 -1 -8 479.85 24.4
-4 1 8 464.55 24.2
-4 1 8 537.15 24.8
3 -1 -8 31.9 6
-3 1 8 26.3 5.4
-3 1 8 21.8 5.3
2 -1 -8 435.56 21.9
-2 1 8 420.36 21.7
-2 1 8 444.36 21.5
1 -1 -8 1119.29 48.2
-1 1 8 1084.39 47.6
-1 1 8 1112.59 48.1
0 -1 -8 630.04 29.8
0 -1 -8 609.34 29
0 1 8 611.24 28.8
0 1 8 592.34 28.2
-1 -1 -8 106.49 11.4
-1 -1 -8 102.69 10.3
1 1 8 96.99 10.1
1 1 8 96.69 9.7
-2 -1 -8 12.4 6.1
-2 -1 -8 9.7 5.1
2 1 8 15.7 5.5
-3 -1 -8 917.31 41.8
-3 -1 -8 938.11 41.3
3 1 8 882.61 41.1
-4 -1 -8 2000.4 83.59
-4 -1 -8 2005 82.99
4 1 8 1880.81 82.79
-5 -1 -8 1117.69 49
-5 -1 -8 1107.69 49.7
5 1 8 1067.39 49
-6 -1 -8 41.1 8.6
-6 -1 -8 27.8 7.7
6 1 8 38.8 8.1
-7 -1 -8 638.24 32.5
-7 -1 -8 619.54 31.6
7 1 8 644.54 33.2
7 1 8 619.34 31.7
-8 -1 -8 493.85 28.2
-8 -1 -8 505.95 29.2
8 1 8 577.14 29
8 1 8 568.44 30.8
-9 -1 -8 412.86 26
-9 -1 -8 437.56 27
9 1 8 489.05 29
9 1 8 497.85 27
-10 -1 -8 92.09 12.6
-10 -1 -8 97.59 13.6
10 1 8 132.49 19.9
10 1 8 133.89 17.1
-11 -1 -8 7.1 10
-11 -1 -8 2.7 10
11 1 8 -2.3 11.5
11 1 8 8.9 11.9
15 -2 -8 168.98 22.3
15 -2 -8 170.48 19.1
-15 2 8 194.78 19
-15 2 8 207.48 20.2
14 -2 -8 60.89 11.6
14 -2 -8 80.49 11.8
-14 2 8 60.69 11.1
-14 2 8 97.99 13.1
13 -2 -8 0.2 8
13 -2 -8 12.3 8.1
-13 2 8 2.3 8
-13 2 8 8.8 8.3
12 -2 -8 31.9 9.2
12 -2 -8 39.8 8.9
-12 2 8 43.7 9.3
-12 2 8 34.7 8.5
11 -2 -8 19.1 7.1
11 -2 -8 21.2 7.8
-11 2 8 42.9 8.6
10 -2 -8 344.67 19.6
10 -2 -8 356.76 19
-10 2 8 294.77 19.2
-10 2 8 290.07 19.3
9 -2 -8 733.63 34.4
9 -2 -8 726.13 33.8
-9 2 8 750.82 34.7
-9 2 8 724.03 34.3
8 -2 -8 147.39 11.9
8 -2 -8 146.29 12.7
-8 2 8 163.38 13.1
-8 2 8 168.18 12.9
7 -2 -8 2095.39 86.99
7 -2 -8 2116.39 87.69
-7 2 8 2082.99 87.39
-7 2 8 2055.59 87.59
6 -2 -8 1486.75 60.79
6 -2 -8 1417.66 61.49
-6 2 8 1367.36 61.19
-6 2 8 1447.66 61.49
5 -2 -8 422.66 22.1
5 -2 -8 445.06 21.3
-5 2 8 426.56 22.1
-5 2 8 408.36 21.8
4 -2 -8 148.19 11.6
-4 2 8 123.99 11.1
-4 2 8 130.89 11.2
3 -2 -8 144.39 12.1
-3 2 8 150.88 11.6
-3 2 8 173.08 12.3
2 -2 -8 185.88 12.5
-2 2 8 144.89 11.8
-2 2 8 135.29 11.2
1 -2 -8 204.98 14.2
1 -2 -8 195.18 13.4
-1 2 8 161.58 12.2
-1 2 8 159.08 12.6
0 -2 -8 197.28 15
0 -2 -8 207.48 14
0 2 8 200.98 13.4
0 2 8 208.28 14.2
-1 -2 -8 553.24 27.7
-1 -2 -8 546.75 27
1 2 8 530.05 26.8
-2 -2 -8 65.59 10
-2 -2 -8 57.09 8.7
2 2 8 53.59 8.7
-3 -2 -8 12.1 6.4
-3 -2 -8 14.8 7.3
3 2 8 15.9 6.8
-4 -2 -8 19.3 7.1
-4 -2 -8 24.6 8.3
4 2 8 21.9 7.8
-5 -2 -8 121.39 14.2
-5 -2 -8 120.89 13
5 2 8 111.99 13.1
-6 -2 -8 3.2 8.1
-6 -2 -8 6.3 6.6
6 2 8 2.4 8.1
6 2 8 2.2 7
-7 -2 -8 351.46 22.1
-7 -2 -8 335.57 23
7 2 8 359.16 22.5
7 2 8 369.56 24.5
-8 -2 -8 691.23 35.5
-8 -2 -8 683.23 36.3
8 2 8 694.53 35.7
8 2 8 723.43 37.6
-9 -2 -8 752.12 40.3
-9 -2 -8 791.32 41.1
9 2 8 870.11 41.2
9 2 8 833.92 42.8
-10 -2 -8 52.39 12.7
-10 -2 -8 35.9 10.8
10 2 8 49.8 13.7
10 2 8 39 13.1
14 -3 -8 2.4 10.3
14 -3 -8 -1.1 9
-14 3 8 1.3 9.2
-14 3 8 2 8.6
13 -3 -8 24.1 8.2
13 -3 -8 17.6 9.3
-13 3 8 19 9.1
-13 3 8 25.7 9.2
12 -3 -8 138.49 15.3
12 -3 -8 135.59 13.5
-12 3 8 116.99 14.7
-12 3 8 106.89 14.2
11 -3 -8 212.38 14.8
11 -3 -8 197.68 16.1
-11 3 8 168.98 15.6
-11 3 8 147.19 15.3
10 -3 -8 145.19 12.8
10 -3 -8 171.58 14.1
-10 3 8 135.99 13.8
-10 3 8 125.09 13.5
9 -3 -8 318.47 18.9
9 -3 -8 310.87 18.2
-9 3 8 314.37 19.3
-9 3 8 322.97 18.8
8 -3 -8 56.19 9.1
8 -3 -8 57.39 8.3
-8 3 8 76.99 10
-8 3 8 73.39 8.9
7 -3 -8 1373.16 57.79
7 -3 -8 1420.36 58.79
-7 3 8 1294.77 58.29
-7 3 8 1307.27 58.59
6 -3 -8 2261.97 91.79
-6 3 8 2151.68 91.69
-6 3 8 2141.29 91.39
5 -3 -8 980.9 44.2
-5 3 8 991.8 44.3
-5 3 8 996.4 44.1
4 -3 -8 208.08 14.5
-4 3 8 202.88 14
-4 3 8 214.78 14.5
3 -3 -8 681.53 34.9
-3 3 8 772.72 34.8
-3 3 8 825.32 35.5
2 -3 -8 1935.41 79.49
2 -3 -8 1921.41 80.19
-2 3 8 1777.42 78.49
-2 3 8 1858.81 79.29
1 -3 -8 1148.79 51.69
1 -3 -8 1112.19 50.89
-1 3 8 1139.49 50.19
-1 3 8 1220.38 51.29
0 -3 -8 411.96 22.5
0 -3 -8 409.16 23.3
0 3 8 426.26 22.6
-1 -3 -8 82.79 11.5
-1 -3 -8 93.89 12.3
1 3 8 88.29 11.4
-2 -3 -8 511.95 26.4
-2 -3 -8 503.35 25.3
2 3 8 414.46 24.7
-3 -3 -8 1709.13 72.59
-3 -3 -8 1691.33 71.79
3 3 8 1582.64 71.69
-4 -3 -8 715.43 34.7
-4 -3 -8 747.63 35.8
4 3 8 665.83 34.7
-5 -3 -8 20.8 8.4
-5 -3 -8 33.7 9.2
5 3 8 27.3 10.3
5 3 8 23.9 8.5
-6 -3 -8 38.1 10.5
-6 -3 -8 32.4 8.3
6 3 8 43.2 10.4
6 3 8 28.6 10.3
-7 -3 -8 7 8.1
-7 -3 -8 11.5 9.8
7 3 8 8.3 9
7 3 8 -0.5 9.2
-8 -3 -8 114.59 16.7
-8 -3 -8 133.19 18.4
8 3 8 110.89 15.5
8 3 8 119.79 15.1
-9 -3 -8 64.09 12.8
-9 -3 -8 40.8 11.5
9 3 8 63.39 15.3
9 3 8 48.3 11.9
-10 -3 -8 10.6 10.5
-10 -3 -8 11.8 10.7
10 3 8 16.2 12.9
10 3 8 25.6 14.5
14 -4 -8 56.69 12.2
14 -4 -8 62.69 11.6
-14 4 8 49 10.5
-14 4 8 56.69 11.3
13 -4 -8 40.1 10.2
13 -4 -8 31.9 8.7
-13 4 8 45.2 9.9
-13 4 8 35.2 10
12 -4 -8 99.09 13.3
12 -4 -8 97.79 14.8
-12 4 8 106.69 14.7
-12 4 8 99.09 14.7
11 -4 -8 111.29 14
11 -4 -8 104.89 12.4
-11 4 8 116.19 14.5
-11 4 8 110.99 14.1
10 -4 -8 46.7 7.9
10 -4 -8 62.79 9.7
-10 4 8 36.7 8.7
-10 4 8 35.8 8.5
9 -4 -8 516.35 26.3
9 -4 -8 503.35 25.5
-9 4 8 484.05 25.8
-9 4 8 524.65 26.8
8 -4 -8 347.47 20.9
-8 4 8 375.76 21.5
-8 4 8 376.06 20.8
7 -4 -8 771.32 38.2
-7 4 8 868.01 38.7
-7 4 8 854.31 38.5
6 -4 -8 732.33 33.8
-6 4 8 704.53 33.6
-6 4 8 679.33 33.5
5 -4 -8 671.83 32.3
-5 4 8 686.73 32.4
-5 4 8 669.03 32
4 -4 -8 105.79 12.9
4 -4 -8 115.59 12.2
-4 4 8 100.29 11
-4 4 8 97.39 11.5
3 -4 -8 793.32 38.3
3 -4 -8 773.62 37.5
-3 4 8 845.92 37.8
-3 4 8 813.92 36.9
2 -4 -8 3126.69 128.79
2 -4 -8 3088.59 128.09
-2 4 8 2952.4 126.99
-2 4 8 3178.88 128.19
1 -4 -8 1036.7 46.1
1 -4 -8 1020.7 46.9
-1 4 8 1014.4 46.1
-1 4 8 991 45.2
0 -4 -8 3.4 6
0 -4 -8 1.2 6.2
0 4 8 8.3 6.3
-1 -4 -8 455.25 25.6
-1 -4 -8 470.55 25
1 4 8 444.36 24.9
-2 -4 -8 217.18 16.4
-2 -4 -8 215.18 17.4
2 4 8 215.88 16.5
-3 -4 -8 221.48 17.7
-3 -4 -8 233.38 18.6
3 4 8 290.67 18.6
-4 -4 -8 136.69 14.6
-4 -4 -8 148.49 15.8
4 4 8 105.79 14.9
4 4 8 89.19 12.5
-5 -4 -8 73.29 11.9
-5 -4 -8 95.49 14.2
5 4 8 66.39 12.4
5 4 8 78.59 11.8
-6 -4 -8 124.29 16.2
6 4 8 135.69 16.8
6 4 8 124.79 19
-7 -4 -8 504.15 30.6
-7 -4 -8 483.35 29.2
7 4 8 497.25 29.3
7 4 8 472.75 31.1
-8 -4 -8 324.77 25.4
-8 -4 -8 325.47 24.2
8 4 8 335.97 24.5
8 4 8 317.57 27.2
-9 -4 -8 66.09 13
-9 -4 -8 48.5 12.4
9 4 8 85.49 17.1
9 4 8 39.6 11.6
14 -5 -8 4.3 9.9
14 -5 -8 3.5 11
-14 5 8 1.9 9.2
-14 5 8 5.5 9.8
13 -5 -8 84.69 12.5
13 -5 -8 84.19 12.4
-13 5 8 75.99 12.4
-13 5 8 80.19 11.8
12 -5 -8 251.17 19.8
12 -5 -8 265.77 18.3
-12 5 8 254.27 20
-12 5 8 280.37 20.1
11 -5 -8 171.28 16.2
-11 5 8 183.98 16.5
-11 5 8 176.88 17
10 -5 -8 39.2 8.9
-10 5 8 57.39 9.9
-10 5 8 49.8 10.3
9 -5 -8 86.89 12.9
-9 5 8 97.09 12.4
-9 5 8 88.29 13
8 -5 -8 38.6 8.4
-8 5 8 34.8 8.8
-8 5 8 45.1 9.4
7 -5 -8 284.37 18.4
-7 5 8 268.67 18.2
-7 5 8 288.97 18.1
6 -5 -8 0.3 6.6
-6 5 8 5.8 7
-6 5 8 1.2 5.8
5 -5 -8 80.79 10.8
5 -5 -8 101.39 12.6
-5 5 8 105.09 12.4
-5 5 8 95.99 11.6
4 -5 -8 88.89 12.4
4 -5 -8 101.29 12.3
-4 5 8 90.29 12.3
-4 5 8 85.99 11.3
3 -5 -8 244.88 17.5
3 -5 -8 229.28 17.5
-3 5 8 214.28 15.6
-3 5 8 216.98 16.4
2 -5 -8 1275.57 57.59
2 -5 -8 1278.67 56.99
-2 5 8 1310.27 57.09
-2 5 8 1268.27 55.99
1 -5 -8 199.68 16
1 -5 -8 193.68 16.6
-1 5 8 197.98 16.1
0 -5 -8 817.42 38.7
0 -5 -8 815.52 39.5
0 5 8 794.62 38.8
-1 -5 -8 671.03 34.7
-1 -5 -8 711.33 34.1
1 5 8 648.54 33.8
-2 -5 -8 911.81 45.4
-2 -5 -8 888.71 44.4
2 5 8 1058.69 45.6
-3 -5 -8 1595.24 70.29
-4 -5 -8 724.73 37.1
-4 -5 -8 679.73 35.6
4 5 8 717.43 36.3
4 5 8 683.23 37.8
-5 -5 -8 9.8 10.1
-5 -5 -8 14.6 9.9
5 5 8 8.4 9.4
5 5 8 14.7 12.1
-6 -5 -8 276.87 22.9
-6 -5 -8 272.57 23.5
6 5 8 301.37 22.8
6 5 8 278.97 25.5
-7 -5 -8 647.74 36.6
-7 -5 -8 626.34 35.3
7 5 8 594.54 34.9
7 5 8 610.44 37.4
-8 -5 -8 335.67 26.2
-8 -5 -8 322.77 27.1
8 5 8 338.27 26.2
8 5 8 319.67 29
13 -6 -8 385.26 24
-13 6 8 317.37 23.2
-13 6 8 310.37 22.9
12 -6 -8 428.16 25
-12 6 8 407.96 24.8
-12 6 8 382.46 24.7
11 -6 -8 304.67 21
-11 6 8 322.47 21.3
-11 6 8 301.07 20.5
10 -6 -8 176.98 16.7
-10 6 8 182.88 16
-10 6 8 185.48 16.8
9 -6 -8 84.79 11.6
-9 6 8 58.89 10.2
-9 6 8 71.99 10.6
8 -6 -8 343.47 20.6
-8 6 8 297.57 20.1
-8 6 8 302.87 20
7 -6 -8 50.09 8.7
-7 6 8 35.7 8.6
-7 6 8 34.6 8.2
6 -6 -8 222.88 16.5
6 -6 -8 222.28 17.8
-6 6 8 191.58 16.2
-6 6 8 186.68 15.5
5 -6 -8 342.77 21.8
5 -6 -8 328.87 20.5
-5 6 8 318.47 20.6
-5 6 8 314.67 19.5
4 -6 -8 133.39 14.9
4 -6 -8 131.79 15.4
-4 6 8 153.18 14.7
-4 6 8 141.69 13.7
3 -6 -8 370.26 22.7
3 -6 -8 342.67 21.8
-3 6 8 343.27 20.5
-3 6 8 353.26 21.8
2 -6 -8 9.4 7.8
2 -6 -8 3.7 7.6
-2 6 8 6.4 7
-2 6 8 8 7.6
1 -6 -8 72.19 11.1
1 -6 -8 59.79 10.4
-1 6 8 44.5 9
0 -6 -8 80.79 12.3
0 -6 -8 67.49 12.2
0 6 8 77.29 11.9
-1 -6 -8 68.19 11
-1 -6 -8 99.99 14.4
1 6 8 59.79 10.6
-2 -6 -8 339.07 23.6
-2 -6 -8 306.27 22.4
2 6 8 384.56 23.8
-3 -6 -8 286.67 22.3
-3 -6 -8 261.67 20.8
3 6 8 251.97 20.8
-4 -6 -8 32.2 11.2
-4 -6 -8 31 11.4
4 6 8 21.7 13.2
4 6 8 17.3 9.6
-5 -6 -8 468.55 30.6
-5 -6 -8 454.95 29.2
5 6 8 465.65 32.2
5 6 8 489.15 29.8
-6 -6 -8 834.92 43.8
-6 -6 -8 796.02 42.6
6 6 8 833.22 42.8
6 6 8 765.12 44.7
-7 -6 -8 491.65 32.5
-7 -6 -8 499.15 31.7
7 6 8 415.96 33.4
7 6 8 447.26 30.8
-8 -6 -8 190.48 24.9
-8 -6 -8 189.28 23.6
8 6 8 144.49 21.7
8 6 8 176.98 23.7
12 -7 -8 229.48 20
-12 7 8 241.88 19.7
-12 7 8 238.78 19.8
11 -7 -8 219.48 18.9
-11 7 8 225.88 19
-11 7 8 225.98 18.7
10 -7 -8 73.69 12.8
10 -7 -8 72.39 11.6
-10 7 8 73.29 11.4
-10 7 8 87.09 11.9
9 -7 -8 500.85 27.1
9 -7 -8 463.75 27.9
-9 7 8 437.76 26.3
-9 7 8 484.65 26.8
8 -7 -8 1358.36 59.29
8 -7 -8 1309.77 59.99
-8 7 8 1305.17 59.09
-8 7 8 1316.17 58.79
7 -7 -8 299.27 20.6
7 -7 -8 300.87 21.9
-7 7 8 303.87 20
-7 7 8 304.87 20.6
6 -7 -8 88.99 12.3
6 -7 -8 92.49 13.5
-6 7 8 106.29 13.6
-6 7 8 118.79 14.6
5 -7 -8 222.28 18.9
5 -7 -8 218.68 17.9
-5 7 8 222.98 17.9
-5 7 8 218.08 16.8
4 -7 -8 516.65 29.5
4 -7 -8 555.74 30.6
-4 7 8 570.64 29.9
-4 7 8 548.45 28.7
3 -7 -8 943.91 44.4
3 -7 -8 918.81 45
-3 7 8 960 44.5
-3 7 8 902.71 43.1
2 -7 -8 480.15 28.6
2 -7 -8 497.55 28.1
-2 7 8 509.25 28.3
1 -7 -8 179.08 17.4
1 -7 -8 175.18 17.9
-1 7 8 192.88 17.7
0 -7 -8 59.59 10.8
0 -7 -8 40.3 10
0 7 8 41.4 10
-1 -7 -8 79.39 12.4
-1 -7 -8 74.69 11.6
1 7 8 71.89 11.6
-2 -7 -8 132.59 18.1
-2 -7 -8 153.48 18.8
2 7 8 163.78 18.9
-3 -7 -8 37.6 11.1
-3 -7 -8 37 11.4
3 7 8 32.7 10.5
-4 -7 -8 77.09 14.1
-4 -7 -8 109.99 16.1
4 7 8 99.09 18.2
4 7 8 68.09 12.8
-5 -7 -8 4.3 11.3
-5 -7 -8 4.8 11.6
5 7 8 7 10.9
5 7 8 2.7 14.1
-6 -7 -8 84.49 15.1
-6 -7 -8 73.79 15.4
6 7 8 79.59 15.1
6 7 8 115.19 19.3
7 7 8 48.7 14
11 -8 -8 9.6 13.5
11 -8 -8 15 10
-11 8 8 13.4 9.4
-11 8 8 19 9.8
10 -8 -8 17.5 10.1
10 -8 -8 6.6 13.1
-10 8 8 10.6 9.3
-10 8 8 10.2 9.5
9 -8 -8 485.45 29.5
9 -8 -8 552.44 29.2
-9 8 8 485.05 28.4
-9 8 8 477.65 28.1
8 -8 -8 716.23 36.6
8 -8 -8 749.42 38
-8 8 8 725.53 36.8
-8 8 8 712.33 36.2
7 -8 -8 468.15 28.3
7 -8 -8 488.05 27.3
-7 8 8 451.75 26.9
-7 8 8 453.15 26.4
6 -8 -8 142.39 17.6
6 -8 -8 140.79 17.2
-6 8 8 143.49 16.8
-6 8 8 147.69 15.5
5 -8 -8 218.28 19.6
5 -8 -8 208.78 19.9
-5 8 8 191.58 17.3
-5 8 8 200.28 18.7
4 -8 -8 137.79 17.2
4 -8 -8 142.39 17.3
-4 8 8 144.29 15.6
-4 8 8 132.19 17.1
3 -8 -8 441.16 28.2
3 -8 -8 445.06 28.9
-3 8 8 547.95 29.3
-3 8 8 530.65 27.7
2 -8 -8 479.65 29.5
2 -8 -8 484.95 28.8
-2 8 8 514.35 29.4
1 -8 -8 63.09 12.4
1 -8 -8 52.39 12.6
-1 8 8 64.49 12.6
0 -8 -8 223.08 21.1
0 -8 -8 219.68 20.8
0 8 8 201.58 20.9
-1 -8 -8 364.76 26.4
-1 -8 -8 400.06 27.1
1 8 8 384.16 26.5
-2 -8 -8 478.65 31
-2 -8 -8 500.15 31.7
2 8 8 530.95 31.7
-3 -8 -8 38.2 14.1
-3 -8 -8 30.2 12.3
3 8 8 18.6 13.2
-4 -8 -8 186.28 22.2
-4 -8 -8 184.38 23.9
4 8 8 175.28 25.8
4 8 8 181.38 23
-5 -8 -8 9.4 13.2
-5 -8 -8 23.7 14.7
5 8 8 21.2 12.5
5 8 8 6.5 17.7
10 -9 -8 -3.1 10.6
10 -9 -8 1 13.7
-10 9 8 -10.1 9.5
-10 9 8 -4.7 9.7
9 -9 -8 24.6 14.3
9 -9 -8 11.8 11.2
-9 9 8 9.8 10.2
-9 9 8 16.3 10.3
8 -9 -8 -7 9.6
8 -9 -8 -9.2 12.4
-8 9 8 0.8 9.2
-8 9 8 5 9.8
7 -9 -8 67.49 12.4
7 -9 -8 75.19 13.3
-7 9 8 80.09 11.9
-7 9 8 74.79 12.6
6 -9 -8 68.59 12.9
6 -9 -8 98.39 13.8
-6 9 8 76.29 12
-6 9 8 75.59 12.3
5 -9 -8 16.1 10.5
5 -9 -8 18.2 10.8
-5 9 8 24.5 10.7
-5 9 8 22.6 10.1
4 -9 -8 397.36 27.9
4 -9 -8 389.96 27.6
-4 9 8 481.65 26.7
-4 9 8 458.55 27.6
3 -9 -8 751.12 40.8
3 -9 -8 775.62 41.7
-3 9 8 813.92 40.1
-3 9 8 879.61 41.9
2 -9 -8 81.69 12.7
2 -9 -8 100.69 14.2
-2 9 8 83.19 13.1
1 -9 -8 221.28 21.9
1 -9 -8 195.28 21.5
-1 9 8 237.08 22.3
0 -9 -8 493.75 31.5
0 -9 -8 516.35 32.3
-1 -9 -8 483.85 31.6
-1 -9 -8 513.05 32
1 9 8 453.65 31.2
-2 -9 -8 369.06 28.5
-2 -9 -8 340.37 27.6
2 9 8 344.57 28.3
-3 -9 -8 8.6 14.5
-3 -9 -8 1 12.7
3 9 8 10.3 13.8
-4 -9 -8 144.79 18.6
-4 -9 -8 183.88 22.8
4 9 8 166.28 25
4 9 8 128.89 21
8 -10 -8 94.19 14.4
8 -10 -8 78.09 16.5
-8 10 8 135.69 18.4
-8 10 8 128.79 16.3
7 -10 -8 57.99 12.7
7 -10 -8 70.49 17
-7 10 8 76.19 13.4
-7 10 8 59.29 13.1
6 -10 -8 116.19 17.8
6 -10 -8 122.69 16.1
-6 10 8 89.89 13.8
-6 10 8 102.69 13.9
5 -10 -8 9.2 11.8
5 -10 -8 3.7 12.5
-5 10 8 8.3 10.7
-5 10 8 9.3 10.7
4 -10 -8 28.9 12.8
4 -10 -8 46.2 13.5
-4 10 8 27.8 11.6
-4 10 8 35.4 11.6
3 -10 -8 97.89 16.2
3 -10 -8 57.19 12.7
-3 10 8 91.09 14
-3 10 8 79.59 14.2
2 -10 -8 35.3 12.9
2 -10 -8 53.19 15
-2 10 8 56.79 14.5
1 -10 -8 56.89 13.3
1 -10 -8 80.39 15.2
-1 10 8 94.49 16.4
0 -10 -8 260.87 26.3
0 -10 -8 225.18 24.7
-1 -10 -8 297.97 26.9
-1 -10 -8 308.17 27.6
1 10 8 236.38 26.4
2 10 8 79.79 17.6
2 16 -9 46.2 11.8
2 16 -9 59.99 14.7
-2 -16 9 42.4 13
-2 -16 9 25.7 14.2
1 16 -9 60.79 11.9
1 16 -9 62.69 13.5
-1 -16 9 68.59 12.2
-1 -16 9 84.69 15.4
0 16 -9 159.58 17.3
0 16 -9 154.08 19.8
0 -16 9 178.48 22.1
0 -16 9 190.28 18.3
-1 16 -9 146.19 18.5
-1 16 -9 145.19 16.2
1 -16 9 154.58 20.8
1 -16 9 160.58 17.1
-2 16 -9 32.9 10.5
-2 16 -9 45.3 9.5
2 -16 9 22.1 9.7
2 -16 9 31.8 9.7
5 15 -9 280.57 24.4
5 15 -9 277.57 26.3
-5 -15 9 222.68 24.1
-5 -15 9 238.88 27.1
4 15 -9 17.9 12
4 15 -9 25.4 11.9
-4 -15 9 37.9 13.9
-4 -15 9 29.2 11.5
3 15 -9 203.58 21.7
3 15 -9 181.38 19.5
-3 -15 9 185.38 22.8
-3 -15 9 210.78 20.5
2 15 -9 232.88 21.9
2 15 -9 257.47 20.2
-2 -15 9 224.68 20.2
-2 -15 9 230.08 22
1 15 -9 569.34 30.6
1 15 -9 567.54 32.2
-1 -15 9 569.54 31.4
-1 -15 9 575.64 31
0 15 -9 237.78 20
0 15 -9 253.17 18.4
0 -15 9 244.08 19
0 -15 9 229.68 18.7
-1 15 -9 154.18 14.8
-1 15 -9 163.08 16.4
1 -15 9 131.19 15.3
1 -15 9 131.49 14.9
-2 15 -9 18.8 8.8
-2 15 -9 13.5 7.4
2 -15 9 20 7.9
2 -15 9 18 8.9
-3 15 -9 295.87 17.6
-3 15 -9 293.87 18.9
3 -15 9 289.27 18.3
3 -15 9 288.07 17.9
-4 15 -9 402.36 19.6
-4 15 -9 407.66 21.2
4 -15 9 351.26 20
4 -15 9 358.46 20.1
-5 15 -9 120.89 11.5
-5 15 -9 131.99 10.5
5 -15 9 120.59 10.6
5 -15 9 128.09 10.4
7 14 -9 13.4 12.8
7 14 -9 25.2 15.8
-7 -14 9 13.6 12.9
-7 -14 9 12.5 13.8
6 14 -9 10 12.5
6 14 -9 17.8 12.3
-6 -14 9 10.6 12.9
-6 -14 9 11.6 11.4
5 14 -9 178.98 19.9
5 14 -9 185.28 22.6
-5 -14 9 157.88 19.9
-5 -14 9 167.28 21.3
4 14 -9 25.2 11.5
4 14 -9 40.5 11.7
-4 -14 9 33.8 11.8
3 14 -9 14.3 10.4
3 14 -9 20.6 9.8
-3 -14 9 16.1 9.5
-3 -14 9 23.5 10.4
2 14 -9 229.58 18.3
2 14 -9 228.78 20.4
-2 -14 9 227.08 19
-2 -14 9 212.68 18.6
1 14 -9 635.44 31.8
1 14 -9 627.94 33.2
-1 -14 9 638.04 32.1
-1 -14 9 604.64 31.9
0 14 -9 76.69 11.2
0 14 -9 94.89 13.2
0 -14 9 101.99 13.6
0 -14 9 95.29 13
-1 14 -9 133.09 14.5
-1 14 -9 125.09 13.1
1 -14 9 132.69 13.6
1 -14 9 128.29 13.4
-2 14 -9 6.5 7.3
-2 14 -9 1.2 6
2 -14 9 10 6.7
2 -14 9 8.2 6.5
-3 14 -9 456.95 24.4
-3 14 -9 472.25 23.2
3 -14 9 483.55 23.7
3 -14 9 494.65 23.7
-4 14 -9 734.03 31.8
-4 14 -9 744.73 32.7
4 -14 9 683.03 32
4 -14 9 700.63 32.1
-5 14 -9 311.07 16.5
-5 14 -9 351.76 16.1
5 -14 9 301.97 15.6
5 -14 9 301.07 15.8
9 13 -9 65.79 16.3
9 13 -9 77.69 19.3
-9 -13 9 46.4 16.6
-9 -13 9 49.1 15.8
8 13 -9 97.59 18.3
8 13 -9 90.49 15.1
-8 -13 9 88.79 15.3
-8 -13 9 88.89 16.3
7 13 -9 45 13.3
7 13 -9 43.4 12
-7 -13 9 15.1 10.9
-7 -13 9 27.2 11.7
6 13 -9 79.19 14.1
6 13 -9 101.69 15.7
-6 -13 9 134.49 16.3
-6 -13 9 130.99 18.3
5 13 -9 251.37 20.9
5 13 -9 240.08 22.6
-5 -13 9 267.77 21.5
-5 -13 9 275.17 21.5
4 13 -9 119.99 17.2
4 13 -9 121.39 15.4
-4 -13 9 123.59 16.1
-4 -13 9 116.19 16.6
3 13 -9 58.59 12.1
3 13 -9 34.6 9.1
-3 -13 9 26 9.3
-3 -13 9 30.3 9.2
2 13 -9 76.09 10.8
2 13 -9 77.79 11.4
-2 -13 9 58.29 9.7
-2 -13 9 92.69 11.8
1 13 -9 4.8 7
1 13 -9 -0.6 7.4
-1 -13 9 9.3 7
-1 -13 9 4.5 6.6
0 13 -9 67.99 9.2
0 13 -9 53.69 9.5
0 -13 9 57.59 9
0 -13 9 47 8.3
-1 13 -9 36 8.2
-1 13 -9 41.7 7.6
1 -13 9 29.8 7
-2 13 -9 20.8 7
-2 13 -9 27.4 6.5
2 -13 9 28.1 6.6
2 -13 9 19.5 6.2
-3 13 -9 309.27 17.7
-3 13 -9 305.67 16.6
3 -13 9 317.97 17
3 -13 9 314.17 17
-4 13 -9 384.46 20
-4 13 -9 406.56 19.5
4 -13 9 416.36 19.7
4 -13 9 402.46 19.6
-5 13 -9 31 5.4
-5 13 -9 30.3 4.5
5 -13 9 37.2 5
5 -13 9 33.5 5
10 12 -9 433.26 32.9
10 12 -9 448.86 30.6
-10 -12 9 372.96 30.8
-10 -12 9 355.06 30.1
9 12 -9 89.59 15.8
9 12 -9 72.39 15.7
-9 -12 9 76.49 15
-9 -12 9 62.29 14.3
8 12 -9 135.89 19.9
8 12 -9 93.69 15.1
-8 -12 9 148.69 20.8
-8 -12 9 147.49 20.3
7 12 -9 441.26 30.8
7 12 -9 426.36 28.9
-7 -12 9 545.15 30.6
-7 -12 9 518.55 29.9
6 12 -9 751.82 39.1
6 12 -9 769.02 40.4
-6 -12 9 797.82 39.5
-6 -12 9 785.92 39.7
5 12 -9 423.66 25.7
5 12 -9 442.16 25.2
-5 -12 9 373.56 24.8
-5 -12 9 374.16 24.7
4 12 -9 99.09 14.1
4 12 -9 105.79 15.6
-4 -12 9 110.29 14.7
-4 -12 9 112.09 15
3 12 -9 55.29 9.6
3 12 -9 47 10.3
-3 -12 9 24.4 8.1
-3 -12 9 32.2 9.2
2 12 -9 806.12 36.1
2 12 -9 808.92 35.3
-2 -12 9 650.53 34.7
-2 -12 9 674.33 35
1 12 -9 393.16 21.6
1 12 -9 407.76 20.8
-1 -12 9 339.87 20.6
-1 -12 9 326.27 20.3
0 12 -9 4.4 6.4
0 12 -9 3.5 5.7
0 -12 9 -0.9 5.4
0 -12 9 4 5.9
-1 12 -9 7.9 5.4
-1 12 -9 5.7 6
1 -12 9 7.5 5.4
1 -12 9 6.1 5.7
-2 12 -9 38.8 6.4
-2 12 -9 30.4 6.7
2 -12 9 40.2 6.5
2 -12 9 42 6.7
-3 12 -9 28.8 6.3
-3 12 -9 20.4 5.1
3 -12 9 20.4 5.2
3 -12 9 29.7 5.9
-4 12 -9 86.09 8.9
-4 12 -9 100.89 8.4
4 -12 9 99.09 8.6
4 -12 9 99.39 8.5
-5 12 -9 29.3 4.8
-5 12 -9 37 5.5
5 -12 9 36.1 4.6
5 -12 9 31.2 4.5
11 11 -9 171.48 23.8
11 11 -9 183.08 27.6
-11 -11 9 225.98 26.1
-11 -11 9 242.98 25.7
10 11 -9 214.58 23.3
10 11 -9 231.68 26.3
-10 -11 9 216.58 24.3
-10 -11 9 232.28 24.1
9 11 -9 41.3 13
9 11 -9 33.7 14.2
-9 -11 9 20.2 12.8
-9 -11 9 37 13.4
8 11 -9 251.27 22.9
8 11 -9 273.77 22.1
-8 -11 9 277.07 22.5
-8 -11 9 259.67 22.6
7 11 -9 845.82 41.4
7 11 -9 800.72 42.2
-7 -11 9 872.41 41.7
-7 -11 9 813.72 41.7
6 11 -9 960.7 46.1
6 11 -9 951.6 45.4
-6 -11 9 977.5 45.8
-6 -11 9 938.81 45.8
5 11 -9 44.5 9.6
5 11 -9 51.39 9.4
-5 -11 9 40.3 9
-5 -11 9 44.2 8.8
4 11 -9 240.78 18.5
4 11 -9 237.08 17.5
-4 -11 9 262.37 18.1
-4 -11 9 271.97 18.2
3 11 -9 480.95 25.9
3 11 -9 482.75 26.6
-3 -11 9 527.65 26.5
-3 -11 9 522.45 26.4
2 11 -9 658.83 30.7
2 11 -9 629.04 31.1
-2 -11 9 623.94 30.8
-2 -11 9 620.24 30.6
1 11 -9 375.96 21
1 11 -9 418.46 20.8
-1 -11 9 355.76 20.3
-1 -11 9 368.76 20.5
0 11 -9 16 6.2
0 11 -9 21.6 5.9
0 -11 9 14.4 5.8
0 -11 9 10.1 5.5
-1 11 -9 172.58 12.7
-1 11 -9 165.98 11.9
1 -11 9 194.98 12.4
1 -11 9 191.98 12.6
-2 11 -9 791.52 35
-2 11 -9 782.42 35.5
2 -11 9 812.92 35.3
2 -11 9 806.32 35.3
-3 11 -9 851.71 37.4
-3 11 -9 852.81 37.1
3 -11 9 867.21 37.2
3 -11 9 861.31 37.1
-4 11 -9 290.07 15.6
-4 11 -9 301.77 15.1
4 -11 9 332.77 15.5
4 -11 9 323.67 15.4
-5 11 -9 80.19 6.9
5 -11 9 84.19 6.7
5 -11 9 78.69 6.4
12 10 -9 190.48 22.4
12 10 -9 124.49 18.8
-12 -10 9 101.89 16.9
-12 -10 9 124.29 18.1
11 10 -9 398.66 30.9
11 10 -9 395.56 27.6
-11 -10 9 372.56 29
-11 -10 9 376.16 29.5
10 10 -9 100.69 15.5
10 10 -9 92.09 16.9
-10 -10 9 102.49 16.8
-10 -10 9 103.69 15.6
9 10 -9 61.89 12.1
9 10 -9 79.39 12.7
-9 -10 9 62.89 12.1
-9 -10 9 56.59 11.6
8 10 -9 433.56 26.7
8 10 -9 450.75 26.4
-8 -10 9 382.86 26.2
-8 -10 9 414.06 26.3
7 10 -9 302.87 21.1
7 10 -9 324.37 20.9
-7 -10 9 271.67 20.4
-7 -10 9 246.58 20.2
6 10 -9 123.49 14.5
6 10 -9 124.69 14.9
-6 -10 9 136.59 14.7
-6 -10 9 132.09 15.1
5 10 -9 291.37 19.3
5 10 -9 298.37 20.1
-5 -10 9 312.47 19.8
-5 -10 9 324.77 19.9
4 10 -9 246.78 16.7
4 10 -9 255.67 17.6
-4 -10 9 257.87 17.1
-4 -10 9 270.27 17.3
3 10 -9 1767.82 72.89
3 10 -9 1713.03 73.19
-3 -10 9 1656.33 72.79
-3 -10 9 1684.63 72.79
2 10 -9 1365.56 58.49
2 10 -9 1314.47 58.69
-2 -10 9 1386.26 58.59
-2 -10 9 1350.76 58.59
1 10 -9 680.33 32.7
1 10 -9 700.93 32.2
-1 -10 9 700.93 32.3
-1 -10 9 720.83 32.5
0 10 -9 49.6 7.4
0 10 -9 60.89 7.4
0 -10 9 45.4 6.7
0 -10 9 50.69 6.9
-1 10 -9 472.45 22.1
-1 10 -9 455.55 22.7
1 -10 9 458.35 22.3
1 -10 9 470.75 22.3
-2 10 -9 1111.89 47.8
-2 10 -9 1119.89 48.2
2 -10 9 1151.38 48
2 -10 9 1125.29 48
-3 10 -9 1095.19 46.2
-3 10 -9 1075.69 46.4
3 -10 9 1115.49 46.3
3 -10 9 1089.89 46.2
-4 10 -9 181.78 10.8
-4 10 -9 185.38 10.3
4 -10 9 200.28 10.7
4 -10 9 189.18 10.7
-5 10 -9 129.89 8
5 -10 9 112.59 7.6
5 -10 9 124.79 7.6
-13 -9 9 64.59 17.7
12 9 -9 511.85 33.5
-12 -9 9 447.26 32.2
-12 -9 9 494.55 32.6
11 9 -9 406.86 26.8
11 9 -9 364.06 28.4
-11 -9 9 379.66 27.8
-11 -9 9 417.76 28
10 9 -9 58.59 11.8
10 9 -9 36.3 11.2
-10 -9 9 52.19 11.3
-10 -9 9 61.49 12.1
9 9 -9 123.99 17
9 9 -9 120.69 16
-9 -9 9 74.39 11.7
-9 -9 9 111.49 16.7
8 9 -9 67.59 11.2
8 9 -9 71.39 11.4
-8 -9 9 77.59 11.7
-8 -9 9 60.09 10.4
7 9 -9 261.37 18.2
7 9 -9 247.18 18.8
-7 -9 9 257.27 18.5
-7 -9 9 239.68 18.4
6 9 -9 197.98 15.8
6 9 -9 182.98 14.9
-6 -9 9 172.68 15.2
-6 -9 9 159.58 14.9
5 9 -9 31.5 7.3
5 9 -9 19.6 7
-5 -9 9 22.5 7
-5 -9 9 20.9 6.6
4 9 -9 160.38 12.9
4 9 -9 151.58 14
-4 -9 9 161.68 13.7
-4 -9 9 146.89 12.8
3 9 -9 388.96 20.5
3 9 -9 386.36 19.9
-3 -9 9 348.67 19.9
-3 -9 9 343.77 20
2 9 -9 173.98 13
2 9 -9 175.48 12
-2 -9 9 164.18 12.5
-2 -9 9 146.29 12
1 9 -9 92.59 10
1 9 -9 90.29 9.1
-1 -9 9 83.99 9.5
-1 -9 9 89.69 9.1
0 9 -9 118.49 9.4
0 9 -9 112.69 10.4
0 -9 9 127.19 9.8
0 -9 9 126.09 10.2
-1 9 -9 187.78 11.8
-1 9 -9 185.28 12.3
1 -9 9 201.68 12.1
1 -9 9 215.08 12.3
-2 9 -9 699.63 32.2
-2 9 -9 692.63 31.9
2 -9 9 756.82 32.1
2 -9 9 763.02 32.2
-3 9 -9 308.97 15.3
-3 9 -9 284.07 15.6
3 -9 9 327.87 15.6
3 -9 9 331.17 15.6
-4 9 -9 23 4.4
-4 9 -9 14.7 3.9
4 -9 9 17.1 4.3
4 -9 9 16 4.1
-5 9 -9 108.69 7.5
5 -9 9 117.99 7.4
5 -9 9 113.59 7.5
-6 9 -9 325.57 14.9
-6 9 -9 331.17 15.2
6 -9 9 341.17 14.8
6 -9 9 334.67 14.8
13 8 -9 383.46 31.2
13 8 -9 400.66 29
-13 -8 9 426.46 30.8
-13 -8 9 434.76 30.8
12 8 -9 770.62 41.3
-12 -8 9 733.23 40.4
-12 -8 9 717.13 40.3
11 8 -9 585.24 32.3
11 8 -9 580.84 33.7
-11 -8 9 558.24 32.9
-11 -8 9 565.94 33.1
10 8 -9 105.39 14.3
10 8 -9 81.89 12.5
-10 -8 9 77.29 11.9
-10 -8 9 114.29 14.7
9 8 -9 661.83 31.4
9 8 -9 567.34 31.4
-9 -8 9 546.95 31
-9 -8 9 513.15 30.5
8 8 -9 347.77 22.2
8 8 -9 373.06 21.9
-8 -8 9 313.37 21.4
-8 -8 9 328.47 21.5
7 8 -9 878.41 41.8
7 8 -9 925.71 41.6
-7 -8 9 868.21 41.4
-7 -8 9 855.11 41.5
6 8 -9 192.48 15.6
6 8 -9 181.38 14.7
-6 -8 9 188.38 15.4
-6 -8 9 200.18 15.1
5 8 -9 110.09 12.1
5 8 -9 118.99 11.5
-5 -8 9 103.19 11.6
-5 -8 9 98.09 11.8
4 8 -9 163.38 13.3
4 8 -9 174.88 12.7
-4 -8 9 151.18 12.6
-4 -8 9 157.18 13.1
3 8 -9 437.46 22.3
3 8 -9 423.16 21.5
-3 -8 9 420.66 21.7
-3 -8 9 419.76 22.1
2 8 -9 162.98 12
2 8 -9 150.58 11.1
-2 -8 9 143.09 11.1
-2 -8 9 160.88 12
1 8 -9 14.9 5.1
1 8 -9 14.5 4.6
-1 -8 9 15 5.2
-1 -8 9 17.5 5.1
0 8 -9 43.8 5.9
0 8 -9 48 6.6
0 -8 9 49.99 6.4
0 -8 9 49.5 6.5
-1 8 -9 101.49 8.6
-1 8 -9 102.49 9
1 -8 9 120.79 8.9
1 -8 9 109.79 9
-2 8 -9 519.55 24.4
-2 8 -9 528.45 24.7
2 -8 9 564.54 24.8
2 -8 9 563.34 24.7
-3 8 -9 149.79 9.4
-3 8 -9 146.99 9.8
3 -8 9 167.88 9.8
3 -8 9 158.08 9.7
-4 8 -9 50.59 6.4
4 -8 9 44.8 6.2
4 -8 9 49.3 6
-5 8 -9 427.16 20.4
-5 8 -9 416.46 19.8
5 -8 9 464.75 19.7
5 -8 9 446.16 19.8
-6 8 -9 293.57 13.7
-6 8 -9 299.77 14.2
6 -8 9 265.57 13.5
6 -8 9 279.17 13.4
-7 8 -9 357.06 16.5
-7 8 -9 340.37 16.2
7 -8 9 381.16 16.1
7 -8 9 374.56 16.2
14 7 -9 322.97 26.4
14 7 -9 321.47 29.6
-14 -7 9 304.97 27.9
-14 -7 9 310.27 28.4
13 7 -9 725.03 38.8
13 7 -9 736.33 40.3
-13 -7 9 700.13 39.4
-13 -7 9 671.53 39.2
12 7 -9 305.37 24.9
12 7 -9 291.87 22.7
-12 -7 9 258.57 23.8
-12 -7 9 289.47 23.8
11 7 -9 191.88 18.5
11 7 -9 170.58 19.1
-11 -7 9 193.48 18.4
-11 -7 9 172.78 19.5
10 7 -9 33.9 8.8
10 7 -9 38.8 10.5
-10 -7 9 19.7 8.6
-10 -7 9 20.5 8.5
9 7 -9 301.07 20
9 7 -9 290.87 18.9
-9 -7 9 208.38 18.6
-9 -7 9 227.48 18.3
8 7 -9 829.22 39.9
8 7 -9 880.91 40.6
-8 -7 9 848.82 40.1
-8 -7 9 809.92 39.8
7 7 -9 1160.78 50.29
7 7 -9 1144.39 50.79
-7 -7 9 1113.99 50.29
-7 -7 9 1061.69 50.19
6 7 -9 133.39 12.8
6 7 -9 130.59 12.2
-6 -7 9 136.69 12.7
-6 -7 9 125.59 12.4
5 7 -9 97.19 10.5
5 7 -9 93.59 11.2
-5 -7 9 111.19 11.6
-5 -7 9 104.39 10.9
4 7 -9 1897.71 80.79
4 7 -9 1893.11 80.39
-4 -7 9 1964.5 80.59
-4 -7 9 1906.01 80.69
3 7 -9 2450.05 103.49
3 7 -9 2473.95 103.99
-3 -7 9 2568.04 103.99
-3 -7 9 2537.45 103.79
2 7 -9 699.33 34
2 7 -9 721.53 33.6
-2 -7 9 804.72 34.2
-2 -7 9 804.02 34.4
1 7 -9 100.09 8.6
1 7 -9 95.89 9.2
-1 -7 9 96.29 8.8
-1 -7 9 102.19 9.3
0 7 -9 466.55 21.9
0 7 -9 446.16 21.5
0 -7 9 464.75 21.8
0 -7 9 439.66 21.6
-1 7 -9 266.27 13.3
-1 7 -9 270.47 13.6
1 -7 9 212.48 13
1 -7 9 204.68 12.8
-2 7 -9 404.06 18.9
-2 7 -9 432.56 18.7
2 -7 9 380.56 18.8
2 -7 9 360.66 18.6
-3 7 -9 46.1 6
-3 7 -9 53.49 5.9
3 -7 9 50.39 5.8
3 -7 9 49.99 5.9
-4 7 -9 121.69 8.3
4 -7 9 103.59 8
4 -7 9 112.29 8.2
-5 7 -9 206.28 12.1
-5 7 -9 200.58 11.2
5 -7 9 204.88 11.3
5 -7 9 207.68 11
-6 7 -9 111.69 7.7
-6 7 -9 118.19 8.7
6 -7 9 91.09 7.3
6 -7 9 89.09 7.6
-7 7 -9 93.19 7.3
-7 7 -9 96.29 7.9
7 -7 9 66.79 6.9
7 -7 9 73.89 6.7
-8 7 -9 209.78 11.5
-8 7 -9 203.58 11.1
8 -7 9 201.38 11
8 -7 9 204.48 10.9
-9 7 -9 70.89 7.2
-9 7 -9 71.09 7
9 -7 9 83.39 7
9 -7 9 80.39 6.6
-10 7 -9 142.49 9.4
-10 7 -9 152.28 9.7
10 -7 9 157.38 9.3
10 -7 9 168.28 9.5
-11 7 -9 206.18 11.5
-11 7 -9 188.08 11.3
11 -7 9 228.08 11.3
11 -7 9 211.88 11.1
14 6 -9 0.9 10.3
14 6 -9 -0.5 11.9
-14 -6 9 -1.2 11.8
-14 -6 9 4.6 11.2
13 6 -9 66.69 13.4
13 6 -9 68.79 15
-13 -6 9 75.99 14.3
-13 -6 9 55.89 13.4
12 6 -9 26 9.3
12 6 -9 24.2 10.6
-12 -6 9 22.9 10.3
-12 -6 9 10.9 9.2
11 6 -9 15.4 8.8
11 6 -9 12.7 7.6
-11 -6 9 18.2 9
-11 -6 9 4.5 7.7
10 6 -9 188.38 16.7
10 6 -9 205.58 17.6
-10 -6 9 190.78 17.7
-10 -6 9 221.38 17.6
9 6 -9 434.76 25.8
9 6 -9 423.56 24.9
-9 -6 9 502.15 26
-9 -6 9 472.45 25.7
8 6 -9 731.93 37.6
8 6 -9 782.32 37.2
-8 -6 9 799.92 37.8
-8 -6 9 847.12 37.9
7 6 -9 236.98 15.6
7 6 -9 221.88 16.2
-7 -6 9 228.18 16.2
-7 -6 9 225.58 15.8
6 6 -9 82.09 10.1
6 6 -9 87.19 11.1
-6 -6 9 89.59 10.5
-6 -6 9 88.49 11.1
5 6 -9 619.44 29.5
5 6 -9 610.64 30.1
-5 -6 9 642.64 29.9
-5 -6 9 645.34 30.2
4 6 -9 3885.91 156.88
4 6 -9 3808.82 157.28
-4 -6 9 3836.52 157.08
-4 -6 9 3843.32 157.18
3 6 -9 2737.73 111.49
3 6 -9 2795.32 111.19
-3 -6 9 2600.74 111.19
-3 -6 9 2666.83 111.29
2 6 -9 189.58 11.7
2 6 -9 178.28 12.2
-2 -6 9 177.78 11.9
-2 -6 9 192.58 12.2
1 6 -9 289.27 15.5
1 6 -9 296.07 15.3
-1 -6 9 274.67 15.4
-1 -6 9 281.07 15.3
0 6 -9 2039.8 83.39
0 6 -9 2000.4 83.49
0 -6 9 1982.2 83.39
0 -6 9 2051.29 83.49
-1 6 -9 853.91 37.5
-1 6 -9 870.61 37.8
1 -6 9 883.41 37.7
1 -6 9 882.11 37.8
-2 6 -9 677.23 30.3
-2 6 -9 701.73 30.1
2 -6 9 679.53 30.4
2 -6 9 690.53 30.2
-3 6 -9 190.68 11.2
3 -6 9 196.78 11.2
3 -6 9 184.58 10.9
-4 6 -9 43.9 6.6
4 -6 9 54.19 6.5
4 -6 9 56.49 6.7
-5 6 -9 156.58 10.4
-5 6 -9 163.08 11.3
5 -6 9 172.68 10.2
5 -6 9 176.08 10.4
-6 6 -9 253.27 14
-6 6 -9 252.97 13.4
6 -6 9 249.48 13.2
6 -6 9 248.28 13.4
-7 6 -9 79.59 8.6
-7 6 -9 83.19 8
7 -6 9 90.69 8.2
7 -6 9 94.29 8
-8 6 -9 43.6 6.4
-8 6 -9 44.2 6
8 -6 9 41.4 5.7
8 -6 9 41 5.6
-9 6 -9 29.7 5.6
-9 6 -9 31.9 5.8
9 -6 9 29.5 5.4
9 -6 9 29.7 5.6
-10 6 -9 59.29 8.9
-10 6 -9 60.79 7.2
10 -6 9 52.29 6.7
-11 6 -9 218.68 13.6
-11 6 -9 218.58 13.9
11 -6 9 227.68 13.2
11 -6 9 214.38 13.2
14 5 -9 705.23 40
14 5 -9 759.12 38.4
-14 -5 9 643.94 38.1
13 5 -9 118.49 16.8
13 5 -9 128.79 18.8
-13 -5 9 92.89 14
-13 -5 9 82.39 12.6
12 5 -9 93.69 13.7
12 5 -9 100.49 12.8
-12 -5 9 77.59 12.1
-12 -5 9 65.29 11.4
11 5 -9 83.49 12.5
11 5 -9 89.19 11.9
-11 -5 9 76.89 11.5
-11 -5 9 68.19 11
10 5 -9 530.15 29.8
10 5 -9 555.84 29
-10 -5 9 589.34 30
-10 -5 9 566.04 29.7
9 5 -9 169.88 14.4
9 5 -9 168.08 15.4
-9 -5 9 164.58 14.9
-9 -5 9 173.58 15.1
8 5 -9 80.29 10
8 5 -9 66.69 9.3
-8 -5 9 71.29 9.8
-8 -5 9 65.59 9.6
7 5 -9 60.99 9.4
7 5 -9 43.2 7.2
-7 -5 9 43.6 7.6
-7 -5 9 47.4 8.6
6 5 -9 6.4 5.5
6 5 -9 6.8 5.2
-6 -5 9 7.9 5.3
-6 -5 9 6.7 5.6
5 5 -9 49.1 7
5 5 -9 57.89 8
-5 -5 9 61.29 9.1
-5 -5 9 69.19 8.8
4 5 -9 347.97 19.6
4 5 -9 363.96 19.1
-4 -5 9 397.16 19.8
-4 -5 9 392.76 19.7
3 5 -9 1141.39 46.6
3 5 -9 1148.89 46.9
-3 -5 9 1008.5 46.5
-3 -5 9 1001.7 46.5
2 5 -9 44.7 5.9
2 5 -9 36 5.7
-2 -5 9 52.69 6.6
-2 -5 9 51.19 6.6
1 5 -9 356.36 18.4
1 5 -9 352.36 18.2
-1 -5 9 370.36 18.4
-1 -5 9 394.36 18.6
0 5 -9 2169.18 90.39
0 5 -9 2149.58 90.09
0 -5 9 2221.48 90.39
0 -5 9 2228.38 90.29
-1 5 -9 4760.72 189.28
-1 5 -9 4616.84 189.58
1 -5 9 4592.34 189.48
1 -5 9 4765.92 189.38
-2 5 -9 1364.26 55.89
-2 5 -9 1332.67 56.29
2 -5 9 1321.47 56.29
2 -5 9 1333.57 56.19
-3 5 -9 89.69 8
3 -5 9 96.39 8.3
3 -5 9 99.29 8.3
-4 5 -9 598.34 28.4
-4 5 -9 594.24 27.8
4 -5 9 640.74 27.8
4 -5 9 641.84 27.9
-5 5 -9 534.35 24.5
-5 5 -9 522.85 25
5 -5 9 544.05 24.5
5 -5 9 510.35 24.1
-6 5 -9 92.39 9.2
-6 5 -9 86.79 8.6
-7 5 -9 283.47 15.9
-7 5 -9 268.87 16.2
7 -5 9 321.97 15.6
7 -5 9 317.47 16.1
-8 5 -9 110.99 10.2
-8 5 -9 114.19 10.7
8 -5 9 124.29 9.7
8 -5 9 124.79 10.3
-9 5 -9 76.89 9.7
-9 5 -9 81.69 10.2
9 -5 9 100.69 9.3
9 -5 9 92.69 9.3
-10 5 -9 123.09 11.3
-10 5 -9 113.09 11
10 -5 9 100.29 10.5
10 -5 9 100.49 10.3
-11 5 -9 17.1 6.9
-11 5 -9 16 6.8
11 -5 9 23.5 6.7
11 -5 9 13.8 6.4
15 4 -9 414.96 30.4
15 4 -9 420.56 29.7
-15 -4 9 371.46 28.7
-15 -4 9 375.56 28.3
14 4 -9 570.84 32.7
14 4 -9 548.65 30.9
-14 -4 9 456.95 30.8
-14 -4 9 480.75 31
13 4 -9 538.05 30.1
13 4 -9 493.05 31.3
-13 -4 9 552.34 31.1
-13 -4 9 575.54 31.3
12 4 -9 852.61 40.7
12 4 -9 817.32 41.7
-12 -4 9 828.92 41.2
-12 -4 9 861.51 41.5
11 4 -9 40.4 10.2
11 4 -9 19.4 7.2
-11 -4 9 17.3 7.8
-11 -4 9 34.3 9.4
10 4 -9 745.23 37.4
10 4 -9 759.92 36.5
-10 -4 9 774.02 37.1
-10 -4 9 780.32 37.4
9 4 -9 350.16 20.7
9 4 -9 351.36 19.8
-9 -4 9 307.77 20
-9 -4 9 324.07 20.1
8 4 -9 199.48 14.3
8 4 -9 198.28 15.1
-8 -4 9 188.58 14.8
-8 -4 9 211.78 14.8
7 4 -9 64.29 8.4
7 4 -9 43.3 7.6
-7 -4 9 55.19 8
-7 -4 9 79.29 9.6
6 4 -9 11.8 4.8
6 4 -9 13.1 5.5
-6 -4 9 17.1 5.4
-6 -4 9 14.6 5.4
5 4 -9 456.95 23
5 4 -9 460.85 22.5
-5 -4 9 458.55 22.9
-5 -4 9 448.16 22.8
4 4 -9 238.68 14.2
4 4 -9 235.98 14.7
-4 -4 9 250.17 14.7
-4 -4 9 256.47 14.7
3 4 -9 370.06 18.4
3 4 -9 348.27 18.4
-3 -4 9 356.36 18.4
-3 -4 9 358.66 18.6
2 4 -9 222.68 12.9
2 4 -9 213.18 12.5
-2 -4 9 203.08 12.7
-2 -4 9 194.08 12.4
1 4 -9 275.67 15.2
1 4 -9 284.77 14.9
-1 -4 9 280.77 15.1
-1 -4 9 278.67 15
0 4 -9 844.52 35.6
0 4 -9 809.92 36
0 -4 9 807.72 35.8
0 -4 9 801.52 35.8
-1 4 -9 504.45 22.9
-1 4 -9 482.15 23.3
1 -4 9 503.05 23.3
1 -4 9 492.75 23.4
2 -4 9 200.38 11.9
2 -4 9 192.18 11.9
-3 4 -9 185.28 11.4
3 -4 9 167.38 11.1
3 -4 9 171.58 11.1
-4 4 -9 971.9 41.3
-4 4 -9 960.7 41.9
4 -4 9 934.91 40.8
4 -4 9 929.81 41.1
-5 4 -9 860.31 36.8
-5 4 -9 843.22 36.2
5 -4 9 770.72 35.9
5 -4 9 793.92 35.6
-6 4 -9 188.78 13.5
-6 4 -9 190.78 13.9
6 -4 9 264.77 14
6 -4 9 269.17 13.6
-7 4 -9 297.87 17.9
-7 4 -9 298.37 17.6
7 -4 9 350.26 17.8
7 -4 9 355.16 17.3
-8 4 -9 48.3 7.6
-8 4 -9 50.69 8
8 -4 9 67.29 8.1
8 -4 9 65.99 7.6
-9 4 -9 354.76 20.1
-9 4 -9 394.76 20.7
9 -4 9 365.86 19.9
9 -4 9 373.06 19.4
-10 4 -9 549.05 27.2
-10 4 -9 512.85 26.8
10 -4 9 544.25 26.3
10 -4 9 563.24 26.9
-11 4 -9 301.77 18.8
-11 4 -9 319.37 19.3
11 -4 9 296.77 18.4
15 3 -9 167.78 23.2
15 3 -9 193.28 22.5
-15 -3 9 170.08 21.5
-15 -3 9 161.78 21.5
14 3 -9 209.28 19.9
14 3 -9 210.58 21.8
-14 -3 9 208.78 20.6
-14 -3 9 198.68 20.6
13 3 -9 353.76 24.7
13 3 -9 362.06 23.6
-13 -3 9 375.46 24.4
-13 -3 9 357.56 24.3
12 3 -9 228.78 19.5
12 3 -9 237.28 18.1
-12 -3 9 246.98 19.5
-12 -3 9 231.48 19.3
11 3 -9 474.45 25.8
11 3 -9 468.95 26.8
-11 -3 9 508.15 27.1
-11 -3 9 476.35 26.9
10 3 -9 1158.18 53.69
10 3 -9 1171.38 53.09
-10 -3 9 1216.68 53.89
-10 -3 9 1243.88 53.99
9 3 -9 1263.57 57.49
9 3 -9 1287.77 56.89
-9 -3 9 1352.96 57.69
-9 -3 9 1312.67 57.59
8 3 -9 623.64 29.8
8 3 -9 576.04 30.3
-8 -3 9 644.74 30.5
-8 -3 9 643.24 30.6
7 3 -9 371.16 20
7 3 -9 368.06 20.7
-7 -3 9 387.56 20.7
-7 -3 9 367.76 20.4
6 3 -9 379.76 19.8
6 3 -9 387.16 20.3
-6 -3 9 356.26 20.1
-6 -3 9 376.96 20.2
5 3 -9 1404.86 57.89
5 3 -9 1362.46 57.99
-5 -3 9 1325.17 57.89
-5 -3 9 1302.67 57.79
4 3 -9 1692.73 73.79
4 3 -9 1713.93 73.99
-4 -3 9 1817.02 74.29
-4 -3 9 1830.02 74.19
3 3 -9 149.79 10.8
3 3 -9 161.78 10.4
-3 -3 9 120.49 10.4
-3 -3 9 141.09 10.5
2 3 -9 57.29 7.5
2 3 -9 51.69 6.6
-2 -3 9 48.4 6.9
-2 -3 9 41.6 6.1
1 3 -9 1026.5 45.3
1 3 -9 1064.09 44.9
-1 -3 9 1043.8 45.2
-1 -3 9 1049.09 45.2
0 3 -9 539.75 24.7
0 3 -9 533.35 25.3
0 -3 9 551.14 25.4
0 -3 9 533.35 25.1
-1 3 -9 75.99 8.2
1 -3 9 64.49 8
1 -3 9 80.49 8.1
-2 3 -9 525.15 24.1
2 -3 9 488.75 23.7
2 -3 9 507.65 24
-3 3 -9 478.85 22.5
-3 3 -9 460.75 23.2
3 -3 9 455.85 22
3 -3 9 450.25 22.3
-4 3 -9 626.64 30.3
-4 3 -9 646.04 31
4 -3 9 691.63 30.1
4 -3 9 693.53 30.5
-5 3 -9 759.62 33.5
-5 3 -9 747.03 33.8
5 -3 9 699.63 33
5 -3 9 717.63 32.6
-6 3 -9 233.38 14.7
-6 3 -9 232.48 14.2
6 -3 9 203.08 13.8
6 -3 9 195.98 13.1
-7 3 -9 205.88 14.5
-7 3 -9 195.98 14
7 -3 9 204.18 14
7 -3 9 202.38 13.3
-8 3 -9 70.79 9.5
-8 3 -9 70.49 9
8 -3 9 75.29 10.6
-9 3 -9 567.54 27.9
-9 3 -9 545.45 27.3
9 -3 9 517.85 27.1
-10 3 -9 808.22 36.9
-10 3 -9 763.92 36.3
10 -3 9 740.13 36.1
-11 3 -9 193.88 16.1
-11 3 -9 185.78 16
11 -3 9 169.78 17.6
15 2 -9 -0.4 11.5
15 2 -9 15.4 12.6
-15 -2 9 18.1 11
-15 -2 9 8.7 11.2
14 2 -9 15 9.6
14 2 -9 19.4 9.9
-14 -2 9 25.5 11.4
-14 -2 9 22.5 10.6
13 2 -9 3.2 7.9
13 2 -9 -3 8.6
-13 -2 9 1.1 8.4
-13 -2 9 2.5 9
12 2 -9 43.3 9.3
12 2 -9 68.29 11.9
-12 -2 9 29.7 8.7
-12 -2 9 42.9 9.8
11 2 -9 234.48 17.1
11 2 -9 226.48 17.9
-11 -2 9 223.88 17.6
-11 -2 9 241.98 17.9
10 2 -9 368.76 21.6
10 2 -9 396.06 22.8
-10 -2 9 398.56 22.7
-10 -2 9 381.86 22.4
9 2 -9 414.36 22.9
9 2 -9 409.16 22
-9 -2 9 398.36 22.4
-9 -2 9 396.46 22.4
8 2 -9 415.86 22.4
8 2 -9 428.66 23.2
-8 -2 9 436.86 23
-8 -2 9 442.16 22.9
7 2 -9 257.87 15.2
7 2 -9 248.98 15.8
-7 -2 9 223.48 15.5
-7 -2 9 238.88 15.5
6 2 -9 217.38 13.8
6 2 -9 228.58 13.2
-6 -2 9 159.68 12.9
-6 -2 9 154.18 12.9
5 2 -9 3089.49 130.59
5 2 -9 3046 130.69
-5 -2 9 3301.17 131.09
-5 -2 9 3302.07 130.89
4 2 -9 901.21 42.4
4 2 -9 941.91 42.1
-4 -2 9 1018.9 42.7
-4 -2 9 994.2 42.4
3 2 -9 370.26 17.9
3 2 -9 368.76 18.6
-3 -2 9 321.07 18
-3 -2 9 326.17 18
2 2 -9 883.91 37.5
2 2 -9 859.21 38
-2 -2 9 859.61 37.9
-2 -2 9 812.72 37.8
1 2 -9 682.83 28.9
1 2 -9 641.14 29.4
-1 -2 9 602.14 29
-1 -2 9 614.04 29.3
0 2 -9 1022.7 46.3
0 -2 9 1098.49 46.5
0 -2 9 1090.49 46.3
-1 2 -9 600.24 28.1
1 -2 9 611.64 28.1
1 -2 9 599.74 27.7
-2 2 -9 251.67 14.9
-2 2 -9 250.47 15.8
2 -2 9 263.37 14.5
2 -2 9 242.48 14.6
-3 2 -9 678.73 32.2
-3 2 -9 663.93 31.4
3 -2 9 695.23 31
3 -2 9 690.33 31.4
-4 2 -9 13.9 5.5
-4 2 -9 9.8 5.8
4 -2 9 12.7 5.6
4 -2 9 14.2 5.1
-5 2 -9 466.35 24.3
-5 2 -9 468.15 24.1
5 -2 9 474.25 23.6
5 -2 9 476.65 23.2
-6 2 -9 99.69 11.7
-6 2 -9 100.19 11
6 -2 9 101.69 10.9
-7 2 -9 46.3 7.9
-7 2 -9 45.3 8.3
7 -2 9 47 8
-8 2 -9 183.28 14.8
-8 2 -9 198.48 15.5
8 -2 9 191.08 14.8
-9 2 -9 231.08 16.8
-9 2 -9 219.18 17.4
9 -2 9 240.68 16.8
-10 2 -9 279.57 19.4
-10 2 -9 263.07 18.6
10 -2 9 266.87 18.5
-11 2 -9 42.8 9.8
-11 2 -9 34.5 9.3
11 -2 9 40.4 11.5
15 1 -9 299.27 24.5
15 1 -9 301.97 26.4
-15 -1 9 331.97 24.5
-15 -1 9 315.17 24.6
14 1 -9 25.7 10.2
14 1 -9 30.6 10
-14 -1 9 28.1 9.9
-14 -1 9 53.39 12.1
13 1 -9 74.89 11.8
13 1 -9 114.69 15.4
-13 -1 9 117.69 14.4
-13 -1 9 116.49 14
12 1 -9 11.1 7.2
12 1 -9 12.2 8.6
-12 -1 9 7.8 8.8
-12 -1 9 10 7.6
11 1 -9 62.49 9.2
-11 -1 9 81.09 11.2
-11 -1 9 63.99 9.4
10 1 -9 22.5 7.3
10 1 -9 34.2 8.1
-10 -1 9 17.6 7
-10 -1 9 21.7 7.3
9 1 -9 71.79 10.7
9 1 -9 98.39 11.2
-9 -1 9 91.89 11.6
-9 -1 9 87.59 11.7
8 1 -9 176.08 13.9
8 1 -9 179.78 13.2
-8 -1 9 170.18 13.7
-8 -1 9 180.18 14.1
7 1 -9 308.37 17.4
7 1 -9 302.77 17.8
-7 -1 9 290.67 17.6
-7 -1 9 298.87 17.7
6 1 -9 1166.58 50.79
6 1 -9 1140.89 51.09
-6 -1 9 1183.88 51.19
-6 -1 9 1193.78 51.09
5 1 -9 1750.82 74.29
5 1 -9 1762.72 73.89
-5 -1 9 1812.92 74.29
-5 -1 9 1708.33 73.99
4 1 -9 967.1 41.3
4 1 -9 907.81 40.5
-4 -1 9 883.81 40.8
-4 -1 9 935.81 41
3 1 -9 242.68 13.5
3 1 -9 236.28 14.4
-3 -1 9 198.28 13.9
-3 -1 9 230.98 14.1
2 1 -9 753.22 34.4
2 1 -9 771.92 33.7
-2 -1 9 748.43 34.2
-2 -1 9 753.22 34.4
1 1 -9 186.68 13.2
-1 -1 9 232.28 13.6
-1 -1 9 222.98 13.5
0 1 -9 397.36 20.8
0 -1 9 406.36 20.8
0 -1 9 419.66 20.5
-1 1 -9 819.12 36.8
1 -1 9 807.92 36.3
1 -1 9 823.42 36.7
-2 1 -9 43.4 8.3
-2 1 -9 43.8 7.5
2 -1 9 41.4 6.9
2 -1 9 47.9 7.5
-3 1 -9 516.35 25.6
-3 1 -9 473.15 24.6
3 -1 9 488.15 24.5
3 -1 9 501.65 24
-4 1 -9 600.04 29.1
-4 1 -9 613.44 29.8
4 -1 9 605.24 29
4 -1 9 594.74 28.3
-5 1 -9 77.99 10.7
-5 1 -9 72.89 9.6
5 -1 9 97.19 10.6
-6 1 -9 50.99 8.3
-6 1 -9 65.89 9.4
6 -1 9 59.69 9
-7 1 -9 128.39 13.8
-7 1 -9 121.99 12.9
7 -1 9 129.99 13.2
-8 1 -9 105.29 13
-8 1 -9 105.59 14
8 -1 9 119.29 13.6
-9 1 -9 130.79 15.8
-9 1 -9 120.29 14.1
9 -1 9 126.29 14.4
-10 1 -9 123.79 16.3
-10 1 -9 127.39 15.1
10 -1 9 133.69 15.2
-11 1 -9 31 10.1
-11 1 -9 23.8 9.5
11 -1 9 21.8 12
15 0 -9 691.53 38.2
15 0 -9 634.74 36.5
-15 0 9 689.53 36.9
-15 0 9 693.23 36.7
14 0 -9 170.28 18.1
14 0 -9 184.98 18.7
-14 0 9 167.88 18.8
-14 0 9 167.98 18.7
13 0 -9 9.8 9.4
13 0 -9 10.7 9
-13 0 9 1.5 8.6
-13 0 9 4.9 8.9
12 0 -9 112.89 15.8
12 0 -9 101.49 14
-12 0 9 117.39 14.9
-12 0 9 120.19 14.9
11 0 -9 24.2 8.9
11 0 -9 29.7 8.5
-11 0 9 13 8.2
-11 0 9 17.6 7.9
10 0 -9 38.7 7.9
10 0 -9 58.89 9.8
-10 0 9 34.2 8.2
-10 0 9 35.8 9
9 0 -9 235.28 16.2
9 0 -9 214.98 15.6
-9 0 9 231.58 16.5
-9 0 9 242.18 16.3
8 0 -9 202.38 14.1
8 0 -9 202.88 14.8
-8 0 9 207.48 14.8
-8 0 9 187.88 14.5
7 0 -9 366.26 21
7 0 -9 393.46 20.6
-7 0 9 392.76 21.3
-7 0 9 418.76 21.2
6 0 -9 135.49 12
6 0 -9 147.39 11.2
-6 0 9 149.39 12.2
-6 0 9 140.29 11.9
5 0 -9 20.2 6.2
5 0 -9 16.8 5
-5 0 9 33.2 6.9
-5 0 9 28.6 6.1
4 0 -9 393.66 20.3
4 0 -9 390.16 21
-4 0 9 402.66 20.9
-4 0 9 422.26 21.2
3 0 -9 247.78 15.4
3 0 -9 258.67 14.6
-3 0 9 268.17 15.8
-3 0 9 250.07 15.4
2 0 -9 964.2 43.7
-2 0 9 981.6 43.5
-2 0 9 1024.7 43.9
1 0 -9 1352.56 58.99
-1 0 9 1388.86 58.79
-1 0 9 1389.66 59.19
0 0 -9 607.64 29.9
0 0 9 638.04 29.5
0 0 9 658.73 29.9
-1 0 -9 391.86 21.1
-1 0 -9 417.26 22.1
1 0 9 382.86 20.9
1 0 9 391.86 20.4
-2 0 -9 220.58 15.9
-2 0 -9 204.38 15
2 0 9 247.98 14.6
2 0 9 242.98 15.2
-3 0 -9 413.86 21.7
-3 0 -9 409.56 22.6
3 0 9 380.66 21.4
-4 0 -9 1659.73 69.49
-4 0 -9 1603.24 68.79
4 0 9 1537.65 68.49
-5 0 -9 1064.79 47
-5 0 -9 1013.8 46.2
5 0 9 997.6 46.2
-6 0 -9 9.7 6.9
-6 0 -9 6.9 7.1
6 0 9 7.9 6.9
-7 0 -9 143.69 14.3
-7 0 -9 151.58 15.5
7 0 9 140.29 14.7
-8 0 -9 268.17 18.4
-8 0 -9 250.07 19.4
8 0 9 216.98 18.1
-9 0 -9 157.98 16.4
-9 0 -9 162.98 17.4
9 0 9 151.98 16.4
-10 0 -9 4 9
-10 0 -9 6.5 9.6
10 0 9 16.2 11.3
15 -1 -9 222.28 22
15 -1 -9 239.68 25.1
-15 1 9 265.37 23.2
-15 1 9 269.67 22.3
14 -1 -9 11.6 10.1
14 -1 -9 8 10.8
-14 1 9 10.5 10.2
-14 1 9 11.4 9.9
13 -1 -9 153.48 17.6
13 -1 -9 160.98 16.5
-13 1 9 137.19 16.7
-13 1 9 167.78 17.8
12 -1 -9 407.66 24.2
12 -1 -9 407.66 25.4
-12 1 9 427.96 25.2
-12 1 9 462.75 25.7
11 -1 -9 549.15 30.2
11 -1 -9 529.85 29.3
-11 1 9 625.54 30.5
-11 1 9 645.54 30.8
10 -1 -9 316.57 19.5
10 -1 -9 325.07 20.2
-10 1 9 315.97 20.2
-10 1 9 335.97 20.4
9 -1 -9 256.87 16.9
9 -1 -9 235.58 15.9
-9 1 9 242.68 17.1
-9 1 9 241.08 16.7
8 -1 -9 98.59 12
8 -1 -9 97.49 10.5
-8 1 9 87.39 11.7
-8 1 9 95.19 11.7
7 -1 -9 532.35 26.8
7 -1 -9 515.85 25.8
-7 1 9 538.05 26.4
-7 1 9 538.65 26.8
6 -1 -9 585.34 27.9
6 -1 -9 588.74 28.8
-6 1 9 571.94 28.5
-6 1 9 604.04 28.7
5 -1 -9 149.88 11.6
5 -1 -9 154.28 12.8
-5 1 9 168.58 12.9
-5 1 9 180.78 13.2
4 -1 -9 22.3 5.7
4 -1 -9 25.1 7
-4 1 9 16 6.1
-4 1 9 23.1 6.6
3 -1 -9 348.47 19.3
-3 1 9 354.56 19.4
-3 1 9 349.67 19.1
2 -1 -9 557.54 27.3
-2 1 9 560.34 27.3
-2 1 9 555.34 26.7
1 -1 -9 1399.96 60.19
-1 1 9 1388.16 60.09
-1 1 9 1392.36 59.59
0 -1 -9 164.98 14.1
0 -1 -9 150.38 13.2
0 1 9 162.58 12.8
0 1 9 172.38 12.4
-1 -1 -9 32.6 7.4
-1 -1 -9 37.9 8.6
1 1 9 34.9 7.2
1 1 9 47 8.3
-2 -1 -9 116.29 12.9
-2 -1 -9 99.69 11.6
2 1 9 108.99 11.5
-3 -1 -9 461.05 23.8
-3 -1 -9 480.85 24.9
3 1 9 388.96 23.3
-4 -1 -9 1240.38 53.19
-4 -1 -9 1218.28 52.39
4 1 9 1057.09 51.89
-5 -1 -9 1009.5 45.7
-5 -1 -9 1036 46.5
5 1 9 934.71 45.4
-6 -1 -9 132.29 15.2
-6 -1 -9 125.19 14.1
6 1 9 123.99 14.4
-7 -1 -9 51.69 10.8
-7 -1 -9 54.09 9.9
7 1 9 32.7 10.1
-8 -1 -9 386.76 24.4
-8 -1 -9 372.56 25.3
8 1 9 440.06 25.4
-9 -1 -9 852.61 44.4
-9 -1 -9 875.11 43.7
9 1 9 975.6 44.6
-10 -1 -9 70.49 12.7
10 1 9 48.9 13.2
14 -2 -9 87.39 13.6
14 -2 -9 70.99 13.7
-14 2 9 125.49 15.2
-14 2 9 92.09 13.1
13 -2 -9 96.69 14.7
13 -2 -9 95.49 13
-13 2 9 104.59 13.9
-13 2 9 118.89 14.1
12 -2 -9 191.88 16.4
12 -2 -9 181.68 17.7
-12 2 9 199.48 17.5
-12 2 9 226.08 18.3
11 -2 -9 533.95 29.1
11 -2 -9 521.15 27.9
-11 2 9 571.64 29.3
-11 2 9 580.34 29.5
10 -2 -9 185.68 14.1
10 -2 -9 179.18 15.2
-10 2 9 127.99 14.5
-10 2 9 142.59 15
9 -2 -9 280.27 16.5
9 -2 -9 277.57 17.4
-9 2 9 222.98 17.3
-9 2 9 220.88 16.7
8 -2 -9 60.89 9.6
8 -2 -9 45.6 7.5
-8 2 9 61.39 9.3
-8 2 9 77.29 10
7 -2 -9 578.14 26.3
7 -2 -9 581.74 27.5
-7 2 9 490.75 26.8
-7 2 9 465.25 26.4
6 -2 -9 1191.18 51.09
6 -2 -9 1169.98 50.09
-6 2 9 1131.19 50.99
-6 2 9 1104.29 50.59
5 -2 -9 803.92 38.1
-5 2 9 843.62 38.3
-5 2 9 830.32 38
4 -2 -9 257.17 16
-4 2 9 209.98 15.3
-4 2 9 245.78 15.7
3 -2 -9 694.23 32.4
-3 2 9 703.33 32.4
-3 2 9 637.64 31.7
2 -2 -9 98.59 11.5
-2 2 9 80.99 9.7
-2 2 9 85.79 10.4
1 -2 -9 41.6 7.4
1 -2 -9 40 8.1
-1 2 9 73.09 10.4
0 -2 -9 475.35 25.3
0 -2 -9 511.25 26.3
0 2 9 476.85 25.1
0 2 9 469.25 24.3
-1 -2 -9 720.83 34.6
-1 -2 -9 736.03 35.5
1 2 9 744.73 34.7
1 2 9 693.03 33.7
-2 -2 -9 240.78 17.6
-2 -2 -9 224.68 16.3
2 2 9 221.18 16.1
-3 -2 -9 155.08 15.5
-3 -2 -9 153.68 14.5
3 2 9 173.58 14.6
-4 -2 -9 104.59 14.3
-4 -2 -9 97.39 13.3
4 2 9 122.19 13.5
-5 -2 -9 69.59 10
-5 -2 -9 56.49 9.8
5 2 9 39.5 8.9
-6 -2 -9 109.79 15.9
-6 -2 -9 104.49 14.3
6 2 9 98.69 14.5
-7 -2 -9 176.58 18.6
-7 -2 -9 177.08 17.4
7 2 9 149.69 17.8
-8 -2 -9 925.81 45.6
-8 -2 -9 945.11 46.9
8 2 9 974.4 46.4
-9 -2 -9 779.62 40.7
9 2 9 836.52 44
9 2 9 779.52 41.3
-10 -2 -9 28.2 12.1
-10 -2 -9 17.5 10.8
10 2 9 9 12.9
10 2 9 26.1 14.7
14 -3 -9 4 11.4
14 -3 -9 0.8 10.1
-14 3 9 4.9 10.3
-14 3 9 5.4 9.5
13 -3 -9 144.89 18
13 -3 -9 150.88 15.7
-13 3 9 132.69 17.2
-13 3 9 121.29 16.4
12 -3 -9 63.49 9.6
12 -3 -9 77.79 11.8
-12 3 9 41.8 10.3
-12 3 9 62.89 11.6
11 -3 -9 210.78 16
11 -3 -9 199.78 17.6
-11 3 9 213.28 17.9
-11 3 9 207.68 17.7
10 -3 -9 182.68 14.9
10 -3 -9 194.28 16
-10 3 9 175.78 15.9
-10 3 9 173.58 16.2
9 -3 -9 86.19 10.1
9 -3 -9 54.29 9
-9 3 9 64.59 10.3
-9 3 9 43.3 8.3
8 -3 -9 19.3 6.4
8 -3 -9 23.5 8
-8 3 9 37 8.1
-8 3 9 50.39 8.9
7 -3 -9 51.39 7.7
7 -3 -9 58.99 8.7
6 -3 -9 716.43 32.3
-6 3 9 609.14 31.5
-6 3 9 617.54 31.6
5 -3 -9 1136.29 51.29
-5 3 9 1197.68 51.49
-5 3 9 1127.29 50.99
4 -3 -9 93.39 12
-4 3 9 96.39 11.7
-4 3 9 91.69 11.1
3 -3 -9 402.56 21.9
3 -3 -9 375.26 22.7
-3 3 9 384.46 21.6
-3 3 9 373.96 20.9
2 -3 -9 1741.83 74.69
2 -3 -9 1782.12 75.59
-2 3 9 1687.13 73.79
-2 3 9 1753.42 74.79
1 -3 -9 637.54 30.8
1 -3 -9 660.33 31.6
-1 3 9 576.84 30.2
-1 3 9 570.24 29.2
0 -3 -9 207.08 15.5
0 -3 -9 187.18 16.2
0 3 9 181.98 14.1
0 3 9 151.68 14.7
-1 -3 -9 33.2 8
-1 -3 -9 34.4 9.4
1 3 9 23.7 8.1
-2 -3 -9 123.29 15
-2 -3 -9 134.99 13.9
2 3 9 99.89 13.5
-3 -3 -9 170.58 16.7
-3 -3 -9 165.88 15.5
3 3 9 152.48 15.2
-4 -3 -9 311.47 21.5
-4 -3 -9 278.47 19.7
4 3 9 276.27 20.2
-5 -3 -9 103.99 15.2
-5 -3 -9 112.79 16.6
5 3 9 123.99 15.4
-6 -3 -9 64.19 11.9
-6 -3 -9 93.79 13.4
6 3 9 69.49 11.9
-7 -3 -9 109.49 14.1
-7 -3 -9 71.89 12.4
7 3 9 77.79 12.6
7 3 9 86.99 16
-8 -3 -9 39.9 12
-8 -3 -9 27.3 11.4
8 3 9 22.9 10.7
8 3 9 32.3 13.5
-9 -3 -9 162.98 21.3
-9 -3 -9 196.88 22.2
9 3 9 192.98 24.2
9 3 9 207.08 26.4
14 -4 -9 105.39 15.1
14 -4 -9 81.19 13.5
-14 4 9 101.89 14
-14 4 9 84.59 13.9
13 -4 -9 77.69 12.9
13 -4 -9 74.69 12.7
-13 4 9 66.39 11.7
-13 4 9 81.89 12.8
12 -4 -9 210.88 19.3
12 -4 -9 225.08 17.4
-12 4 9 246.18 19.9
-12 4 9 220.78 19.4
11 -4 -9 7.1 7.7
11 -4 -9 0.8 8.5
-11 4 9 2.5 8.2
-11 4 9 4.7 8.3
10 -4 -9 77.09 10.3
10 -4 -9 48.9 9.5
-10 4 9 52.69 9.5
-10 4 9 57.79 10.6
9 -4 -9 49.3 9.9
-9 4 9 49.99 9.3
-9 4 9 52.19 10.5
8 -4 -9 158.98 15.4
-8 4 9 182.88 16
-8 4 9 189.68 15.5
7 -4 -9 427.46 25.7
-7 4 9 522.35 26.6
-7 4 9 512.65 26.1
6 -4 -9 518.25 26.6
-6 4 9 509.35 26.8
-6 4 9 484.05 26.2
5 -4 -9 269.17 17.8
-5 4 9 255.97 17.4
-5 4 9 277.37 18.1
4 -4 -9 38.7 8.9
4 -4 -9 52.09 9.7
-4 4 9 51.79 8.9
-4 4 9 51.49 9.1
3 -4 -9 671.13 33.4
3 -4 -9 662.33 32.5
-3 4 9 616.34 31.2
-3 4 9 645.84 32.3
2 -4 -9 3182.98 130.69
2 -4 -9 3246.98 131.59
-2 4 9 3023 129.59
-2 4 9 3100.39 130.59
1 -4 -9 478.15 25.6
1 -4 -9 486.15 26.5
-1 4 9 434.66 24.1
-1 4 9 435.76 25.2
0 -4 -9 176.18 15.6
0 -4 -9 164.88 16.6
0 4 9 187.98 15.9
-1 -4 -9 62.49 10.5
-1 -4 -9 84.79 11.7
1 4 9 40.8 9.1
-2 -4 -9 365.26 23.4
-2 -4 -9 360.06 24.1
2 4 9 420.26 23.8
-3 -4 -9 408.76 25.9
-3 -4 -9 366.76 24.3
3 4 9 446.26 25.2
-4 -4 -9 452.75 26.6
-4 -4 -9 457.95 27.9
4 4 9 444.96 26.8
-5 -4 -9 4.8 8.4
-5 -4 -9 4.7 9.6
5 4 9 2.9 9
-6 -4 -9 44.3 11.8
-6 -4 -9 61.99 12
6 4 9 31.9 10.5
-7 -4 -9 424.16 29.2
-7 -4 -9 409.16 27.8
7 4 9 419.66 27.9
7 4 9 435.76 31.6
-8 -4 -9 569.24 34.2
-8 -4 -9 572.34 35.7
8 4 9 554.54 37.7
8 4 9 587.54 34.9
13 -5 -9 41.1 12.5
13 -5 -9 46.3 12.1
-13 5 9 46.1 11.6
-13 5 9 49.9 12.2
12 -5 -9 161.88 18.5
-12 5 9 198.18 19.3
-12 5 9 193.08 18.9
11 -5 -9 104.79 15.4
-11 5 9 80.79 12
-11 5 9 102.89 13.4
10 -5 -9 13.5 8.4
-10 5 9 20.2 9.1
-10 5 9 28.1 9.4
9 -5 -9 16.3 8.8
-9 5 9 10 8
-9 5 9 21.9 9.6
8 -5 -9 3.6 7.3
-8 5 9 3.2 7.6
-8 5 9 5.1 7.5
7 -5 -9 190.68 16.2
-7 5 9 161.18 15.4
-7 5 9 169.08 15.7
6 -5 -9 341.07 22.5
6 -5 -9 336.57 21.1
-6 5 9 328.37 21.1
-6 5 9 342.67 20.8
5 -5 -9 38.6 9.9
5 -5 -9 41.9 10.5
-5 5 9 40.7 9.7
-5 5 9 35.4 9.1
4 -5 -9 45.3 9.7
4 -5 -9 40.3 8.5
-4 5 9 38 9.1
-4 5 9 29.3 7.6
3 -5 -9 538.35 29
3 -5 -9 541.45 27.9
-3 5 9 482.65 26.6
-3 5 9 487.45 27.6
2 -5 -9 1256.27 56.39
2 -5 -9 1277.77 57.19
-2 5 9 1263.97 56.39
-2 5 9 1196.08 55.09
1 -5 -9 67.89 11
1 -5 -9 56.79 10.5
-1 5 9 89.29 12.7
-1 5 9 64.49 9.9
0 -5 -9 306.87 21
0 -5 -9 288.97 21.7
0 5 9 326.37 21.4
-1 -5 -9 40.9 10.2
-1 -5 -9 37.6 10.2
1 5 9 37 9.4
-2 -5 -9 1352.16 63.29
-2 -5 -9 1326.57 62.39
2 5 9 1484.65 63.19
-3 -5 -9 534.25 30.9
-3 -5 -9 537.25 32
3 5 9 611.34 31.6
-4 -5 -9 299.87 24.4
-4 -5 -9 308.87 23.4
4 5 9 358.76 23.8
-5 -5 -9 286.17 23.5
-5 -5 -9 303.27 25.1
5 5 9 324.17 24.2
-6 -5 -9 437.56 29
-6 -5 -9 415.76 27.3
6 5 9 351.36 26.8
6 5 9 322.97 29.8
-7 -5 -9 479.05 33.1
-7 -5 -9 489.65 31.4
7 5 9 474.45 34.5
7 5 9 466.65 31.4
12 -6 -9 188.48 19.6
-12 6 9 189.68 19.7
-12 6 9 209.88 19.3
11 -6 -9 520.15 29.2
-11 6 9 521.65 29.3
-11 6 9 500.55 28.7
10 -6 -9 57.99 10.9
-10 6 9 60.89 11.3
-10 6 9 73.39 11.5
9 -6 -9 193.98 17.7
-9 6 9 143.59 16.7
-9 6 9 169.78 17.1
8 -6 -9 693.13 35.6
8 -6 -9 664.13 34
-8 6 9 647.14 33.8
-8 6 9 644.34 33.6
7 -6 -9 679.63 35.3
7 -6 -9 712.03 34.1
-7 6 9 643.74 33.9
-7 6 9 620.34 33.3
6 -6 -9 286.87 21.5
6 -6 -9 288.57 20
-6 6 9 263.77 19.7
-6 6 9 252.07 19
5 -6 -9 351.76 22.7
5 -6 -9 351.86 23.7
-5 6 9 350.26 21.8
-5 6 9 379.26 23
4 -6 -9 19.5 8.5
4 -6 -9 37.2 11.3
-4 6 9 36.9 10.4
-4 6 9 21.7 8.1
3 -6 -9 11.4 8.2
3 -6 -9 19.8 10.1
-3 6 9 14.8 9.5
-3 6 9 9.8 7.5
2 -6 -9 54.09 11.2
2 -6 -9 48.1 11.2
-2 6 9 45.6 10.7
-2 6 9 45.1 9.9
1 -6 -9 16 8.4
1 -6 -9 10.5 8.8
-1 6 9 13.3 9
0 -6 -9 21.6 9.2
0 -6 -9 24.1 9.4
0 6 9 22.5 8.8
-1 -6 -9 296.97 22.8
-1 -6 -9 330.47 23.6
1 6 9 333.27 23.4
-2 -6 -9 220.18 20.5
-2 -6 -9 242.68 22.3
2 6 9 255.67 21.6
-3 -6 -9 168.58 19.5
-3 -6 -9 189.38 21.3
3 6 9 195.98 19.6
-4 -6 -9 16.6 11.3
-4 -6 -9 24.1 11.8
4 6 9 16.5 10.3
-5 -6 -9 428.26 30.7
-5 -6 -9 442.66 29.6
5 6 9 440.96 29.7
-6 -6 -9 519.75 33.7
-6 -6 -9 513.85 35
6 6 9 564.24 34.3
6 6 9 558.94 37.8
7 6 9 245.68 25.7
11 -7 -9 417.16 25.8
-11 7 9 379.96 24.7
-11 7 9 369.86 25.4
10 -7 -9 20.7 10.6
10 -7 -9 7.4 12.4
-10 7 9 14.4 10
-10 7 9 11.2 10.2
9 -7 -9 642.34 35.6
9 -7 -9 673.53 34.5
-9 7 9 635.34 33.9
-9 7 9 621.34 33.7
8 -7 -9 919.21 43.5
8 -7 -9 898.51 44.7
-8 7 9 861.11 42.9
-8 7 9 889.81 43.4
7 -7 -9 762.72 39.4
7 -7 -9 764.42 38.2
-7 7 9 755.32 38.2
-7 7 9 736.63 37.4
6 -7 -9 29.7 9.8
6 -7 -9 32.4 11.4
-6 7 9 53.39 12
-6 7 9 47.9 9.6
5 -7 -9 -1.8 9.3
5 -7 -9 18.4 10.4
-5 7 9 11.7 9.4
-5 7 9 11.2 9
4 -7 -9 149.69 18.3
4 -7 -9 146.09 17.6
-4 7 9 162.98 17.9
-4 7 9 173.08 16.5
3 -7 -9 269.47 21.3
3 -7 -9 264.77 22
-3 7 9 255.97 19.4
-3 7 9 276.57 21.3
2 -7 -9 169.48 18.5
2 -7 -9 186.48 19.3
-2 7 9 170.98 18.6
-2 7 9 180.08 17.2
1 -7 -9 51.89 11.8
1 -7 -9 65.59 13.7
-1 7 9 62.09 12.7
0 -7 -9 36 12.2
0 -7 -9 24.5 11.7
0 7 9 29 11.7
-1 -7 -9 117.89 16
-1 -7 -9 77.89 12.7
1 7 9 132.09 18.6
-2 -7 -9 291.27 24
-2 -7 -9 268.17 23.6
2 7 9 267.17 23.5
-3 -7 -9 25 13.3
-3 -7 -9 24.6 11.5
3 7 9 30 12.4
-4 -7 -9 130.39 18.6
-4 -7 -9 126.49 18.5
4 7 9 132.59 17.9
-5 -7 -9 10.9 14
-5 -7 -9 8 13.2
5 7 9 9.9 12.6
10 -8 -9 17.9 11.5
10 -8 -9 19.8 15.4
-10 8 9 17 11
-10 8 9 14.1 10.4
9 -8 -9 347.17 24.7
9 -8 -9 305.77 28.1
-9 8 9 326.07 24.1
-9 8 9 338.57 23.9
8 -8 -9 367.46 26.7
8 -8 -9 375.46 25
-8 8 9 342.77 24.8
-8 8 9 343.47 24.1
7 -8 -9 471.75 29.1
7 -8 -9 471.35 30.4
-7 8 9 492.75 28.7
-7 8 9 519.85 29.5
6 -8 -9 388.76 25.9
6 -8 -9 363.66 26.8
-6 8 9 391.06 24.9
-6 8 9 398.56 26
5 -8 -9 122.39 18.2
5 -8 -9 106.29 15.2
-5 8 9 74.89 12.2
-5 8 9 110.39 15.1
4 -8 -9 552.64 33.8
4 -8 -9 585.04 33.4
-4 8 9 655.23 34.1
-4 8 9 605.74 32.5
3 -8 -9 807.22 43.3
3 -8 -9 865.21 44.1
-3 8 9 866.71 42.1
-3 8 9 897.11 43.7
2 -8 -9 67.69 13.3
-2 8 9 101.59 14.5
-2 8 9 50.19 11.8
1 -8 -9 15.8 12.1
1 -8 -9 18.4 11.4
-1 8 9 8.5 11.2
0 -8 -9 367.16 26.7
0 -8 -9 345.67 26.3
0 8 9 315.77 26.1
-1 -8 -9 675.43 37.7
-1 -8 -9 669.73 38.1
1 8 9 636.84 37.7
-2 -8 -9 529.25 33.5
-3 -8 -9 19 12.7
-3 -8 -9 17.3 13.7
3 8 9 10.9 13.6
-4 -8 -9 97.89 17.5
-4 -8 -9 121.69 20.4
4 8 9 119.49 19
9 -9 -9 25.9 16.2
9 -9 -9 39.2 13.3
-9 9 9 20 11.5
8 -9 -9 7.5 14.5
8 -9 -9 31.9 12.2
-8 9 9 22.6 11.1
-8 9 9 17.7 11.4
7 -9 -9 127.39 15.9
7 -9 -9 104.59 17.3
-7 9 9 137.49 17
-7 9 9 135.29 18.4
6 -9 -9 134.89 16.5
6 -9 -9 77.79 14.8
-6 9 9 110.39 16.1
-6 9 9 98.29 13.7
5 -9 -9 22.6 11.8
5 -9 -9 45.5 13.4
-5 9 9 18.3 10.6
-5 9 9 41.1 12.7
4 -9 -9 605.44 35.6
4 -9 -9 593.34 36.7
-4 9 9 639.84 35.9
-4 9 9 662.13 34.5
3 -9 -9 638.04 38.6
3 -9 -9 676.13 38.7
-3 9 9 770.22 39.3
-3 9 9 696.83 37.2
2 -9 -9 19.4 13.4
2 -9 -9 24.8 12.2
-2 9 9 5.8 11.1
-2 9 9 12 13.4
1 -9 -9 178.68 22.9
1 -9 -9 187.88 22.7
-1 9 9 196.48 23.3
0 -9 -9 368.66 28.8
0 9 9 369.86 28.8
-1 -9 -9 344.57 28.7
-2 -9 -9 216.48 26.3
-2 -9 -9 242.68 26.6
2 9 9 243.38 26.6
6 -10 -9 116.79 17.5
6 -10 -9 57.19 16.7
-6 10 9 61.09 14.3
-6 10 9 85.09 14.9
5 -10 -9 10.9 14.7
5 -10 -9 7.2 14.9
-5 10 9 13.1 13.3
-5 10 9 18.1 13.2
4 -10 -9 25.6 13.4
4 -10 -9 28.6 15.7
-4 10 9 34 14.3
-4 10 9 8.9 12.2
3 -10 -9 52.19 14.7
3 -10 -9 38.2 13.8
-3 10 9 44.6 14.4
-3 10 9 61.59 14.4
2 -10 -9 -4.3 12.1
2 -10 -9 -1 12.2
-2 10 9 -2.4 11.6
-2 10 9 -9.8 12.1
1 -10 -9 202.88 25.2
1 -10 -9 203.78 25.7
-1 10 9 192.68 25.6
1 16 -10 299.87 22.4
1 16 -10 273.17 23.9
-1 -16 10 281.27 22.3
-1 -16 10 301.57 26.2
0 16 -10 294.87 21.8
0 16 -10 308.87 24.3
0 -16 10 325.97 26.3
0 -16 10 318.07 22.4
-1 16 -10 68.39 10.6
-1 16 -10 52.49 11.8
1 -16 10 61.99 13.1
1 -16 10 77.19 11.7
5 15 -10 184.18 21.9
5 15 -10 203.08 24.9
-5 -15 10 180.28 22
-5 -15 10 145.29 19.3
4 15 -10 245.58 25.2
4 15 -10 282.67 23
-4 -15 10 254.67 22.9
-4 -15 10 262.17 26.6
3 15 -10 33.5 11
3 15 -10 44.1 13.5
-3 -15 10 26.1 10.5
-3 -15 10 43.5 13.9
2 15 -10 278.27 21
2 15 -10 275.47 23.2
-2 -15 10 257.57 21.2
-2 -15 10 274.77 24.6
1 15 -10 589.44 31.3
1 15 -10 608.84 32.9
-1 -15 10 585.34 31.8
-1 -15 10 590.04 33.3
0 15 -10 197.98 17
0 15 -10 182.68 18.6
0 -15 10 187.98 19.4
0 -15 10 176.78 16.9
-1 15 -10 117.89 13.7
-1 15 -10 123.69 15.8
1 -15 10 126.29 14.4
1 -15 10 107.39 16
-2 15 -10 112.69 12.8
-2 15 -10 89.59 11.9
2 -15 10 93.89 13.1
2 -15 10 104.29 14
-3 15 -10 162.58 14.9
-3 15 -10 167.48 12.8
3 -15 10 135.89 13.6
3 -15 10 126.89 13.4
-4 15 -10 110.99 11.1
-4 15 -10 108.99 12.6
4 -15 10 97.69 11.7
4 -15 10 93.59 11.6
7 14 -10 7.1 11.2
7 14 -10 15.8 14.2
-7 -14 10 12.8 12.1
-7 -14 10 6.7 12.7
6 14 -10 57.29 13.9
6 14 -10 53.99 15.3
-6 -14 10 46.5 13.2
-6 -14 10 47.4 14.3
5 14 -10 1.9 11.6
5 14 -10 1.2 9.6
-5 -14 10 -6.4 10.3
-5 -14 10 6 10.7
4 14 -10 38.5 10.5
4 14 -10 31.4 11.6
-4 -14 10 48.5 11.4
-4 -14 10 42.9 11.3
3 14 -10 5.1 9.7
3 14 -10 2.4 8.5
-3 -14 10 -0.4 8.5
-3 -14 10 -0.5 9.4
2 14 -10 67.29 12.3
2 14 -10 51.59 10.1
-2 -14 10 51.19 10.4
-2 -14 10 48.8 10.5
1 14 -10 64.79 10.7
1 14 -10 43.8 10.7
-1 -14 10 98.79 14.5
0 14 -10 40.3 9.8
0 14 -10 40 8.8
0 -14 10 67.79 10
0 -14 10 45.4 9
-1 14 -10 219.38 17.3
-1 14 -10 196.58 15.3
1 -14 10 223.58 16.2
1 -14 10 226.18 16.1
-2 14 -10 70.29 8.7
-2 14 -10 75.89 10.1
2 -14 10 60.89 8.6
2 -14 10 64.19 8.7
-3 14 -10 455.25 23.7
-3 14 -10 462.05 22.4
3 -14 10 454.75 23
3 -14 10 425.66 22.6
-4 14 -10 493.15 24.6
-4 14 -10 515.25 23.9
4 -14 10 491.25 23.9
4 -14 10 513.65 24.1
-5 14 -10 158.48 10
-5 14 -10 154.98 11.2
5 -14 10 161.38 10.7
5 -14 10 167.38 10.5
9 13 -10 65.19 17.8
9 13 -10 34.7 13.6
-9 -13 10 68.79 16.9
-9 -13 10 58.79 14.6
8 13 -10 30.5 12.5
8 13 -10 48.3 16
-8 -13 10 24.7 12.4
-8 -13 10 39.7 14.4
7 13 -10 146.69 21
7 13 -10 164.58 23.2
-7 -13 10 198.58 21.8
-7 -13 10 227.18 22.9
6 13 -10 562.64 35.1
6 13 -10 599.44 34
-6 -13 10 618.94 34.5
-6 -13 10 665.93 34.7
5 13 -10 110.19 16.5
5 13 -10 74.09 12.7
-5 -13 10 111.89 14.5
-5 -13 10 78.89 12.3
4 13 -10 28.6 9.8
4 13 -10 14 10.8
-4 -13 10 25.9 10.5
-4 -13 10 31.3 10.1
3 13 -10 24.9 8.5
3 13 -10 20.5 9.8
-3 -13 10 22.1 8.8
-3 -13 10 37.5 10.2
2 13 -10 110.29 14.1
2 13 -10 119.59 15.4
-2 -13 10 117.39 14.4
-2 -13 10 103.79 14.3
1 13 -10 45.6 9
1 13 -10 45.7 9.6
-1 -13 10 34.6 8.6
-1 -13 10 27.7 8
0 13 -10 133.19 12.9
0 13 -10 137.09 14.4
0 -13 10 137.49 13.3
0 -13 10 131.89 13.4
-1 13 -10 64.99 9.4
-1 13 -10 61.69 8.4
1 -13 10 68.69 9.1
1 -13 10 67.39 8.9
-2 13 -10 73.89 9.9
-2 13 -10 69.09 9
2 -13 10 84.19 10.7
2 -13 10 85.89 10.2
-3 13 -10 579.84 26.5
-3 13 -10 546.55 27.1
3 -13 10 563.34 26.5
3 -13 10 569.74 26.7
-4 13 -10 634.64 29.1
-4 13 -10 656.43 28.6
4 -13 10 645.04 28.7
4 -13 10 616.84 28.6
-5 13 -10 128.69 8.6
-5 13 -10 115.09 9.5
5 -13 10 134.89 9.1
5 -13 10 119.29 9
10 12 -10 344.77 28.6
10 12 -10 381.16 33.1
-10 -12 10 363.16 30.5
-10 -12 10 359.16 29.6
9 12 -10 102.59 17
9 12 -10 65.39 13
-9 -12 10 63.09 13.4
-9 -12 10 76.99 15.1
8 12 -10 303.17 26.7
8 12 -10 299.47 25.1
-8 -12 10 403.86 26.7
-8 -12 10 348.27 26.3
7 12 -10 924.21 46.5
7 12 -10 924.01 47.6
-7 -12 10 997.3 47.2
-7 -12 10 966.7 47.3
6 12 -10 1025.2 50.39
6 12 -10 1035.8 49.7
-6 -12 10 1058.99 50.09
-6 -12 10 1065.79 49.99
5 12 -10 197.78 17.7
5 12 -10 212.58 19
-5 -12 10 183.18 18.1
-5 -12 10 173.88 17.8
4 12 -10 4.5 8.5
4 12 -10 5.4 7.2
-4 -12 10 4.3 7.4
-4 -12 10 2.1 7.4
3 12 -10 122.69 14
3 12 -10 114.79 14.9
-3 -12 10 103.79 12.5
2 12 -10 52.39 8.7
2 12 -10 51.69 9.4
-2 -12 10 45.7 8.7
-2 -12 10 47.7 8.8
1 12 -10 220.88 16.2
1 12 -10 209.38 15.2
-1 -12 10 204.68 15.4
-1 -12 10 206.48 15.5
0 12 -10 76.79 10.5
0 12 -10 83.99 11.5
0 -12 10 80.09 9.6
0 -12 10 61.69 8.6
-1 12 -10 203.58 14.8
-1 12 -10 196.38 13.6
1 -12 10 218.98 14.2
1 -12 10 205.48 14.2
-2 12 -10 68.69 10.3
-2 12 -10 74.99 9.4
2 -12 10 74.39 9.7
2 -12 10 86.29 9.7
-3 12 -10 9 5.3
-3 12 -10 9.7 5.1
3 -12 10 11.1 5.2
3 -12 10 10.6 5.4
-4 12 -10 46.7 7.1
-4 12 -10 49.4 6.5
4 -12 10 52.99 7.3
4 -12 10 49.5 6.4
-5 12 -10 -0.6 4.1
5 -12 10 1.5 3.7
5 -12 10 1.3 4.2
11 11 -10 74.69 15.3
11 11 -10 91.19 18.5
-11 -11 10 140.09 18.9
-11 -11 10 121.69 17.8
10 11 -10 189.98 22.4
10 11 -10 187.98 24.7
-10 -11 10 239.98 24.2
-10 -11 10 228.58 23.7
9 11 -10 29.7 12.1
9 11 -10 24.5 12.1
-9 -11 10 19.6 11.2
-9 -11 10 31.7 12.7
8 11 -10 440.96 28.9
8 11 -10 447.56 27.9
-8 -11 10 446.86 28.3
-8 -11 10 456.55 28.6
7 11 -10 604.04 32
7 11 -10 557.34 30.6
-7 -11 10 498.35 30.5
-7 -11 10 500.25 30.6
6 11 -10 537.75 29
6 11 -10 484.95 29.4
-6 -11 10 522.05 29.1
-6 -11 10 521.25 29.3
5 11 -10 50.69 10.2
5 11 -10 55.19 9.7
-5 -11 10 40.5 8.9
-5 -11 10 43.9 9
4 11 -10 134.69 14
4 11 -10 129.29 14.8
-4 -11 10 131.39 14.1
-4 -11 10 115.59 13.9
3 11 -10 88.39 11.8
3 11 -10 102.19 13
-3 -11 10 63.39 9.2
-3 -11 10 91.89 11.1
2 11 -10 212.78 15.7
2 11 -10 222.38 14.9
-2 -11 10 186.88 14.8
-2 -11 10 179.98 14.7
1 11 -10 463.95 21.7
1 11 -10 427.46 22.2
-1 -11 10 354.46 21.2
-1 -11 10 361.06 21.2
0 11 -10 47.5 7.8
0 11 -10 49.1 7.4
0 -11 10 55.19 7.8
0 -11 10 58.49 8.1
-1 11 -10 233.58 14.1
-1 11 -10 230.38 14.7
1 -11 10 229.48 14.2
1 -11 10 219.78 14.4
-2 11 -10 853.21 38.1
-2 11 -10 881.31 37.8
2 -11 10 857.11 37.8
2 -11 10 838.12 37.7
-3 11 -10 605.54 27.7
-3 11 -10 614.14 27.3
3 -11 10 585.74 27.3
-4 11 -10 166.88 10.1
-4 11 -10 173.48 11
4 -11 10 167.98 10.7
4 -11 10 160.78 10.4
-5 11 -10 61.79 7.1
5 -11 10 60.69 6.8
5 -11 10 60.09 6.3
12 10 -10 88.29 18.7
12 10 -10 106.89 16.6
-12 -10 10 78.49 18
-12 -10 10 72.09 17.3
11 10 -10 106.39 16
11 10 -10 153.28 18.2
-11 -10 10 119.19 17.3
-11 -10 10 89.49 15.4
10 10 -10 20.2 11.1
10 10 -10 21 10.7
-10 -10 10 9.9 10.5
-10 -10 10 27 11.1
9 10 -10 109.49 15.5
9 10 -10 81.59 13.2
-9 -10 10 88.29 13.4
-9 -10 10 113.69 15.1
8 10 -10 22.1 11.3
8 10 -10 27.1 11
-8 -10 10 32.4 11.4
-8 -10 10 32.8 11.5
7 10 -10 33.2 9.3
7 10 -10 41.4 9.4
-7 -10 10 14.9 8
-7 -10 10 23.9 8.8
6 10 -10 199.58 17.6
6 10 -10 210.68 17.5
-6 -10 10 212.68 17.8
-6 -10 10 205.58 17.1
5 10 -10 59.49 10
5 10 -10 60.69 9.8
-5 -10 10 46.4 8.9
-5 -10 10 55.19 9.8
4 10 -10 634.44 30.7
4 10 -10 622.24 31.4
-4 -10 10 614.44 30.8
-4 -10 10 600.94 30.7
3 10 -10 1067.39 48
3 10 -10 1039.3 47.2
-3 -10 10 1093.09 47.8
-3 -10 10 1047 47.4
2 10 -10 483.75 24.1
2 10 -10 480.35 24.8
-2 -10 10 460.55 24.2
-2 -10 10 468.35 24.1
1 10 -10 111.79 10.4
1 10 -10 122.19 11.7
-1 -10 10 100.39 10.6
-1 -10 10 82.39 10.2
0 10 -10 10.6 5.6
0 10 -10 11.1 5.1
0 -10 10 8.4 5.2
0 -10 10 10 5.4
-1 10 -10 143.99 11.4
-1 10 -10 146.39 10.8
1 -10 10 130.09 10.8
1 -10 10 134.39 10.9
-2 10 -10 737.03 31.8
-2 10 -10 734.83 31.4
2 -10 10 650.83 31.1
2 -10 10 671.03 31.3
-3 10 -10 469.25 21
-3 10 -10 460.65 20.5
3 -10 10 391.86 20.4
3 -10 10 404.76 20.5
-4 10 -10 116.09 8.9
-4 10 -10 118.29 9.5
4 -10 10 149.88 9.4
4 -10 10 145.09 9.7
-5 10 -10 76.79 7.1
5 -10 10 64.59 6.9
5 -10 10 66.39 6.7
-6 10 -10 316.37 14.4
-6 10 -10 296.57 14.7
6 -10 10 311.77 14
6 -10 10 300.17 14.2
12 9 -10 353.76 30.3
12 9 -10 389.66 28.3
-12 -9 10 398.76 29.8
-12 -9 10 392.96 29.8
11 9 -10 305.97 24.1
11 9 -10 322.77 26.3
-11 -9 10 269.87 25.1
-11 -9 10 290.77 25
10 9 -10 86.09 14.6
10 9 -10 82.79 13
-10 -9 10 67.89 12.8
-10 -9 10 69.79 13.4
9 9 -10 211.58 19.5
9 9 -10 211.68 19.1
-9 -9 10 167.08 18.4
-9 -9 10 171.48 18.7
8 9 -10 83.79 12.5
8 9 -10 79.29 11.7
-8 -9 10 57.09 11.2
7 9 -10 95.99 14
7 9 -10 97.49 14.6
-7 -9 10 112.09 14.3
-7 -9 10 114.19 14.4
6 9 -10 143.39 14.6
6 9 -10 132.19 13.6
-6 -9 10 109.69 13.8
-6 -9 10 126.29 13.9
5 9 -10 2.1 5.9
5 9 -10 13.4 7.9
-5 -9 10 11.6 7.4
-5 -9 10 4.2 6.2
4 9 -10 209.18 15.8
4 9 -10 228.28 15.4
-4 -9 10 202.88 15.3
-4 -9 10 225.58 15.4
3 9 -10 1159.48 52.09
3 9 -10 1213.58 51.49
-3 -9 10 1152.88 51.49
-3 -9 10 1166.28 51.89
2 9 -10 606.14 28.9
2 9 -10 631.24 29.9
-2 -9 10 625.84 29.6
-2 -9 10 592.74 29
1 9 -10 213.48 14.4
1 9 -10 207.38 13.5
-1 -9 10 240.78 14.2
-1 -9 10 214.18 14.4
0 9 -10 10.5 5.6
0 9 -10 10 5
0 -9 10 5.9 4.9
0 -9 10 6.4 5.2
-1 9 -10 148.19 11.4
-1 9 -10 146.99 11
1 -9 10 166.38 11.3
1 -9 10 164.38 11.2
-2 9 -10 386.06 19.2
-2 9 -10 362.46 18.8
2 -9 10 386.36 19
2 -9 10 405.56 19.2
-3 9 -10 209.58 12.4
-3 9 -10 212.28 11.9
3 -9 10 199.58 12.2
3 -9 10 208.28 12.1
-4 9 -10 100.69 8.5
4 -9 10 107.49 8.9
4 -9 10 117.19 8.4
-5 9 -10 58.39 6.9
5 -9 10 48.3 6.7
5 -9 10 45.8 6.2
-6 9 -10 549.85 25.3
-6 9 -10 551.04 24.9
6 -9 10 587.44 24.8
6 -9 10 596.34 25
-7 9 -10 876.91 36.4
-7 9 -10 873.61 36.2
7 -9 10 878.91 36.1
7 -9 10 850.21 36
13 8 -10 408.86 31.7
-13 -8 10 423.76 30.9
-13 -8 10 428.16 31.5
12 8 -10 254.57 22.9
12 8 -10 238.28 25.4
-12 -8 10 269.87 25
-12 -8 10 293.27 24.8
11 8 -10 124.79 17.4
11 8 -10 70.29 13.2
-11 -8 10 111.49 16
-11 -8 10 94.09 13.6
10 8 -10 14.2 9.7
10 8 -10 19.1 11.1
-10 -8 10 18 11.1
-10 -8 10 16.8 10.7
9 8 -10 261.87 19.2
9 8 -10 238.08 19.8
-9 -8 10 207.68 19.4
-9 -8 10 191.18 18.7
-8 -8 10 118.09 14.9
-8 -8 10 125.89 15
7 8 -10 452.25 26
7 8 -10 459.35 25.3
-7 -8 10 463.25 25.6
-7 -8 10 462.45 25.7
6 8 -10 970.4 43.5
6 8 -10 962.1 42.8
-6 -8 10 895.31 42.7
-6 -8 10 892.51 42.9
5 8 -10 85.39 10.8
5 8 -10 83.79 12.7
-5 -8 10 97.39 13.4
-5 -8 10 96.99 11.4
4 8 -10 555.14 26.2
4 8 -10 531.05 26.7
-4 -8 10 521.05 26.3
-4 -8 10 490.25 26.4
3 8 -10 529.15 27.6
3 8 -10 572.34 27.2
-3 -8 10 557.44 27.6
-3 -8 10 597.54 27.6
2 8 -10 258.07 15.7
2 8 -10 246.68 14.6
-2 -8 10 239.38 15
-2 -8 10 240.68 15.3
1 8 -10 120.99 10.6
1 8 -10 110.89 9.8
-1 -8 10 107.39 10
-1 -8 10 113.29 10.5
0 8 -10 15.1 5.4
0 8 -10 13.6 5
0 -8 10 18.2 5.5
0 -8 10 9.4 4.9
-1 8 -10 304.77 16.8
-1 8 -10 335.97 17.3
1 -8 10 332.07 17
1 -8 10 333.17 17.1
-2 8 -10 490.35 23.8
-2 8 -10 487.45 24.4
2 -8 10 551.54 24.4
2 -8 10 560.74 24.4
-3 8 -10 107.49 9
-3 8 -10 105.19 8.4
3 -8 10 110.39 8.6
3 -8 10 99.99 9
-4 8 -10 361.86 17.3
4 -8 10 344.77 17
4 -8 10 331.57 17.1
-5 8 -10 349.67 17.6
-5 8 -10 327.87 16.5
5 -8 10 341.27 16.5
5 -8 10 336.77 16.6
-6 8 -10 556.54 25.8
-6 8 -10 590.84 26.5
6 -8 10 587.14 25.9
6 -8 10 604.04 25.8
-7 8 -10 683.63 28.8
-7 8 -10 652.33 28.2
7 -8 10 619.34 28.2
7 -8 10 646.94 28.1
-8 8 -10 175.58 10.6
-8 8 -10 178.28 10.3
8 -8 10 193.68 10.3
8 -8 10 183.98 10.3
-9 8 -10 5.4 3.7
-9 8 -10 7.1 4
9 -8 10 10.3 3.6
9 -8 10 8.8 3.6
13 7 -10 308.17 24.3
13 7 -10 310.27 27.1
-13 -7 10 306.47 26.3
-13 -7 10 273.77 25.7
12 7 -10 298.97 23.1
12 7 -10 294.87 24.6
-12 -7 10 307.47 24
-12 -7 10 307.47 24.8
11 7 -10 42.8 9.9
11 7 -10 30.7 11
-11 -7 10 42.2 10.6
-11 -7 10 35.8 9.9
10 7 -10 62.39 11.2
10 7 -10 51.09 11.7
-10 -7 10 45.7 11.5
-10 -7 10 49 10.9
9 7 -10 588.64 29.2
9 7 -10 524.35 29.7
-9 -7 10 525.45 29.1
-9 -7 10 502.75 29.2
8 7 -10 520.75 25
-8 -7 10 373.86 24.2
-8 -7 10 405.16 24.5
7 7 -10 596.44 30.9
7 7 -10 630.44 31.9
-7 -7 10 640.14 31.4
-7 -7 10 654.63 31.8
6 7 -10 317.07 18.5
6 7 -10 307.17 19.5
-6 -7 10 301.27 18.7
-6 -7 10 300.77 19.4
5 7 -10 708.53 34
5 7 -10 733.43 34.8
-5 -7 10 748.63 34.5
-5 -7 10 737.73 34.7
4 7 -10 2503.55 102.29
4 7 -10 2515.75 102.79
-4 -7 10 2421.86 102.59
-4 -7 10 2406.66 102.39
3 7 -10 2225.68 90.79
3 7 -10 2218.68 90.29
-3 -7 10 2121.79 90.39
-3 -7 10 2099.89 90.49
2 7 -10 561.54 27.1
2 7 -10 576.64 26.7
-2 -7 10 570.84 27
-2 -7 10 553.94 27
1 7 -10 73.79 8.3
1 7 -10 63.79 8.3
-1 -7 10 64.79 8.8
-1 -7 10 63.89 8.3
0 7 -10 846.32 36.6
0 7 -10 824.62 36.7
0 -7 10 805.82 36.6
0 -7 10 827.72 36.7
-1 7 -10 238.48 13.6
-1 7 -10 244.48 13.2
1 -7 10 214.48 13.4
1 -7 10 210.38 13.2
-2 7 -10 270.57 14.2
-2 7 -10 253.97 13.7
2 -7 10 243.18 13.9
2 -7 10 241.08 14
-3 7 -10 52.69 6.5
-3 7 -10 46.2 6.8
3 -7 10 50.59 6.4
3 -7 10 50.59 7.4
-4 7 -10 231.88 13.3
4 -7 10 239.28 13.1
4 -7 10 256.17 13.5
-5 7 -10 86.29 8
-5 7 -10 86.19 9.4
5 -7 10 82.89 8.4
5 -7 10 83.79 7.7
-6 7 -10 144.19 10
-6 7 -10 146.29 10.9
6 -7 10 141.59 9.6
6 -7 10 144.19 10.1
-7 7 -10 77.89 8.8
-7 7 -10 73.29 7.8
7 -7 10 72.69 7.6
7 -7 10 68.29 7.9
-8 7 -10 0.2 4.9
-8 7 -10 4.1 4.3
8 -7 10 4.2 4.4
8 -7 10 3.1 4.3
-9 7 -10 35.3 5.7
-9 7 -10 35.6 6.2
9 -7 10 51.39 6.1
9 -7 10 39.1 5.7
-10 7 -10 177.88 12.2
-10 7 -10 181.58 11.7
10 -7 10 195.68 11.8
10 -7 10 191.58 11.7
14 6 -10 73.49 15
14 6 -10 53.59 14.7
-14 -6 10 38.9 13.6
-14 -6 10 65.49 15.4
13 6 -10 13.3 10.6
13 6 -10 11.2 9.6
-13 -6 10 14.4 10.5
-13 -6 10 11.9 10.1
12 6 -10 135.59 19.2
12 6 -10 126.79 17.3
-12 -6 10 125.19 18.4
-12 -6 10 142.49 18.8
11 6 -10 67.89 10.7
11 6 -10 104.59 14.7
-11 -6 10 56.29 10.5
-11 -6 10 97.49 13.7
10 6 -10 105.59 15.7
10 6 -10 115.79 14.4
-10 -6 10 103.99 15.4
-10 -6 10 107.09 15
9 6 -10 204.08 17.7
9 6 -10 212.58 16.5
-9 -6 10 235.78 17.9
-9 -6 10 213.98 17.6
8 6 -10 185.38 14.8
8 6 -10 191.98 16
-8 -6 10 187.28 15.6
-8 -6 10 180.48 15.9
7 6 -10 441.36 24.1
7 6 -10 433.36 25
-7 -6 10 494.75 24.9
-7 -6 10 472.25 25.2
6 6 -10 68.19 10
6 6 -10 95.39 11.1
-6 -6 10 68.79 10.4
-6 -6 10 87.09 11
5 6 -10 564.04 27.8
5 6 -10 576.74 28.6
-5 -6 10 587.04 28.4
-5 -6 10 587.64 28.6
4 6 -10 1800.42 77.09
4 6 -10 1884.91 76.69
-4 -6 10 1815.92 76.89
-4 -6 10 1776.42 76.89
3 6 -10 1370.36 58.89
3 6 -10 1384.26 58.49
-3 -6 10 1369.46 58.79
-3 -6 10 1347.17 58.69
2 6 -10 464.95 22.8
2 6 -10 476.75 23.1
-2 -6 10 452.55 22.8
-2 -6 10 458.55 23
1 6 -10 81.39 8.5
1 6 -10 78.79 8.9
-1 -6 10 68.09 8.6
-1 -6 10 64.99 8.4
0 6 -10 1830.62 78.39
0 6 -10 1797.82 78.59
0 -6 10 1970.8 78.79
0 -6 10 1952.9 78.69
-1 6 -10 3073.39 123.89
-1 6 -10 3068.59 123.59
1 -6 10 3006.9 123.69
1 -6 10 2961.9 123.79
-2 6 -10 1107.59 46.2
-2 6 -10 1130.39 45.8
2 -6 10 1020.7 45.7
2 -6 10 1032.9 46.1
-3 6 -10 91.49 8.5
3 -6 10 83.99 8.3
3 -6 10 90.59 8.6
-4 6 -10 202.98 12.6
4 -6 10 214.68 12.5
4 -6 10 197.48 12.1
-5 6 -10 291.17 15.1
-5 6 -10 292.17 16.2
5 -6 10 263.67 14.9
5 -6 10 259.17 14.7
-6 6 -10 526.75 25
-6 6 -10 513.75 24.3
6 -6 10 522.85 24.4
6 -6 10 519.55 24.1
-7 6 -10 89.99 9.1
-7 6 -10 96.59 10.1
7 -6 10 88.19 9.3
7 -6 10 90.79 9
-8 6 -10 54.69 7.8
-8 6 -10 50.79 7
8 -6 10 54.19 7.1
8 -6 10 52.09 6.8
-9 6 -10 48.4 7.6
-9 6 -10 42.4 7
9 -6 10 47.7 6.8
9 -6 10 41.7 6.6
-10 6 -10 65.19 10
-10 6 -10 77.59 10.1
10 -6 10 79.39 9.4
10 -6 10 80.29 10
-11 6 -10 111.09 11.8
-11 6 -10 121.69 12
11 -6 10 116.99 11.3
11 -6 10 110.39 11.1
14 5 -10 273.07 25.2
14 5 -10 272.67 22.7
-14 -5 10 229.28 23.5
-14 -5 10 243.28 23.9
13 5 -10 479.45 28.9
13 5 -10 481.25 30.7
-13 -5 10 494.45 30
-13 -5 10 463.05 30.1
12 5 -10 279.87 22.8
12 5 -10 314.07 21.8
-12 -5 10 305.37 23.1
-12 -5 10 314.37 22.8
11 5 -10 59.89 11.3
11 5 -10 57.69 12
-11 -5 10 64.49 12.1
-11 -5 10 51.49 11.8
10 5 -10 200.18 17.6
10 5 -10 174.78 16.1
-10 -5 10 191.78 17.5
-10 -5 10 210.88 17.5
9 5 -10 48.7 9.7
9 5 -10 37 7.6
-9 -5 10 43.7 8.5
-9 -5 10 59.59 9.9
8 5 -10 51.49 8.5
8 5 -10 31.7 7.8
-8 -5 10 35.6 7.9
-8 -5 10 44.8 8.3
7 5 -10 29.8 6.3
7 5 -10 50.89 9.4
-7 -5 10 51.89 9.5
-7 -5 10 30.5 6.9
6 5 -10 -3.9 4.5
6 5 -10 -3.5 5.4
-6 -5 10 -2.9 5.2
-6 -5 10 0.4 4.8
5 5 -10 376.56 21
5 5 -10 374.86 20.3
-5 -5 10 401.06 21.1
-5 -5 10 402.96 21
4 5 -10 725.13 33.8
4 5 -10 733.63 33.4
-4 -5 10 720.73 33.6
-4 -5 10 728.03 33.7
3 5 -10 989.4 43.3
3 5 -10 1013 43.1
-3 -5 10 950.5 43.1
-3 -5 10 953.8 43.1
2 5 -10 457.85 22.2
2 5 -10 447.06 22
-2 -5 10 433.36 22
-2 -5 10 440.96 22
1 5 -10 121.79 10.3
1 5 -10 125.99 9.9
-1 -5 10 150.18 10.5
-1 -5 10 132.09 10.4
0 5 -10 1977.9 84.19
0 5 -10 2021.9 83.89
0 -5 10 2023.4 84.19
0 -5 10 2081.09 84.09
-1 5 -10 3251.47 137.49
-1 5 -10 3400.96 137.09
1 -5 10 3374.26 137.59
1 -5 10 3440.26 137.39
-2 5 -10 1373.56 57.89
2 -5 10 1347.07 57.79
2 -5 10 1369.66 57.69
-3 5 -10 111.19 9.5
3 -5 10 119.39 9.7
3 -5 10 109.49 9.5
-4 5 -10 415.16 20.9
-4 5 -10 415.46 20.2
4 -5 10 371.86 19.6
4 -5 10 367.06 19.5
-5 5 -10 95.99 10.6
-5 5 -10 98.69 9.4
-6 5 -10 339.17 19.8
-6 5 -10 352.46 20.6
6 -5 10 448.96 20.5
6 -5 10 451.25 20.1
-7 5 -10 452.65 22.9
-7 5 -10 461.45 22.4
7 -5 10 434.66 22.3
7 -5 10 444.56 21.8
-8 5 -10 118.69 11.9
-8 5 -10 120.89 11.3
8 -5 10 132.29 10.9
8 -5 10 130.19 11.6
-9 5 -10 96.29 11.6
-9 5 -10 91.69 11.1
9 -5 10 86.79 10.4
9 -5 10 93.09 10.7
-10 5 -10 171.38 13.9
-10 5 -10 164.48 13.8
10 -5 10 172.58 13.2
10 -5 10 167.48 13.4
-11 5 -10 166.38 14.5
-11 5 -10 159.48 14.3
11 -5 10 168.48 13.8
14 4 -10 633.04 36.9
14 4 -10 654.93 35.7
-14 -4 10 661.03 36.5
-14 -4 10 628.74 36.1
13 4 -10 1246.88 55.49
13 4 -10 1197.18 56.69
-13 -4 10 1181.98 56.29
-13 -4 10 1166.28 56.19
12 4 -10 551.44 32.7
12 4 -10 613.44 31.7
-12 -4 10 619.24 32.9
-12 -4 10 589.24 32.9
11 4 -10 69.09 11.2
11 4 -10 83.09 11.4
-11 -4 10 78.49 11.6
-11 -4 10 96.89 13.1
10 4 -10 664.53 33.3
10 4 -10 676.43 34.3
-10 -4 10 692.33 34.4
-10 -4 10 658.53 34
9 4 -10 772.52 36.8
9 4 -10 754.62 35.8
-9 -4 10 773.22 36.7
-9 -4 10 709.43 36.4
8 4 -10 250.37 16.1
8 4 -10 236.28 17.5
-8 -4 10 241.18 16.9
-8 -4 10 240.78 17.1
7 4 -10 20.4 6.6
7 4 -10 13.2 7.1
-7 -4 10 21 7.1
-7 -4 10 20.1 6.9
6 4 -10 95.39 11.1
6 4 -10 92.19 10.2
-6 -4 10 80.29 10.6
-6 -4 10 75.19 10.4
5 4 -10 589.14 28.2
5 4 -10 581.84 27.9
-5 -4 10 578.34 28.1
-5 -4 10 570.04 28.1
4 4 -10 51.89 7.2
4 4 -10 30.4 6
-4 -4 10 29.1 6
-4 -4 10 40.1 6.7
3 4 -10 43.5 6.1
3 4 -10 59.89 7.9
-3 -4 10 36.6 6.1
-3 -4 10 43.1 6.7
2 4 -10 1114.99 47.5
2 4 -10 1077.79 47.7
-2 -4 10 1074.29 47.6
-2 -4 10 1118.89 47.6
1 4 -10 210.98 13
1 4 -10 203.08 12.3
-1 -4 10 197.78 12.8
-1 -4 10 187.78 12.6
0 4 -10 34.2 6.1
0 4 -10 35.3 5.5
0 -4 10 25.1 5.9
0 -4 10 18.8 5.3
-1 4 -10 95.19 8.7
-1 4 -10 89.49 9
1 -4 10 93.79 9.3
1 -4 10 85.49 9.2
-2 4 -10 221.58 13.4
2 -4 10 198.68 13.1
2 -4 10 208.68 13.2
-3 4 -10 364.46 19.2
-3 4 -10 396.16 20.5
3 -4 10 369.36 19
3 -4 10 350.66 18.9
-4 4 -10 1001.7 43
-4 4 -10 983.5 43.6
4 -4 10 960.2 42.4
4 -4 10 954.7 42.8
-5 4 -10 786.72 37.9
-5 4 -10 774.22 38.5
5 -4 10 922.61 37.9
5 -4 10 932.61 38.5
-6 4 -10 928.71 44.8
-6 4 -10 927.21 45.3
6 -4 10 1126.39 44.8
6 -4 10 1121.89 45.4
-7 4 -10 67.79 9.2
-7 4 -10 68.89 10.2
7 -4 10 64.39 7.9
7 -4 10 75.99 8.9
-8 4 -10 138.39 13.8
-8 4 -10 150.58 13.4
8 -4 10 187.78 13.7
8 -4 10 178.28 13
-9 4 -10 444.96 24.4
-9 4 -10 434.96 23.9
9 -4 10 452.95 23.1
9 -4 10 467.65 23.9
-10 4 -10 502.95 25.8
-10 4 -10 498.75 26
10 -4 10 475.65 24.7
10 -4 10 452.85 25.5
-11 4 -10 209.68 16.7
-11 4 -10 198.18 16.5
11 -4 10 188.08 15.6
11 -4 10 193.68 16.1
15 3 -10 156.58 22.9
-15 -3 10 150.18 21.1
-15 -3 10 129.39 17
14 3 -10 491.15 29.2
14 3 -10 455.65 30.3
-14 -3 10 466.65 30.1
-14 -3 10 496.75 30.2
13 3 -10 324.47 22.5
13 3 -10 305.97 24.2
-13 -3 10 341.07 24
-13 -3 10 325.97 24.1
12 3 -10 20.7 10.6
12 3 -10 22.3 8.2
-12 -3 10 25.3 10.5
-12 -3 10 24.9 10.1
11 3 -10 186.18 18
11 3 -10 184.58 16.1
-11 -3 10 174.88 17.3
-11 -3 10 194.38 17.3
10 3 -10 972.5 43.4
10 3 -10 966.3 44.2
-10 -3 10 907.81 43.7
-10 -3 10 876.51 43.6
9 3 -10 769.02 37.5
9 3 -10 785.92 36.9
-9 -3 10 766.22 37.4
-9 -3 10 785.32 37.5
8 3 -10 632.74 32.9
8 3 -10 630.84 31.9
-8 -3 10 717.73 33
-8 -3 10 687.93 32.8
7 3 -10 279.37 17.9
7 3 -10 270.87 17.1
-7 -3 10 284.87 17.5
-7 -3 10 291.07 17.9
6 3 -10 276.67 16.5
6 3 -10 288.27 17.3
-6 -3 10 265.17 17
-6 -3 10 271.67 17
5 3 -10 3479.45 146.59
5 3 -10 3566.34 146.49
-5 -3 10 3652.63 146.79
-5 -3 10 3585.74 146.49
4 3 -10 424.56 21.7
4 3 -10 435.06 22.1
-4 -3 10 428.06 22.1
-4 -3 10 437.16 22.1
3 3 -10 113.39 9.6
3 3 -10 109.79 10.3
-3 -3 10 91.89 9.9
-3 -3 10 98.59 10
2 3 -10 171.98 11.4
2 3 -10 161.88 12.2
-2 -3 10 161.68 12.1
-2 -3 10 169.38 12.1
1 3 -10 180.58 11.7
1 3 -10 167.68 12.2
-1 -3 10 179.88 12.4
-1 -3 10 180.88 12.3
0 3 -10 395.76 19.8
0 3 -10 404.66 20.6
0 -3 10 389.06 20.5
0 -3 10 412.96 20.5
-1 3 -10 99.89 9.8
1 -3 10 111.29 10
1 -3 10 103.69 9.9
-2 3 -10 536.25 25.7
2 -3 10 541.15 25.7
2 -3 10 518.05 25.3
-3 3 -10 60.89 9.2
-3 3 -10 79.09 9.5
3 -3 10 58.99 8.9
3 -3 10 65.59 9.3
-4 3 -10 204.28 14
-4 3 -10 195.18 14.4
4 -3 10 154.88 12.6
4 -3 10 164.18 12.7
-5 3 -10 505.05 24.6
-5 3 -10 524.65 25.5
5 -3 10 467.55 24.4
5 -3 10 465.35 23.8
-6 3 -10 161.28 13.7
-6 3 -10 150.88 13.3
6 -3 10 162.48 12.3
6 -3 10 176.18 13.3
-7 3 -10 13.2 6.7
-7 3 -10 16.3 7.4
7 -3 10 27 7.3
7 -3 10 16.8 6.5
-8 3 -10 181.28 15.7
-8 3 -10 191.78 15.2
8 -3 10 196.28 15
8 -3 10 188.58 14.2
-9 3 -10 575.54 30.2
-9 3 -10 576.84 29.4
9 -3 10 567.44 29.3
9 -3 10 595.04 28.7
-10 3 -10 307.77 20.6
-10 3 -10 312.77 20.1
10 -3 10 271.07 20.5
-11 3 -10 36.7 9.8
11 -3 10 24.8 11.2
15 2 -10 41.9 14.6
15 2 -10 24.8 11.9
-15 -2 10 16.1 11.1
-15 -2 10 24.4 11.1
14 2 -10 134.99 18
14 2 -10 131.99 19.4
-14 -2 10 122.39 15.6
-14 -2 10 95.99 14
13 2 -10 -1.7 9
13 2 -10 0.6 9.3
-13 -2 10 3.5 10.1
-13 -2 10 10.1 10.6
12 2 -10 28.1 9
12 2 -10 25.2 9.7
-12 -2 10 26.5 9.8
-12 -2 10 21.5 8.6
11 2 -10 131.89 16.5
11 2 -10 138.59 14.9
-11 -2 10 140.79 16
-11 -2 10 152.98 16.1
10 2 -10 226.28 16.5
10 2 -10 231.68 17.8
-10 -2 10 212.78 17.3
-10 -2 10 190.18 16.8
9 2 -10 679.63 33.4
9 2 -10 684.53 33.9
-9 -2 10 687.83 33.7
-9 -2 10 696.43 33.9
8 2 -10 665.63 33.8
8 2 -10 659.83 33
-8 -2 10 725.43 33.9
-8 -2 10 730.93 33.8
7 2 -10 280.37 17.6
7 2 -10 292.87 17.1
-7 -2 10 263.97 17.4
-7 -2 10 265.17 17.2
6 2 -10 728.13 33.1
6 2 -10 715.63 32.6
-6 -2 10 670.53 32.7
-6 -2 10 665.33 32.7
5 2 -10 2714.33 115.49
5 2 -10 2870.61 115.39
-5 -2 10 2851.21 115.49
-5 -2 10 2716.43 115.49
4 2 -10 771.42 35.2
4 2 -10 830.52 34.8
-4 -2 10 713.53 34.6
-4 -2 10 729.03 34.9
3 2 -10 131.89 10.2
3 2 -10 116.09 11
-3 -2 10 124.49 10.9
-3 -2 10 113.09 10.9
2 2 -10 514.35 25.7
2 2 -10 544.35 25.2
-2 -2 10 537.25 25.9
-2 -2 10 515.75 25.7
1 2 -10 979.9 44.7
1 2 -10 978.5 44
-1 -2 10 1034.1 44.7
-1 -2 10 1066.69 45
0 2 -10 759.82 35.6
0 -2 10 809.12 35.7
0 -2 10 781.52 35.5
-1 2 -10 639.54 30
1 -2 10 611.04 29.5
1 -2 10 657.03 30
-2 2 -10 141.79 13
-2 2 -10 132.19 11.7
2 -2 10 132.89 11.2
2 -2 10 136.49 11.6
-3 2 -10 118.69 11.7
-3 2 -10 135.29 12.9
3 -2 10 125.09 11.6
3 -2 10 116.09 10.9
-4 2 -10 107.59 12.5
-4 2 -10 111.49 11.8
4 -2 10 116.59 10.7
4 -2 10 122.69 11.8
-5 2 -10 720.33 35.1
-5 2 -10 721.63 34.6
5 -2 10 758.02 34.5
5 -2 10 731.03 33.6
-6 2 -10 132.49 13.7
-6 2 -10 127.99 13
6 -2 10 140.59 12.1
6 -2 10 129.49 13.1
-7 2 -10 158.68 14.5
-7 2 -10 160.48 15.1
7 -2 10 169.38 14.6
-8 2 -10 64.89 10.4
-8 2 -10 74.39 10.5
8 -2 10 57.29 9.7
-9 2 -10 247.68 19.6
-9 2 -10 244.38 18.4
9 -2 10 244.98 18.2
-10 2 -10 171.78 17.1
-10 2 -10 197.08 17.8
10 -2 10 171.88 19.2
15 1 -10 109.79 15.6
15 1 -10 120.09 18
-15 -1 10 84.99 14.1
-15 -1 10 119.09 16.3
14 1 -10 119.89 15.6
14 1 -10 91.49 13.5
-14 -1 10 109.79 14.7
-14 -1 10 115.49 15.7
13 1 -10 71.99 12.8
13 1 -10 45.9 10.9
-13 -1 10 30.3 9.9
-13 -1 10 40.9 11
12 1 -10 21.4 8.6
12 1 -10 26.2 10.1
-12 -1 10 20.4 9
-12 -1 10 22.3 9.4
11 1 -10 187.78 16.6
11 1 -10 199.58 17.9
-11 -1 10 199.08 17.5
-11 -1 10 204.18 17.4
10 1 -10 102.09 12.9
10 1 -10 104.49 14
-10 -1 10 115.79 14.5
-10 -1 10 126.79 14.1
9 1 -10 100.89 13
9 1 -10 107.79 12.3
-9 -1 10 76.19 10.3
-9 -1 10 91.59 12.9
8 1 -10 44.2 8.6
8 1 -10 45.2 9
-8 -1 10 32.4 8.3
-8 -1 10 45.9 9.3
7 1 -10 184.38 13.7
7 1 -10 201.58 14.6
-7 -1 10 173.08 14
-7 -1 10 174.48 14.3
6 1 -10 907.11 40.5
6 1 -10 917.71 41.1
-6 -1 10 896.01 41
-6 -1 10 880.61 40.8
5 1 -10 1600.84 69.99
5 1 -10 1584.94 69.39
-5 -1 10 1704.93 69.99
-5 -1 10 1669.53 70.09
4 1 -10 281.67 16.4
4 1 -10 261.17 17.1
-4 -1 10 317.27 17.5
-4 -1 10 301.27 17.4
3 1 -10 131.79 10.9
3 1 -10 133.89 11.9
-3 -1 10 133.79 11.8
-3 -1 10 142.19 12
2 1 -10 538.65 25.6
2 1 -10 531.55 24.8
-2 -1 10 483.45 25.3
-2 -1 10 493.95 25.2
1 1 -10 2545.45 109.79
-1 -1 10 2691.33 109.99
-1 -1 10 2712.53 109.79
0 1 -10 2221.68 95.99
0 -1 10 2302.07 95.69
0 -1 10 2383.86 96.19
-1 1 -10 757.22 35.7
-1 1 -10 725.53 34.6
1 -1 10 751.42 34.5
1 -1 10 742.93 34.1
-2 1 -10 361.76 20.8
-2 1 -10 334.47 19.5
2 -1 10 334.87 18.8
2 -1 10 343.77 19.5
-3 1 -10 662.53 31.9
-3 1 -10 636.94 31
3 -1 10 614.64 29.9
3 -1 10 632.24 30.8
-4 1 -10 660.13 32.6
-4 1 -10 641.94 31.8
4 -1 10 655.63 31.8
4 -1 10 663.83 30.9
-5 1 -10 110.59 13.6
-5 1 -10 117.19 12.9
5 -1 10 136.59 13.1
5 -1 10 132.69 12.2
-6 1 -10 17.2 7.4
-6 1 -10 6.6 7.3
6 -1 10 18.2 7.5
-7 1 -10 108.89 14.6
-7 1 -10 102.49 13.6
7 -1 10 101.19 12
-8 1 -10 44.4 10.4
-8 1 -10 40.5 9.4
8 -1 10 27.3 8.8
-9 1 -10 79.69 12.3
-9 1 -10 79.29 11.7
9 -1 10 63.49 10.7
-10 1 -10 81.49 13.1
-10 1 -10 77.19 12.1
10 -1 10 56.39 13.1
14 0 -10 152.58 19.9
14 0 -10 136.79 21
-14 0 10 173.18 19.7
-14 0 10 186.88 21
13 0 -10 18.5 10.2
13 0 -10 24.6 9.6
-13 0 10 30.1 10.6
-13 0 10 30.8 10.1
12 0 -10 190.08 18
12 0 -10 201.88 19.2
-12 0 10 188.98 18.3
-12 0 10 211.28 19.3
11 0 -10 238.58 17.8
11 0 -10 232.88 19
-11 0 10 240.38 19
-11 0 10 233.58 18.7
10 0 -10 223.48 16.6
10 0 -10 190.88 17
-10 0 10 216.78 17.3
-10 0 10 231.78 17.5
9 0 -10 426.06 24.4
9 0 -10 425.96 23.7
-9 0 10 466.45 24.7
-9 0 10 442.16 24.5
8 0 -10 244.18 16.2
8 0 -10 223.68 16.7
-8 0 10 295.97 17.8
-8 0 10 227.18 16.7
7 0 -10 20.5 6.2
7 0 -10 22.2 6.9
-7 0 10 13.9 6.2
-7 0 10 23 7.4
6 0 -10 41.4 6.7
6 0 -10 58.29 8.8
-6 0 10 54.59 7.9
-6 0 10 38.1 7.3
5 0 -10 109.29 10.7
5 0 -10 106.49 11.7
-5 0 10 116.99 11.9
-5 0 10 115.59 11.7
4 0 -10 202.78 14.5
4 0 -10 195.28 13.4
-4 0 10 200.58 14.6
-4 0 10 194.88 14.4
3 0 -10 143.69 11.7
3 0 -10 148.09 12.6
-3 0 10 147.29 12.4
-3 0 10 152.28 12.6
2 0 -10 316.87 19.9
-2 0 10 381.06 20.2
-2 0 10 409.16 20.7
1 0 -10 1490.15 64.29
-1 0 10 1531.75 64.29
-1 0 10 1451.95 63.69
0 0 -10 1069.89 48.6
0 0 -10 1114.59 49.8
0 0 10 1125.09 48.7
0 0 10 1067.09 48
-1 0 -10 28.2 7.3
-1 0 -10 31.2 8.2
1 0 10 9.5 6
1 0 10 12.6 6.2
-2 0 -10 333.17 21
-2 0 -10 324.67 19.8
2 0 10 344.77 19.1
2 0 10 351.16 20
-3 0 -10 981.6 44.8
-3 0 -10 909.21 43.7
3 0 10 971.8 42.9
3 0 10 969.8 43.9
-4 0 -10 1872.21 76.39
-4 0 -10 1828.42 75.49
4 0 10 1557.14 74.79
-5 0 -10 733.23 34
-5 0 -10 727.73 34.6
5 0 10 580.34 33
-6 0 -10 7.4 8
-6 0 -10 15.3 8.4
6 0 10 4.3 7.3
-7 0 -10 11.4 8
-7 0 -10 8.7 8.5
7 0 10 9.5 8
-8 0 -10 281.87 21.5
-8 0 -10 258.87 20.3
8 0 10 271.97 20.7
-9 0 -10 179.78 19.8
-9 0 -10 175.78 18.7
9 0 10 212.78 20.4
-10 0 -10 36.8 11.4
-10 0 -10 29.1 11.4
10 0 10 18.7 12.7
14 -1 -10 144.79 21.6
14 -1 -10 142.39 19.7
-14 1 10 136.39 18.9
-14 1 10 132.19 19.2
13 -1 -10 15.1 10.3
13 -1 -10 29.5 10
-13 1 10 25.4 10.3
-13 1 10 41.6 11.8
12 -1 -10 369.06 25.3
12 -1 -10 384.16 24.3
-12 1 10 435.16 25.5
-12 1 10 421.86 25.7
11 -1 -10 1005.7 46.9
11 -1 -10 957.7 47.5
-11 1 10 1081.89 48
-11 1 10 1053.29 48
10 -1 -10 336.17 21.4
10 -1 -10 349.87 22.7
-10 1 10 420.06 23.5
-10 1 10 410.76 23.3
9 -1 -10 55.39 9.5
9 -1 -10 69.29 9.8
-9 1 10 48.4 9.8
-9 1 10 40.3 9.5
8 -1 -10 208.48 14.9
8 -1 -10 183.68 15.5
-8 1 10 211.88 16.3
-8 1 10 220.28 15.7
7 -1 -10 107.19 11.3
7 -1 -10 108.79 12.4
-7 1 10 98.59 11.9
-7 1 10 100.69 12.5
6 -1 -10 703.53 33
6 -1 -10 704.63 34
-6 1 10 726.23 34.2
-6 1 10 685.63 33.6
5 -1 -10 203.88 14
5 -1 -10 210.38 15.3
-5 1 10 194.48 14.8
-5 1 10 211.08 15.5
4 -1 -10 175.88 14.3
-4 1 10 177.38 14.2
-4 1 10 185.38 14.4
3 -1 -10 220.48 15.7
-3 1 10 223.68 15.5
-3 1 10 225.78 15.6
2 -1 -10 -1.2 5.5
-2 1 10 1.8 5.2
-2 1 10 2.4 5.6
1 -1 -10 116.69 13.5
1 -1 -10 110.39 12.2
-1 1 10 106.59 11.9
-1 1 10 96.39 11.3
0 -1 -10 67.19 9.7
0 -1 -10 67.29 9.1
0 1 10 56.59 8
0 1 10 80.99 11.3
-1 -1 -10 262.77 19
-1 -1 -10 261.27 17.8
1 1 10 274.57 17.8
1 1 10 264.87 16.8
-2 -1 -10 87.69 12.2
-2 -1 -10 88.79 13.3
2 1 10 80.09 12
2 1 10 74.99 9.9
-3 -1 -10 161.58 15
-3 -1 -10 186.48 16.5
3 1 10 176.28 15.2
-4 -1 -10 418.26 23.7
-4 -1 -10 421.76 24.5
4 1 10 357.86 22.9
-5 -1 -10 275.97 19
-5 -1 -10 253.37 19.8
5 1 10 206.58 18.2
-6 -1 -10 94.19 12.7
-6 -1 -10 98.99 13.3
6 1 10 66.79 11
-7 -1 -10 24.9 9.3
-7 -1 -10 17.5 9.6
7 1 10 7.7 9.4
-8 -1 -10 1009.9 48.4
-8 -1 -10 998.1 49.2
8 1 10 1026.2 48.9
-9 -1 -10 705.73 36.8
-9 -1 -10 676.63 37.9
9 1 10 689.53 38.8
14 -2 -10 -1.3 11.6
14 -2 -10 12.1 11.1
-14 2 10 4.1 11.2
-14 2 10 1.7 10.4
13 -2 -10 18.2 11
13 -2 -10 21.6 9.4
-13 2 10 14.1 10.1
-13 2 10 9.9 10.4
12 -2 -10 447.86 25.6
12 -2 -10 440.66 27.1
-12 2 10 422.06 26.6
-12 2 10 454.45 26.9
11 -2 -10 1426.26 61.79
11 -2 -10 1425.06 62.89
-11 2 10 1382.66 62.69
-11 2 10 1390.96 62.69
10 -2 -10 515.15 29.2
10 -2 -10 552.24 28.5
-10 2 10 570.44 29.5
-10 2 10 568.34 29.8
9 -2 -10 52.89 9.3
9 -2 -10 74.29 9.7
-9 2 10 62.99 9.9
-9 2 10 78.09 10.5
8 -2 -10 219.68 15.5
8 -2 -10 211.38 16.3
-8 2 10 201.58 16.9
-8 2 10 193.28 15.8
7 -2 -10 66.09 9.5
7 -2 -10 53.99 9
6 -2 -10 365.46 20.9
6 -2 -10 362.36 21.9
-6 2 10 400.36 22.1
-6 2 10 410.66 22.6
5 -2 -10 841.32 38
-5 2 10 776.72 37.6
-5 2 10 761.82 37.3
4 -2 -10 4.6 6.7
-4 2 10 1.4 5.8
-4 2 10 0.3 6.4
3 -2 -10 87.59 12.1
-3 2 10 73.59 9.6
-3 2 10 85.09 11.9
2 -2 -10 660.23 33.7
2 -2 -10 662.83 32.6
-2 2 10 653.53 31.8
-2 2 10 671.03 32.4
1 -2 -10 130.49 14.8
1 -2 -10 131.99 13.8
-1 2 10 132.69 12.6
-1 2 10 139.69 13.8
0 -2 -10 268.47 19.5
0 -2 -10 273.17 18.9
0 2 10 278.07 17.7
0 2 10 261.77 18.2
-1 -2 -10 256.77 19.1
-1 -2 -10 250.47 17.8
1 2 10 242.78 16.7
1 2 10 252.87 17.7
-2 -2 -10 114.19 15.2
-2 -2 -10 120.19 14
2 2 10 122.89 13.9
-3 -2 -10 482.85 27.8
-3 -2 -10 457.15 26.6
3 2 10 496.55 26.8
-4 -2 -10 691.63 34.5
-4 -2 -10 668.93 35.3
4 2 10 659.93 34.4
-5 -2 -10 56.29 11.5
-5 -2 -10 67.59 11.7
5 2 10 60.39 11.3
-6 -2 -10 -8.9 9.9
-6 -2 -10 2.3 8.1
6 2 10 2.6 9.5
-7 -2 -10 53.09 11.5
-7 -2 -10 76.89 14.2
7 2 10 60.59 12.2
-8 -2 -10 243.78 23.3
-8 -2 -10 236.38 22
8 2 10 265.37 23.1
-9 -2 -10 496.35 33
-9 -2 -10 520.95 32
9 2 10 564.94 35.1
14 -3 -10 6.1 11.5
14 -3 -10 9.4 12.4
-14 3 10 -2.9 10.2
-14 3 10 -2.3 10.8
13 -3 -10 46.5 12.3
13 -3 -10 32.1 11.6
-13 3 10 29.9 11.1
-13 3 10 24.5 10.5
12 -3 -10 33 9.9
12 -3 -10 35.7 11.5
-12 3 10 9.3 9.6
-12 3 10 24.4 10.7
11 -3 -10 137.79 17.3
11 -3 -10 154.18 15.7
-11 3 10 144.09 17.2
-11 3 10 151.88 17.5
10 -3 -10 82.79 10.6
10 -3 -10 110.69 13.3
-10 3 10 98.09 12.9
-10 3 10 89.29 12
9 -3 -10 99.99 12.2
9 -3 -10 69.69 9.5
-9 3 10 67.79 10.7
-9 3 10 71.39 10.4
8 -3 -10 471.05 26.6
8 -3 -10 492.95 25.5
-8 3 10 472.15 26.2
-8 3 10 497.75 27.1
7 -3 -10 738.83 39.5
-7 3 10 916.31 40.6
-7 3 10 876.11 40.1
6 -3 -10 458.85 27
-6 3 10 560.94 28
-6 3 10 528.85 27.3
5 -3 -10 677.13 32.5
-5 3 10 625.84 31.9
-5 3 10 641.74 32.4
4 -3 -10 828.22 39.9
-4 3 10 828.32 39.5
-4 3 10 893.31 40.3
3 -3 -10 521.05 27.3
3 -3 -10 512.45 28.7
-3 3 10 503.35 26.4
-3 3 10 513.15 27.3
2 -3 -10 1844.82 79.29
2 -3 -10 1919.31 78.49
-2 3 10 1727.93 77.19
-2 3 10 1771.82 78.19
1 -3 -10 300.47 20.4
1 -3 -10 302.67 21.3
-1 3 10 309.77 19.2
-1 3 10 328.07 20.4
0 -3 -10 100.19 15
0 -3 -10 91.19 13.6
0 3 10 105.19 13.6
0 3 10 111.39 12.6
-1 -3 -10 48.7 10.9
-1 -3 -10 41 9.7
1 3 10 59.19 10.9
1 3 10 59.19 9.2
-2 -3 -10 220.48 19.7
-2 -3 -10 221.58 18.4
2 3 10 246.78 18.6
-3 -3 -10 6.4 8.3
-3 -3 -10 6.2 9.4
3 3 10 7.8 8.7
-4 -3 -10 84.39 14
-4 -3 -10 73.59 12
4 3 10 102.59 13.9
-5 -3 -10 40.4 10.4
-5 -3 -10 48.5 12.7
5 3 10 49.99 11.8
-6 -3 -10 82.19 12.9
-6 -3 -10 88.09 14.7
6 3 10 113.29 14.9
-7 -3 -10 12.3 11.3
-7 -3 -10 23.2 11.3
7 3 10 7.2 11.1
-8 -3 -10 9.4 11.7
-8 -3 -10 11.5 10.8
8 3 10 12.3 12.5
13 -4 -10 91.19 14.1
13 -4 -10 102.79 14.9
-13 4 10 104.89 15.1
-13 4 10 116.49 15.6
12 -4 -10 164.38 19.5
12 -4 -10 180.68 17.8
-12 4 10 173.88 19.5
-12 4 10 197.68 19.9
11 -4 -10 39.2 10.8
11 -4 -10 30.6 9.5
-11 4 10 30.4 10.3
-11 4 10 31.3 11.5
10 -4 -10 45.1 10.3
-10 4 10 29.6 9.3
-10 4 10 48.7 11.5
9 -4 -10 51.69 10.2
-9 4 10 73.99 12.3
-9 4 10 43.3 9.3
8 -4 -10 295.07 20.7
-8 4 10 310.07 20.9
-8 4 10 278.17 20.1
7 -4 -10 4.7 7.6
-7 4 10 3 7.2
-7 4 10 4 8.4
6 -4 -10 9.5 8.1
-6 4 10 8.2 8.6
-6 4 10 9.6 7.4
5 -4 -10 196.08 16.2
-5 4 10 174.38 15.6
-5 4 10 171.88 16.2
4 -4 -10 300.97 22.1
4 -4 -10 302.27 20.6
-4 4 10 311.27 19.8
-4 4 10 332.27 20.8
3 -4 -10 1250.17 55.29
3 -4 -10 1237.48 54.19
-3 4 10 1160.58 53.99
-3 4 10 1114.39 52.89
2 -4 -10 1991.1 81.49
2 -4 -10 1959.5 82.39
-2 4 10 1813.02 81.09
-2 4 10 1744.73 79.99
1 -4 -10 428.56 26
1 -4 -10 416.36 25.2
-1 4 10 421.06 24.9
-1 4 10 393.76 23.4
0 -4 -10 554.94 29.2
0 -4 -10 493.05 29.8
0 4 10 535.55 27.8
0 4 10 499.85 28.9
-1 -4 -10 40.1 9.5
-1 -4 -10 66.89 12.3
1 4 10 42.4 10.4
-2 -4 -10 474.85 29
-2 -4 -10 544.45 30.9
2 4 10 544.05 29.7
-3 -4 -10 529.55 30.7
-3 -4 -10 568.44 32.3
3 4 10 533.35 30.8
-4 -4 -10 383.66 26.9
-4 -4 -10 370.66 25.5
4 4 10 396.36 25.9
-5 -4 -10 19.1 10.5
-5 -4 -10 34.7 13.3
5 4 10 28.7 12.2
-6 -4 -10 23.3 12
-6 -4 -10 33.7 11
6 4 10 45.6 12.7
-7 -4 -10 359.46 27.9
-7 -4 -10 361.36 29
7 4 10 396.96 28.3
12 -5 -10 234.88 21.8
-12 5 10 226.98 21.7
-12 5 10 279.57 22.8
11 -5 -10 195.98 19.4
-11 5 10 198.58 19.9
-11 5 10 204.68 19.2
10 -5 -10 31.3 10.8
-10 5 10 35.9 10
-10 5 10 33.3 10.9
9 -5 -10 35.7 10.4
-9 5 10 30.7 10
-9 5 10 13.2 8.9
8 -5 -10 93.29 12.8
-8 5 10 103.79 15.2
-8 5 10 103.79 15.6
7 -5 -10 5.2 9
-7 5 10 3.7 8.1
-7 5 10 3.4 8
6 -5 -10 112.29 14.6
6 -5 -10 93.19 12.3
-6 5 10 99.89 12.7
-6 5 10 108.29 14.9
5 -5 -10 142.99 17.5
5 -5 -10 136.69 15.9
-5 5 10 121.59 14.9
-5 5 10 146.59 16.2
4 -5 -10 11.9 10.5
4 -5 -10 14.9 8.7
-4 5 10 15.7 7.7
-4 5 10 26.7 10.2
3 -5 -10 268.37 20
3 -5 -10 247.68 20.6
-3 5 10 241.78 18.2
-3 5 10 223.68 19.3
2 -5 -10 222.08 19.7
2 -5 -10 225.38 18.8
-2 5 10 196.88 17.1
-2 5 10 212.68 18.7
1 -5 -10 416.86 26
1 -5 -10 422.76 26.8
-1 5 10 423.26 26.2
-1 5 10 434.66 24.8
0 -5 -10 231.98 20.6
0 -5 -10 225.48 20.2
0 5 10 228.88 18.6
0 5 10 246.08 20.3
-1 -5 -10 390.76 26.4
-1 -5 -10 343.57 24.5
1 5 10 368.26 24.9
-2 -5 -10 626.44 35.5
-2 -5 -10 613.74 34.1
2 5 10 632.54 34.4
-3 -5 -10 1056.79 51.99
-3 -5 -10 1032 50.79
3 5 10 1076.19 51.19
-4 -5 -10 -2.5 10.7
-4 -5 -10 6 10
4 5 10 12.6 10.9
-5 -5 -10 308.87 25.4
-5 -5 -10 336.17 27.5
5 5 10 307.57 25.4
-6 -5 -10 560.24 34.4
12 -6 -10 218.98 22.1
-12 6 10 235.88 21.6
-12 6 10 237.48 22.3
11 -6 -10 299.27 23.3
-11 6 10 302.77 23.3
-11 6 10 306.17 23
10 -6 -10 -0.3 9.7
-10 6 10 6.3 10
-10 6 10 8.3 10.5
9 -6 -10 378.86 25.6
-9 6 10 385.76 25
-9 6 10 378.76 25.1
8 -6 -10 276.97 21.9
8 -6 -10 294.87 24.2
-8 6 10 262.67 21.1
-8 6 10 288.37 21.8
7 -6 -10 720.73 36.8
7 -6 -10 747.93 38.7
-7 6 10 666.03 36.1
-7 6 10 722.43 37
6 -6 -10 70.69 12.7
6 -6 -10 81.69 14.2
-6 6 10 81.09 12.7
-6 6 10 76.69 13.3
5 -6 -10 2.8 9.5
5 -6 -10 -2 9.3
-5 6 10 -4.3 8.3
-5 6 10 4 8.6
4 -6 -10 19.3 9.9
4 -6 -10 43.2 11.7
-4 6 10 12.2 9.3
-4 6 10 14.8 9.2
3 -6 -10 157.08 17.9
3 -6 -10 146.79 18.9
-3 6 10 132.19 17.7
-3 6 10 130.09 16
2 -6 -10 124.09 15.2
2 -6 -10 105.99 14.1
-2 6 10 102.29 13.2
-2 6 10 120.59 17.1
1 -6 -10 11.9 10.2
1 -6 -10 1.4 9.5
-1 6 10 13.4 10
-1 6 10 1.5 9.3
0 -6 -10 20 10.2
0 -6 -10 36.8 12.3
0 6 10 23.1 10.2
-1 -6 -10 21.7 10.5
-1 -6 -10 31.3 10.8
1 6 10 18.6 10.3
-2 -6 -10 44.1 12.9
-2 -6 -10 37.2 11.3
2 6 10 39.3 11.9
-3 -6 -10 115.29 15.8
-3 -6 -10 133.49 18
3 6 10 142.39 19.9
-4 -6 -10 39.1 15.4
-4 -6 -10 18.1 13
4 6 10 43.2 14.3
-5 -6 -10 94.19 16.9
-5 -6 -10 122.99 19.5
5 6 10 120.39 17.9
10 -7 -10 21.2 15.5
10 -7 -10 31.9 12.7
-10 7 10 25.4 11.6
-10 7 10 33.9 11.6
9 -7 -10 319.87 27.6
9 -7 -10 326.67 24.7
-9 7 10 328.87 24.1
-9 7 10 320.57 24.4
8 -7 -10 540.55 30.7
8 -7 -10 566.04 32.6
-8 7 10 471.85 29.8
-8 7 10 446.26 29.2
7 -7 -10 599.14 32
7 -7 -10 586.24 33.9
-7 7 10 490.35 30.8
-7 7 10 537.75 31.8
6 -7 -10 48.5 11.2
6 -7 -10 92.59 14.9
-6 7 10 51.69 11.5
-6 7 10 80.69 12.6
5 -7 -10 13.3 10.6
5 -7 -10 18.8 11.8
-5 7 10 8.5 9.9
-5 7 10 10.6 11.2
4 -7 -10 98.59 14.7
4 -7 -10 89.89 13.4
-4 7 10 128.99 18.6
-4 7 10 114.39 17
3 -7 -10 168.88 19.6
3 -7 -10 152.38 20.4
-3 7 10 144.59 19
-3 7 10 142.59 17.6
2 -7 -10 24.4 12.5
2 -7 -10 16.4 12.6
-2 7 10 26.3 12.3
-2 7 10 17.9 10.6
1 -7 -10 137.69 17.6
1 -7 -10 102.49 16
-1 7 10 102.99 15
-1 7 10 116.19 17.6
0 -7 -10 46.1 12.4
0 -7 -10 49.1 12.8
0 7 10 61.29 12.8
-1 -7 -10 42.2 12.4
-1 -7 -10 88.69 16
1 7 10 56.19 13.1
-2 -7 -10 7.4 13.1
-2 -7 -10 0 11.7
2 7 10 5.2 11.8
-3 -7 -10 13.3 12.4
-3 -7 -10 3 13.6
3 7 10 10.8 12.5
-4 -7 -10 21.2 15.1
-4 -7 -10 31.6 15.6
4 7 10 29.6 14.2
9 -8 -10 86.99 18.2
9 -8 -10 97.29 15.6
-9 8 10 88.79 15.4
-9 8 10 114.69 16.1
8 -8 -10 302.57 28.9
8 -8 -10 296.97 24.7
-8 8 10 280.57 23.9
-8 8 10 275.17 23.5
7 -8 -10 327.47 25.8
7 -8 -10 312.67 27.2
-7 8 10 368.56 26
-7 8 10 364.86 25.3
6 -8 -10 198.78 21.9
6 -8 -10 200.18 23.1
-6 8 10 215.18 20.9
-6 8 10 211.78 21.9
5 -8 -10 42.5 14.3
5 -8 -10 26.8 12.7
-5 8 10 23.4 12.5
-5 8 10 29.2 12.6
4 -8 -10 1114.89 54.59
-4 8 10 1101.99 52.59
3 -8 -10 1221.18 58.99
3 -8 -10 1263.77 59.99
-3 8 10 1243.58 59.19
-3 8 10 1243.28 57.69
2 -8 -10 214.98 22.9
2 -8 -10 203.98 23.6
-2 8 10 193.88 20.8
-2 8 10 184.98 22.5
1 -8 -10 3 13.2
1 -8 -10 -1.6 11.2
-1 8 10 -4 13.3
-1 8 10 4.4 10.8
0 -8 -10 362.06 28.8
0 -8 -10 355.56 28.2
0 8 10 353.66 28.7
-1 -8 -10 608.04 37.1
-1 -8 -10 559.14 36.1
1 8 10 592.94 36.4
-2 -8 -10 371.96 29.8
-2 -8 -10 321.97 29.2
2 8 10 344.97 29.3
7 -9 -10 136.49 17.9
7 -9 -10 49.6 16.8
-7 9 10 87.69 15.7
6 -9 -10 33.1 16.1
6 -9 -10 24.6 14.1
-6 9 10 36.6 13.1
-6 9 10 34.7 14.3
5 -9 -10 108.99 18.1
5 -9 -10 148.59 19.1
-5 9 10 164.68 20.9
-5 9 10 157.78 21.7
4 -9 -10 521.55 34.5
4 -9 -10 547.35 35.7
-4 9 10 524.75 32.8
-4 9 10 560.54 34.3
3 -9 -10 412.06 31.1
3 -9 -10 417.66 31.3
-3 9 10 421.56 29.3
2 -9 -10 8.8 14.3
2 -9 -10 2 13.6
-2 9 10 8.9 13.7
-2 9 10 13.2 12.9
1 -9 -10 174.88 24.6
1 -9 -10 197.38 24.8
-1 9 10 170.58 22.9
-1 9 10 198.68 25
0 -9 -10 199.78 25.8
0 9 10 188.38 25.9
5 15 -11 284.77 24.2
5 15 -11 247.78 26.8
-5 -15 11 246.38 24.7
-5 -15 11 270.17 27.7
4 15 -11 250.67 24.7
4 15 -11 245.48 22
-4 -15 11 225.98 22.8
-4 -15 11 236.28 25.7
3 15 -11 38.4 11
3 15 -11 31.5 12.1
-3 -15 11 41.7 13.6
-3 -15 11 45.1 11.6
2 15 -11 189.98 21.1
2 15 -11 218.38 19.6
-2 -15 11 207.38 19.9
-2 -15 11 203.58 22.9
1 15 -11 341.97 25.3
1 15 -11 374.16 24
-1 -15 11 418.26 27.2
-1 -15 11 418.66 25.1
0 15 -11 419.96 24.3
0 15 -11 410.36 26.1
0 -15 11 428.26 25
0 -15 11 429.36 27.4
-1 15 -11 82.69 12.3
-1 15 -11 101.09 13
1 -15 11 92.09 12.8
1 -15 11 112.49 14
-2 15 -11 45.7 8.4
-2 15 -11 33.8 9.3
2 -15 11 33.3 8.4
2 -15 11 33.2 9.2
-3 15 -11 91.99 11.9
-3 15 -11 103.49 14
3 -15 11 93.49 12.2
3 -15 11 98.09 12.8
7 14 -11 40 12.9
7 14 -11 25.3 14.3
-7 -14 11 34.6 13
-7 -14 11 47.5 13.1
6 14 -11 10.3 12
6 14 -11 19.8 13.7
-6 -14 11 6.6 12.7
-6 -14 11 13.6 12.5
5 14 -11 16.7 10.8
5 14 -11 20 12.8
-5 -14 11 15 10.4
-5 -14 11 17.5 11.9
4 14 -11 54.59 12.5
4 14 -11 62.39 13.8
-4 -14 11 47.3 12.6
-4 -14 11 53.49 12.7
3 14 -11 26.6 10
3 14 -11 21.9 10.7
-3 -14 11 29 10.9
-3 -14 11 32.1 10.8
2 14 -11 14.5 8.8
2 14 -11 26 10.5
-2 -14 11 36.4 10.1
-2 -14 11 26.9 10
1 14 -11 6.8 7.8
1 14 -11 7.2 9.1
-1 -14 11 25.7 8.9
-1 -14 11 28 8.9
0 14 -11 196.48 16
0 14 -11 192.88 17.5
0 -14 11 195.18 16
0 -14 11 193.28 16.4
-1 14 -11 27.7 8.6
-1 14 -11 17.4 7
1 -14 11 16.6 7.4
1 -14 11 12.1 7.5
-2 14 -11 290.77 17.4
-2 14 -11 274.97 18.8
2 -14 11 303.67 18.1
2 -14 11 301.47 18.7
-3 14 -11 670.93 31.9
-3 14 -11 678.43 31
3 -14 11 653.73 31.2
3 -14 11 660.53 31
-4 14 -11 587.24 28.1
-4 14 -11 562.64 27.1
4 -14 11 623.34 27.7
4 -14 11 600.64 27.6
-5 14 -11 191.38 11.8
-5 14 -11 200.98 13.1
5 -14 11 231.68 12.6
5 -14 11 216.98 12.5
9 13 -11 20.9 15.4
9 13 -11 19.2 14.3
-9 -13 11 19 14.5
-9 -13 11 19.8 14.6
8 13 -11 168.78 22.2
8 13 -11 181.08 25.8
-8 -13 11 200.38 23
-8 -13 11 189.88 24.3
7 13 -11 1075.39 53.99
7 13 -11 1076.79 55.29
-7 -13 11 1156.08 54.49
-7 -13 11 1168.48 55.09
6 13 -11 862.81 42.9
6 13 -11 805.72 44
-6 -13 11 839.52 43.3
-6 -13 11 860.11 43
5 13 -11 137.39 18
5 13 -11 138.89 19.6
-5 -13 11 142.69 18.2
-5 -13 11 137.69 18.8
4 13 -11 12.1 10.2
4 13 -11 1.1 8.4
-4 -13 11 11.5 8.7
-4 -13 11 7.8 9.3
3 13 -11 24.4 8.7
3 13 -11 29.6 10.1
-3 -13 11 27.7 9.1
-3 -13 11 41.1 10.6
2 13 -11 31 8.8
2 13 -11 33 9.7
-2 -13 11 61.09 10.8
-2 -13 11 51.39 10.1
1 13 -11 120.39 13.7
-1 -13 11 127.19 14.2
-1 -13 11 123.29 14.4
0 13 -11 84.39 11.2
0 13 -11 64.79 9.2
0 -13 11 82.69 12.2
0 -13 11 85.69 10.3
-1 13 -11 71.59 10.7
-1 13 -11 79.79 10.7
1 -13 11 75.89 11.4
1 -13 11 75.59 9.7
-2 13 -11 73.79 9.4
-2 13 -11 76.59 10.4
2 -13 11 75.29 11.1
2 -13 11 71.19 10.4
-3 13 -11 475.65 23.5
-3 13 -11 497.55 22.9
3 -13 11 426.96 22.9
3 -13 11 438.06 22.7
-4 13 -11 375.86 19.1
-4 13 -11 377.96 18
4 -13 11 354.06 18.3
4 -13 11 330.87 18.4
-5 13 -11 109.49 9.7
5 -13 11 117.99 8.9
5 -13 11 110.19 9.3
10 12 -11 255.07 25.5
10 12 -11 234.68 29
-10 -12 11 272.77 28
-10 -12 11 270.77 26.3
9 12 -11 19.4 15
9 12 -11 13.6 12.2
-9 -12 11 11.7 12.4
-9 -12 11 32.3 14.8
8 12 -11 164.78 22.5
8 12 -11 195.88 21.3
-8 -12 11 182.18 21.5
-8 -12 11 187.28 22.2
7 12 -11 876.51 44
7 12 -11 866.81 45
-7 -12 11 847.72 44.4
-7 -12 11 911.11 44.3
6 12 -11 834.62 40.6
6 12 -11 736.93 40.9
-6 -12 11 816.62 40.9
-6 -12 11 814.72 40.6
5 12 -11 127.29 17.4
5 12 -11 150.58 16.7
-5 -12 11 166.98 17.5
-5 -12 11 181.38 17.3
4 12 -11 95.59 12.5
4 12 -11 100.99 14.1
-4 -12 11 99.89 12.2
-4 -12 11 65.59 10.4
3 12 -11 97.69 15
3 12 -11 101.19 13.8
-3 -12 11 139.59 14.6
-3 -12 11 129.49 14.8
2 12 -11 413.26 25
2 12 -11 395.66 23.8
-2 -12 11 465.85 24.7
-2 -12 11 503.15 25
1 12 -11 437.46 23.9
1 12 -11 437.56 25
-1 -12 11 491.85 24.7
-1 -12 11 473.95 24.6
0 12 -11 59.89 9.1
0 12 -11 61.49 8.4
0 -12 11 59.69 8.9
0 -12 11 62.49 8.8
-1 12 -11 245.98 16.6
-1 12 -11 253.87 15.8
1 -12 11 274.97 16.5
1 -12 11 253.97 16.1
-2 12 -11 55.89 7.7
-2 12 -11 66.29 8.5
2 -12 11 57.39 7.8
2 -12 11 61.49 8.3
-3 12 -11 6.3 5.5
-3 12 -11 10.1 5.3
3 -12 11 13.7 5.9
3 -12 11 15.4 5.6
-4 12 -11 16.8 5.6
-4 12 -11 19 5.1
4 -12 11 15.2 5.6
4 -12 11 20.6 5.4
-5 12 -11 6.1 4.7
5 -12 11 10.9 4.2
5 -12 11 8.2 4.7
11 11 -11 261.57 29.5
11 11 -11 258.07 26.7
-11 -11 11 282.77 28.4
-11 -11 11 251.77 26.9
10 11 -11 114.09 16.1
10 11 -11 132.49 19.1
-10 -11 11 153.38 19.8
-10 -11 11 104.89 15.7
9 11 -11 -1.4 11
9 11 -11 12.8 12.2
-9 -11 11 -1.5 10.9
-9 -11 11 -0.4 10.5
8 11 -11 76.79 13.4
8 11 -11 63.29 13.2
-8 -11 11 77.89 13.4
-8 -11 11 77.59 13.2
7 11 -11 350.76 24.5
7 11 -11 341.47 25.2
-7 -11 11 392.26 25
-7 -11 11 392.86 25
6 11 -11 487.35 28
6 11 -11 457.95 28.6
-6 -11 11 500.25 28.4
-6 -11 11 522.35 28.5
5 11 -11 73.89 11
5 11 -11 113.59 14.3
-5 -11 11 80.09 11.1
-5 -11 11 66.49 10.2
4 11 -11 97.09 12.9
4 11 -11 103.29 12.9
-4 -11 11 61.39 10.5
-4 -11 11 85.69 11.8
3 11 -11 184.78 14.6
3 11 -11 197.48 16
-3 -11 11 145.49 14.8
-3 -11 11 142.49 14.5
2 11 -11 248.58 18
2 11 -11 255.57 16.9
-2 -11 11 278.07 17.7
-2 -11 11 296.17 17.9
1 11 -11 372.66 20.9
1 11 -11 369.26 21.8
-1 -11 11 403.26 21.5
-1 -11 11 406.16 21.5
0 11 -11 214.28 15.2
0 11 -11 231.78 14.6
0 -11 11 210.58 14.9
0 -11 11 211.08 14.6
-1 11 -11 293.97 17.4
-1 11 -11 300.17 17.9
1 -11 11 333.07 17.9
1 -11 11 312.77 17.6
-2 11 -11 386.76 18.8
-2 11 -11 391.76 19.2
2 -11 11 307.17 18.5
2 -11 11 319.77 18.4
-3 11 -11 156.58 10.4
-3 11 -11 146.69 11.1
3 -11 11 108.39 10.2
3 -11 11 116.99 10.8
-4 11 -11 84.59 8.9
-4 11 -11 78.19 8.1
4 -11 11 74.89 9.1
4 -11 11 78.39 8.4
-5 11 -11 23.5 5.1
5 -11 11 18 5
5 -11 11 20.2 4.7
-6 11 -11 38.5 5.7
-6 11 -11 33.5 4.8
6 -11 11 30.7 4.6
6 -11 11 30.3 4.4
12 10 -11 270.57 29.4
12 10 -11 277.97 26.1
-12 -10 11 266.97 28.7
-12 -10 11 304.47 28.8
11 10 -11 8.1 10.8
11 10 -11 4.6 13.8
-11 -10 11 14.1 13.5
-11 -10 11 6.6 11.9
10 10 -11 9.3 9.8
10 10 -11 11.5 12.1
-10 -10 11 10 10.6
-10 -10 11 18 11.9
9 10 -11 22.9 10.7
9 10 -11 22 10.8
-9 -10 11 18.6 10.2
-9 -10 11 23.2 10.7
8 10 -11 136.39 18.5
8 10 -11 151.08 17.7
-8 -10 11 156.78 17.8
-8 -10 11 162.08 18.4
7 10 -11 296.67 21.3
7 10 -11 275.37 22
-7 -10 11 314.17 21.6
-7 -10 11 322.07 22.1
6 10 -11 99.29 11.9
6 10 -11 102.89 15
-6 -10 11 95.79 13.1
-6 -10 11 72.59 10.7
5 10 -11 422.26 24.4
5 10 -11 417.96 23.5
-5 -10 11 393.86 23.7
-5 -10 11 392.86 23.5
4 10 -11 328.57 20.1
4 10 -11 342.17 21.3
-4 -10 11 348.47 20.6
-4 -10 11 333.67 20.7
3 10 -11 360.26 20.5
3 10 -11 367.46 19.4
-3 -10 11 277.47 19
-3 -10 11 291.67 19.3
2 10 -11 112.29 11.5
2 10 -11 111.59 12.5
-2 -10 11 96.99 11.9
-2 -10 11 111.29 11.6
1 10 -11 216.78 14.5
1 10 -11 215.28 15.4
-1 -10 11 230.78 15.1
-1 -10 11 211.88 15
0 10 -11 17.9 6
0 10 -11 27.2 7
0 -10 11 23.8 6.4
0 -10 11 27.4 6.6
-1 10 -11 149.39 11.6
-1 10 -11 146.19 12.2
1 -10 11 150.08 11.8
1 -10 11 156.18 12
-2 10 -11 355.86 18.4
-2 10 -11 377.16 18
2 -10 11 316.77 18
2 -10 11 319.77 18
-3 10 -11 215.48 12.5
-3 10 -11 207.98 13.2
3 -10 11 196.28 12.8
3 -10 11 206.48 12.8
-4 10 -11 166.98 10.8
-4 10 -11 177.88 11.5
4 -10 11 173.38 11.7
4 -10 11 171.68 11.3
-5 10 -11 62.19 7.8
5 -10 11 70.69 7.8
5 -10 11 72.49 8.1
-6 10 -11 302.47 16.4
-6 10 -11 312.47 15.7
6 -10 11 336.27 15.6
6 -10 11 333.07 15.8
-7 10 -11 529.95 22.9
-7 10 -11 526.05 23.2
12 9 -11 389.46 28.5
12 9 -11 360.86 30.5
-12 -9 11 405.16 30.5
-12 -9 11 403.16 30.3
11 9 -11 12.9 11.8
11 9 -11 9.9 9.6
-11 -9 11 8.7 10.2
-11 -9 11 9.1 10.9
10 9 -11 35 10.7
10 9 -11 28.8 10.4
-10 -9 11 34.6 11.2
-10 -9 11 30.7 10.1
9 9 -11 130.29 17.1
9 9 -11 87.09 13
-9 -9 11 130.49 17.3
-9 -9 11 147.79 17.9
8 9 -11 77.19 11.8
-8 -9 11 51.09 10.8
-8 -9 11 54.19 10.7
7 9 -11 29.2 8.6
7 9 -11 26.9 9.7
-7 -9 11 24.4 8.6
-7 -9 11 18.5 8.8
6 9 -11 394.26 23.8
6 9 -11 405.26 22.9
-6 -9 11 375.06 23
-6 -9 11 383.86 23.2
5 9 -11 249.68 17
5 9 -11 251.27 18.1
-5 -9 11 245.98 17.7
-5 -9 11 234.38 17.2
4 9 -11 380.46 22.1
4 9 -11 369.76 21
-4 -9 11 389.86 21.9
-4 -9 11 388.76 21.6
3 9 -11 594.44 27.6
3 9 -11 549.35 28.2
-3 -9 11 527.65 27.6
-3 -9 11 560.64 28
2 9 -11 486.55 24.6
2 9 -11 485.75 23.9
-2 -9 11 457.05 24.1
-2 -9 11 460.25 24.2
1 9 -11 328.97 18.6
1 9 -11 339.37 19.2
-1 -9 11 342.77 18.9
-1 -9 11 335.57 18.9
0 9 -11 166.78 12.9
0 9 -11 182.08 12.6
0 -9 11 156.18 12.2
0 -9 11 170.18 12.5
-1 9 -11 390.06 20.8
-1 9 -11 392.06 20.5
1 -9 11 413.96 20.7
1 -9 11 429.36 20.8
-2 9 -11 1337.87 57.79
-2 9 -11 1295.87 58.19
2 -9 11 1438.76 58.29
2 -9 11 1419.96 58.29
-3 9 -11 706.83 32.1
-3 9 -11 727.73 31.7
3 -9 11 706.93 32.1
3 -9 11 720.93 32
-4 9 -11 60.79 8.4
4 -9 11 64.89 8
4 -9 11 82.99 8.9
-5 9 -11 19.7 5.2
5 -9 11 31.9 5.5
5 -9 11 34.1 5.3
-6 9 -11 754.52 33.8
-6 9 -11 739.63 33.1
6 -9 11 780.92 33.2
6 -9 11 782.22 33
-7 9 -11 1265.47 51.39
-7 9 -11 1245.98 50.99
7 -9 11 1199.78 50.79
7 -9 11 1184.48 50.89
-8 9 -11 192.18 11.4
-8 9 -11 196.38 10.8
8 -9 11 201.78 10.5
8 -9 11 191.68 10.5
13 8 -11 561.34 37.6
13 8 -11 601.54 35.1
-13 -8 11 565.94 36.7
-13 -8 11 595.24 36.4
12 8 -11 239.38 25.2
12 8 -11 271.77 23.1
-12 -8 11 269.07 24.8
-12 -8 11 270.57 24.4
11 8 -11 13.9 12.7
11 8 -11 5 10.5
-11 -8 11 27 11.8
-11 -8 11 42.1 13.5
10 8 -11 148.99 19
10 8 -11 130.29 16.6
-10 -8 11 129.09 18.2
-10 -8 11 149.39 18.5
9 8 -11 500.85 28.7
9 8 -11 477.05 29.5
-9 -8 11 568.34 29.8
-9 -8 11 521.35 29.6
-8 -8 11 116.39 15.2
-8 -8 11 114.39 15.1
7 8 -11 216.58 17.7
7 8 -11 216.48 16.4
-7 -8 11 182.38 17.1
-7 -8 11 189.18 16.5
6 8 -11 594.14 30.7
6 8 -11 616.34 29.9
-6 -8 11 581.14 30.1
-6 -8 11 574.54 30.4
5 8 -11 129.79 13.9
5 8 -11 137.59 12.7
-5 -8 11 131.79 13.1
-5 -8 11 140.29 13.8
4 8 -11 494.05 25.2
4 8 -11 500.65 26.2
-4 -8 11 492.95 25.7
-4 -8 11 514.45 25.9
3 8 -11 159.28 14.4
3 8 -11 154.48 12.5
-3 -8 11 172.88 14.4
-3 -8 11 178.38 13.4
2 8 -11 95.29 11.2
2 8 -11 96.89 10.3
-2 -8 11 118.69 11.1
-2 -8 11 115.79 11.5
1 8 -11 15.2 5.9
1 8 -11 8.9 5.2
-1 -8 11 12.4 5.6
-1 -8 11 15.4 5.9
0 8 -11 81.39 11.2
0 8 -11 78.39 9.5
0 -8 11 76.59 9.4
0 -8 11 71.09 10
-1 8 -11 552.74 27.2
-1 8 -11 581.54 26.8
1 -8 11 584.84 27.1
1 -8 11 586.84 27.1
-2 8 -11 800.22 36.3
-2 8 -11 803.72 35.8
2 -8 11 853.61 36.3
2 -8 11 807.32 36.2
-3 8 -11 7.7 4.8
-3 8 -11 8.8 4.5
3 -8 11 10.1 4.8
3 -8 11 7.3 5
-4 8 -11 68.69 8.5
4 -8 11 75.09 8.3
4 -8 11 82.59 8.8
-5 8 -11 53.59 6.7
-5 8 -11 61.79 8
5 -8 11 59.89 8.3
5 -8 11 63.29 7.8
-6 8 -11 147.49 10.9
-6 8 -11 160.38 12.2
6 -8 11 187.28 11
6 -8 11 182.38 11.6
-7 8 -11 510.75 24
-7 8 -11 544.75 24.8
7 -8 11 522.75 23.8
7 -8 11 521.85 24.2
-8 8 -11 47.3 6
-8 8 -11 49.99 6.8
8 -8 11 45 5.9
8 -8 11 42.2 6.2
-9 8 -11 29.3 5.4
-9 8 -11 22.4 5.7
9 -8 11 19 5
9 -8 11 17.9 5
-10 8 -11 68.19 8.2
-10 8 -11 73.59 9.2
10 -8 11 73.19 7.7
10 -8 11 81.99 8
13 7 -11 88.99 14.6
13 7 -11 67.09 12.5
-13 -7 11 91.59 14.7
-13 -7 11 72.69 13.1
12 7 -11 285.77 25.6
12 7 -11 318.47 23.8
-12 -7 11 309.07 25.1
-12 -7 11 318.57 25.3
11 7 -11 48.4 10.3
11 7 -11 45.7 11.3
-11 -7 11 55.49 11.7
-11 -7 11 38.4 10.4
10 7 -11 228.18 20.6
10 7 -11 232.58 18.8
-10 -7 11 244.28 20.4
-10 -7 11 234.88 20.3
9 7 -11 560.54 30.1
9 7 -11 575.04 31.4
-9 -7 11 570.14 30.9
-9 -7 11 562.04 31
8 7 -11 343.87 21.6
8 7 -11 381.66 22.9
-8 -7 11 327.47 21.8
-8 -7 11 368.56 22.9
7 7 -11 351.56 21.9
7 7 -11 369.36 21
-7 -7 11 341.17 21.6
-7 -7 11 328.47 21
6 7 -11 374.76 21
6 7 -11 362.06 21.8
-6 -7 11 361.26 21.3
-6 -7 11 371.96 21.5
5 7 -11 261.87 17.9
5 7 -11 241.48 16.3
-5 -7 11 253.47 18.1
-5 -7 11 272.57 17.3
4 7 -11 2002.3 81.19
4 7 -11 1973 80.59
-4 -7 11 1797.62 80.69
-4 -7 11 1854.11 80.69
3 7 -11 1218.38 52.59
3 7 -11 1232.78 53.09
-3 -7 11 1197.88 52.79
-3 -7 11 1173.18 52.69
2 7 -11 563.54 27.3
2 7 -11 568.14 27.7
-2 -7 11 567.84 27.4
-2 -7 11 567.14 27.5
1 7 -11 143.39 11.7
1 7 -11 134.69 11.3
-1 -7 11 147.79 11.8
-1 -7 11 136.49 11.5
0 7 -11 216.28 13.6
0 7 -11 220.88 14.1
0 -7 11 222.28 13.9
0 -7 11 224.58 14.1
-1 7 -11 355.76 17.4
-1 7 -11 333.87 17.8
1 -7 11 312.87 17.6
1 -7 11 314.87 17.6
-2 7 -11 235.58 13.2
-2 7 -11 241.08 13.8
2 -7 11 208.98 13.7
2 -7 11 197.48 13.2
-3 7 -11 176.18 11.8
3 -7 11 172.88 12
3 -7 11 175.28 11.6
-4 7 -11 21.2 5.4
4 -7 11 24.1 5.3
4 -7 11 20.2 5.7
-5 7 -11 36 6.2
-5 7 -11 34.7 7.2
5 -7 11 51.99 7.1
5 -7 11 38 6.1
-6 7 -11 -1.5 5.4
-6 7 -11 2.3 4.9
6 -7 11 -0.5 5
6 -7 11 1.1 4.6
-7 7 -11 169.38 13
-7 7 -11 170.98 12
7 -7 11 194.98 12.5
7 -7 11 185.18 12.1
-8 7 -11 71.29 10.2
-8 7 -11 74.29 9
8 -7 11 72.99 9.1
8 -7 11 62.39 9.4
-9 7 -11 21.9 6.6
-9 7 -11 23.4 6.1
9 -7 11 28.7 6.3
9 -7 11 29.4 6.2
-10 7 -11 144.99 12.3
-10 7 -11 148.29 11.7
10 -7 11 170.58 12
10 -7 11 144.59 11.4
14 6 -11 43.8 15.6
14 6 -11 40.2 12
-14 -6 11 50.79 15.8
-14 -6 11 38.7 14.3
13 6 -11 78.09 14.3
13 6 -11 76.89 13.3
-13 -6 11 91.89 15.9
12 6 -11 26.6 10.7
12 6 -11 38.2 10.4
-12 -6 11 43.6 12
-12 -6 11 28.6 10.6
11 6 -11 183.48 19.8
11 6 -11 180.18 17.6
-11 -6 11 172.28 19
-11 -6 11 172.28 19.1
10 6 -11 164.58 17.9
10 6 -11 156.48 15.8
-10 -6 11 149.29 17.1
-10 -6 11 155.48 17.6
9 6 -11 98.29 13.1
9 6 -11 90.39 12.4
-9 -6 11 69.49 11.5
-9 -6 11 77.99 12.2
8 6 -11 168.68 15.9
8 6 -11 151.28 14.4
-8 -6 11 161.58 15.7
-8 -6 11 148.29 15.3
7 6 -11 575.34 29.5
7 6 -11 581.84 30.5
-7 -6 11 586.34 30.2
-7 -6 11 627.84 30.6
6 6 -11 291.17 17.8
6 6 -11 288.47 19.2
-6 -6 11 292.67 18.4
-6 -6 11 281.17 18.9
5 6 -11 233.88 16.7
5 6 -11 242.28 15.8
-5 -6 11 254.77 16.5
-5 -6 11 255.37 16.7
4 6 -11 1374.56 57.89
4 6 -11 1372.76 57.59
-4 -6 11 1298.07 57.59
-4 -6 11 1249.88 57.49
3 6 -11 1510.95 64.59
3 6 -11 1485.45 64.79
-3 -6 11 1522.65 64.79
-3 -6 11 1523.95 64.89
2 6 -11 1022.7 43.6
2 6 -11 968.9 43.6
-2 -6 11 960.5 43.5
-2 -6 11 971.5 43.5
1 6 -11 57.09 8.4
1 6 -11 50.69 7
-1 -6 11 64.39 9.2
-1 -6 11 66.89 9
0 6 -11 1326.47 53.99
0 6 -11 1249.88 54.19
0 -6 11 1233.58 54.09
0 -6 11 1228.58 53.99
-1 6 -11 2583.94 107.69
-1 6 -11 2661.13 107.29
1 -6 11 2584.34 107.39
1 -6 11 2609.04 107.69
-2 6 -11 1314.07 54.79
-2 6 -11 1307.77 55.39
2 -6 11 1277.27 54.99
2 -6 11 1266.37 55.29
-3 6 -11 268.77 15.4
3 -6 11 258.87 14.9
3 -6 11 259.87 15.3
-4 6 -11 401.26 19.9
-4 6 -11 401.76 21
4 -6 11 367.46 19.4
4 -6 11 366.56 19.6
-5 6 -11 92.69 11.4
-5 6 -11 99.79 9.8
5 -6 11 104.59 10.1
5 -6 11 107.19 9.9
-6 6 -11 301.37 18.4
-6 6 -11 306.27 17.3
6 -6 11 332.87 17.7
6 -6 11 335.77 17.4
-7 6 -11 247.98 15.9
-7 6 -11 248.98 14.9
7 -6 11 239.48 14.7
7 -6 11 227.08 14.9
-8 6 -11 58.69 9
-8 6 -11 56.29 7.8
8 -6 11 71.99 8.5
8 -6 11 56.99 8.1
-9 6 -11 85.09 10.7
-9 6 -11 85.29 12.1
9 -6 11 77.39 10.9
9 -6 11 102.19 11.2
-10 6 -11 5.4 6.7
-10 6 -11 -0.2 6.7
10 -6 11 1.6 6.2
10 -6 11 3.8 6.7
14 5 -11 283.97 27.1
14 5 -11 283.07 24.5
-14 -5 11 341.47 26.3
-14 -5 11 328.77 26.8
13 5 -11 868.81 42.8
13 5 -11 845.82 44.2
-13 -5 11 826.62 43.8
-13 -5 11 837.92 43.7
12 5 -11 161.98 19.8
12 5 -11 154.08 17.7
-12 -5 11 160.58 19.4
-12 -5 11 154.68 19.1
11 5 -11 10.1 8.8
11 5 -11 14.6 10.3
-11 -5 11 9.1 9.5
-11 -5 11 14 10.3
10 5 -11 7.6 8.5
10 5 -11 10.8 8.2
-10 -5 11 23 9.4
-10 -5 11 15 8.5
9 5 -11 8.7 8.1
9 5 -11 11.8 8
-9 -5 11 21.7 9
-9 -5 11 20.1 8.4
8 5 -11 87.59 12.1
8 5 -11 94.89 13.7
-8 -5 11 68.79 9.9
-8 -5 11 119.39 13.5
7 5 -11 270.27 18.3
7 5 -11 253.77 17
-7 -5 11 245.98 17.8
-7 -5 11 276.37 17.9
6 5 -11 120.89 11.9
6 5 -11 119.19 12.9
-6 -5 11 110.89 12.2
-6 -5 11 102.39 12.4
5 5 -11 269.47 17
5 5 -11 255.87 17.5
-5 -5 11 311.47 18.1
-5 -5 11 286.27 17.5
4 5 -11 1072.19 46.7
4 5 -11 1036.4 46.9
-4 -5 11 1059.29 46.9
-4 -5 11 1043.5 46.9
3 5 -11 311.17 18.1
3 5 -11 316.27 18.4
-3 -5 11 333.07 18.4
-3 -5 11 342.07 18.7
2 5 -11 14.5 5.1
2 5 -11 18.7 6.2
-2 -5 11 11.3 5.1
-2 -5 11 14.6 5.7
1 5 -11 501.25 24.6
1 5 -11 504.95 24.1
-1 -5 11 497.35 24.5
-1 -5 11 495.15 24.5
0 5 -11 683.83 31
0 5 -11 705.03 30.5
0 -5 11 607.44 30.6
0 -5 11 657.33 30.7
-1 5 -11 1012.8 44.4
-1 5 -11 1061.49 43.8
1 -5 11 963 44.2
1 -5 11 982.6 44
-2 5 -11 157.38 11.9
2 -5 11 164.08 12
2 -5 11 152.18 11.9
-3 5 -11 1182.88 52.29
3 -5 11 1229.18 52.39
3 -5 11 1225.18 52.19
-4 5 -11 616.04 27.2
-4 5 -11 631.04 28.3
4 -5 11 494.75 26.3
4 -5 11 512.55 26.7
-5 5 -11 234.28 15.7
-5 5 -11 233.98 16.9
5 -5 11 307.67 16.2
5 -5 11 306.77 16.7
-6 5 -11 616.84 29.7
-6 5 -11 618.24 30.5
6 -5 11 631.44 29.4
6 -5 11 647.64 29.8
-7 5 -11 294.97 17.6
-7 5 -11 302.87 18.5
7 -5 11 289.47 17.5
7 -5 11 287.07 16.8
-8 5 -11 7.6 6.6
-8 5 -11 9.7 7.4
8 -5 11 13.8 7
8 -5 11 20.3 6.6
-9 5 -11 84.09 10.7
-9 5 -11 75.59 10
9 -5 11 64.29 8.8
9 -5 11 67.89 9.5
-10 5 -11 111.09 13.6
-10 5 -11 122.29 14.1
10 -5 11 116.89 12.9
10 -5 11 102.09 12.7
14 4 -11 814.52 43.6
14 4 -11 800.12 42.1
-14 -4 11 792.42 43.2
-14 -4 11 832.92 43.2
13 4 -11 1025.8 49.4
13 4 -11 1035.3 47.9
-13 -4 11 969.3 48.7
-13 -4 11 919.21 48.7
12 4 -11 169.38 17.4
12 4 -11 177.78 19.9
-12 -4 11 162.68 19.5
-12 -4 11 160.58 18.9
11 4 -11 106.49 13.1
11 4 -11 90.39 14.1
-11 -4 11 65.79 12.3
-11 -4 11 61.59 12.6
10 4 -11 361.86 21
10 4 -11 325.07 22.3
-10 -4 11 280.97 21.1
-10 -4 11 279.07 21.5
9 4 -11 538.35 28.9
9 4 -11 532.85 27.7
-9 -4 11 506.85 28.4
-9 -4 11 508.75 28.5
8 4 -11 256.07 17.5
8 4 -11 253.47 18.5
-8 -4 11 278.27 18.5
-8 -4 11 272.47 18.4
7 4 -11 68.59 10
7 4 -11 56.19 8.8
-7 -4 11 42.2 7.9
-7 -4 11 70.19 10.2
6 4 -11 211.88 15.4
6 4 -11 220.78 14.9
-6 -4 11 195.78 15
-6 -4 11 181.58 14.8
5 4 -11 99.09 11.2
5 4 -11 116.89 12
-5 -4 11 113.49 12
-5 -4 11 121.79 12.1
4 4 -11 146.89 12.5
4 4 -11 134.49 11.8
-4 -4 11 157.38 12.5
-4 -4 11 152.48 12.7
3 4 -11 164.68 13.1
3 4 -11 177.78 12.6
-3 -4 11 182.48 13.3
-3 -4 11 190.98 13.2
2 4 -11 116.89 11
2 4 -11 118.89 10.1
-2 -4 11 109.79 10.8
-2 -4 11 103.79 10.8
1 4 -11 66.49 9.6
1 4 -11 75.19 8.6
-1 -4 11 68.79 9.5
-1 -4 11 69.29 9.5
0 4 -11 63.39 9.5
0 4 -11 65.29 8.5
0 -4 11 93.89 10
0 -4 11 95.99 10.2
-1 4 -11 210.98 14.4
1 -4 11 233.98 14.7
1 -4 11 234.88 14.5
-2 4 -11 383.66 20.3
2 -4 11 380.86 20.2
2 -4 11 378.36 20.2
-3 4 -11 76.09 11.4
-3 4 -11 69.69 9.7
3 -4 11 68.59 9.7
3 -4 11 63.59 9.3
-4 4 -11 313.17 19.2
-4 4 -11 336.77 20.5
4 -4 11 390.06 19.2
4 -4 11 374.86 19.8
-5 4 -11 1003.7 49.3
-5 4 -11 1029.8 50.19
5 -4 11 1229.38 49.5
5 -4 11 1268.67 50.29
-6 4 -11 563.44 29.8
-6 4 -11 592.94 30.7
6 -4 11 660.13 29.6
6 -4 11 678.43 30.3
-7 4 -11 100.39 11.3
-7 4 -11 77.39 11.7
7 -4 11 68.49 9.3
7 -4 11 69.79 8.9
-8 4 -11 293.87 18.6
-8 4 -11 275.47 19.3
8 -4 11 306.37 17.9
8 -4 11 280.17 18.5
-9 4 -11 479.55 26
-9 4 -11 447.56 25.1
9 -4 11 448.06 25.1
9 -4 11 483.25 24.7
-10 4 -11 165.58 16.2
-10 4 -11 145.99 15.5
10 -4 11 139.99 14.7
10 -4 11 133.99 17.1
14 3 -11 583.44 33.4
14 3 -11 576.84 34.5
-14 -3 11 558.34 33.9
-14 -3 11 538.55 33.7
13 3 -11 474.25 29.8
13 3 -11 493.05 28.4
-13 -3 11 422.96 29.1
-13 -3 11 441.46 29.2
12 3 -11 38.2 11.7
12 3 -11 25.2 9.6
-12 -3 11 22.4 10.6
-12 -3 11 30.7 11.4
11 3 -11 124.09 16.9
11 3 -11 128.79 15.1
-11 -3 11 129.39 15.3
-11 -3 11 119.69 16.4
10 3 -11 409.66 23
10 3 -11 418.86 24.7
-10 -3 11 341.87 23.6
-10 -3 11 343.57 23.4
9 3 -11 1142.59 51.59
9 3 -11 1166.08 52.29
-9 -3 11 1099.89 51.79
-9 -3 11 1149.98 52.09
8 3 -11 909.51 44.2
8 3 -11 904.21 43.7
-8 -3 11 992.4 44.5
-8 -3 11 1017.2 44.7
7 3 -11 250.07 17.7
7 3 -11 251.47 16.8
-7 -3 11 250.97 17.5
-7 -3 11 254.77 17.5
6 3 -11 697.33 33.6
6 3 -11 699.13 33.2
-6 -3 11 715.33 33.7
-6 -3 11 672.73 33.4
5 3 -11 1608.14 68.39
5 3 -11 1594.14 68.09
-5 -3 11 1626.24 68.49
-5 -3 11 1533.65 67.99
4 3 -11 720.43 33.9
4 3 -11 712.63 33.3
-4 -3 11 720.03 33.8
-4 -3 11 720.33 33.7
3 3 -11 208.38 13.7
3 3 -11 218.08 14.8
-3 -3 11 215.18 14.6
-3 -3 11 208.68 14.5
2 3 -11 158.08 13
2 3 -11 167.28 12
-2 -3 11 166.78 13
-2 -3 11 163.68 12.8
1 3 -11 17.9 6
1 3 -11 28.3 5.6
-1 -3 11 24.2 6
-1 -3 11 39.9 7.1
0 3 -11 142.09 11.8
0 -3 11 107.89 11.4
0 -3 11 117.79 11.4
-1 3 -11 22.1 6
1 -3 11 17.5 5.8
1 -3 11 24.3 6.1
-2 3 -11 180.58 13.5
2 -3 11 175.18 13.4
2 -3 11 181.58 13.1
-3 3 -11 59.49 9.4
-3 3 -11 72.89 8.8
3 -3 11 54.29 7.5
3 -3 11 74.19 10.4
-4 3 -11 360.76 20.7
-4 3 -11 355.06 19.7
4 -3 11 316.87 18.5
4 -3 11 314.37 19.3
-5 3 -11 145.39 13.6
-5 3 -11 135.79 14.4
5 -3 11 174.58 13
5 -3 11 171.48 13.9
-6 3 -11 462.15 26.5
-6 3 -11 503.15 27.4
6 -3 11 547.35 26.9
6 -3 11 568.64 26.3
-7 3 -11 23.4 8.6
-7 3 -11 17.2 7.8
7 -3 11 24.1 7.9
7 -3 11 14.7 6.9
-8 3 -11 276.07 19.7
-8 3 -11 263.27 19
8 -3 11 273.37 17.9
8 -3 11 280.37 18.9
-9 3 -11 233.38 18.9
-9 3 -11 235.68 18.3
9 -3 11 226.78 18.5
9 -3 11 230.08 17.3
-10 3 -11 67.89 11.3
-10 3 -11 75.89 12.1
10 -3 11 73.29 13.1
10 -3 11 99.09 11.7
14 2 -11 15.3 12.1
14 2 -11 11.1 11
-14 -2 11 2.8 10.7
-14 -2 11 9.6 10.9
13 2 -11 104.29 15.7
13 2 -11 93.09 13.7
-13 -2 11 121.09 16
-13 -2 11 60.39 12.4
12 2 -11 49.5 9.9
12 2 -11 62.09 11.9
-12 -2 11 76.39 13.3
-12 -2 11 59.79 11.1
11 2 -11 470.65 26.4
11 2 -11 452.95 27.6
-11 -2 11 463.45 27.4
-11 -2 11 448.26 27.3
10 2 -11 596.24 31.9
10 2 -11 602.04 31.1
-10 -2 11 611.24 31.9
-10 -2 11 603.34 31.9
9 2 -11 465.15 25.4
9 2 -11 447.46 25.7
-9 -2 11 428.86 25.6
-9 -2 11 493.45 26.5
8 2 -11 293.37 19
8 2 -11 275.27 19.4
-8 -2 11 318.47 20
-8 -2 11 321.27 19.9
7 2 -11 47.9 8.9
7 2 -11 47.9 9.2
-7 -2 11 30.5 8.6
-7 -2 11 38.2 8.6
6 2 -11 2384.86 96.79
6 2 -11 2247.78 96.99
-6 -2 11 2313.87 97.09
-6 -2 11 2280.77 96.79
5 2 -11 2156.78 88.39
5 2 -11 2158.78 89.09
-5 -2 11 2041 88.49
-5 -2 11 2062.79 88.79
4 2 -11 225.68 13.9
4 2 -11 215.08 14.6
-4 -2 11 152.58 13.7
-4 -2 11 158.58 13.7
3 2 -11 73.49 8.9
3 2 -11 50.99 7.9
-3 -2 11 52.79 7.9
-3 -2 11 70.39 10.2
2 2 -11 243.98 16.1
2 2 -11 239.08 14.9
-2 -2 11 248.48 16
-2 -2 11 245.38 16.1
1 2 -11 1273.27 57.19
-1 -2 11 1316.77 57.19
-1 -2 11 1358.86 57.39
0 2 -11 1366.26 59.99
0 -2 11 1380.96 59.79
0 -2 11 1410.26 60.09
-1 2 -11 338.97 19.9
1 -2 11 371.26 19.8
1 -2 11 367.16 20.1
-2 2 -11 22.5 7.2
-2 2 -11 25.1 7.6
2 -2 11 34.8 7.5
2 -2 11 35.4 7.5
-3 2 -11 216.58 15.5
-3 2 -11 220.18 16.9
3 -2 11 196.98 15.3
3 -2 11 198.88 14.2
-4 2 -11 603.14 31.4
-4 2 -11 636.74 32.5
4 -2 11 687.93 32
4 -2 11 656.13 30.9
-5 2 -11 560.44 29.4
-5 2 -11 579.04 30.2
5 -2 11 583.84 29.5
5 -2 11 596.64 28.5
-6 2 -11 24 9
-6 2 -11 23.2 8.6
6 -2 11 24.7 8.4
6 -2 11 17.4 7.2
-7 2 -11 70.09 11.1
-7 2 -11 91.59 13.6
7 -2 11 82.89 12.3
7 -2 11 92.09 13.5
-8 2 -11 72.79 11.3
-8 2 -11 66.19 11.9
8 -2 11 60.39 10.5
8 -2 11 70.89 10.3
-9 2 -11 169.08 18.1
-9 2 -11 160.98 17.1
9 -2 11 169.38 20
-10 2 -11 185.48 19.3
10 -2 11 220.48 23.1
14 1 -11 77.69 14.4
14 1 -11 68.99 14
-14 -1 11 55.39 12.9
-14 -1 11 54.49 12.3
13 1 -11 30.6 10.5
13 1 -11 30.2 12
-13 -1 11 32.3 12.7
-13 -1 11 20.3 10.7
12 1 -11 -6.3 8.9
12 1 -11 -6 9.8
-12 -1 11 0.4 10.2
-12 -1 11 1.2 9.1
11 1 -11 252.57 20.8
11 1 -11 264.77 19.6
-11 -1 11 250.77 20.4
-11 -1 11 268.27 20.8
10 1 -11 161.38 15.5
10 1 -11 149.29 16.6
-10 -1 11 172.08 16.7
-10 -1 11 161.98 16.8
9 1 -11 25.4 7.5
9 1 -11 30 9.6
-9 -1 11 36.5 9.9
-9 -1 11 18.8 7.8
8 1 -11 195.98 15.9
8 1 -11 184.78 15.1
-8 -1 11 199.28 16.1
-8 -1 11 203.68 16.3
7 1 -11 79.09 11
7 1 -11 68.99 9.8
-7 -1 11 72.89 10.1
-7 -1 11 75.49 10.2
6 1 -11 255.17 15.9
6 1 -11 239.88 17
-6 -1 11 249.68 16.9
-6 -1 11 249.38 16.6
5 1 -11 637.44 30.7
5 1 -11 632.04 31.6
-5 -1 11 654.83 31.4
-5 -1 11 649.24 31.6
4 1 -11 623.94 31.4
4 1 -11 633.64 30.6
-4 -1 11 653.03 31.4
-4 -1 11 666.23 31.6
3 1 -11 284.97 16.3
3 1 -11 265.47 17.2
-3 -1 11 255.07 17.2
-3 -1 11 259.97 17.1
2 1 -11 768.32 36.2
-2 -1 11 781.82 36.3
-2 -1 11 764.82 36
1 1 -11 3520.05 146.69
-1 -1 11 3647.03 146.79
-1 -1 11 3513.75 146.39
0 1 -11 3063.49 128.19
0 -1 11 3079.59 127.79
0 -1 11 3144.09 128.29
-1 1 -11 119.49 12.7
-1 1 -11 122.89 14.1
1 -1 11 118.69 11.9
1 -1 11 113.39 12.3
-2 1 -11 529.85 27.5
-2 1 -11 549.35 28.8
2 -1 11 521.25 26.5
2 -1 11 535.65 27.5
-3 1 -11 953.3 44.8
-3 1 -11 1004.5 45.9
3 -1 11 989.8 44
3 -1 11 964.3 44.7
-4 1 -11 693.63 33.8
-4 1 -11 714.63 34.7
4 -1 11 645.64 33.3
4 -1 11 669.23 32.4
-5 1 -11 457.95 26.3
-5 1 -11 433.16 25.5
5 -1 11 471.85 25.6
5 -1 11 462.45 24.3
-6 1 -11 17.4 9.2
-6 1 -11 11.3 8
6 -1 11 32.4 9.4
6 -1 11 21.4 8.2
-7 1 -11 93.09 13.6
-7 1 -11 109.69 13
7 -1 11 112.49 13.2
-8 1 -11 84.29 12.7
-8 1 -11 115.19 14.6
8 -1 11 89.79 12.7
-9 1 -11 75.39 13.5
-9 1 -11 74.29 13.1
9 -1 11 79.09 14.7
14 0 -11 255.37 25.3
14 0 -11 267.67 24.4
-14 0 11 273.27 23.8
-14 0 11 258.27 23.5
13 0 -11 102.49 14.4
13 0 -11 64.89 13.1
-13 0 11 88.99 14.2
-13 0 11 57.29 12
12 0 -11 132.09 16.6
12 0 -11 102.49 14
-12 0 11 134.49 15.5
-12 0 11 125.19 15.4
11 0 -11 289.27 22.1
11 0 -11 301.77 20.8
-11 0 11 312.37 22.2
-11 0 11 341.87 22.5
10 0 -11 475.05 26.4
10 0 -11 469.15 27.5
-10 0 11 488.55 27.8
-10 0 11 509.05 27.8
9 0 -11 116.39 13.5
9 0 -11 134.39 14.8
-9 0 11 114.79 14.5
-9 0 11 123.89 15.3
8 0 -11 48.8 8.5
-8 0 11 50.39 8.6
7 0 -11 296.67 18.1
7 0 -11 289.37 19
-7 0 11 286.77 18.7
-7 0 11 296.67 19.4
6 0 -11 767.52 35.7
6 0 -11 755.12 36.7
-6 0 11 760.22 36.3
-6 0 11 778.42 36.8
5 0 -11 78.29 10.9
5 0 -11 86.09 12.1
-5 0 11 106.19 12.3
-5 0 11 93.59 12.5
4 0 -11 743.73 36.2
4 0 -11 802.22 35.5
-4 0 11 709.03 35.8
-4 0 11 790.22 36.5
3 0 -11 5.6 6.8
-3 0 11 9.4 7
-3 0 11 10.4 7
2 0 -11 155.38 13.6
-2 0 11 128.79 13.1
-2 0 11 139.09 13.2
1 0 -11 1118.09 52.19
-1 0 11 1217.98 52.49
-1 0 11 1195.68 52.09
0 0 -11 1296.37 57.39
0 0 -11 1274.07 56.19
0 0 11 1256.27 55.99
0 0 11 1244.28 55.49
-1 0 -11 53.69 10.4
-1 0 -11 53.89 9.8
1 0 11 33.8 8.1
1 0 11 32.6 8
-2 0 -11 781.62 38.7
-2 0 -11 762.92 37.5
2 0 11 799.32 37.6
2 0 11 788.42 36.6
-3 0 -11 852.51 40.4
-3 0 -11 910.21 41.7
3 0 11 805.92 39
3 0 11 821.52 40.1
4 0 11 188.28 15.2
4 0 11 195.88 16.5
-5 0 -11 31.6 9.2
-5 0 -11 26.8 9.4
5 0 11 5.2 7.9
5 0 11 6 8.7
-6 0 -11 66.19 11.4
-6 0 -11 40.5 10.5
6 0 11 71.29 11.4
-7 0 -11 1.9 8.6
-7 0 -11 0.9 9.3
7 0 11 3.2 9.2
-8 0 -11 285.17 22.7
-8 0 -11 293.57 24
8 0 11 322.17 23.7
-9 0 -11 100.49 14.3
-9 0 -11 72.99 13.5
9 0 11 120.19 16.4
14 -1 -11 403.46 29
14 -1 -11 384.36 28.2
-14 1 11 396.96 27.9
-14 1 11 385.36 27.6
13 -1 -11 30.3 11.3
13 -1 -11 53.69 12
-13 1 11 32.3 11.5
-13 1 11 38.8 11.9
12 -1 -11 518.75 31.4
12 -1 -11 539.55 29.8
-12 1 11 549.74 31.3
-12 1 11 572.14 31.5
11 -1 -11 1224.08 55.49
11 -1 -11 1193.88 56.39
-11 1 11 1248.18 56.59
-11 1 11 1246.88 56.59
10 -1 -11 439.86 26.3
10 -1 -11 459.65 25.1
-10 1 11 430.56 26.2
-10 1 11 436.66 26.2
9 -1 -11 14.2 8.2
9 -1 -11 24 8.3
-9 1 11 26.8 9.2
-9 1 11 39.7 10.2
8 -1 -11 57.89 8.6
8 -1 -11 69.09 10
-8 1 11 44 8.6
-8 1 11 62.19 10
7 -1 -11 43.8 9.7
7 -1 -11 37 8.4
-7 1 11 44.8 10.5
-7 1 11 48.8 9.7
6 -1 -11 303.37 19.5
6 -1 -11 312.77 18.4
-6 1 11 268.87 19
-6 1 11 288.47 19.8
5 -1 -11 83.79 11.1
5 -1 -11 80.59 11.4
-5 1 11 63.59 10
-5 1 11 50.39 9.3
4 -1 -11 253.77 17.9
-4 1 11 231.58 17.5
-4 1 11 273.77 18.3
3 -1 -11 85.39 12.2
-3 1 11 82.79 12.3
-3 1 11 90.89 12.2
2 -1 -11 252.67 17.5
-2 1 11 245.48 17.4
-2 1 11 239.98 16.8
1 -1 -11 57.39 8.9
1 -1 -11 88.99 12.4
-1 1 11 86.69 12.3
-1 1 11 85.99 11.5
0 -1 -11 4 7.4
0 -1 -11 9.6 8.1
0 1 11 20.1 7.3
0 1 11 7.5 7
-1 -1 -11 1.6 8.7
-1 -1 -11 -2 7.6
1 1 11 2.8 7.8
1 1 11 1.9 7.2
-2 -1 -11 210.78 17.3
-2 -1 -11 208.38 18.6
2 1 11 187.88 15.7
2 1 11 204.68 17.1
-3 -1 -11 454.05 26.1
-3 -1 -11 491.65 27.5
3 1 11 426.56 24.6
3 1 11 435.06 25.8
-4 -1 -11 272.07 20.5
-4 -1 -11 279.77 21.5
4 1 11 273.77 20.2
-5 -1 -11 52.59 12.8
5 1 11 72.19 12
-6 -1 -11 48.6 11.8
-6 -1 -11 22.9 10.5
6 1 11 36.7 10.5
-7 -1 -11 146.19 18.4
-7 -1 -11 156.58 20.1
7 1 11 122.79 18.6
-8 -1 -11 601.54 35.8
-8 -1 -11 623.74 35
8 1 11 638.84 37.4
13 -2 -11 1.3 11.9
13 -2 -11 -3.6 10.6
-13 2 11 1.8 10.3
-13 2 11 -3.1 10.3
12 -2 -11 469.35 26.7
12 -2 -11 437.76 28.4
-12 2 11 434.06 27.9
-12 2 11 454.35 28.5
11 -2 -11 917.71 43.9
11 -2 -11 893.81 42.6
-11 2 11 889.91 43.6
-11 2 11 877.81 43.9
10 -2 -11 204.38 19
10 -2 -11 204.18 17.8
-10 2 11 244.48 19.8
-10 2 11 217.38 19
9 -2 -11 16.4 7.4
9 -2 -11 12.6 8.5
-9 2 11 24.5 9.1
-9 2 11 26.9 8.8
8 -2 -11 219.38 18
8 -2 -11 202.98 16.5
-8 2 11 241.38 17.8
-8 2 11 243.78 19
7 -2 -11 794.42 42.7
7 -2 -11 843.92 42
-7 2 11 1062.69 44.4
-7 2 11 974.7 43.4
6 -2 -11 713.93 38.5
-6 2 11 889.61 39.8
-6 2 11 834.82 39
5 -2 -11 191.58 16.3
-5 2 11 203.38 16.8
-5 2 11 172.18 15.8
4 -2 -11 153.78 15.1
-4 2 11 156.88 15.3
-4 2 11 154.78 14.8
3 -2 -11 246.78 18.3
-3 2 11 245.08 17.4
-3 2 11 254.37 18.3
2 -2 -11 631.44 32.1
2 -2 -11 616.84 33.7
-2 2 11 654.43 31.5
-2 2 11 633.44 32.3
1 -2 -11 632.44 32.5
1 -2 -11 645.84 33.9
-1 2 11 654.23 31.5
-1 2 11 605.24 32.3
0 -2 -11 7.6 7.5
0 -2 -11 6.7 8.3
0 2 11 6.5 7.1
0 2 11 6.2 6.6
-1 -2 -11 80.89 12.2
-1 -2 -11 110.99 15.2
1 2 11 100.39 14.3
1 2 11 97.49 13.1
-2 -2 -11 7.8 8.9
-2 -2 -11 10 9.5
2 2 11 4.9 8.1
2 2 11 14.8 9.3
-3 -2 -11 371.06 25
-3 -2 -11 418.96 26.6
3 2 11 426.06 25.2
-4 -2 -11 203.88 20.1
-4 -2 -11 204.38 19.2
4 2 11 192.58 18.4
-5 -2 -11 6.9 10.7
-5 -2 -11 1 9.9
5 2 11 1.3 8.9
-6 -2 -11 6.9 10.6
-6 -2 -11 3.3 9.3
6 2 11 3.8 10
-7 -2 -11 20.2 11
-7 -2 -11 27.7 12.3
7 2 11 16.2 11.6
-8 -2 -11 209.68 24.3
-8 -2 -11 182.38 22.4
8 2 11 178.58 26.2
13 -3 -11 8.4 12.1
13 -3 -11 14.8 11.7
-13 3 11 8.1 11.8
-13 3 11 -2.3 10.8
12 -3 -11 13.9 11.3
12 -3 -11 12.7 9.4
-12 3 11 17.8 11
-12 3 11 20.9 11.2
11 -3 -11 134.29 16
11 -3 -11 106.69 15.8
-11 3 11 122.09 18.4
-11 3 11 146.39 16.3
10 -3 -11 105.19 15.2
10 -3 -11 99.89 13.2
-10 3 11 124.29 18
-10 3 11 132.19 16.5
9 -3 -11 110.09 14.2
9 -3 -11 114.29 16.1
-9 3 11 114.49 15.5
-9 3 11 94.09 13.2
8 -3 -11 469.25 26.5
-8 3 11 409.66 25.6
7 -3 -11 475.25 28.3
-7 3 11 525.85 28.5
-7 3 11 555.64 29.2
6 -3 -11 679.63 38.4
-6 3 11 840.82 39
-6 3 11 875.41 39.7
5 -3 -11 204.18 17
-5 3 11 172.18 16.9
-5 3 11 159.18 16
4 -3 -11 596.24 31.7
-4 3 11 633.44 31.5
-4 3 11 620.24 32.1
3 -3 -11 588.44 32
3 -3 -11 608.94 30.7
-3 3 11 534.85 29.4
-3 3 11 557.44 30.3
2 -3 -11 180.68 18.1
2 -3 -11 168.68 16.7
-2 3 11 137.59 16.1
-2 3 11 128.49 14.5
1 -3 -11 476.45 29
1 -3 -11 503.45 27.7
-1 3 11 477.65 26.4
-1 3 11 463.45 27.4
0 -3 -11 155.48 18.4
0 -3 -11 162.18 17
0 3 11 166.18 15.6
0 3 11 161.68 16.5
-1 -3 -11 -1.5 8
-1 -3 -11 4.4 10.6
1 3 11 4.1 9.4
1 3 11 3.9 7.6
-2 -3 -11 180.98 20.1
-2 -3 -11 174.78 18.5
2 3 11 203.38 18.5
2 3 11 197.98 17.2
-3 -3 -11 111.39 15
-3 -3 -11 106.59 14.7
3 3 11 114.89 16.5
-4 -3 -11 27.1 11.2
-4 -3 -11 52.09 12.3
4 3 11 33.7 10.8
-5 -3 -11 162.38 20
-5 -3 -11 162.68 21.6
5 3 11 150.68 19.8
-6 -3 -11 38.3 14.2
-6 -3 -11 27.3 11.8
6 3 11 28.8 11.9
-7 -3 -11 23.2 14.5
-7 -3 -11 18.4 12.1
7 3 11 28 14.5
12 -4 -11 94.39 14.9
12 -4 -11 84.39 14.8
-12 4 11 67.69 13.9
-12 4 11 99.39 15.1
11 -4 -11 10.8 10.6
-11 4 11 16.4 10.9
-11 4 11 23.8 12.2
10 -4 -11 67.19 11.9
-10 4 11 95.69 13.2
-10 4 11 100.49 15.1
9 -4 -11 28.8 10.2
-9 4 11 20.3 9.3
-9 4 11 39.7 11.8
8 -4 -11 443.06 26.1
-8 4 11 403.86 25.4
-8 4 11 391.86 25.8
7 -4 -11 232.88 19.2
-7 4 11 215.98 19.1
-7 4 11 196.88 18.4
6 -4 -11 119.39 16
-6 4 11 143.69 16.8
-6 4 11 142.99 16.2
5 -4 -11 311.97 23.3
5 -4 -11 316.27 21.3
-5 4 11 292.27 21.3
-5 4 11 273.97 20.4
4 -4 -11 659.53 34.3
4 -4 -11 654.23 35.7
-4 4 11 680.03 33.6
-4 4 11 648.34 34.5
3 -4 -11 221.98 20.3
3 -4 -11 206.78 18.4
-3 4 11 173.78 18.2
-3 4 11 159.78 16.7
2 -4 -11 3.1 8.8
2 -4 -11 9.2 10.4
-2 4 11 -5.8 7.3
-2 4 11 2 9.7
1 -4 -11 272.87 22.3
1 -4 -11 334.67 23.5
-1 4 11 286.47 20.6
-1 4 11 321.57 22.5
0 -4 -11 297.37 22.5
0 -4 -11 268.57 22.9
0 4 11 270.07 20.2
0 4 11 298.47 22.2
-1 -4 -11 102.79 14.7
-1 -4 -11 115.59 17.4
1 4 11 129.29 16.1
1 4 11 142.69 17.1
-2 -4 -11 501.55 31
-2 -4 -11 497.25 29.6
2 4 11 471.25 29.2
-3 -4 -11 1336.47 62.19
-3 -4 -11 1285.97 60.79
-4 -4 -11 157.78 21.5
-4 -4 -11 137.99 19.8
4 4 11 132.89 19.5
-5 -4 -11 6.9 11.2
-5 -4 -11 -2.6 11.2
5 4 11 10.5 10.9
-6 -4 -11 50.69 13.3
-6 -4 -11 96.49 18.3
6 4 11 81.99 16.1
12 -5 -11 216.98 22.9
-12 5 11 230.68 22.9
-12 5 11 235.18 23
11 -5 -11 177.48 20.4
-11 5 11 171.38 20.8
-11 5 11 168.98 20
10 -5 -11 127.29 15.3
-10 5 11 81.39 12.9
-10 5 11 132.19 18.6
9 -5 -11 40.2 12.8
-9 5 11 34 11.5
-9 5 11 29.9 11.8
8 -5 -11 21.6 10
-8 5 11 54.29 11.6
-8 5 11 46 11.2
7 -5 -11 295.37 22.5
-7 5 11 286.17 21.7
-7 5 11 285.27 22.3
6 -5 -11 287.37 23.2
6 -5 -11 255.77 21
-6 5 11 258.17 21.4
-6 5 11 252.67 20.8
5 -5 -11 177.68 19.8
5 -5 -11 171.18 18.4
-5 5 11 173.88 17.6
4 -5 -11 80.59 13.3
4 -5 -11 82.89 14.2
-4 5 11 72.39 12.9
-4 5 11 69.39 11.8
3 -5 -11 106.59 14.2
3 -5 -11 139.39 17.2
-3 5 11 132.99 17.6
-3 5 11 127.49 15.8
2 -5 -11 46.7 13.1
2 -5 -11 46.2 13.2
-2 5 11 57.39 12.3
-2 5 11 58.39 12.8
1 -5 -11 139.59 18.5
1 -5 -11 128.39 18.9
-1 5 11 114.99 14.7
-1 5 11 111.89 16.1
0 -5 -11 27.1 10.7
0 -5 -11 31.8 12
0 5 11 51.39 13
0 5 11 31.5 10.2
-1 -5 -11 50.39 12.5
-1 -5 -11 82.39 14.5
1 5 11 50.49 11.4
1 5 11 80.09 13.7
-2 -5 -11 833.12 42.8
-2 -5 -11 827.12 41.5
2 5 11 681.03 40.6
-3 -5 -11 547.25 33.2
-3 -5 -11 571.24 34.8
3 5 11 508.35 33
-4 -5 -11 25.9 12.4
-4 -5 -11 30.7 13.7
4 5 11 24.6 12.2
-5 -5 -11 153.58 22.6
-5 -5 -11 108.09 17.1
5 5 11 119.79 17
11 -6 -11 158.08 21
-11 6 11 142.29 20.7
-11 6 11 154.98 20
10 -6 -11 9.5 11.3
-10 6 11 25.7 11.4
-10 6 11 18.6 11.4
9 -6 -11 176.78 23.5
9 -6 -11 157.18 20.5
-9 6 11 154.78 19.9
-9 6 11 152.28 19.9
8 -6 -11 283.77 25.9
8 -6 -11 284.37 23.5
-8 6 11 276.47 22.7
-8 6 11 265.77 23
7 -6 -11 285.87 23
7 -6 -11 268.67 25.5
-7 6 11 298.07 22.9
-7 6 11 315.97 24
6 -6 -11 39.5 11.8
6 -6 -11 26.3 12.6
-6 6 11 14.3 10.2
-6 6 11 24 11.4
5 -6 -11 151.58 21.1
5 -6 -11 147.19 19.2
-5 6 11 164.28 18.2
-5 6 11 162.48 19.8
4 -6 -11 63.09 13.1
4 -6 -11 61.69 14.5
-4 6 11 46.1 11.8
-4 6 11 42.1 13
3 -6 -11 104.39 15.7
3 -6 -11 96.59 15.6
-3 6 11 93.69 13.6
-3 6 11 74.79 13.7
2 -6 -11 -2.3 10.2
2 -6 -11 2.2 11.3
-2 6 11 -3.1 9.6
-2 6 11 7.2 9.9
1 -6 -11 58.69 12.7
1 -6 -11 121.19 17.2
-1 6 11 84.19 13.3
-1 6 11 117.59 15.4
0 -6 -11 0 10.5
0 -6 -11 -0.6 10.8
0 6 11 -1.3 10
0 6 11 -3.4 10.2
-1 -6 -11 27.7 13.5
-1 -6 -11 16.2 12.3
1 6 11 12.4 11.8
-2 -6 -11 255.37 26
-2 -6 -11 234.48 24.1
2 6 11 213.88 24.1
-3 -6 -11 225.98 24.6
-4 -6 -11 56.49 16.4
-4 -6 -11 24 14.2
4 6 11 27.1 13.3
9 -7 -11 86.99 15.4
9 -7 -11 77.89 18.7
-9 7 11 47.6 12.9
-9 7 11 51.99 14.3
8 -7 -11 468.35 34.1
8 -7 -11 481.85 30.7
-8 7 11 456.05 30.4
-8 7 11 458.45 29.9
7 -7 -11 368.76 26.9
7 -7 -11 359.26 29
-7 7 11 359.96 27
-7 7 11 368.86 26.3
6 -7 -11 346.67 26.3
6 -7 -11 349.77 28.7
-6 7 11 339.47 25.2
-6 7 11 360.26 26.2
5 -7 -11 28.3 11.9
5 -7 -11 30.7 12.7
-5 7 11 35.9 11.5
-5 7 11 38.4 11.7
4 -7 -11 416.86 29.8
4 -7 -11 433.26 29.3
-4 7 11 398.06 27.1
-4 7 11 404.66 28.7
3 -7 -11 91.09 14.6
3 -7 -11 144.69 21.4
-3 7 11 77.19 13.7
-3 7 11 105.19 14.3
2 -7 -11 159.28 18.9
2 -7 -11 146.79 21.9
-2 7 11 123.79 16.2
-2 7 11 143.49 18.7
1 -7 -11 65.19 16
1 -7 -11 69.29 15.5
-1 7 11 66.99 14.4
-1 7 11 75.39 14.9
0 -7 -11 18.8 13.2
0 -7 -11 18.9 12.5
0 7 11 16.9 12.5
0 7 11 6.4 12
-1 -7 -11 80.09 15.9
-1 -7 -11 59.19 14.5
1 7 11 77.79 15.8
-2 -7 -11 37.3 14.6
-2 -7 -11 51.39 17.3
2 7 11 28.9 16.1
7 -8 -11 196.58 23.3
7 -8 -11 195.88 28.2
-7 8 11 170.58 22.3
-7 8 11 178.58 23
6 -8 -11 142.99 18.9
6 -8 -11 77.89 17.4
-6 8 11 87.19 15.5
-6 8 11 125.19 16.9
5 -8 -11 41.8 13.6
5 -8 -11 51.99 14.8
-5 8 11 56.29 13.9
-5 8 11 63.69 14
4 -8 -11 955.1 47.7
4 -8 -11 891.71 47.7
-4 8 11 839.12 46.8
-4 8 11 892.11 45.5
3 -8 -11 555.04 35.6
3 -8 -11 561.64 35.2
-3 8 11 535.25 33.5
-3 8 11 539.95 34.8
2 -8 -11 210.78 25.9
2 -8 -11 225.08 25.8
-2 8 11 242.98 23.8
1 -8 -11 22.8 14.3
1 -8 -11 15.4 15.7
-1 8 11 29.3 13.3
-1 8 11 23 15.6
0 -8 -11 52.49 15.4
0 -8 -11 58.29 15.1
0 8 11 52.19 14.1
0 8 11 39.6 14.6
4 15 -12 15.2 13.4
4 15 -12 12.1 11
-4 -15 12 2.2 11.4
-4 -15 12 -3.7 13.1
3 15 -12 27.3 11.3
3 15 -12 22.3 12.5
-3 -15 12 28.4 11.7
-3 -15 12 17.4 14
2 15 -12 178.98 21.4
2 15 -12 194.98 18.9
-2 -15 12 189.88 19.2
-2 -15 12 184.08 22.8
1 15 -12 119.59 16.3
1 15 -12 125.49 18.5
-1 -15 12 156.28 20.9
-1 -15 12 167.88 17.7
0 15 -12 392.26 23.5
0 15 -12 371.46 25.3
0 -15 12 428.16 24.9
0 -15 12 433.86 27.1
-1 15 -12 48.5 10.7
-1 15 -12 62.09 9.9
1 -15 12 60.99 10.1
1 -15 12 65.99 12.6
-2 15 -12 102.99 15.2
-2 15 -12 106.39 13.1
2 -15 12 84.39 10.9
2 -15 12 96.69 11.7
7 14 -12 181.28 26.1
7 14 -12 191.28 23.5
-7 -14 12 190.08 24.6
-7 -14 12 195.78 24.8
6 14 -12 51.99 14.2
6 14 -12 23.2 13.1
-6 -14 12 49.9 14.8
-6 -14 12 31.2 12.5
5 14 -12 13.5 12.6
5 14 -12 14.7 11.2
-5 -14 12 19.7 12.4
-5 -14 12 21.2 12.2
4 14 -12 6.1 11.3
4 14 -12 11.7 9.5
-4 -14 12 8.7 10.2
-4 -14 12 0.3 9.6
3 14 -12 22.5 12
3 14 -12 20.9 9.5
-3 -14 12 25 10.2
-3 -14 12 25.7 10.6
2 14 -12 143.19 18.9
2 14 -12 120.79 16
-2 -14 12 147.49 17.2
-2 -14 12 158.68 17.3
1 14 -12 36.4 9.1
1 14 -12 42.6 11.1
-1 -14 12 26.7 9
-1 -14 12 27.8 9.2
0 14 -12 158.58 16.9
0 14 -12 138.59 14.4
0 -14 12 153.08 15.5
0 -14 12 147.89 15.7
-1 14 -12 31.4 8
-1 14 -12 46.2 9.7
1 -14 12 39.3 8.8
1 -14 12 40.3 9.2
-2 14 -12 300.67 19.7
-2 14 -12 325.47 18.9
2 -14 12 296.47 18.5
2 -14 12 292.17 19.7
-3 14 -12 396.16 21.9
-3 14 -12 393.06 20.8
3 -14 12 372.46 20.8
3 -14 12 385.46 21.1
-4 14 -12 351.66 20.1
-4 14 -12 364.56 18.8
4 -14 12 367.36 19.5
4 -14 12 381.56 19.3
8 13 -12 269.47 25.3
8 13 -12 253.87 27.3
-8 -13 12 284.67 25.6
-8 -13 12 258.77 26.5
7 13 -12 1125.09 56.49
7 13 -12 1154.08 55.59
-7 -13 12 1192.58 56.19
-7 -13 12 1142.19 56.09
6 13 -12 694.43 36.7
6 13 -12 653.73 37.5
-6 -13 12 662.03 37.1
-6 -13 12 664.03 37.3
5 13 -12 39.9 10.9
5 13 -12 31.7 11.7
-5 -13 12 39 10.6
-5 -13 12 47.4 12.2
4 13 -12 17.4 9.9
4 13 -12 23.4 9.2
-4 -13 12 18.9 9.6
-4 -13 12 17.4 9.7
3 13 -12 53.99 11.8
3 13 -12 47.1 9.9
-3 -13 12 51.09 11.3
-3 -13 12 36.7 10.1
2 13 -12 80.09 11.6
2 13 -12 103.89 13.8
-2 -13 12 85.09 11.3
-2 -13 12 95.69 14.4
1 13 -12 184.18 15.5
1 13 -12 179.18 16.9
-1 -13 12 195.88 16.3
-1 -13 12 196.68 16.3
0 13 -12 17.9 8.2
0 13 -12 10.1 7
0 -13 12 20.3 8.1
0 -13 12 16.1 7.6
-1 13 -12 0.8 6.5
-1 13 -12 0 6.9
1 -13 12 -0.4 6.9
1 -13 12 6.4 6.8
-2 13 -12 46.7 8.3
-2 13 -12 45.6 8.5
2 -13 12 31.6 7.8
2 -13 12 33.3 7.5
-3 13 -12 95.29 10.4
-3 13 -12 98.39 11.7
3 -13 12 77.39 11.2
3 -13 12 75.39 10.6
-4 13 -12 36.3 6.5
-4 13 -12 30 6.9
4 -13 12 30.6 6.3
4 -13 12 32.6 6.9
-5 13 -12 77.69 9.6
5 -13 12 79.99 8.5
5 -13 12 65.89 8.9
9 12 -12 66.39 15.7
9 12 -12 51.09 16.4
-9 -12 12 53.19 15.3
-9 -12 12 69.29 16.6
8 12 -12 180.58 23.2
8 12 -12 200.68 21.8
-8 -12 12 169.48 22.4
-8 -12 12 190.88 22.5
7 12 -12 886.51 42.1
7 12 -12 805.52 42.5
-7 -12 12 810.22 42
-7 -12 12 748.23 41.7
6 12 -12 643.44 34.4
6 12 -12 625.54 35.3
-6 -12 12 619.14 34.5
-6 -12 12 640.94 34.7
5 12 -12 270.37 22.1
5 12 -12 248.48 20.4
-5 -12 12 266.67 20.9
-5 -12 12 277.17 21.2
4 12 -12 27.2 8.7
4 12 -12 26.9 9.1
-4 -12 12 20.4 8.5
-4 -12 12 22.7 9
3 12 -12 777.62 37.5
3 12 -12 773.42 38.7
-3 -12 12 775.62 38.1
-3 -12 12 792.82 38.1
2 12 -12 822.32 40
2 12 -12 845.82 41.3
-2 -12 12 905.41 40.8
-2 -12 12 877.71 40.9
1 12 -12 408.16 24.1
1 12 -12 398.56 22.7
-1 -12 12 450.05 23.8
-1 -12 12 424.96 23.5
0 12 -12 23.4 7.9
0 12 -12 21.2 7
0 -12 12 16.7 7.1
0 -12 12 16.3 7.5
-1 12 -12 110.49 12.7
-1 12 -12 109.89 12
1 -12 12 112.09 12.4
1 -12 12 107.19 11.9
-2 12 -12 35.2 7.9
-2 12 -12 42.5 7.5
2 -12 12 38.9 7.4
2 -12 12 40.7 7.7
-3 12 -12 133.29 11.2
-3 12 -12 133.69 12.3
3 -12 12 153.38 11.9
3 -12 12 151.38 12.4
-4 12 -12 52.89 7
-4 12 -12 49 7.3
4 -12 12 47.6 7.2
4 -12 12 47.9 6.9
-5 12 -12 57.49 7
5 -12 12 45.3 6.1
5 -12 12 48.7 6.7
-6 12 -12 16.2 5.6
-6 12 -12 15.8 4.8
6 -12 12 13.4 4.5
6 -12 12 17 4.3
10 11 -12 -7.1 13.3
10 11 -12 2.1 11.2
-10 -11 12 -9.7 12.2
-10 -11 12 -8.4 11.3
9 11 -12 10.8 13.2
9 11 -12 9.8 10.7
-9 -11 12 8 12.2
-9 -11 12 12.3 11.1
8 11 -12 54.49 12
8 11 -12 43.6 11.6
-8 -11 12 65.69 11.7
-8 -11 12 75.79 12.6
7 11 -12 866.11 44.8
7 11 -12 860.21 43.7
-7 -11 12 948.21 44.5
-7 -11 12 901.71 44.5
6 11 -12 390.56 26.1
6 11 -12 401.66 25
-6 -11 12 378.66 25.2
-6 -11 12 422.26 25.7
5 11 -12 139.89 15.5
5 11 -12 133.89 16.9
-5 -11 12 134.69 15.7
-5 -11 12 126.79 15.8
4 11 -12 186.08 15.8
4 11 -12 190.48 17.4
-4 -11 12 172.68 16.3
-4 -11 12 177.08 16.5
3 11 -12 842.32 41.6
3 11 -12 855.41 40.7
-3 -11 12 892.61 41.2
-3 -11 12 912.21 41.5
2 11 -12 777.52 39.3
2 11 -12 821.32 38.5
-2 -11 12 863.61 39.3
-2 -11 12 855.51 39.2
1 11 -12 201.58 16.1
1 11 -12 195.98 14.9
-1 -11 12 219.78 15.7
-1 -11 12 220.28 16
0 11 -12 90.79 12
0 11 -12 98.79 11.4
0 -11 12 77.39 9.8
0 -11 12 94.99 11.8
-1 11 -12 328.17 19.9
-1 11 -12 358.46 19.6
1 -11 12 352.06 19.6
1 -11 12 362.46 19.8
-2 11 -12 132.29 12.1
-2 11 -12 150.88 11.4
2 -11 12 106.89 11.2
2 -11 12 100.49 11.5
-3 11 -12 37 6.4
-3 11 -12 32.5 6.9
3 -11 12 51.59 7.5
3 -11 12 54.69 7.2
-4 11 -12 59.99 8.3
-4 11 -12 59.99 9
4 -11 12 68.19 9
4 -11 12 65.19 8
-5 11 -12 13.7 5.4
5 -11 12 9.8 5.4
5 -11 12 10.8 5.1
-6 11 -12 25 6.3
-6 11 -12 25.1 5.3
6 -11 12 27.5 5.1
11 10 -12 54.89 14.9
11 10 -12 31 15
-11 -10 12 67.39 16.2
-11 -10 12 64.59 16
10 10 -12 25.5 13.3
10 10 -12 16.2 10.8
-10 -10 12 29.2 13.7
-10 -10 12 24.6 11.8
9 10 -12 71.89 14.6
9 10 -12 74.59 13.4
-9 -10 12 77.69 13.7
-9 -10 12 64.39 13.9
8 10 -12 41.1 10.1
8 10 -12 42.3 11.8
-8 -10 12 40.8 10.1
-8 -10 12 50.49 11.5
7 10 -12 150.48 16.6
7 10 -12 125.39 17.6
-7 -10 12 124.29 17
-7 -10 12 157.28 17.3
6 10 -12 177.98 17.9
6 10 -12 166.88 16.2
-6 -10 12 151.88 17.1
-6 -10 12 140.59 16.1
5 10 -12 421.66 25
5 10 -12 414.26 23.6
-5 -10 12 379.56 23.7
-5 -10 12 405.16 24.3
4 10 -12 49.7 9.3
4 10 -12 42.3 9.7
-4 -10 12 39.7 9.6
-4 -10 12 29.5 8.7
3 10 -12 54.19 9.8
3 10 -12 49.1 8.5
-3 -10 12 30.5 8.5
-3 -10 12 29.8 8.1
2 10 -12 303.47 18.1
2 10 -12 318.37 19.3
-2 -10 12 270.57 18.6
-2 -10 12 279.87 18.5
1 10 -12 220.88 15.2
1 10 -12 217.78 15.9
-1 -10 12 224.18 15.6
-1 -10 12 207.58 15.5
0 10 -12 8.4 6.3
0 10 -12 12.9 6.1
0 -10 12 18.4 6.5
0 -10 12 13.9 6.5
-1 10 -12 593.74 28.5
-1 10 -12 595.24 29
1 -10 12 617.44 28.7
1 -10 12 593.94 28.7
-2 10 -12 373.76 20.1
-2 10 -12 383.76 19.5
2 -10 12 367.36 19.7
2 -10 12 376.36 19.9
-3 10 -12 115.59 10.2
-3 10 -12 119.19 10.8
3 -10 12 107.49 10.9
3 -10 12 113.99 10.5
-4 10 -12 208.98 12.8
4 -10 12 188.78 13
4 -10 12 172.38 12.3
-5 10 -12 171.78 12.1
5 -10 12 201.98 12.1
5 -10 12 191.58 12.3
-6 10 -12 403.16 19.8
-6 10 -12 426.06 20.9
6 -10 12 400.96 19.9
6 -10 12 414.56 19.6
-7 10 -12 370.66 17.7
-7 10 -12 389.86 18.4
7 -10 12 347.47 17.6
7 -10 12 356.16 17.3
-8 10 -12 135.89 9.4
12 9 -12 447.56 29.8
12 9 -12 415.16 32.2
-12 -9 12 433.16 31.6
-12 -9 12 438.96 31.7
11 9 -12 68.09 13.2
11 9 -12 53.39 12.8
-11 -9 12 92.89 15.9
-11 -9 12 67.89 12.8
10 9 -12 83.69 13.6
10 9 -12 125.59 18.5
-10 -9 12 89.09 13.7
-10 -9 12 129.89 18.9
9 9 -12 223.48 21.8
9 9 -12 228.88 20.6
-9 -9 12 292.57 21.7
-9 -9 12 250.37 21.8
8 9 -12 382.76 27.3
8 9 -12 421.06 26.2
-8 -9 12 478.25 27.8
-8 -9 12 497.15 27.5
7 9 -12 174.08 17.4
7 9 -12 174.48 16
-7 -9 12 126.29 15.9
-7 -9 12 118.59 16.4
6 9 -12 28.8 8.8
6 9 -12 53.69 9.9
-6 -9 12 47.8 10.3
-6 -9 12 36.3 9.2
5 9 -12 634.94 31.1
5 9 -12 626.74 32.1
-5 -9 12 609.74 31.4
-5 -9 12 605.74 31.9
4 9 -12 39.7 7.8
4 9 -12 45.2 9.2
-4 -9 12 31.4 7.7
-4 -9 12 42.4 8.5
3 9 -12 177.18 15.2
3 9 -12 179.88 14.2
-3 -9 12 186.98 14.8
-3 -9 12 169.68 14.6
2 9 -12 83.89 10.7
2 9 -12 89.39 10.3
-2 -9 12 81.29 10.1
-2 -9 12 61.89 8.8
1 9 -12 256.27 16.9
1 9 -12 261.37 16.5
-1 -9 12 258.07 16.5
-1 -9 12 260.27 16.6
0 9 -12 71.89 10.8
0 9 -12 80.69 10.3
0 -9 12 81.49 10.5
0 -9 12 71.69 10.5
-1 9 -12 806.52 36.1
-1 9 -12 782.92 36.5
1 -9 12 804.72 36.4
1 -9 12 808.72 36.4
-2 9 -12 1115.89 48.1
-2 9 -12 1116.19 48.7
2 -9 12 1103.29 48.4
2 -9 12 1126.49 48.4
-3 9 -12 257.17 16.2
-3 9 -12 284.97 15.5
3 -9 12 285.87 16.4
3 -9 12 288.77 16
-4 9 -12 19.8 5.9
4 -9 12 14.6 5.4
4 -9 12 21.3 6.1
-5 9 -12 237.68 15.6
-5 9 -12 230.58 14.3
5 -9 12 247.88 14.4
5 -9 12 245.48 14.1
-6 9 -12 543.55 25.5
-6 9 -12 585.44 26.6
6 -9 12 530.55 25.6
6 -9 12 541.15 25.3
-7 9 -12 718.23 31.4
-7 9 -12 698.73 30.7
7 -9 12 668.93 30.8
7 -9 12 680.83 30.5
-8 9 -12 125.99 10.8
-8 9 -12 118.69 9.7
8 -9 12 103.89 9.2
8 -9 12 107.29 9.6
9 -9 12 43.1 5.6
12 8 -12 616.04 38.6
12 8 -12 685.03 36.7
-12 -8 12 626.94 37.8
-12 -8 12 639.94 37.8
11 8 -12 86.49 13.1
11 8 -12 89.99 16.3
-11 -8 12 65.39 13.1
-11 -8 12 73.09 15.1
10 8 -12 295.17 21.4
10 8 -12 242.68 23
-10 -8 12 255.37 22.7
-10 -8 12 266.47 22.4
9 8 -12 663.83 37.1
9 8 -12 684.13 36
-9 -8 12 716.53 37.3
-9 -8 12 755.32 36.9
8 8 -12 1198.38 58.59
8 8 -12 1299.07 58.09
-8 -8 12 1253.57 58.89
-8 -8 12 1385.96 58.79
7 8 -12 183.98 17
7 8 -12 190.38 15.7
-7 -8 12 119.69 15.3
-7 -8 12 131.79 16.3
6 8 -12 188.28 16.8
6 8 -12 189.48 15.3
-6 -8 12 164.68 15.7
-6 -8 12 172.28 16.5
5 8 -12 129.49 13.4
5 8 -12 132.59 14.6
-5 -8 12 149.79 14.5
-5 -8 12 161.68 14.8
4 8 -12 296.07 19.4
4 8 -12 317.57 20.7
-4 -8 12 364.46 20.6
-4 -8 12 381.56 20.9
3 8 -12 87.49 11.3
3 8 -12 83.99 12
-3 -8 12 87.69 11.5
-3 -8 12 101.49 11.8
2 8 -12 228.48 16.1
2 8 -12 215.48 15.4
-2 -8 12 234.98 15.8
-2 -8 12 242.58 15.9
1 8 -12 229.98 15.8
1 8 -12 226.38 15.2
-1 -8 12 237.88 15.5
-1 -8 12 242.78 15.7
0 8 -12 140.29 11.5
0 8 -12 130.49 12.2
0 -8 12 134.19 11.8
0 -8 12 125.79 11.8
-1 8 -12 108.89 11
-1 8 -12 118.19 10.6
1 -8 12 127.99 11.3
1 -8 12 124.99 11.5
-2 8 -12 219.68 14.5
-2 8 -12 239.38 14
2 -8 12 224.18 14.2
2 -8 12 208.58 14.6
-3 8 -12 140.69 11.9
3 -8 12 161.08 12.4
3 -8 12 166.28 11.9
-4 8 -12 51.19 7.2
4 -8 12 55.29 7.6
4 -8 12 58.09 7.2
-5 8 -12 90.69 11.5
-5 8 -12 82.29 9.6
5 -8 12 94.29 10.2
5 -8 12 96.29 9.6
-6 8 -12 207.78 13.3
-6 8 -12 213.88 14.9
6 -8 12 209.08 13.3
6 -8 12 214.78 14
-7 8 -12 332.77 18.8
-7 8 -12 317.77 17.7
7 -8 12 356.76 18.2
7 -8 12 354.36 17.9
-8 8 -12 100.89 11.4
-8 8 -12 106.49 10
8 -8 12 90.39 10.4
8 -8 12 93.49 9.8
-9 8 -12 19.8 6
-9 8 -12 18 6.9
9 -8 12 21 6
9 -8 12 10.9 5.7
13 7 -12 167.68 25.2
13 7 -12 159.88 21
-13 -7 12 195.18 24.2
-13 -7 12 171.78 23.3
12 7 -12 202.58 23.3
12 7 -12 210.08 20.7
-12 -7 12 178.38 22.1
-12 -7 12 223.78 22.7
11 7 -12 235.98 20.4
11 7 -12 233.38 22.2
-11 -7 12 223.78 21.8
-11 -7 12 201.18 21.7
10 7 -12 99.09 14
10 7 -12 127.59 16.3
-10 -7 12 159.78 18.3
-10 -7 12 147.09 19
9 7 -12 467.65 29.9
9 7 -12 513.25 29.1
-9 -7 12 617.24 30.9
-9 -7 12 540.75 30.5
8 7 -12 1036.8 50.29
8 7 -12 1047 49.3
-8 -7 12 1118.49 50.19
-8 -7 12 1110.79 50.59
7 7 -12 91.69 12.8
7 7 -12 81.79 11.2
-7 -7 12 68.59 10.8
-7 -7 12 82.89 11.6
6 7 -12 244.38 16.8
6 7 -12 253.27 18.4
-6 -7 12 225.68 17.4
-6 -7 12 225.18 17.8
5 7 -12 78.49 11.6
5 7 -12 90.19 13.2
-5 -7 12 111.39 13.2
-5 -7 12 110.39 12.9
4 7 -12 149.99 13.9
4 7 -12 151.68 14.7
-4 -7 12 217.68 15
-4 -7 12 200.88 14.8
3 7 -12 304.57 18.4
3 7 -12 309.07 19.1
-3 -7 12 322.47 18.8
-3 -7 12 308.97 18.6
2 7 -12 926.01 42.5
2 7 -12 945.71 42.2
-2 -7 12 931.91 42.4
-2 -7 12 941.21 42.4
1 7 -12 378.56 20
1 7 -12 369.96 20.5
-1 -7 12 361.76 20.3
-1 -7 12 377.56 20.3
0 7 -12 192.68 14.1
0 7 -12 190.98 13.5
0 -7 12 215.78 14.1
0 -7 12 210.28 14.3
-1 7 -12 1533.65 63.59
-1 7 -12 1522.95 63.99
1 -7 12 1482.95 63.69
1 -7 12 1456.25 63.89
-2 7 -12 510.85 23.5
-2 7 -12 488.15 24
2 -7 12 463.05 23.5
2 -7 12 462.75 24.1
-3 7 -12 115.29 10.7
3 -7 12 111.49 11.1
3 -7 12 112.69 10.4
-4 7 -12 14 6
4 -7 12 17.7 5.8
4 -7 12 19.2 6.2
-5 7 -12 20.6 6.2
-5 7 -12 18.5 7.4
5 -7 12 19 6.4
5 -7 12 18.1 5.8
-6 7 -12 172.78 13
-6 7 -12 176.38 14.4
6 -7 12 176.08 12.8
6 -7 12 195.68 13.6
-7 7 -12 36.4 7.9
-7 7 -12 41.2 7.2
7 -7 12 56.59 7.7
7 -7 12 48.1 7.7
-8 7 -12 79.99 11.9
-8 7 -12 94.49 10.7
8 -7 12 92.69 10.8
8 -7 12 80.29 11.1
-9 7 -12 181.38 14.8
-9 7 -12 171.28 13.5
9 -7 12 190.08 13.9
9 -7 12 186.78 13.8
13 6 -12 126.19 16.1
13 6 -12 79.69 14.4
-13 -6 12 98.09 15.6
-13 -6 12 108.19 16.4
12 6 -12 10.5 10.6
12 6 -12 7 10.7
-12 -6 12 17.2 12.8
-12 -6 12 8.4 10.8
11 6 -12 28.4 11
11 6 -12 29.1 9.4
-11 -6 12 34.2 10.2
-11 -6 12 32.4 10.6
10 6 -12 132.79 15.8
10 6 -12 130.29 18.1
-10 -6 12 129.69 17.3
-10 -6 12 119.79 18
9 6 -12 221.28 17.4
9 6 -12 220.88 19.7
-9 -6 12 181.28 18.7
-9 -6 12 195.18 18.6
8 6 -12 134.29 16.2
8 6 -12 125.59 14.4
-8 -6 12 117.69 15.3
-8 -6 12 111.99 15.4
7 6 -12 132.89 15.3
7 6 -12 123.89 13.7
-7 -6 12 119.39 14.9
-7 -6 12 112.29 14.2
6 6 -12 9.8 7.3
6 6 -12 10 7
-6 -6 12 11.7 7
-6 -6 12 14 7.8
5 6 -12 54.09 8.2
5 6 -12 81.89 10.8
-5 -6 12 51.69 8.3
-5 -6 12 61.79 9.5
4 6 -12 1211.18 51.29
4 6 -12 1190.98 51.69
-4 -6 12 1108.89 51.59
-4 -6 12 1102.59 51.19
3 6 -12 1098.49 45.8
3 6 -12 1047.9 45.9
-3 -6 12 948.71 45.4
-3 -6 12 967.2 45.5
2 6 -12 820.42 36.3
2 6 -12 823.42 36.6
-2 -6 12 744.73 36.1
-2 -6 12 753.62 36.3
1 6 -12 72.59 10.5
1 6 -12 86.79 10.2
-1 -6 12 112.99 11.1
-1 -6 12 109.99 11.1
0 6 -12 1327.27 55.09
0 6 -12 1288.47 55.59
0 -6 12 1263.27 55.19
0 -6 12 1230.98 55.29
-1 6 -12 3281.57 135.19
-1 6 -12 3455.25 134.69
1 -6 12 3208.38 135.09
1 -6 12 3199.58 134.69
-2 6 -12 615.14 28.6
2 -6 12 594.14 28.5
2 -6 12 563.64 27.8
-3 6 -12 459.25 24
3 -6 12 478.35 23.9
3 -6 12 486.45 23.7
-4 6 -12 9.7 5.6
-4 6 -12 16.8 7.4
4 -6 12 15.4 6.1
4 -6 12 14.5 6.3
-5 6 -12 355.66 22.2
-5 6 -12 383.16 21.1
5 -6 12 429.46 21.3
5 -6 12 445.06 21.8
-6 6 -12 19.3 6.6
-6 6 -12 15 7.4
6 -6 12 23.2 6.7
6 -6 12 23.9 7.1
-7 6 -12 103.19 11.6
-7 6 -12 103.69 12.7
7 -6 12 100.89 11.6
7 -6 12 94.19 11.9
-8 6 -12 72.69 9.4
-8 6 -12 82.39 10.6
8 -6 12 82.99 10
8 -6 12 84.09 11.6
-9 6 -12 48.3 8.6
-9 6 -12 63.19 9.9
9 -6 12 65.59 9.6
9 -6 12 75.39 9.3
14 5 -12 552.74 34
14 5 -12 539.45 36.1
-14 -5 12 591.74 36.2
-14 -5 12 615.84 36.3
13 5 -12 515.75 33.4
13 5 -12 555.54 31.6
-13 -5 12 493.15 32.5
-13 -5 12 534.75 33.2
12 5 -12 60.19 14.4
12 5 -12 43.3 10.5
-12 -5 12 47.3 12.3
-12 -5 12 64.59 14.3
11 5 -12 73.09 13.9
11 5 -12 97.39 13.8
-11 -5 12 71.29 13.9
-11 -5 12 65.29 13.2
10 5 -12 200.18 17.5
10 5 -12 185.48 19.6
-10 -5 12 202.68 18.9
-10 -5 12 160.78 18.8
9 5 -12 139.49 17.4
9 5 -12 160.18 15.2
-9 -5 12 166.98 16.8
-9 -5 12 152.38 16.7
8 5 -12 124.39 15.4
8 5 -12 130.49 14.2
-8 -5 12 117.99 15.1
-8 -5 12 135.99 15.4
7 5 -12 365.56 22.3
7 5 -12 383.96 23.3
-7 -5 12 392.46 23.1
-7 -5 12 398.46 23.1
6 5 -12 101.69 12.3
6 5 -12 104.89 13
-6 -5 12 97.79 12.5
-6 -5 12 105.59 12.8
5 5 -12 409.16 22.6
5 5 -12 432.56 23.4
-5 -5 12 398.66 23
-5 -5 12 415.96 23.2
4 5 -12 1691.23 71.19
4 5 -12 1698.93 70.89
-4 -5 12 1617.84 70.79
-4 -5 12 1594.64 70.79
3 5 -12 406.16 20.4
3 5 -12 364.66 20.6
-3 -5 12 340.27 20.3
-3 -5 12 345.47 20.5
2 5 -12 2.6 5.8
2 5 -12 3.1 5.1
-2 -5 12 11.6 6.3
-2 -5 12 6 6.3
1 5 -12 281.57 17.4
1 5 -12 285.77 16.8
-1 -5 12 289.37 17.2
-1 -5 12 295.47 17.5
0 5 -12 595.44 29.4
0 5 -12 624.44 28.7
0 -5 12 594.94 29
0 -5 12 607.24 29.4
-1 5 -12 825.22 35.2
1 -5 12 708.33 34.3
1 -5 12 707.23 34.6
-2 5 -12 229.18 15.4
2 -5 12 239.58 15.3
2 -5 12 239.88 15.6
-3 5 -12 135.89 12.1
3 -5 12 128.19 11.9
3 -5 12 142.19 12.4
-4 5 -12 609.64 30.5
-4 5 -12 595.04 29.4
4 -5 12 620.34 29.6
4 -5 12 600.14 29
-5 5 -12 1272.47 56.29
-5 5 -12 1225.18 55.29
5 -5 12 1274.97 55.09
5 -5 12 1312.57 55.59
-6 5 -12 729.63 35.3
-6 5 -12 727.33 34.4
6 -5 12 719.43 34.4
6 -5 12 739.13 34
-7 5 -12 219.88 15.9
-7 5 -12 213.88 16.9
7 -5 12 204.08 15.9
7 -5 12 197.78 15.1
-8 5 -12 39.9 8.7
-8 5 -12 44 9.6
8 -5 12 45.9 8.3
8 -5 12 42.8 9.1
-9 5 -12 90.99 13.4
-9 5 -12 74.99 11.3
9 -5 12 78.09 11.9
9 -5 12 94.79 12.8
14 4 -12 696.63 38.6
14 4 -12 699.23 40.2
-14 -4 12 704.43 39.9
-14 -4 12 705.23 40
13 4 -12 440.96 30.3
13 4 -12 487.15 29.1
-13 -4 12 425.46 30.2
-13 -4 12 426.16 29.8
12 4 -12 153.38 20.4
12 4 -12 148.89 17.9
-12 -4 12 125.49 19.1
-12 -4 12 128.29 19.6
11 4 -12 43.5 12.7
11 4 -12 41.6 10.5
-11 -4 12 46.4 11
-11 -4 12 50.79 12.7
10 4 -12 80.69 12.2
10 4 -12 63.79 12
-10 -4 12 53.49 11.4
9 4 -12 382.66 23.4
9 4 -12 350.46 24.1
-9 -4 12 428.36 24.5
-9 -4 12 393.86 24.4
8 4 -12 699.33 36.2
8 4 -12 689.13 35.4
-8 -4 12 767.12 36.4
-8 -4 12 745.33 36.3
7 4 -12 23.3 8.7
7 4 -12 19.3 7.5
-7 -4 12 32.2 9
-7 -4 12 25.5 8.1
6 4 -12 269.07 17.8
6 4 -12 267.27 18.3
-6 -4 12 262.17 18.1
-6 -4 12 278.77 18.4
5 4 -12 77.19 11.2
5 4 -12 79.39 12.2
-5 -4 12 101.59 12.2
-5 -4 12 106.99 12.9
4 4 -12 50.09 8
4 4 -12 45.3 7.6
-4 -4 12 34.6 7.7
-4 -4 12 38.1 7.4
3 4 -12 195.28 13.6
3 4 -12 171.88 14
-3 -4 12 194.58 14.4
-3 -4 12 180.18 14.4
2 4 -12 353.66 19.1
2 4 -12 335.67 19.8
-2 -4 12 343.97 19.7
-2 -4 12 346.97 19.7
1 4 -12 312.37 17
1 4 -12 271.87 17.6
-1 -4 12 287.07 17.8
-1 -4 12 275.27 17.5
0 4 -12 813.22 36.6
0 4 -12 752.62 37.2
0 -4 12 826.32 37.4
0 -4 12 833.92 37.5
-1 4 -12 326.17 18.8
1 -4 12 329.97 18.7
1 -4 12 306.07 18.6
-2 4 -12 313.47 18.3
2 -4 12 289.07 17.8
2 -4 12 313.67 18.4
-3 4 -12 133.49 12.9
-3 4 -12 148.89 14.9
3 -4 12 164.98 13.5
3 -4 12 162.48 13.1
-4 4 -12 47.7 9.4
-4 4 -12 46.8 8.7
4 -4 12 71.29 9.7
4 -4 12 66.09 8.7
-5 4 -12 283.87 20.2
-5 4 -12 300.47 19.1
5 -4 12 327.17 18.6
5 -4 12 341.47 19.6
-6 4 -12 381.66 23.4
-6 4 -12 384.36 22.6
6 -4 12 407.26 21.9
6 -4 12 422.66 22.9
-7 4 -12 23.3 9.2
-7 4 -12 14.9 8.2
7 -4 12 13.3 7.4
7 -4 12 9 7.8
-8 4 -12 374.66 23.2
-8 4 -12 403.76 24.1
8 -4 12 414.96 22.6
8 -4 12 378.66 23.1
-9 4 -12 337.97 21.9
-9 4 -12 337.27 22.3
9 -4 12 305.47 24.4
9 -4 12 330.57 20.7
14 3 -12 149.49 19.3
14 3 -12 137.39 17.4
-14 -3 12 126.59 18.1
13 3 -12 178.48 22.3
13 3 -12 191.48 20.1
-13 -3 12 148.49 20.7
12 3 -12 60.99 14.4
12 3 -12 60.19 12.5
-12 -3 12 55.19 13.3
-12 -3 12 38.5 12.2
11 3 -12 129.19 16
11 3 -12 91.89 13.3
-11 -3 12 120.89 17.9
-11 -3 12 121.49 14.9
10 3 -12 333.77 23.1
10 3 -12 345.77 21.7
-10 -3 12 304.77 22.5
-10 -3 12 291.37 22.2
9 3 -12 808.22 38.4
9 3 -12 789.22 39.1
-9 -3 12 772.62 38.8
-9 -3 12 780.22 39.2
8 3 -12 1822.02 79.29
8 3 -12 1785.52 79.59
-8 -3 12 1886.61 79.89
-8 -3 12 1873.01 79.89
7 3 -12 185.08 16.1
7 3 -12 182.88 15.5
-7 -3 12 181.28 16
-7 -3 12 197.38 16.3
6 3 -12 1182.98 51.49
6 3 -12 1187.88 51.89
-6 -3 12 1105.39 51.49
-6 -3 12 1126.99 51.69
5 3 -12 462.95 23
5 3 -12 464.05 24
-5 -3 12 376.16 23.1
-5 -3 12 387.96 23.1
4 3 -12 47.3 7.4
4 3 -12 32.4 7.4
-4 -3 12 46.9 7.8
-4 -3 12 40.6 7.4
3 3 -12 314.27 18.4
3 3 -12 308.37 19.4
-3 -3 12 324.57 19.4
-3 -3 12 333.37 19.2
2 3 -12 3.9 5.5
2 3 -12 -0.6 5.4
-2 -3 12 0.6 6.4
-2 -3 12 2.1 5.9
1 3 -12 6.8 5.3
1 3 -12 11.2 6.5
-1 -3 12 2.8 6.5
-1 -3 12 2.9 6
0 3 -12 6.3 6.7
0 -3 12 7.8 6.7
0 -3 12 9.4 6.4
-1 3 -12 125.89 12.5
1 -3 12 129.09 12.3
1 -3 12 128.49 12.6
-2 3 -12 62.99 10.7
-2 3 -12 51.09 8.2
2 -3 12 46.7 7.6
2 -3 12 61.69 9.2
-3 3 -12 266.87 19.7
-3 3 -12 275.77 18.3
3 -3 12 309.77 18.7
3 -3 12 290.57 17.7
-4 3 -12 97.09 13
-4 3 -12 110.29 14.6
4 -3 12 124.89 13.3
4 -3 12 123.89 12.3
-5 3 -12 19 8.5
-5 3 -12 23.3 8.2
5 -3 12 43 8.1
5 -3 12 47.7 9.1
-6 3 -12 72.29 10.8
-6 3 -12 66.89 10.7
6 -3 12 101.99 12.4
6 -3 12 87.79 13.3
-7 3 -12 -0.3 8.4
-7 3 -12 10.1 8.3
7 -3 12 8.1 8.1
7 -3 12 15.2 8.1
-8 3 -12 185.18 18.6
-8 3 -12 187.08 17.7
8 -3 12 201.38 18.3
8 -3 12 185.38 16.5
-9 3 -12 271.97 21.6
-9 3 -12 274.37 21.2
9 -3 12 296.67 19.8
9 -3 12 272.27 24.4
14 2 -12 32 13.8
14 2 -12 48.5 15
-14 -2 12 31.3 13.4
-14 -2 12 27.1 11.9
13 2 -12 164.58 22.3
13 2 -12 182.88 20.5
-13 -2 12 180.38 21.1
-13 -2 12 162.98 20.7
12 2 -12 15.5 11.1
12 2 -12 23.7 10.6
-12 -2 12 20.1 10.6
-12 -2 12 26.7 12.4
11 2 -12 470.75 28.6
11 2 -12 460.95 26.9
-11 -2 12 432.96 28
-11 -2 12 475.55 28.5
10 2 -12 819.72 40.1
10 2 -12 812.02 39.2
-10 -2 12 763.22 39.6
-10 -2 12 789.92 40
9 2 -12 654.83 33.4
9 2 -12 614.74 33.8
-9 -2 12 661.33 34.2
-9 -2 12 711.23 34.5
8 2 -12 103.49 14.5
8 2 -12 112.29 13.8
-8 -2 12 130.59 14.9
-8 -2 12 129.99 15.1
7 2 -12 427.46 24.1
7 2 -12 443.86 23.6
-7 -2 12 387.56 23.7
-7 -2 12 413.96 24.1
6 2 -12 1986.2 82.49
6 2 -12 1940.71 81.79
-6 -2 12 1880.11 82.09
-6 -2 12 1890.51 82.39
5 2 -12 1672.13 70.79
5 2 -12 1718.63 70.09
-5 -2 12 1558.24 70.09
-5 -2 12 1563.64 70.29
4 2 -12 677.43 32.4
4 2 -12 668.53 33.4
-4 -2 12 701.93 33.4
-4 -2 12 671.73 33.1
3 2 -12 512.25 27.4
3 2 -12 566.44 26.7
-3 -2 12 504.45 27.1
-3 -2 12 535.45 27.5
2 2 -12 53.49 7.8
2 2 -12 59.19 8.7
-2 -2 12 56.99 9.2
-2 -2 12 49.99 8.6
1 2 -12 1083.09 48
-1 -2 12 1065.89 47.9
-1 -2 12 1029.1 47.8
0 2 -12 1089.99 50.49
0 -2 12 1165.28 50.69
0 -2 12 1140.79 50.39
-1 2 -12 105.59 12.4
1 -2 12 98.79 12.5
1 -2 12 107.79 11.9
-2 2 -12 52.09 10.3
-2 2 -12 58.59 9.9
2 -2 12 47.1 8.7
2 -2 12 54.09 9.7
-3 2 -12 275.57 18.8
-3 2 -12 276.17 20.1
3 -2 12 272.77 17.8
3 -2 12 291.57 18.9
-4 2 -12 302.57 21.1
-4 2 -12 283.87 19.6
4 -2 12 290.97 19.6
4 -2 12 282.87 18.4
-5 2 -12 244.48 18.2
-5 2 -12 243.88 19.5
5 -2 12 216.18 17.8
5 -2 12 226.78 16.9
-6 2 -12 9.9 8.6
-6 2 -12 15.4 8.5
6 -2 12 14 8.6
6 -2 12 19.4 7.9
-7 2 -12 28.4 10.2
-7 2 -12 16.4 10
7 -2 12 36.5 10.3
-8 2 -12 59.99 11.7
-8 2 -12 65.99 13.1
8 -2 12 64.29 13.5
-9 2 -12 226.78 20.2
-9 2 -12 209.78 21.4
9 -2 12 220.78 19.4
9 -2 12 237.58 24.5
14 1 -12 19.4 14.4
14 1 -12 28.3 14.4
-14 -1 12 21.7 12.8
-14 -1 12 31.1 13.2
13 1 -12 17.6 10.4
13 1 -12 12.5 12.4
-13 -1 12 17.3 11.4
-13 -1 12 25.1 12.9
12 1 -12 -3.3 10.9
12 1 -12 0.5 8.6
-12 -1 12 -2.2 9.5
-12 -1 12 2.3 11
11 1 -12 112.79 15.8
11 1 -12 120.39 15.4
-11 -1 12 87.69 13
-11 -1 12 145.59 16.8
10 1 -12 126.39 15.3
10 1 -12 120.09 16.7
-10 -1 12 128.29 15.5
-10 -1 12 119.19 16.7
9 1 -12 207.78 17
9 1 -12 197.78 18.3
-9 -1 12 226.78 18.7
-9 -1 12 217.48 18.5
8 1 -12 280.87 18.8
8 1 -12 264.37 19.4
-8 -1 12 272.67 19.6
-8 -1 12 290.47 20.1
7 1 -12 23.9 7.9
7 1 -12 40.5 8.3
-7 -1 12 12.8 7.2
-7 -1 12 16.2 7.9
6 1 -12 117.69 13.2
6 1 -12 123.69 14.3
-6 -1 12 167.18 15.2
-6 -1 12 155.48 14.4
5 1 -12 342.87 22.2
5 1 -12 374.26 21.8
-5 -1 12 424.96 23.1
-5 -1 12 400.86 22.5
4 1 -12 134.09 14
4 1 -12 137.09 13.2
-4 -1 12 147.89 14
-4 -1 12 145.09 14.6
3 1 -12 61.19 8.8
3 1 -12 55.19 9.6
-3 -1 12 55.19 9.2
-3 -1 12 60.29 9.5
2 1 -12 899.01 42.2
-2 -1 12 921.81 42.2
-2 -1 12 907.61 42.3
1 1 -12 2163.48 93.89
-1 -1 12 2292.57 94.19
-1 -1 12 2206.78 93.69
0 1 -12 1717.73 74.99
0 -1 12 1734.13 74.59
0 -1 12 1776.22 75.09
-1 1 -12 288.47 20.1
-1 1 -12 267.57 18.2
1 -1 12 229.28 16.8
1 -1 12 244.48 17.9
-2 1 -12 463.05 25.3
-2 1 -12 448.36 26.7
2 -1 12 446.76 25.3
2 -1 12 443.56 24.3
-3 1 -12 473.65 26.8
-3 1 -12 530.45 28.4
3 -1 12 487.15 26.8
3 -1 12 451.25 25.5
-4 1 -12 444.56 26.5
-4 1 -12 486.55 28
4 -1 12 469.45 25.5
4 -1 12 477.15 26.7
-5 1 -12 157.18 17
-5 1 -12 153.88 17.8
5 -1 12 174.58 15.8
5 -1 12 190.78 17.1
-6 1 -12 3.2 9.5
-6 1 -12 7.4 9
6 -1 12 9.8 8.2
6 -1 12 4.7 8.9
-7 1 -12 120.09 14.5
-7 1 -12 86.79 13.6
7 -1 12 79.09 11.5
7 -1 12 67.39 11.9
-8 1 -12 65.29 12.6
-8 1 -12 67.79 14
8 -1 12 75.59 12.1
8 -1 12 64.39 14.5
14 0 -12 464.35 32.9
14 0 -12 454.25 31.9
-14 0 12 487.05 31.4
-14 0 12 483.45 31.6
13 0 -12 94.59 15
13 0 -12 118.99 17.1
-13 0 12 119.59 16.9
-13 0 12 94.79 15.7
12 0 -12 63.99 14.1
12 0 -12 58.29 12.3
-12 0 12 82.79 14.9
-12 0 12 42.1 12.4
11 0 -12 452.55 27
11 0 -12 461.55 28.9
-11 0 12 454.35 28.8
-11 0 12 489.75 29
10 0 -12 130.99 18.1
10 0 -12 153.98 15.9
-10 0 12 184.98 18.4
-10 0 12 174.88 18.6
9 0 -12 77.09 11.3
9 0 -12 59.99 11.3
-9 0 12 68.19 12.5
-9 0 12 77.19 12.4
8 0 -12 16.8 7.6
8 0 -12 26.7 9.8
-8 0 12 21 9.6
-8 0 12 18.5 9.3
7 0 -12 129.79 15.1
7 0 -12 131.69 13.7
-7 0 12 125.99 15.2
-7 0 12 119.39 14.3
6 0 -12 635.64 30.7
6 0 -12 586.44 31.7
-6 0 12 624.74 32
-6 0 12 620.84 31.5
5 0 -12 167.88 15.9
5 0 -12 206.88 15.5
-5 0 12 200.28 16.2
-5 0 12 202.68 16.9
4 0 -12 149.29 14.6
-4 0 12 139.99 14.4
-4 0 12 154.08 15.3
3 0 -12 7.3 6.9
-3 0 12 22.5 8.5
-3 0 12 8.3 6.7
2 0 -12 334.27 20.6
-2 0 12 316.37 20.1
-2 0 12 318.97 20.5
1 0 -12 940.01 44.5
-1 0 12 969.2 44
-1 0 12 962.7 44.6
0 0 -12 920.61 42.8
0 0 -12 925.21 44.1
0 0 12 881.71 41.8
0 0 12 895.81 42.5
-1 0 -12 70.79 12.3
-1 0 -12 48.8 9.6
1 0 12 49.5 9.1
1 0 12 50.79 9.9
-2 0 -12 463.25 27.3
-2 0 -12 412.86 25.2
2 0 12 433.66 25.3
2 0 12 448.96 24.4
-3 0 -12 427.26 26.3
-3 0 -12 410.66 25
3 0 12 384.76 24.5
3 0 12 393.56 23.3
-4 0 -12 347.67 24.8
-4 0 -12 326.77 23.7
4 0 12 408.16 24.1
4 0 12 389.46 22.8
-5 0 -12 574.94 34.4
-5 0 -12 593.14 33.7
5 0 12 667.43 32.7
5 0 12 691.33 34.4
-6 0 -12 131.89 16.6
-6 0 -12 154.98 18.4
6 0 12 160.28 18.8
6 0 12 147.09 16.8
-7 0 -12 93.39 14.6
-7 0 -12 86.99 13.3
7 0 12 104.39 15.1
-8 0 -12 246.98 24.3
-8 0 -12 244.68 22.8
8 0 12 269.57 27.3
13 -1 -12 49.99 13.6
13 -1 -12 33.4 13.6
-13 1 12 40.9 13.6
-13 1 12 44.9 13.1
12 -1 -12 514.65 29
12 -1 -12 526.65 31.3
-12 1 12 472.95 30.4
-12 1 12 464.05 30.8
11 -1 -12 1679.63 71.19
11 -1 -12 1604.14 72.19
-11 1 12 1600.54 72.09
-11 1 12 1561.24 71.89
10 -1 -12 652.93 32.8
10 -1 -12 651.63 34.3
-10 1 12 612.84 34.1
-10 1 12 613.14 33.8
9 -1 -12 108.79 16.2
9 -1 -12 118.29 14.6
-9 1 12 120.79 16.8
-9 1 12 130.39 16.5
8 -1 -12 22.8 8.1
8 -1 -12 13.4 8.4
-8 1 12 35.9 10.7
-8 1 12 20.8 8.5
7 -1 -12 148.99 15
7 -1 -12 148.49 16.6
-7 1 12 170.18 16.4
-7 1 12 194.58 17.8
6 -1 -12 121.79 15.1
6 -1 -12 133.09 14.1
-6 1 12 138.39 15.1
-6 1 12 130.49 16.2
5 -1 -12 55.79 10
-5 1 12 74.59 11.4
-5 1 12 62.69 10.1
4 -1 -12 24.5 8.5
-4 1 12 25.1 8.1
-4 1 12 27.7 9.5
3 -1 -12 110.39 14.1
-3 1 12 104.09 13.8
-3 1 12 105.99 14.1
2 -1 -12 137.69 14.9
-2 1 12 134.69 15
-2 1 12 132.59 14
1 -1 -12 116.79 14.5
1 -1 -12 69.49 11.4
-1 1 12 96.99 13.3
-1 1 12 102.59 14.3
0 -1 -12 132.69 15.8
0 -1 -12 145.99 18
0 1 12 142.89 14.5
0 1 12 143.39 16.1
-1 -1 -12 11.5 9
-1 -1 -12 12.7 9.9
1 1 12 8 8.3
1 1 12 5.5 8.7
-2 -1 -12 338.07 24.6
-2 -1 -12 356.36 23.3
2 1 12 339.97 21.8
2 1 12 355.06 23.1
-3 -1 -12 583.54 32.4
-3 -1 -12 559.64 31
3 1 12 542.15 30.6
3 1 12 524.55 29.1
-4 -1 -12 142.09 18
-4 -1 -12 126.39 19
4 1 12 154.78 16.7
4 1 12 151.58 17.5
-5 -1 -12 114.69 16.3
-5 -1 -12 103.19 13.9
5 1 12 163.38 18.6
5 1 12 130.49 17.2
-6 -1 -12 6.9 12.4
-6 -1 -12 -1.2 10.6
6 1 12 5.1 10.8
-7 -1 -12 289.37 25.7
-7 -1 -12 279.07 24.2
7 1 12 257.17 26.6
13 -2 -12 43.5 14
13 -2 -12 46.5 13.3
-13 2 12 59.49 15.1
-13 2 12 36.6 12.5
12 -2 -12 345.27 23.7
12 -2 -12 349.37 26.1
-12 2 12 300.77 25.6
-12 2 12 310.07 25.5
11 -2 -12 529.75 29.1
11 -2 -12 484.55 30.4
-11 2 12 509.05 30.3
-11 2 12 452.15 30.1
10 -2 -12 457.95 28
10 -2 -12 428.26 26.2
-10 2 12 474.45 28.7
-10 2 12 454.65 27.7
9 -2 -12 58.29 11.2
9 -2 -12 32 9.7
-9 2 12 58.09 13
-9 2 12 43.3 9.9
8 -2 -12 219.98 17.9
8 -2 -12 208.78 19.5
-8 2 12 238.88 19.1
-8 2 12 243.58 20.3
7 -2 -12 1181.48 56.99
-7 2 12 1264.87 57.09
-7 2 12 1319.27 57.79
6 -2 -12 1580.74 72.69
-6 2 12 1733.23 73.29
5 -2 -12 227.28 18.7
-5 2 12 223.68 19
-5 2 12 211.28 18.1
4 -2 -12 55.59 10.3
-4 2 12 70.29 11.5
-4 2 12 52.09 9.8
3 -2 -12 407.46 24.4
-3 2 12 383.56 24.3
-3 2 12 391.26 23.7
2 -2 -12 657.03 36.1
2 -2 -12 668.43 34.7
-2 2 12 718.43 35
-2 2 12 643.74 33.6
1 -2 -12 623.64 32.4
1 -2 -12 609.14 34
-1 2 12 600.34 32.3
-1 2 12 577.54 30.9
0 -2 -12 11.1 10
0 -2 -12 4.3 8.7
0 2 12 2.6 7.7
0 2 12 2.6 8.4
-1 -2 -12 225.48 21.6
-1 -2 -12 232.78 20.4
1 2 12 253.47 20
-2 -2 -12 18.2 10.5
-2 -2 -12 21.7 11.8
2 2 12 28.7 10.5
2 2 12 19.6 8.9
-3 -2 -12 157.88 18.8
-3 -2 -12 170.28 20.6
3 2 12 149.69 17
3 2 12 187.48 18.8
-4 -2 -12 107.49 14.4
-4 -2 -12 139.99 18
4 2 12 80.29 12.2
4 2 12 122.39 15.7
-5 -2 -12 22.6 13.8
-5 -2 -12 24.7 11.2
5 2 12 19.4 12.1
-6 -2 -12 17.8 11.3
-6 -2 -12 21 14
6 2 12 13.8 13.1
-7 -2 -12 112.29 18.1
-7 -2 -12 98.39 15.4
7 2 12 121.19 19.9
12 -3 -12 114.59 16.6
12 -3 -12 112.59 16.2
-12 3 12 87.89 15.2
-12 3 12 124.99 16.6
11 -3 -12 68.09 12.7
11 -3 -12 88.99 12.7
-11 3 12 79.49 13.1
-11 3 12 102.39 15.8
10 -3 -12 36 11.4
10 -3 -12 32.8 12.5
-10 3 12 32.5 11.5
-10 3 12 30.1 12.7
9 -3 -12 32 10.5
-9 3 12 22.8 9.7
-9 3 12 62.69 13.4
8 -3 -12 135.09 18.1
-8 3 12 126.69 15.9
-8 3 12 130.59 17.6
7 -3 -12 431.66 27.6
-7 3 12 491.15 27.8
-7 3 12 461.25 28.1
6 -3 -12 414.76 26.3
-6 3 12 428.56 26
-6 3 12 446.16 26.9
5 -3 -12 90.79 12.8
-5 3 12 55.29 11.1
-5 3 12 59.89 11.9
4 -3 -12 381.96 25.7
4 -3 -12 350.46 23.5
-4 3 12 353.86 23.1
-4 3 12 353.76 23.7
3 -3 -12 174.68 19.6
-3 3 12 149.09 16.3
-3 3 12 154.48 17.8
2 -3 -12 368.66 26.4
2 -3 -12 362.76 25.2
-2 3 12 425.96 25.8
-2 3 12 401.06 24
1 -3 -12 426.86 26.8
1 -3 -12 403.96 28.1
-1 3 12 452.25 26.8
-1 3 12 411.36 25.2
0 -3 -12 61.29 12.1
0 -3 -12 79.19 14.7
0 3 12 66.49 13
0 3 12 41.9 10.2
-1 -3 -12 144.69 18.5
-1 -3 -12 136.79 20.2
1 3 12 152.18 18.6
1 3 12 146.29 16.8
-2 -3 -12 35.4 10.9
-2 -3 -12 61.29 14.9
2 3 12 61.29 13.6
2 3 12 49.99 10.8
-3 -3 -12 283.47 25.2
-3 -3 -12 267.87 24
3 3 12 339.77 24.3
3 3 12 316.17 23
-4 -3 -12 28.9 12.9
-4 -3 -12 45.5 13.5
4 3 12 31.4 11.5
-5 -3 -12 -3.2 13.4
-5 -3 -12 8 11.5
5 3 12 4.8 12
-6 -3 -12 9.4 13.8
-6 -3 -12 12 13.3
6 3 12 9.1 13.6
12 -4 -12 62.79 13.7
-12 4 12 84.89 14.7
-12 4 12 68.29 15.3
11 -4 -12 15.4 12
-11 4 12 13.6 11.1
-11 4 12 16.2 13.1
10 -4 -12 80.49 13.5
-10 4 12 101.79 15.7
-10 4 12 96.49 14.4
9 -4 -12 51.29 13.8
-9 4 12 47.8 12.4
-9 4 12 50.89 12.8
8 -4 -12 18.3 10.4
-8 4 12 5 9.3
-8 4 12 7.4 11.4
7 -4 -12 121.59 18
-7 4 12 124.89 17.9
-7 4 12 131.49 18.4
6 -4 -12 202.48 19.6
-6 4 12 190.98 19.1
-6 4 12 199.78 20.1
5 -4 -12 97.79 14.9
5 -4 -12 55.29 10.8
-5 4 12 63.89 10.8
-5 4 12 90.99 13.1
4 -4 -12 17.9 11.2
4 -4 -12 8.8 10.6
-4 4 12 2 9.6
-4 4 12 1.5 9.2
3 -4 -12 260.97 23.9
3 -4 -12 250.77 22.5
-3 4 12 311.97 23.3
-3 4 12 311.47 21.5
2 -4 -12 252.37 22.5
2 -4 -12 227.48 23.5
-2 4 12 338.37 23.6
-2 4 12 331.17 21.9
1 -4 -12 258.97 22.7
1 -4 -12 267.57 24
-1 4 12 248.28 21
-1 4 12 282.27 23
0 -4 -12 202.48 22.6
0 -4 -12 205.28 21.3
0 4 12 231.88 21
0 4 12 199.58 19.2
-1 -4 -12 295.87 26.9
-1 -4 -12 347.57 25.6
1 4 12 337.57 24.1
1 4 12 364.06 25.9
-2 -4 -12 514.95 31.1
-2 -4 -12 549.65 33
2 4 12 437.66 29.2
2 4 12 452.55 30.2
-3 -4 -12 195.28 23.9
-3 -4 -12 182.58 22.3
3 4 12 177.88 22.4
-4 -4 -12 -3.4 13.3
-4 -4 -12 12.7 13.1
4 4 12 11.4 12.7
-5 -4 -12 28.9 13.1
-5 -4 -12 32.7 15.4
5 4 12 32.6 13.5
11 -5 -12 143.89 21.7
-11 5 12 173.58 21.6
-11 5 12 164.58 22
10 -5 -12 105.59 16.4
-10 5 12 81.59 14.8
-10 5 12 96.79 15.3
9 -5 -12 6.2 11.4
-9 5 12 -0.6 10.6
-9 5 12 4.8 10.8
8 -5 -12 290.37 24.2
-8 5 12 289.57 23.6
-8 5 12 280.27 24
7 -5 -12 209.58 23.5
7 -5 -12 197.78 21.2
-7 5 12 220.08 21.5
-7 5 12 200.88 20.6
6 -5 -12 89.29 13.9
6 -5 -12 83.09 13.9
-6 5 12 128.69 18.3
-6 5 12 90.99 13.7
5 -5 -12 39.4 11.2
5 -5 -12 62.39 15.3
-5 5 12 37.5 10.5
-5 5 12 61.09 14.2
4 -5 -12 30.6 12.8
4 -5 -12 42.9 13.7
-4 5 12 59.39 13.1
-4 5 12 32.5 11.8
3 -5 -12 373.96 27.1
3 -5 -12 365.96 28.2
-3 5 12 397.26 25.3
-3 5 12 394.46 27.4
2 -5 -12 94.39 15.3
2 -5 -12 69.69 13.9
-2 5 12 76.39 13.6
-2 5 12 136.39 17.7
1 -5 -12 3.3 12.9
1 -5 -12 6.6 11
-1 5 12 1.7 10.8
-1 5 12 7.6 11.8
0 -5 -12 36.1 12.7
0 -5 -12 45.3 12.7
0 5 12 43.1 12.3
0 5 12 39.5 11.4
-1 -5 -12 15.4 12.2
-1 -5 -12 26.8 12.9
1 5 12 31.3 12
1 5 12 13.1 10.8
-2 -5 -12 419.46 31.6
-2 -5 -12 447.16 29.8
2 5 12 380.16 28.4
2 5 12 399.06 29.6
-3 -5 -12 438.96 32.5
-3 -5 -12 403.96 30.6
3 5 12 396.36 30.3
-4 -5 -12 89.19 18.7
-4 -5 -12 69.19 17.6
4 5 12 53.79 16
9 -6 -12 36.5 17.1
9 -6 -12 32.8 13.1
-9 6 12 34.9 12.2
-9 6 12 41.2 13.2
8 -6 -12 316.47 29.1
8 -6 -12 317.27 26.4
-8 6 12 322.17 25.7
-8 6 12 329.57 26.5
7 -6 -12 204.68 26
7 -6 -12 182.28 22.6
-7 6 12 211.48 22.2
-7 6 12 232.18 23.5
6 -6 -12 143.89 18.7
6 -6 -12 92.09 14.3
-6 6 12 71.29 13.1
-6 6 12 116.69 15.8
5 -6 -12 110.29 17.7
5 -6 -12 123.19 17.7
-5 6 12 116.89 16.3
-5 6 12 118.19 17.8
4 -6 -12 66.99 14.8
4 -6 -12 58.19 13.3
-4 6 12 45.4 11.4
-4 6 12 61.79 13.4
3 -6 -12 39.2 13.9
3 -6 -12 34.4 12.9
-3 6 12 68.19 14.6
-3 6 12 50.39 11.9
2 -6 -12 1.9 13.9
2 -6 -12 0.6 11.7
-2 6 12 15.3 14
-2 6 12 1.1 10.7
1 -6 -12 11.5 13.1
1 -6 -12 -1.7 14.1
-1 6 12 11 13.1
-1 6 12 2.1 12.2
0 -6 -12 -4.3 11.8
0 -6 -12 -1.2 13.1
0 6 12 -6.3 11.4
0 6 12 0.6 11.3
-1 -6 -12 7.4 13.4
-1 -6 -12 8.5 12.7
1 6 12 19.4 13.4
1 6 12 12 12.3
-2 -6 -12 55.59 15.1
-2 -6 -12 29.3 15.1
2 6 12 31.4 13.7
7 -7 -12 362.56 32.5
7 -7 -12 323.57 27.5
-7 7 12 330.57 27.8
-7 7 12 342.47 27.4
6 -7 -12 234.48 26.7
6 -7 -12 244.48 25
-6 7 12 211.38 24.2
-6 7 12 236.88 24
5 -7 -12 92.09 17.9
5 -7 -12 80.69 15.8
-5 7 12 79.69 14.4
-5 7 12 113.59 18.3
4 -7 -12 392.16 30.8
-4 7 12 345.07 27.5
-4 7 12 369.66 29.4
3 -7 -12 122.99 19.2
3 -7 -12 88.59 16.1
-3 7 12 65.19 14
-3 7 12 84.29 16.6
2 -7 -12 79.49 15.6
2 -7 -12 117.89 18.1
-2 7 12 91.99 16.3
-2 7 12 107.99 16.1
1 -7 -12 1.8 15.3
1 -7 -12 12.5 15.6
-1 7 12 3.5 14.4
-1 7 12 6 13.5
0 -7 -12 16.8 16.7
0 -7 -12 11.4 14.4
0 7 12 16.2 15.4
0 7 12 8.5 13.7
3 15 -13 44.6 11.4
3 15 -13 40.3 13
-3 -15 13 56.59 15.1
-3 -15 13 44.8 12.2
2 15 -13 249.68 21
2 15 -13 213.58 22.8
-2 -15 13 326.47 25.9
-2 -15 13 303.97 22.7
1 15 -13 360.76 23.5
1 15 -13 370.86 25.7
-1 -15 13 357.76 26.9
-1 -15 13 351.66 24.5
0 15 -13 125.09 17.6
0 15 -13 122.69 15.2
0 -15 13 106.39 15.6
0 -15 13 138.89 16.5
-1 15 -13 13 9.5
-1 15 -13 12.9 8.6
1 -15 13 15.4 8.6
1 -15 13 17.9 11.7
6 14 -13 67.19 14.8
6 14 -13 43 14
-6 -14 13 44.4 15.9
-6 -14 13 30.4 12.7
5 14 -13 16.1 12.1
5 14 -13 10.3 10.3
-5 -14 13 30.4 12.2
-5 -14 13 16.2 12.9
4 14 -13 36.5 13.6
-4 -14 13 38.8 12.3
-4 -14 13 23.6 12.9
3 14 -13 9.4 10.8
3 14 -13 7.2 8.8
-3 -14 13 9.5 11.9
-3 -14 13 12.3 10.1
2 14 -13 52.79 12
2 14 -13 98.79 12.6
-2 -14 13 86.39 13.9
-2 -14 13 68.19 11.5
1 14 -13 194.48 19
1 14 -13 202.68 17.4
-1 -14 13 224.78 21.1
-1 -14 13 223.88 18.5
0 14 -13 48.3 10.6
0 14 -13 52.69 9.4
0 -14 13 58.19 12.7
0 -14 13 58.89 10.6
-1 14 -13 12.7 8
-1 14 -13 17 9
1 -14 13 0.5 10.6
1 -14 13 12.8 8
-2 14 -13 63.89 10.2
-2 14 -13 53.09 9
2 -14 13 51.59 9.1
2 -14 13 50.19 10
-3 14 -13 116.69 14
-3 14 -13 109.69 11.8
3 -14 13 99.09 13.1
3 -14 13 97.29 12.2
8 13 -13 89.89 16.1
8 13 -13 126.69 16.7
-8 -13 13 123.49 17.1
-8 -13 13 75.99 14.8
7 13 -13 496.05 30.3
7 13 -13 428.16 31
-7 -13 13 397.66 30.1
-7 -13 13 444.36 30.4
6 13 -13 165.08 21.3
6 13 -13 156.58 19.7
-6 -13 13 163.08 21.5
-6 -13 13 176.48 21
5 13 -13 207.58 21.5
5 13 -13 208.38 20.2
-5 -13 13 221.48 20.7
-5 -13 13 225.98 21.8
4 13 -13 123.39 15.7
4 13 -13 103.39 15.6
-4 -13 13 90.99 13.6
-4 -13 13 121.39 17.7
3 13 -13 29.8 8.9
3 13 -13 21.1 9.8
-3 -13 13 27.1 10
-3 -13 13 19.7 9.3
2 13 -13 124.49 16.8
2 13 -13 139.29 15
-2 -13 13 140.09 16.2
-2 -13 13 141.49 16.4
1 13 -13 14.7 8.6
1 13 -13 17.9 7.8
-1 -13 13 12.8 8.1
-1 -13 13 23.3 9.1
0 13 -13 17.3 8
0 13 -13 12.1 8.3
0 -13 13 12 8.3
0 -13 13 11.3 7.7
-1 13 -13 36.4 8.9
-1 13 -13 41.5 8.8
1 -13 13 56.19 9.2
1 -13 13 43.6 9
-2 13 -13 7.6 6.8
-2 13 -13 5.8 7.3
2 -13 13 8 6.8
2 -13 13 6.3 7.2
-3 13 -13 9.5 7.1
-3 13 -13 15.1 6.5
3 -13 13 21.4 7
3 -13 13 16.7 7.3
-4 13 -13 40.7 7.9
-4 13 -13 45.8 7.4
4 -13 13 69.09 8.6
-5 13 -13 124.89 11.6
5 -13 13 97.09 10
5 -13 13 85.89 10.4
9 12 -13 25 12.3
9 12 -13 48.4 16.7
-9 -12 13 23.2 12.7
-9 -12 13 40.1 15.7
8 12 -13 75.59 14
8 12 -13 91.59 13.9
-8 -12 13 143.59 21.4
-8 -12 13 100.79 14.3
7 12 -13 678.53 36.9
7 12 -13 695.73 38.2
-7 -12 13 658.93 37.3
-7 -12 13 676.83 37.5
6 12 -13 580.84 34.2
6 12 -13 577.64 32.8
-6 -12 13 621.04 33.5
-6 -12 13 581.34 33.5
5 12 -13 363.46 26.3
5 12 -13 412.26 25.1
-5 -12 13 394.26 25.9
-5 -12 13 414.76 26.3
4 12 -13 41.1 9.5
4 12 -13 51.29 12.1
-4 -12 13 29.1 9.5
-4 -12 13 36.9 10.6
3 12 -13 530.45 28.6
3 12 -13 550.94 30.1
-3 -12 13 527.55 29.5
-3 -12 13 552.44 29.6
2 12 -13 994.1 46.9
2 12 -13 1038.9 48.2
-2 -12 13 1063.19 47.8
-2 -12 13 1032.2 47.7
1 12 -13 136.39 14.2
1 12 -13 116.19 15.4
-1 -12 13 174.88 15.8
-1 -12 13 152.98 14.8
0 12 -13 54.49 9.8
0 12 -13 67.39 9.6
0 -12 13 74.39 10.1
0 -12 13 64.79 9.8
-1 12 -13 18.7 7.9
-1 12 -13 15.6 7.3
1 -12 13 14.2 7.6
1 -12 13 13 7.1
-2 12 -13 81.79 11
-2 12 -13 71.29 9.8
2 -12 13 98.39 12.4
2 -12 13 86.19 11.6
-3 12 -13 102.29 10.9
-3 12 -13 106.59 12.1
3 -12 13 133.79 12.6
3 -12 13 121.39 11.8
-4 12 -13 53.19 8.2
-4 12 -13 46.2 7
4 -12 13 57.59 8.4
4 -12 13 57.09 7.6
-5 12 -13 228.48 14.7
5 -12 13 246.08 14.4
5 -12 13 235.18 14.5
-6 12 -13 57.79 8.1
-6 12 -13 66.59 8.9
6 -12 13 69.59 8.2
6 -12 13 67.49 8.8
10 11 -13 14.1 13.7
10 11 -13 21 15.3
-10 -11 13 11.3 14.1
-10 -11 13 19.5 14.3
9 11 -13 17.3 13.3
9 11 -13 10.9 10.9
-9 -11 13 25.5 13.3
-9 -11 13 20.2 11.3
8 11 -13 319.47 26.3
8 11 -13 305.47 24.2
-8 -11 13 335.17 25.3
-8 -11 13 313.67 25.5
7 11 -13 655.83 37.6
7 11 -13 670.73 36
-7 -11 13 668.93 37
-7 -11 13 723.83 37.1
6 11 -13 342.97 22
6 11 -13 311.07 23.4
-6 -11 13 275.07 22.2
-6 -11 13 253.77 21.5
5 11 -13 -1.5 8.6
5 11 -13 -1.3 7.7
-5 -11 13 -2.1 8.2
-5 -11 13 0.2 8.3
4 11 -13 292.77 19.6
4 11 -13 296.67 21.4
-4 -11 13 275.47 20.5
-4 -11 13 271.07 20.3
3 11 -13 1124.79 51.19
3 11 -13 1131.79 52.29
-3 -11 13 1176.68 51.99
-3 -11 13 1116.69 51.89
2 11 -13 1041.7 46.9
2 11 -13 1048.8 47.7
-2 -11 13 1038.4 47.4
-2 -11 13 989.9 47.1
1 11 -13 124.69 14.4
1 11 -13 125.99 13.9
-1 -11 13 147.69 14.6
-1 -11 13 169.98 14.7
0 11 -13 201.58 16
0 11 -13 195.18 15.3
0 -11 13 203.28 15.9
0 -11 13 200.28 15.8
-1 11 -13 164.38 13.7
-1 11 -13 174.58 14.7
1 -11 13 176.78 14.4
1 -11 13 182.38 14.5
-2 11 -13 282.37 18.2
-2 11 -13 272.17 17.3
2 -11 13 336.17 18.6
2 -11 13 335.87 18.5
-3 11 -13 282.27 17.9
-3 11 -13 284.97 17.2
3 -11 13 336.47 18.5
3 -11 13 345.07 18.1
-4 11 -13 41.8 7.8
4 -11 13 54.29 8.1
4 -11 13 55.69 7.6
-5 11 -13 39.8 6.9
5 -11 13 35.3 6.7
5 -11 13 32.4 7
-6 11 -13 120.49 10.5
-6 11 -13 89.49 11.6
6 -11 13 105.59 9.8
-7 11 -13 64.59 9.5
-7 11 -13 64.99 8.4
7 -11 13 60.39 8.5
7 -11 13 73.39 8.1
11 10 -13 38.9 13
11 10 -13 48 14.6
-11 -10 13 45.7 14.7
-11 -10 13 45.2 13.9
10 10 -13 51.79 13.9
10 10 -13 43.5 14.1
-10 -10 13 37.4 13.5
-10 -10 13 45.2 14.4
9 10 -13 11.6 10.6
9 10 -13 10.9 11.7
-9 -10 13 14.9 10.8
-9 -10 13 13.3 11.8
8 10 -13 9.3 9.4
8 10 -13 15.1 11.2
-8 -10 13 4.5 10.5
-8 -10 13 12.7 9.8
7 10 -13 89.29 13.3
7 10 -13 74.89 13.4
-7 -10 13 76.69 12.9
-7 -10 13 95.99 14
6 10 -13 43.4 9.2
6 10 -13 39.7 10.8
-6 -10 13 42.4 9.6
-6 -10 13 46.4 10.7
5 10 -13 15 8.8
5 10 -13 4.1 7
-5 -10 13 14 8.6
-5 -10 13 9.7 7.9
4 10 -13 37.5 9.1
4 10 -13 25.1 8.5
-4 -10 13 26.1 9.5
-4 -10 13 16.6 8.4
3 10 -13 122.39 14.9
3 10 -13 123.19 13.4
-3 -10 13 131.49 14.8
-3 -10 13 130.49 14.5
2 10 -13 343.47 21.7
2 10 -13 344.47 21
-2 -10 13 379.26 21.8
-2 -10 13 373.76 21.7
1 10 -13 100.09 13.4
1 10 -13 99.79 12.4
-1 -10 13 114.39 12.9
-1 -10 13 127.29 13.2
0 10 -13 39.9 8.4
0 10 -13 45.5 8
0 -10 13 37.8 8.1
0 -10 13 50.69 8.7
-1 10 -13 255.77 17.7
-1 10 -13 284.47 16.8
1 -10 13 296.17 17.5
1 -10 13 289.77 17.8
-2 10 -13 311.87 17.9
-2 10 -13 313.47 18.9
2 -10 13 329.17 18.6
2 -10 13 329.77 18.8
-3 10 -13 287.77 17.6
-3 10 -13 313.67 16.7
3 -10 13 291.07 17.1
3 -10 13 281.67 17.7
-4 10 -13 185.08 13.2
4 -10 13 160.28 13.1
4 -10 13 160.58 12.6
-5 10 -13 312.97 17.6
5 -10 13 298.97 17.3
5 -10 13 326.37 17.3
-6 10 -13 302.57 16.7
-6 10 -13 302.87 18
6 -10 13 291.17 16.8
6 -10 13 297.57 16.3
-7 10 -13 212.58 14.4
-7 10 -13 233.78 13.5
7 -10 13 203.38 13.4
7 -10 13 196.38 12.9
12 9 -13 444.66 30.9
12 9 -13 457.45 34.5
-12 -9 13 495.75 33.8
-12 -9 13 461.35 33.3
11 9 -13 101.69 16.9
11 9 -13 121.19 17.1
-11 -9 13 119.09 17
-11 -9 13 153.48 18.9
10 9 -13 31.9 11.5
10 9 -13 37.6 10.8
-10 -9 13 31.7 11.6
-10 -9 13 39.9 11.3
9 9 -13 135.69 19.9
9 9 -13 146.19 18.2
-9 -9 13 173.48 19.3
-9 -9 13 151.48 19.9
8 9 -13 793.52 40
8 9 -13 795.92 41.3
-8 -9 13 820.12 40.6
-8 -9 13 786.22 41
7 9 -13 263.67 19.4
7 9 -13 260.37 21.1
-7 -9 13 233.48 19.9
-7 -9 13 226.28 20.8
6 9 -13 2 7
6 9 -13 9 8.4
-6 -9 13 5.4 7.6
-6 -9 13 12.8 8.3
5 9 -13 212.18 16.9
5 9 -13 200.38 17.7
-5 -9 13 207.08 17.9
-5 -9 13 217.48 17.7
4 9 -13 104.79 14.3
4 9 -13 114.79 13.5
-4 -9 13 111.19 14
-4 -9 13 116.79 14.4
3 9 -13 337.67 20.5
3 9 -13 343.67 21.4
-3 -9 13 336.17 21
-3 -9 13 337.67 20.9
2 9 -13 49.2 8.7
2 9 -13 41.3 8.8
-2 -9 13 40.7 8.2
-2 -9 13 65.89 9.7
1 9 -13 155.08 14.1
1 9 -13 160.18 13.5
-1 -9 13 138.89 13.6
-1 -9 13 149.19 13.7
0 9 -13 278.97 18.2
0 9 -13 289.37 17.4
0 -9 13 292.97 17.9
0 -9 13 292.07 18.1
-1 9 -13 400.66 22.1
-1 9 -13 417.86 21.3
1 -9 13 407.76 21.8
1 -9 13 390.86 21.9
-2 9 -13 414.76 22.1
-2 9 -13 421.36 21.3
2 -9 13 406.76 21.7
2 -9 13 402.76 22
-3 9 -13 116.79 12
3 -9 13 118.09 11.4
3 -9 13 119.29 12.1
-4 9 -13 20.9 6.4
4 -9 13 21.1 6.9
4 -9 13 27.2 6.5
-5 9 -13 207.88 15.5
-5 9 -13 191.18 13.7
5 -9 13 191.18 14.1
5 -9 13 204.18 13.8
-6 9 -13 538.75 26.4
-6 9 -13 531.35 25.2
6 -9 13 486.35 25.2
6 -9 13 515.25 24.9
-7 9 -13 272.17 16.2
-7 9 -13 287.57 17.3
7 -9 13 266.27 16.4
7 -9 13 287.47 16
-8 9 -13 155.98 13.5
-8 9 -13 155.58 12.1
8 -9 13 156.28 12.5
8 -9 13 159.78 12
12 8 -13 528.75 36
12 8 -13 583.34 33.5
-12 -8 13 535.55 34.9
-12 -8 13 559.24 35.5
11 8 -13 53.69 11.3
11 8 -13 85.99 16.5
-11 -8 13 97.39 16.6
-11 -8 13 56.99 12.8
10 8 -13 90.79 14.4
10 8 -13 121.49 17.7
-10 -8 13 135.69 17
-10 -8 13 92.19 13.9
9 8 -13 1352.66 63.19
9 8 -13 1346.87 62.09
-9 -8 13 1358.66 63.19
-9 -8 13 1418.46 62.89
8 8 -13 1941.91 81.59
8 8 -13 1791.92 82.09
-8 -8 13 1924.11 81.99
-8 -8 13 1826.62 82.29
7 8 -13 487.95 27.6
7 8 -13 470.05 26.1
-7 -8 13 418.46 26.9
-7 -8 13 437.26 26.5
6 8 -13 148.99 15.5
6 8 -13 168.28 17.5
-6 -8 13 167.48 16.2
-6 -8 13 168.58 16.9
5 8 -13 85.99 12.6
5 8 -13 99.19 11.9
-5 -8 13 100.09 13.1
-5 -8 13 93.39 13.9
4 8 -13 399.86 24.8
4 8 -13 392.36 24
-4 -8 13 486.45 25.3
-4 -8 13 484.85 25.1
3 8 -13 269.17 18.8
3 8 -13 273.07 18.2
-3 -8 13 292.57 18.6
-3 -8 13 285.07 18.8
2 8 -13 29.8 7.4
2 8 -13 30.1 8
-2 -8 13 18.8 7
-2 -8 13 20 6.8
1 8 -13 27 7.2
1 8 -13 19.1 7
-1 -8 13 29.7 7.8
-1 -8 13 20.6 7.3
0 8 -13 50.59 8.1
0 8 -13 45.6 8
0 -8 13 33.1 7.4
0 -8 13 24.8 7.2
-1 8 -13 124.59 11.4
-1 8 -13 110.69 12
1 -8 13 106.19 11.8
1 -8 13 102.39 12.1
-2 8 -13 42.1 7.2
-2 8 -13 43.9 7.7
2 -8 13 47.9 8.6
2 -8 13 46.4 7.8
-3 8 -13 70.19 8.8
3 -8 13 64.19 8.7
3 -8 13 75.59 10.1
-4 8 -13 66.39 8.4
4 -8 13 61.19 8
4 -8 13 63.59 8.7
-5 8 -13 8.5 6
-5 8 -13 11.9 7.6
5 -8 13 21.1 6.7
5 -8 13 22.2 7.3
-6 8 -13 492.35 25
-6 8 -13 514.75 26.5
6 -8 13 498.55 25.5
6 -8 13 536.35 25.1
-7 8 -13 156.58 13.1
-7 8 -13 167.38 14.4
7 -8 13 180.48 13.8
7 -8 13 188.48 13.3
-8 8 -13 58.89 9.4
-8 8 -13 44.3 7.9
8 -8 13 47.4 8.2
8 -8 13 48.9 7.7
13 7 -13 194.58 25.9
-13 -7 13 209.68 25.8
-13 -7 13 232.48 25.8
12 7 -13 37.5 14.3
12 7 -13 24.1 11.6
-12 -7 13 20.5 13.5
-12 -7 13 19 12.5
11 7 -13 6.9 10.9
11 7 -13 1.6 9.3
-11 -7 13 3 10.6
-11 -7 13 -1.1 11
10 7 -13 11.4 9.8
10 7 -13 8.3 11.6
-10 -7 13 3.3 11.4
-10 -7 13 7.3 10.9
9 7 -13 90.69 12.9
9 7 -13 100.29 15
-9 -7 13 81.09 13.8
-9 -7 13 71.89 14.1
8 7 -13 329.07 23.4
8 7 -13 363.76 24.9
-8 -7 13 420.16 24.9
-8 -7 13 407.46 25.2
7 7 -13 37.2 9.6
7 7 -13 53.89 9.9
-7 -7 13 51.89 9.9
-7 -7 13 67.39 10.6
6 7 -13 679.73 34.4
6 7 -13 672.23 33.6
-6 -7 13 661.33 34
-6 -7 13 647.44 33.9
5 7 -13 165.98 16.3
5 7 -13 179.98 15.5
-5 -7 13 196.08 16.2
-5 -7 13 191.68 16.1
4 7 -13 1707.43 78.99
4 7 -13 1743.83 78.69
-4 -7 13 1992.7 79.59
-4 -7 13 1935.61 79.39
3 7 -13 715.13 37.4
3 7 -13 713.13 37.1
-3 -7 13 896.91 38.2
-3 -7 13 862.81 38.1
2 7 -13 576.74 27.7
2 7 -13 582.54 27.3
-2 -7 13 481.05 26.9
-2 -7 13 494.45 27.1
1 7 -13 537.95 28.2
1 7 -13 567.54 27.8
-1 -7 13 585.64 28.5
-1 -7 13 570.74 28.3
0 7 -13 465.85 23.8
0 7 -13 479.15 23.4
0 -7 13 419.66 23.3
0 -7 13 427.26 23.6
-1 7 -13 1160.08 48.5
-1 7 -13 1167.58 49.2
1 -7 13 1050.19 48.5
1 -7 13 1048.3 49
-2 7 -13 107.19 11.6
2 -7 13 120.19 11.6
2 -7 13 106.59 12.2
-3 7 -13 38 7.3
3 -7 13 34.7 7.2
3 -7 13 39.1 7.8
-4 7 -13 155.48 14.9
-4 7 -13 134.09 12.8
4 -7 13 140.99 12.8
4 -7 13 143.49 12.3
-5 7 -13 27.6 7.3
-5 7 -13 27.3 8.6
5 -7 13 21.1 7.4
5 -7 13 30 7.3
-6 7 -13 212.48 15.3
-6 7 -13 209.08 16.8
6 -7 13 229.38 15.3
6 -7 13 209.88 15.6
-7 7 -13 15.5 7.9
-7 7 -13 18.4 7.1
7 -7 13 14 7
7 -7 13 16.3 8
-8 7 -13 14 7.2
-8 7 -13 8.9 8.1
8 -7 13 7.6 7.2
8 -7 13 16.8 8
13 6 -13 97.39 16.2
13 6 -13 89.59 14
-13 -6 13 58.59 13.7
-13 -6 13 81.29 15.8
12 6 -13 69.29 13.2
12 6 -13 62.69 14.9
-12 -6 13 61.89 13.9
-12 -6 13 48.1 13
11 6 -13 27.5 10
11 6 -13 38.8 13
-11 -6 13 49.1 13.4
-11 -6 13 29.1 11.3
10 6 -13 84.79 14.7
10 6 -13 73.79 11.7
-10 -6 13 66.19 12.6
-10 -6 13 83.49 14.5
9 6 -13 25.6 11.2
9 6 -13 11.5 8.1
-9 -6 13 24.6 10.9
-9 -6 13 20.9 9.1
8 6 -13 205.28 19.5
8 6 -13 220.38 18.4
-8 -6 13 220.28 18.7
-8 -6 13 216.18 19.5
7 6 -13 293.97 20.8
7 6 -13 323.37 20.6
-7 -6 13 266.17 20.4
-7 -6 13 288.97 20.5
6 6 -13 117.89 14
6 6 -13 135.69 15.5
-6 -6 13 118.29 14.8
-6 -6 13 115.19 14.4
5 6 -13 893.11 39.3
5 6 -13 869.41 39.7
-5 -6 13 766.62 39
-5 -6 13 750.72 38.9
4 6 -13 448.56 25.2
4 6 -13 435.76 25.6
-4 -6 13 528.05 26.2
-4 -6 13 497.95 26
3 6 -13 565.94 29.5
3 6 -13 617.74 29.4
-3 -6 13 579.94 29.5
-3 -6 13 586.54 29.6
2 6 -13 417.06 21.4
2 6 -13 405.36 22
-2 -6 13 353.16 21.7
-2 -6 13 374.06 21.5
1 6 -13 560.84 29.3
1 6 -13 568.04 28.8
-1 -6 13 617.64 29.7
-1 -6 13 638.64 29.5
0 6 -13 588.64 27.8
0 6 -13 625.84 27.4
0 -6 13 501.95 26.9
0 -6 13 477.45 27.3
-1 6 -13 686.33 30.6
-1 6 -13 695.73 29.9
1 -6 13 542.05 29.4
1 -6 13 554.84 30.1
-2 6 -13 535.15 27.3
2 -6 13 558.74 27.5
2 -6 13 531.15 26.8
-3 6 -13 478.85 25.4
3 -6 13 511.55 25.6
3 -6 13 488.15 25.1
-4 6 -13 116.09 14.3
-4 6 -13 122.99 12.4
4 -6 13 112.99 12.3
4 -6 13 95.99 12.5
-5 6 -13 166.58 15.7
-5 6 -13 160.48 13.8
5 -6 13 153.48 14.2
5 -6 13 156.68 13.8
-6 6 -13 95.49 13.7
-6 6 -13 91.69 11.9
6 -6 13 68.89 9.5
6 -6 13 64.09 9.7
-7 6 -13 21.4 7.8
-7 6 -13 21.9 8.6
7 -6 13 23.5 7.7
7 -6 13 22.1 8.2
-8 6 -13 19.4 9
-8 6 -13 32.1 8.5
8 -6 13 22.1 8.1
8 -6 13 25.9 9.8
13 5 -13 166.78 24
13 5 -13 147.39 20.9
-13 -5 13 153.18 23
-13 -5 13 174.08 23.4
12 5 -13 99.59 15.2
12 5 -13 151.78 18.8
-12 -5 13 124.39 17.8
-12 -5 13 102.09 16.2
11 5 -13 52.99 12.3
11 5 -13 30.9 12.9
-11 -5 13 48.9 13.9
-11 -5 13 28.2 11.7
10 5 -13 137.99 16.8
10 5 -13 141.09 17.2
-10 -5 13 146.09 17.1
-10 -5 13 100.79 14.8
9 5 -13 279.67 20.2
9 5 -13 275.87 21.8
-9 -5 13 264.67 21.1
-9 -5 13 265.57 21.6
8 5 -13 128.79 15.6
8 5 -13 129.99 17
-8 -5 13 143.69 16.9
-8 -5 13 153.38 16.9
7 5 -13 192.88 17.5
7 5 -13 194.68 16.9
-7 -5 13 190.08 17.4
-7 -5 13 205.08 17.3
6 5 -13 94.09 12
6 5 -13 66.19 9.4
-6 -5 13 76.79 11.5
-6 -5 13 56.09 9.5
5 5 -13 1089.89 47.5
5 5 -13 1003.3 47.6
-5 -5 13 1017.9 47.5
4 5 -13 164.88 13.7
4 5 -13 158.88 14.1
-4 -5 13 111.69 13.2
-4 -5 13 104.29 13.4
3 5 -13 11.2 6.5
3 5 -13 14.2 6.2
-3 -5 13 16.1 7.2
-3 -5 13 10.4 6.6
2 5 -13 53.29 8
2 5 -13 47.1 8.2
-2 -5 13 71.19 9.6
-2 -5 13 55.59 8.2
1 5 -13 225.38 16
1 5 -13 228.48 15.5
-1 -5 13 227.08 15.7
-1 -5 13 222.18 16.4
0 5 -13 611.74 29.5
0 5 -13 609.64 30.4
0 -5 13 618.24 30.6
0 -5 13 617.84 30
-1 5 -13 679.13 33
1 -5 13 686.43 33.1
1 -5 13 683.33 32.7
-2 5 -13 506.95 26.3
2 -5 13 495.25 26
2 -5 13 526.55 26.5
-3 5 -13 125.49 13.1
-3 5 -13 129.49 15.4
3 -5 13 147.19 13.2
3 -5 13 136.99 13.4
-4 5 -13 445.86 25.8
-4 5 -13 423.66 24.2
4 -5 13 475.95 24.2
4 -5 13 468.45 24.8
-5 5 -13 1467.45 63.19
-5 5 -13 1364.76 61.79
5 -5 13 1433.66 62.09
5 -5 13 1419.86 61.69
-6 5 -13 416.86 25
-6 5 -13 416.56 23.7
6 -5 13 419.76 23.3
6 -5 13 417.26 23.9
-7 5 -13 20.4 9.5
-7 5 -13 32.9 8.9
7 -5 13 27.6 9
7 -5 13 30.8 8.6
-8 5 -13 25.6 9.2
-8 5 -13 24 9.9
8 -5 13 24.7 8.5
8 -5 13 16.9 11.5
13 4 -13 78.79 15
13 4 -13 79.69 15.9
-13 -4 13 100.09 16.6
-13 -4 13 92.39 17
12 4 -13 60.19 11.9
12 4 -13 80.69 15.7
-12 -4 13 42.6 11.4
-12 -4 13 69.59 14.7
11 4 -13 184.48 22.3
11 4 -13 179.58 19.4
-11 -4 13 207.18 21.5
-11 -4 13 199.48 21
10 4 -13 134.89 18.7
10 4 -13 127.59 16.4
-10 -4 13 137.39 18.4
-10 -4 13 145.29 18.3
9 4 -13 287.77 20.8
9 4 -13 281.37 22.5
-9 -4 13 314.37 22.6
-9 -4 13 323.67 22.4
8 4 -13 560.04 31.8
8 4 -13 596.94 31.3
-8 -4 13 613.84 32.1
-8 -4 13 622.94 32.4
7 4 -13 10.2 7.8
7 4 -13 10.3 8
-7 -4 13 16.2 8.5
-7 -4 13 13 8.1
6 4 -13 174.48 15.7
6 4 -13 191.58 16.5
-6 -4 13 182.08 16.4
-6 -4 13 178.98 16.2
5 4 -13 40.8 8.6
5 4 -13 42 8.2
-5 -4 13 61.99 9.2
4 4 -13 128.19 13.7
4 4 -13 135.99 12.9
-4 -4 13 145.69 13.9
-4 -4 13 142.19 14
3 4 -13 99.19 12.9
3 4 -13 111.29 11.9
-3 -4 13 99.59 12.5
-3 -4 13 108.39 13
2 4 -13 77.59 11.2
2 4 -13 82.89 11.1
-2 -4 13 63.89 9.5
-2 -4 13 97.89 11.3
1 4 -13 157.98 13.1
1 4 -13 166.68 14.5
-1 -4 13 165.08 14.6
-1 -4 13 144.39 13.7
0 4 -13 370.86 21.6
0 -4 13 375.66 21.7
0 -4 13 371.96 21.4
-1 4 -13 786.02 35.3
1 -4 13 694.23 34.8
1 -4 13 701.53 34.5
-2 4 -13 16.9 7.3
2 -4 13 11.8 7.4
2 -4 13 7.5 6.6
-3 4 -13 28.2 9.1
-3 4 -13 20.6 7.4
3 -4 13 22.5 8.1
3 -4 13 20 7.1
-4 4 -13 145.69 16.2
-4 4 -13 136.09 14.1
4 -4 13 106.09 13.8
4 -4 13 113.39 13.1
-5 4 -13 1030.4 45.5
-5 4 -13 1002.2 46.5
5 -4 13 924.41 45.1
5 -4 13 968 44.6
-6 4 -13 460.45 25.5
-6 4 -13 425.36 24.2
6 -4 13 376.96 23.1
6 -4 13 392.36 24
-7 4 -13 13.7 8.8
-7 4 -13 8.7 9.8
7 -4 13 14.5 9
7 -4 13 18.7 8.5
-8 4 -13 82.99 12.6
-8 4 -13 87.59 12.4
8 -4 13 114.69 14.9
8 -4 13 108.99 15.2
13 3 -13 182.78 23.9
13 3 -13 176.88 21.2
-13 -3 13 182.08 23
12 3 -13 57.99 11.6
12 3 -13 62.39 13.4
-12 -3 13 78.49 13.6
-12 -3 13 74.19 13.3
11 3 -13 137.89 18.5
11 3 -13 134.99 20
-11 -3 13 207.78 21.1
-11 -3 13 189.28 20.2
10 3 -13 219.38 19.3
10 3 -13 231.18 21.5
-10 -3 13 247.28 21.2
-10 -3 13 233.48 20.9
9 3 -13 942.91 42.4
9 3 -13 812.22 42.4
-9 -3 13 858.01 42.7
-9 -3 13 848.82 42.7
8 3 -13 585.74 30.4
8 3 -13 560.74 31.1
-8 -3 13 581.34 31.2
-8 -3 13 559.44 31.2
7 3 -13 153.08 15.1
7 3 -13 167.38 16.3
-7 -3 13 166.18 16.4
-7 -3 13 137.99 16.1
6 3 -13 1416.96 60.59
6 3 -13 1448.26 61.29
-6 -3 13 1297.87 60.79
-6 -3 13 1324.07 60.69
5 3 -13 1375.76 57.29
5 3 -13 1408.26 58.19
-5 -3 13 1186.48 57.29
-5 -3 13 1197.68 57.19
4 3 -13 637.44 29.7
4 3 -13 606.54 30.4
-4 -3 13 560.14 30.1
-4 -3 13 552.34 29.7
3 3 -13 44.4 8.5
3 3 -13 67.49 8.9
-3 -3 13 59.49 9.8
-3 -3 13 47.7 8.7
2 3 -13 19.1 7.2
2 3 -13 12 7.8
-2 -3 13 16.6 8.4
-2 -3 13 14.8 7.7
1 3 -13 81.19 12.2
-1 -3 13 92.39 12.2
-1 -3 13 59.59 9.3
0 3 -13 36.4 8
0 -3 13 33 8.3
0 -3 13 23.4 7.1
-1 3 -13 15.7 7.3
1 -3 13 10.9 6.8
1 -3 13 13.5 7.2
-2 3 -13 107.19 15.8
-2 3 -13 114.79 13.7
2 -3 13 110.39 13.5
2 -3 13 108.29 13.1
-3 3 -13 13.2 9.2
-3 3 -13 15.7 7.9
3 -3 13 25.2 9
3 -3 13 25.6 8.2
-4 3 -13 116.09 14.6
-4 3 -13 87.99 12.4
4 -3 13 128.79 13.5
4 -3 13 117.59 14.6
-5 3 -13 28.2 10.3
-5 3 -13 14.7 8.8
5 -3 13 35.9 9.7
5 -3 13 26.7 8.3
-6 3 -13 2.9 8.6
-6 3 -13 5 8.9
6 -3 13 5.8 8.4
6 -3 13 2.4 7.6
-7 3 -13 27.7 10.3
-7 3 -13 29.6 11.1
7 -3 13 28.1 11.2
7 -3 13 30.5 9.4
-8 3 -13 211.98 21.2
-8 3 -13 233.58 20.4
8 -3 13 240.98 23.9
8 -3 13 228.88 19.2
13 2 -13 288.57 26.9
13 2 -13 323.97 25.3
-13 -2 13 239.48 25.4
-13 -2 13 294.87 26.6
12 2 -13 21 10.1
12 2 -13 20.4 12.7
-12 -2 13 23.6 11.7
-12 -2 13 35.9 13.7
11 2 -13 163.78 18.2
11 2 -13 152.98 20.6
-11 -2 13 136.09 19.7
-11 -2 13 142.19 20
10 2 -13 561.84 29.8
10 2 -13 531.35 31.2
-10 -2 13 502.85 31
-10 -2 13 517.05 30.7
9 2 -13 368.16 24.8
9 2 -13 379.36 23.6
-9 -2 13 371.96 24.6
-9 -2 13 380.76 25
8 2 -13 121.59 13.8
8 2 -13 101.79 14
-8 -2 13 113.19 16
-8 -2 13 110.69 16.1
7 2 -13 82.69 11.5
7 2 -13 75.89 10.2
-7 -2 13 75.19 11.3
-7 -2 13 63.09 11
6 2 -13 529.65 26.5
6 2 -13 541.15 27.5
-6 -2 13 438.66 26.4
-6 -2 13 433.26 26.9
5 2 -13 798.82 36.4
5 2 -13 747.13 35.1
-5 -2 13 665.93 35.6
-5 -2 13 686.73 35.3
4 2 -13 1241.88 53.59
4 2 -13 1180.28 52.19
-4 -2 13 1144.19 53.09
-4 -2 13 1121.69 52.69
3 2 -13 375.86 21.7
3 2 -13 364.56 22.7
-3 -2 13 382.66 22.6
-3 -2 13 407.96 23.4
2 2 -13 203.68 16.3
-2 -2 13 186.28 16.3
-2 -2 13 182.08 15.8
1 2 -13 1558.94 68.69
-1 -2 13 1588.94 68.69
-1 -2 13 1568.24 68.39
0 2 -13 1112.09 51.49
0 -2 13 1166.28 51.59
0 -2 13 1129.49 51.19
-1 2 -13 149.79 16.9
-1 2 -13 141.69 14.6
1 -2 13 121.19 13.8
1 -2 13 121.29 14.3
-2 2 -13 69.19 10.8
-2 2 -13 74.89 13
2 -2 13 58.89 9.3
2 -2 13 91.69 12
-3 2 -13 18.9 8.4
-3 2 -13 16 10.3
3 -2 13 17.4 8.2
3 -2 13 19 8.8
-4 2 -13 242.08 20.2
-4 2 -13 240.98 19.1
4 -2 13 203.08 17.2
4 -2 13 213.68 18.5
-5 2 -13 317.57 22.3
-5 2 -13 315.87 23.2
5 -2 13 309.87 20.7
5 -2 13 294.57 21.6
-6 2 -13 29.3 10.3
-6 2 -13 29.5 10.5
6 -2 13 31.4 10.4
6 -2 13 44.1 10.5
-7 2 -13 20 11.3
-7 2 -13 20.5 10.4
7 -2 13 29.7 10
7 -2 13 21.6 13
-8 2 -13 8.1 10.5
-8 2 -13 11.2 11.8
8 -2 13 0.9 13.8
8 -2 13 5.2 9.5
13 1 -13 41 12.5
13 1 -13 36.6 14.8
-13 -1 13 40.2 13.2
-13 -1 13 33.3 13.2
12 1 -13 23.8 13.4
12 1 -13 9 10.1
-12 -1 13 15.6 11.3
-12 -1 13 33.3 12.9
11 1 -13 140.59 17.4
11 1 -13 145.89 19.7
-11 -1 13 139.49 19.6
-11 -1 13 152.18 20.1
10 1 -13 139.99 19
10 1 -13 168.18 17.3
-10 -1 13 138.49 19.2
-10 -1 13 158.28 19.3
9 1 -13 99.89 13.5
9 1 -13 85.99 11.3
-9 -1 13 110.19 13.9
-9 -1 13 120.79 14.9
8 1 -13 157.88 17.1
8 1 -13 165.88 16.1
-8 -1 13 182.18 17.4
-8 -1 13 177.78 18.3
7 1 -13 150.38 16.3
7 1 -13 141.69 15
-7 -1 13 178.88 17.5
-7 -1 13 165.98 16.2
6 1 -13 498.75 28.2
6 1 -13 540.85 29.6
-6 -1 13 578.44 29.3
-6 -1 13 554.34 29.9
5 1 -13 526.45 28.8
5 1 -13 530.15 27.5
-5 -1 13 517.45 28.8
-5 -1 13 510.85 28.2
4 1 -13 386.66 22.4
4 1 -13 385.86 23.4
-4 -1 13 375.06 23.2
-4 -1 13 382.46 23.5
3 1 -13 23.8 8.7
-3 -1 13 19 9.2
-3 -1 13 29.8 8.9
2 1 -13 489.15 26.9
-2 -1 13 472.95 26.7
-2 -1 13 484.15 26.5
1 1 -13 1947.91 82.69
-1 -1 13 1959.8 82.59
-1 -1 13 1836.62 81.99
0 1 -13 1510.05 64.99
0 1 -13 1445.16 63.39
0 -1 13 1346.37 62.49
0 -1 13 1408.56 63.19
-1 1 -13 165.48 18.3
-1 1 -13 175.48 16.5
1 -1 13 140.89 15.9
1 -1 13 140.79 15
-2 1 -13 380.96 25.3
-2 1 -13 371.16 23.7
2 -1 13 365.76 22.3
2 -1 13 378.16 23.8
-3 1 -13 545.45 31.5
-3 1 -13 515.55 30
3 -1 13 566.94 30.2
3 -1 13 554.04 29.1
-4 1 -13 361.06 25
-4 1 -13 361.66 26.4
4 -1 13 417.56 24.4
4 -1 13 458.75 26.1
-5 1 -13 48.5 11.6
-5 1 -13 54.39 11.3
5 -1 13 54.79 11.3
5 -1 13 72.79 10.8
-6 1 -13 2.2 11.3
-6 1 -13 7.3 10.5
6 -1 13 2.7 10
6 -1 13 13.1 9.6
-7 1 -13 37.2 12
-7 1 -13 47.4 13.7
7 -1 13 45.3 15.4
7 -1 13 53.09 11.7
13 0 -13 100.39 17.2
13 0 -13 97.19 16.7
-13 0 13 75.59 15.2
-13 0 13 98.79 17.2
12 0 -13 86.49 13.7
12 0 -13 89.89 15.8
-12 0 13 62.49 14.2
-12 0 13 87.59 16.2
11 0 -13 294.27 24.3
11 0 -13 300.47 22.1
-11 0 13 289.07 24.3
-11 0 13 274.17 24.2
10 0 -13 152.58 17.1
10 0 -13 155.78 16.6
-10 0 13 132.99 19.2
-10 0 13 135.89 18.9
9 0 -13 149.99 16
9 0 -13 135.79 17.8
-9 0 13 115.79 17.7
-9 0 13 153.78 17.1
8 0 -13 105.99 14.7
8 0 -13 112.39 16.5
-8 0 13 108.59 16.3
-8 0 13 120.09 15
7 0 -13 14.3 7.8
7 0 -13 18.7 9.2
-7 0 13 13.9 9.1
-7 0 13 21.2 8.9
6 0 -13 117.99 14.4
6 0 -13 114.69 16
-6 0 13 112.09 16.5
-6 0 13 112.49 15.3
5 0 -13 43.9 10.9
5 0 -13 24.2 7.7
-5 0 13 38.1 10.6
-5 0 13 29.3 9.4
4 0 -13 36 9.5
-4 0 13 39.2 9.8
-4 0 13 35.4 10.1
3 0 -13 126.59 15.4
-3 0 13 129.49 15.3
-3 0 13 130.39 15.3
2 0 -13 209.88 17.6
-2 0 13 221.48 18.1
-2 0 13 189.68 17.1
1 0 -13 414.76 24.9
1 0 -13 422.56 27.1
-1 0 13 414.66 24.8
-1 0 13 410.06 24.3
0 0 -13 258.97 20.2
0 0 -13 296.97 22.8
0 0 13 270.57 20.3
0 0 13 262.77 19.1
-1 0 -13 16 10.7
-1 0 -13 8.6 8.8
1 0 13 11.3 8.8
1 0 13 20.5 8.1
-2 0 -13 509.35 30.6
-2 0 -13 510.65 28.9
2 0 13 475.45 27.4
2 0 13 503.45 28.7
-3 0 -13 881.61 43.7
-3 0 -13 835.72 42.1
3 0 13 853.11 42
3 0 13 814.22 40.7
-4 0 -13 1388.46 65.39
-4 0 -13 1349.96 64.29
4 0 13 1429.06 63.19
4 0 13 1494.85 64.79
-5 0 -13 599.74 36.2
-5 0 -13 605.64 35.2
5 0 13 690.03 35.8
5 0 13 662.53 34
-6 0 -13 0.2 10.5
-6 0 -13 6.4 12.9
6 0 13 1 9.7
6 0 13 -0.7 11.5
-7 0 -13 276.67 24.7
-7 0 -13 290.67 26.2
7 0 13 261.37 28.1
7 0 13 257.37 22.7
13 -1 -13 21.1 13.2
13 -1 -13 26.7 14.8
-13 1 13 23.2 14.1
-13 1 13 32 12.8
12 -1 -13 455.05 28.2
12 -1 -13 462.65 30.6
-12 1 13 408.66 30.3
-12 1 13 426.56 30.1
11 -1 -13 567.44 31.1
11 -1 -13 551.64 33
-11 1 13 523.85 32.9
-11 1 13 530.55 32.6
10 -1 -13 690.33 38.6
10 -1 -13 752.02 37.1
-10 1 13 723.43 38.8
-10 1 13 738.63 39.2
9 -1 -13 312.77 21.9
9 -1 -13 304.67 24
-9 1 13 354.66 24.2
-9 1 13 336.57 24.9
8 -1 -13 21.9 9.7
8 -1 -13 6.6 9.1
-8 1 13 15.4 9.2
-8 1 13 27.5 11.7
7 -1 -13 403.16 24.1
7 -1 -13 362.16 25.6
-7 1 13 434.46 26.5
-7 1 13 386.26 25.4
6 -1 -13 252.77 20.7
-6 1 13 288.97 21.6
-6 1 13 262.77 20.6
5 -1 -13 43.6 10.4
-5 1 13 30.1 9.5
-5 1 13 44.7 11.7
4 -1 -13 40.9 11.1
-4 1 13 57.19 11.4
-4 1 13 57.49 11.4
3 -1 -13 49.8 9.9
-3 1 13 45 9.5
-3 1 13 53.29 10.3
2 -1 -13 113.69 15.8
2 -1 -13 82.19 11.8
-2 1 13 102.19 15.1
-2 1 13 72.59 10.9
1 -1 -13 24.9 10.2
1 -1 -13 18.9 11.5
-1 1 13 18.3 8.8
-1 1 13 22 10.2
0 -1 -13 11.5 10.4
0 -1 -13 14.6 9.4
0 1 13 6.7 7.9
0 1 13 6.5 9.2
-1 -1 -13 141.29 17.9
1 1 13 129.09 15.7
1 1 13 122.99 16.8
-2 -1 -13 118.49 18.2
-2 -1 -13 141.19 20.1
2 1 13 152.38 18
2 1 13 131.69 16.9
-3 -1 -13 188.98 20.3
-3 -1 -13 182.78 21.9
3 1 13 186.38 19.4
3 1 13 179.58 18.5
-4 -1 -13 393.96 28.2
-4 -1 -13 375.86 27.2
4 1 13 368.76 24.9
4 1 13 366.76 25.9
-5 -1 -13 89.19 15.9
-5 -1 -13 99.89 15.9
5 1 13 103.69 14.9
5 1 13 116.09 16.9
-6 -1 -13 37.7 14.7
-6 -1 -13 32.4 12.5
6 1 13 35.8 12.4
6 1 13 47 16
12 -2 -13 286.07 25.8
12 -2 -13 250.77 25.4
-12 2 13 261.87 25.3
-12 2 13 291.17 26
11 -2 -13 453.75 29.9
11 -2 -13 441.36 27.7
-11 2 13 437.96 29.7
-11 2 13 440.16 30.4
10 -2 -13 505.15 28.6
10 -2 -13 479.45 30.1
-10 2 13 451.15 29.9
-10 2 13 466.05 31
9 -2 -13 254.97 20.4
9 -2 -13 232.98 22.2
-9 2 13 214.88 22.7
-9 2 13 237.38 21.6
8 -2 -13 41 11
-8 2 13 59.89 12.2
-8 2 13 51.89 10.8
-7 2 13 1185.78 55.69
6 -2 -13 489.35 29.4
-6 2 13 513.75 30
-6 2 13 505.85 29.4
-5 2 13 114.19 16.4
-5 2 13 116.19 17.4
4 -2 -13 223.88 19.7
-4 2 13 200.28 18.9
-4 2 13 223.28 20
3 -2 -13 218.38 20
3 -2 -13 231.18 21.8
-3 2 13 230.88 20.2
-3 2 13 228.48 19.2
2 -2 -13 427.56 26.4
2 -2 -13 455.05 28.8
-2 2 13 408.56 26.5
-2 2 13 359.16 24.7
1 -2 -13 300.57 25.3
1 -2 -13 318.67 23.4
-1 2 13 308.77 21.9
-1 2 13 324.27 23.4
0 -2 -13 48.7 13
0 -2 -13 56.39 14.3
0 2 13 56.79 12.3
0 2 13 65.49 12.1
-1 -2 -13 39.1 13.8
-1 -2 -13 25.2 10.8
1 2 13 28.2 9.9
1 2 13 37.2 12.6
-2 -2 -13 5 11.1
-2 -2 -13 20.4 11.2
2 2 13 22.1 9.5
2 2 13 14 10.1
-3 -2 -13 286.47 24.9
-3 -2 -13 277.57 25.9
3 2 13 259.17 22.2
3 2 13 300.67 23.9
-4 -2 -13 65.69 15.9
-4 -2 -13 58.09 14
4 2 13 61.09 14.1
4 2 13 55.39 13.4
-5 -2 -13 18.2 14.6
-5 -2 -13 14.3 12.4
5 2 13 13.9 14
5 2 13 13.2 11
11 -3 -13 29.2 12.8
11 -3 -13 42.9 13.5
-11 3 13 32.4 12.9
-11 3 13 46.6 13.8
10 -3 -13 -0.7 12.2
-10 3 13 7.4 11.8
-10 3 13 13.7 13.2
9 -3 -13 28.9 12.9
-9 3 13 17.5 13.5
-9 3 13 22.8 11.8
8 -3 -13 180.08 21.1
-8 3 13 172.38 20.7
-8 3 13 184.58 20.6
7 -3 -13 1134.99 52.89
-7 3 13 1075.09 52.29
-7 3 13 1085.49 52.69
6 -3 -13 519.05 29.5
-6 3 13 411.46 28
-6 3 13 439.86 28.7
5 -3 -13 18.5 9.7
-5 3 13 49.99 12.3
-5 3 13 36.2 10.6
4 -3 -13 202.98 20.1
4 -3 -13 232.18 22.9
-4 3 13 190.08 20.3
-4 3 13 175.18 19
3 -3 -13 301.07 24.1
3 -3 -13 310.47 25.4
-3 3 13 327.27 24.2
-3 3 13 313.97 22.9
2 -3 -13 467.05 30.3
2 -3 -13 496.95 32.1
-2 3 13 485.35 28.9
-2 3 13 526.55 30.8
1 -3 -13 362.16 26.3
1 -3 -13 387.46 28.5
-1 3 13 365.46 24.7
-1 3 13 359.56 25.7
0 -3 -13 47.4 13
0 -3 -13 35.6 12.4
0 3 13 31.7 11.2
0 3 13 43.5 11.5
-1 -3 -13 140.89 20.9
-1 -3 -13 148.29 22.6
1 3 13 185.18 20.9
1 3 13 166.68 19.2
-2 -3 -13 284.47 27
-2 -3 -13 295.07 25.4
2 3 13 278.07 22.9
2 3 13 277.97 24.7
-3 -3 -13 151.98 20.8
-3 -3 -13 163.98 22.5
3 3 13 206.58 22.3
3 3 13 175.68 20.5
-4 -3 -13 83.99 15
-4 -3 -13 81.59 15.7
4 3 13 99.49 15.5
4 3 13 95.29 14
10 -4 -13 94.59 15.3
-10 4 13 59.59 13.2
-10 4 13 98.09 16
9 -4 -13 50.89 13
-9 4 13 56.89 12.5
-9 4 13 55.99 13.3
8 -4 -13 14.5 11.4
-8 4 13 18.1 11.1
-8 4 13 11.5 11.5
7 -4 -13 26.6 11.7
-7 4 13 20.2 13
-7 4 13 15.5 10.5
6 -4 -13 9.2 11.8
6 -4 -13 4.3 11.8
-6 4 13 14.1 11.4
-6 4 13 13.1 11.2
5 -4 -13 101.09 17.7
-5 4 13 127.39 17.3
-5 4 13 98.19 14.4
4 -4 -13 61.09 14.9
4 -4 -13 71.99 14.8
-4 4 13 32.1 12.7
-4 4 13 54.49 13.3
3 -4 -13 734.23 40.7
3 -4 -13 744.13 42.5
-3 4 13 795.12 41.5
-3 4 13 791.52 39.8
2 -4 -13 1093.79 53.59
2 -4 -13 1039.4 54.59
-2 4 13 1127.59 53.99
-2 4 13 1139.59 52.49
1 -4 -13 235.18 23.7
1 -4 -13 234.08 25.5
-1 4 13 192.68 20.9
-1 4 13 228.38 23.6
0 -4 -13 205.28 24.7
0 -4 -13 206.38 23.5
0 4 13 185.88 21.2
0 4 13 203.48 22.3
-1 -4 -13 170.48 23.8
-1 -4 -13 160.68 24.3
1 4 13 161.38 21
1 4 13 174.08 22.1
-2 -4 -13 428.26 31.4
-2 -4 -13 413.46 31.3
2 4 13 371.46 28.2
2 4 13 414.46 29.4
-3 -4 -13 73.79 17.2
-3 -4 -13 50.79 15.2
3 4 13 58.49 14.6
3 4 13 81.69 16.6
9 -5 -13 18.7 12.9
-9 5 13 28.9 13.2
-9 5 13 27.3 14.2
8 -5 -13 269.47 28.5
-8 5 13 251.87 24.5
-8 5 13 252.07 24.6
7 -5 -13 125.39 17.3
7 -5 -13 127.69 16.6
-7 5 13 89.89 14.3
-7 5 13 143.99 21.5
6 -5 -13 24.7 13.9
6 -5 -13 14.4 13.6
-6 5 13 31.2 13.7
-6 5 13 17.8 12.2
5 -5 -13 27.6 15.2
5 -5 -13 19.4 11.8
-5 5 13 45.6 15.2
-5 5 13 26.6 11.2
4 -5 -13 -5.8 12.1
4 -5 -13 -2.2 12
-4 5 13 18.8 11.9
-4 5 13 3.6 11.1
3 -5 -13 64.79 14.8
3 -5 -13 54.09 14.4
-3 5 13 88.29 14.4
-3 5 13 63.59 14
2 -5 -13 167.28 24.2
2 -5 -13 106.79 16.3
-2 5 13 174.48 21.5
-2 5 13 157.68 22.8
1 -5 -13 12.8 15
1 -5 -13 19 14.8
-1 5 13 14.9 13.5
-1 5 13 17.9 14.7
0 -5 -13 42.5 16.8
0 -5 -13 17.3 13.7
0 5 13 39.4 15.5
0 5 13 28.6 12.5
-1 -5 -13 68.79 17.8
-1 -5 -13 31.6 14.4
1 5 13 57.79 15.6
1 5 13 36.5 13.2
-2 -5 -13 198.68 27.2
-2 -5 -13 192.38 26.3
2 5 13 159.78 23.7
2 5 13 156.18 21.1
7 -6 -13 318.37 31.4
7 -6 -13 323.07 28.2
-7 6 13 296.37 28
-7 6 13 319.37 27.5
6 -6 -13 38.3 15.9
6 -6 -13 25.9 12.9
-6 6 13 31.1 13.3
-6 6 13 58.39 15.1
5 -6 -13 -1.9 13.8
5 -6 -13 3.5 15.5
-5 6 13 -1.2 13.8
-5 6 13 2.6 14.5
4 -6 -13 100.19 16.7
4 -6 -13 171.28 21
-4 6 13 152.68 18.9
-4 6 13 107.99 16.5
3 -6 -13 117.79 20.2
3 -6 -13 151.28 20.7
-3 6 13 115.69 18
-3 6 13 100.49 18.6
2 -6 -13 18.1 14.9
2 -6 -13 12.9 13.3
-2 6 13 14.9 13.1
-2 6 13 19.5 12.9
1 -6 -13 126.39 20.1
1 -6 -13 98.39 18.7
-1 6 13 90.69 18.5
-1 6 13 97.69 18
0 -6 -13 17.1 16.1
0 -6 -13 20.7 16.6
0 6 13 36.8 16.4
5 14 -14 4.7 11.8
5 14 -14 6.2 10
-5 -14 14 13.1 13.7
-5 -14 14 11.4 11.4
4 14 -14 5.9 11.5
4 14 -14 11.5 9.9
-4 -14 14 5.4 12.7
-4 -14 14 27 12
3 14 -14 1.3 10.9
3 14 -14 10.9 9.6
-3 -14 14 0.5 9.4
-3 -14 14 6 13
2 14 -14 118.19 16
2 14 -14 95.59 14.3
-2 -14 14 124.39 17.3
-2 -14 14 116.29 16.7
1 14 -14 180.68 17.7
1 14 -14 203.78 19.3
-1 -14 14 196.98 18.4
-1 -14 14 193.48 22.1
0 14 -14 -3.9 8.8
0 14 -14 7.5 8.6
0 -14 14 3.3 11.8
0 -14 14 4.1 8.2
-1 14 -14 194.68 16.6
-1 14 -14 186.78 17.6
1 -14 14 169.88 20.4
1 -14 14 184.08 16.8
-2 14 -14 61.09 9.5
-2 14 -14 63.19 10.4
2 -14 14 46.1 10.3
2 -14 14 54.09 9.5
7 13 -14 97.89 16.4
7 13 -14 138.19 20.6
-7 -13 14 109.09 15.3
-7 -13 14 88.19 14.5
6 13 -14 116.89 17.4
6 13 -14 110.49 15.4
-6 -13 14 105.09 16.7
-6 -13 14 103.09 16.1
5 13 -14 381.16 26
5 13 -14 366.36 27.2
-5 -13 14 393.26 27.3
-5 -13 14 392.96 26.7
4 13 -14 70.79 13.9
4 13 -14 43.1 10.7
-4 -13 14 75.49 13.9
-4 -13 14 59.39 12.4
3 13 -14 172.58 19.9
3 13 -14 168.88 17.4
-3 -13 14 193.98 19.7
-3 -13 14 165.58 18.5
2 13 -14 83.69 11.6
2 13 -14 62.99 12
-2 -13 14 52.69 10.7
-2 -13 14 69.19 11.7
1 13 -14 24.5 9.1
1 13 -14 12.4 9.6
-1 -13 14 21.3 9.5
-1 -13 14 17.5 9.3
0 13 -14 9.3 8.2
0 13 -14 8.6 8.6
0 -13 14 9.2 8.2
0 -13 14 6.5 8.5
-1 13 -14 149.29 15.8
-1 13 -14 162.88 14.9
1 -13 14 145.09 16
1 -13 14 157.48 15.2
-2 13 -14 5.5 6.9
-2 13 -14 3.9 7.9
2 -13 14 4 7.2
2 -13 14 0.6 9.3
-3 13 -14 165.98 15.7
-3 13 -14 170.58 14.1
3 -13 14 204.38 15.1
3 -13 14 207.48 15.7
-4 13 -14 19.1 7.8
4 -13 14 25.2 7.3
4 -13 14 25.5 8.3
-9 -12 14 15.1 12.3
8 12 -14 378.06 30
8 12 -14 355.06 27.1
-8 -12 14 394.46 28.7
-8 -12 14 379.66 29.1
7 12 -14 773.22 41.7
7 12 -14 787.82 43.4
-7 -12 14 811.52 42.8
-7 -12 14 856.11 43
6 12 -14 533.85 31.4
6 12 -14 564.74 33.9
-6 -12 14 549.15 32.9
-6 -12 14 576.14 32.5
5 12 -14 262.77 21.1
5 12 -14 262.97 23
-5 -12 14 288.57 22.7
-5 -12 14 279.07 22.9
4 12 -14 -1.4 8.8
4 12 -14 -3.4 10
-4 -12 14 11.2 10.2
-4 -12 14 8.2 10.3
3 12 -14 921.81 44.1
3 12 -14 883.21 42.6
-3 -12 14 877.61 43.3
-3 -12 14 886.11 43.4
2 12 -14 1068.79 49.4
2 12 -14 1084.29 50.49
-2 -12 14 1064.79 49.8
-2 -12 14 1087.29 49.9
1 12 -14 175.18 17.3
1 12 -14 187.28 16.7
-1 -12 14 192.78 17.3
-1 -12 14 182.28 17
0 12 -14 114.69 15.2
0 12 -14 120.69 14
0 -12 14 124.29 14.7
0 -12 14 122.09 14.7
-1 12 -14 1.4 7.7
-1 12 -14 3.9 7.1
1 -12 14 2.2 7.6
1 -12 14 5.1 7.6
-2 12 -14 140.49 14.4
-2 12 -14 119.49 12.8
2 -12 14 154.48 14.1
2 -12 14 148.89 14.5
-3 12 -14 45.8 8.8
-3 12 -14 45.8 8
3 -12 14 45.3 9.4
3 -12 14 49.8 8.5
-4 12 -14 25.1 7.7
4 -12 14 31 8.2
4 -12 14 36.9 7.5
-5 12 -14 51.79 8
5 -12 14 42.2 7.9
5 -12 14 52.89 7.8
10 11 -14 26.1 12.6
10 11 -14 20.3 14.4
-10 -11 14 26.2 14.5
-10 -11 14 33.1 13.6
9 11 -14 35 12.2
9 11 -14 39.7 13.4
-9 -11 14 51.49 12.7
-9 -11 14 38 12.9
8 11 -14 426.46 28.2
8 11 -14 403.56 30
-8 -11 14 440.76 29.3
-8 -11 14 429.26 30
7 11 -14 446.26 27.7
7 11 -14 412.66 29.2
-7 -11 14 441.26 28.9
-7 -11 14 419.96 28.2
6 11 -14 92.39 12.8
6 11 -14 115.19 16.3
-6 -11 14 78.29 12.5
-6 -11 14 95.89 14.9
5 11 -14 18.8 10.1
5 11 -14 11.1 9
-5 -11 14 8.2 9
-5 -11 14 9.5 9.5
4 11 -14 202.68 18
4 11 -14 224.18 20.2
-4 -11 14 224.38 19.4
-4 -11 14 195.68 19
3 11 -14 622.24 32.4
3 11 -14 623.04 31.5
-3 -11 14 580.44 31.8
-3 -11 14 580.04 32
2 11 -14 1277.67 57.69
2 11 -14 1289.57 56.99
-2 -11 14 1254.17 57.19
-2 -11 14 1282.17 57.39
1 11 -14 406.76 24.2
1 11 -14 410.16 23.6
-1 -11 14 406.46 23.9
-1 -11 14 419.26 24.1
0 11 -14 144.69 15.3
0 11 -14 156.08 14.4
0 -11 14 151.88 15
0 -11 14 140.99 14.6
-1 11 -14 32.7 7.8
-1 11 -14 52.19 9.3
1 -11 14 42.5 8.9
1 -11 14 41.2 8.5
-2 11 -14 835.72 39.3
-2 11 -14 816.82 40
2 -11 14 915.11 40.2
2 -11 14 913.41 40
-3 11 -14 617.94 31.3
-3 11 -14 626.34 30.4
3 -11 14 670.73 31.6
3 -11 14 687.83 31.1
-4 11 -14 17.2 7.1
4 -11 14 13.4 6.7
4 -11 14 9 7.1
-5 11 -14 86.29 11.2
5 -11 14 74.49 11.2
5 -11 14 76.59 10.7
-6 11 -14 100.29 11.3
-6 11 -14 89.79 13
6 -11 14 105.89 11.6
6 -11 14 106.79 10.9
10 10 -14 54.49 13.6
10 10 -14 79.19 15.1
-10 -10 14 72.29 15.4
-10 -10 14 54.09 13.4
9 10 -14 -0.4 11.1
9 10 -14 0.8 10.2
-9 -10 14 6.7 11.1
-9 -10 14 7 11
8 10 -14 28.2 11.6
8 10 -14 29.9 11.2
-8 -10 14 20.5 11.2
-8 -10 14 35.5 12.1
7 10 -14 29.7 10.9
7 10 -14 28.9 10.6
-7 -10 14 15.2 10.5
-7 -10 14 8.4 10.1
6 10 -14 63.69 12.1
6 10 -14 51.29 11.6
-6 -10 14 90.39 13.9
-6 -10 14 36.1 10.8
5 10 -14 14.5 9.4
5 10 -14 3.2 8.7
-5 -10 14 0.4 8.9
-5 -10 14 2 8.5
4 10 -14 39.9 10
4 10 -14 50.49 9.8
-4 -10 14 76.69 11.2
-4 -10 14 46.9 9.9
3 10 -14 142.09 15.5
3 10 -14 142.09 16.9
-3 -10 14 196.78 16.8
-3 -10 14 175.18 16.6
2 10 -14 402.46 23.2
2 10 -14 403.96 24.1
-2 -10 14 399.36 23.8
-2 -10 14 388.76 23.5
1 10 -14 195.58 15.7
1 10 -14 200.38 16.8
-1 -10 14 189.08 16
-1 -10 14 188.38 16.1
0 10 -14 140.79 13.4
0 10 -14 153.68 14.8
0 -10 14 130.99 14
0 -10 14 126.39 14
-1 10 -14 276.87 18.3
-1 10 -14 283.47 17.2
1 -10 14 245.98 17.6
1 -10 14 253.27 17.8
-2 10 -14 1068.89 47.6
-2 10 -14 1014.7 48.3
2 -10 14 1118.79 48.3
2 -10 14 1129.39 48.6
-3 10 -14 495.95 26.2
3 -10 14 513.85 26.3
3 -10 14 526.75 26.1
-4 10 -14 85.99 9.9
4 -10 14 72.39 9.1
4 -10 14 69.19 9.4
-5 10 -14 298.17 19.5
-5 10 -14 278.97 17.7
5 -10 14 288.77 17.3
5 -10 14 288.27 17.7
-6 10 -14 286.07 18.7
-6 10 -14 290.17 17.4
6 -10 14 280.07 16.7
6 -10 14 263.27 17.1
11 9 -14 571.94 35.4
11 9 -14 592.14 37.6
-11 -9 14 596.44 37.3
-11 -9 14 619.14 37.2
10 9 -14 17.1 13.3
10 9 -14 15.1 11.5
-10 -9 14 20.2 12.3
-10 -9 14 34.5 13.4
9 9 -14 604.84 33.8
9 9 -14 613.44 36.1
-9 -9 14 611.24 34.6
-9 -9 14 577.34 35.5
8 9 -14 935.61 44.8
8 9 -14 937.41 46.2
-8 -9 14 904.71 45.5
-8 -9 14 858.31 45.6
7 9 -14 209.98 20.5
7 9 -14 216.58 19.1
-7 -9 14 221.38 20
-7 -9 14 198.08 20.4
6 9 -14 37.2 10.3
6 9 -14 34.3 10.3
-6 -9 14 63.39 12.3
-6 -9 14 49.9 11.4
5 9 -14 323.57 23.2
5 9 -14 342.87 22
-5 -9 14 305.07 22.6
-5 -9 14 357.16 22.8
4 9 -14 130.19 16.1
4 9 -14 139.79 15.1
-4 -9 14 130.09 15.7
-4 -9 14 153.08 15.8
3 9 -14 17.9 9
3 9 -14 12.3 7.9
-3 -9 14 7.7 7.6
-3 -9 14 0.9 8.2
2 9 -14 147.69 15.4
2 9 -14 137.69 14
-2 -9 14 134.49 14.6
-2 -9 14 130.89 14.5
1 9 -14 113.89 14.3
1 9 -14 118.39 13.1
-1 -9 14 121.09 13.7
-1 -9 14 121.59 13.7
0 9 -14 189.48 14.7
0 9 -14 195.18 16
0 -9 14 190.18 15.4
0 -9 14 194.48 15.7
-1 9 -14 158.58 13.5
-1 9 -14 169.68 14.7
1 -9 14 147.19 13.9
1 -9 14 144.09 14.3
-2 9 -14 221.58 14.5
-2 9 -14 197.58 15.3
2 -9 14 175.98 14.9
2 -9 14 169.58 15.3
-3 9 -14 60.59 9.1
3 -9 14 38.2 8.4
3 -9 14 44.1 8.2
-4 9 -14 9 6.8
4 -9 14 7.9 6.9
4 -9 14 10.9 7.3
-5 9 -14 210.38 17.1
-5 9 -14 189.78 14.7
5 -9 14 209.78 15
5 -9 14 194.68 15.4
-6 9 -14 400.16 23.4
-6 9 -14 394.56 21.8
6 -9 14 425.26 21.8
6 -9 14 418.46 22.5
-7 9 -14 158.18 14.8
-7 9 -14 154.08 13.3
7 -9 14 166.48 13.4
7 -9 14 150.98 13.9
12 8 -14 294.47 25.9
12 8 -14 322.17 29.5
-12 -8 14 324.17 28.7
-12 -8 14 303.47 28.9
11 8 -14 151.18 19.6
11 8 -14 93.49 15.5
-11 -8 14 107.29 15.9
-11 -8 14 153.38 22
10 8 -14 51.69 15.1
10 8 -14 59.49 13.8
-10 -8 14 65.49 15.7
-10 -8 14 58.39 14.2
9 8 -14 900.71 43.8
-9 -8 14 874.81 44.3
-9 -8 14 841.42 44.8
8 8 -14 1499.95 66.19
8 8 -14 1455.55 66.99
-8 -8 14 1448.26 66.79
-8 -8 14 1453.75 66.59
7 8 -14 631.54 34.7
7 8 -14 644.94 33.5
-7 -8 14 643.14 34
-7 -8 14 586.44 34
6 8 -14 106.19 14.5
6 8 -14 102.49 15.1
-6 -8 14 122.49 14.9
-6 -8 14 101.69 15.3
5 8 -14 406.56 24.2
5 8 -14 373.46 23.2
-5 -8 14 346.57 23.5
-5 -8 14 351.56 23.3
4 8 -14 285.17 19.8
4 8 -14 289.07 20.7
-4 -8 14 295.47 20.1
-4 -8 14 287.77 20.5
3 8 -14 692.03 35.8
3 8 -14 687.63 36.4
-3 -8 14 792.92 36.8
-3 -8 14 814.22 36.8
2 8 -14 122.69 14.6
2 8 -14 140.99 13.8
-2 -8 14 142.89 14.3
-2 -8 14 144.59 14.4
1 8 -14 75.89 10.1
1 8 -14 91.59 11.9
-1 -8 14 88.69 13.1
-1 -8 14 96.69 12.8
0 8 -14 87.49 11.6
0 8 -14 92.69 12.6
0 -8 14 98.19 12.7
0 -8 14 100.39 13
-1 8 -14 43 8
-1 8 -14 31.3 8
1 -8 14 41.3 8.4
1 -8 14 38.7 8.8
-2 8 -14 43.9 8.3
2 -8 14 40.8 8
2 -8 14 38.8 8.5
-3 8 -14 31.1 7.6
3 -8 14 35.7 7.7
3 -8 14 39 8.5
-4 8 -14 76.19 11.4
4 -8 14 71.09 9.5
4 -8 14 78.89 11.9
-5 8 -14 167.58 14.1
-5 8 -14 180.38 16.5
5 -8 14 176.38 14.3
5 -8 14 158.18 14.8
-6 8 -14 389.66 22.3
-6 8 -14 391.16 24
6 -8 14 446.96 22.7
6 -8 14 431.46 23.9
-7 8 -14 192.78 15.2
-7 8 -14 186.38 16.3
7 -8 14 183.88 15.5
7 -8 14 189.98 15
12 7 -14 39.4 12.5
12 7 -14 47.6 15.3
-12 -7 14 34.3 14.1
-12 -7 14 56.39 14.9
11 7 -14 55.99 16
11 7 -14 59.39 14.3
-11 -7 14 66.79 15.6
-11 -7 14 59.59 16
10 7 -14 52.19 13.9
10 7 -14 66.29 13.2
-10 -7 14 54.69 14.2
-10 -7 14 54.09 13.6
9 7 -14 375.06 27.6
9 7 -14 383.16 25.6
-9 -7 14 371.06 27
-9 -7 14 379.26 26
8 7 -14 587.44 32.5
8 7 -14 600.04 33.6
-8 -7 14 592.14 33.3
-8 -7 14 578.34 32.8
7 7 -14 184.98 19.2
7 7 -14 175.58 17.7
-7 -7 14 159.48 17.8
-7 -7 14 174.28 18.7
6 7 -14 284.17 20.9
6 7 -14 275.77 20
-6 -7 14 282.17 20.4
-6 -7 14 245.38 20.1
5 7 -14 448.56 27.6
5 7 -14 452.75 26.9
-5 -7 14 528.05 28
-5 -7 14 537.55 28.3
4 7 -14 691.63 37.5
4 7 -14 705.13 37.1
-4 -7 14 856.71 38.4
-4 -7 14 849.12 38.3
3 7 -14 1110.79 52.39
3 7 -14 1070.49 52.79
-3 -7 14 1275.97 53.49
-3 -7 14 1252.67 53.39
2 7 -14 189.38 15.9
2 7 -14 184.88 15
-2 -7 14 161.68 15.4
-2 -7 14 183.08 15.8
1 7 -14 637.84 32.6
1 7 -14 670.83 32.1
-1 -7 14 696.93 32.8
-1 -7 14 650.53 32.8
0 7 -14 252.17 17.2
0 7 -14 276.27 16.9
0 -7 14 217.28 17.2
0 -7 14 214.68 16.4
-1 7 -14 5.5 6.3
-1 7 -14 4 6.7
1 -7 14 18.5 8.1
1 -7 14 21.4 7.3
-2 7 -14 123.29 13.5
2 -7 14 159.68 14.4
2 -7 14 144.59 13.5
-3 7 -14 49.1 8.6
3 -7 14 44.1 8.4
3 -7 14 35.1 8.4
-4 7 -14 36.2 8.4
-4 7 -14 48.2 10.5
4 -7 14 30 7.8
4 -7 14 29.5 8.2
-5 7 -14 9.2 8.8
-5 7 -14 14.4 7.4
5 -7 14 11.6 7.8
5 -7 14 13.3 7.5
-6 7 -14 29.3 8.3
-6 7 -14 30.1 9.6
6 -7 14 41.7 9.3
6 -7 14 45.9 8.9
-7 7 -14 4.9 7.4
-7 7 -14 7.2 8.7
7 -7 14 6.4 9.2
7 -7 14 12.4 7.9
12 6 -14 93.49 16.2
12 6 -14 153.68 20.6
-12 -6 14 127.99 18.2
-12 -6 14 118.29 17.4
11 6 -14 125.39 16.6
11 6 -14 82.69 15.1
-11 -6 14 97.99 15.8
-11 -6 14 122.59 17.8
10 6 -14 96.29 14.1
10 6 -14 60.59 12.9
-10 -6 14 51.19 12.5
9 6 -14 366.56 25.5
9 6 -14 356.36 27.2
-9 -6 14 402.56 26.4
-9 -6 14 396.36 27
8 6 -14 156.18 19.1
8 6 -14 152.48 17.4
-8 -6 14 164.48 19.2
-8 -6 14 170.88 18.1
7 6 -14 173.18 17.4
7 6 -14 183.58 18.8
-7 -6 14 177.88 18.8
-7 -6 14 191.28 17.9
6 6 -14 76.99 11.3
6 6 -14 96.59 14.7
-6 -6 14 122.19 15.8
-6 -6 14 118.79 15.9
5 6 -14 555.84 30.7
5 6 -14 584.04 30.4
-5 -6 14 575.34 31.1
-5 -6 14 614.04 31.1
4 6 -14 128.99 14.2
4 6 -14 109.69 14.9
-4 -6 14 179.58 15.8
3 6 -14 514.35 28.4
3 6 -14 541.25 29.4
-3 -6 14 599.74 29.8
-3 -6 14 603.94 29.6
2 6 -14 16.7 7.1
2 6 -14 21.6 7.7
-2 -6 14 12.6 6.8
-2 -6 14 21.9 8.3
1 6 -14 588.94 30.2
1 6 -14 593.34 29.5
-1 -6 14 603.64 30
-1 -6 14 589.24 30.3
0 6 -14 156.58 13.8
0 6 -14 163.48 14.5
0 -6 14 137.29 13.8
0 -6 14 141.09 14.9
-1 6 -14 139.79 14.1
1 -6 14 164.58 15
1 -6 14 143.59 13.9
-2 6 -14 204.68 16.1
2 -6 14 205.78 16.2
2 -6 14 195.88 15.6
-3 6 -14 143.09 14.4
3 -6 14 138.39 14.1
3 -6 14 152.58 14.5
-4 6 -14 198.08 16.1
-4 6 -14 206.38 18.5
4 -6 14 187.68 15.8
4 -6 14 193.78 16.4
-5 6 -14 382.26 23.5
-5 6 -14 381.66 21.8
5 -6 14 339.97 21.4
5 -6 14 329.67 21.7
-6 6 -14 196.58 16
-6 6 -14 171.38 17.8
6 -6 14 174.18 16
6 -6 14 173.58 16.5
-7 6 -14 22.7 8.7
-7 6 -14 17.2 9.3
7 -6 14 18.9 8.6
7 -6 14 28.7 11.7
13 5 -14 13 15.2
13 5 -14 18.1 13.3
-13 -5 14 30.6 15.7
-13 -5 14 32.5 14.1
12 5 -14 -5.2 14
12 5 -14 8.6 10.6
-12 -5 14 6.7 13.5
-12 -5 14 2.3 10.8
11 5 -14 6.7 9.6
11 5 -14 7.5 12.9
-11 -5 14 14.5 12.7
-11 -5 14 3.4 10.8
10 5 -14 13 11.8
10 5 -14 12.8 9.5
-10 -5 14 7.8 10.9
-10 -5 14 14.4 10.1
9 5 -14 124.19 16.4
9 5 -14 81.39 12.6
-9 -5 14 61.49 11.7
8 5 -14 76.39 12.7
8 5 -14 54.29 11.4
-8 -5 14 77.89 13.5
-8 -5 14 49.5 10.8
7 5 -14 296.77 20.7
7 5 -14 256.87 20.9
-7 -5 14 244.48 20.7
-7 -5 14 285.47 20.8
6 5 -14 193.78 17.8
6 5 -14 180.88 16.8
-6 -5 14 172.78 17.4
-6 -5 14 178.88 17.6
5 5 -14 459.95 24.6
5 5 -14 417.36 25.2
-5 -5 14 406.56 25
-5 -5 14 409.06 24.9
4 5 -14 172.88 16.2
4 5 -14 186.68 15.5
-4 -5 14 171.98 16.4
-4 -5 14 168.58 16.1
3 5 -14 401.56 24.4
3 5 -14 423.76 23.7
-3 -5 14 456.85 24.9
-3 -5 14 458.55 24.7
2 5 -14 47.1 9.6
2 5 -14 50.59 8.9
-2 -5 14 39.9 8.9
-2 -5 14 47 8.9
1 5 -14 207.28 15.7
1 5 -14 204.88 16.5
-1 -5 14 208.28 16.2
-1 -5 14 217.18 17.2
0 5 -14 477.25 26
0 -5 14 462.95 26
0 -5 14 481.45 25.7
-1 5 -14 640.14 31
1 -5 14 592.44 30.7
1 -5 14 572.94 30.3
-2 5 -14 212.88 16.4
2 -5 14 188.88 15.8
2 -5 14 188.98 16.2
-3 5 -14 236.58 19.9
-3 5 -14 221.98 17.6
3 -5 14 236.18 17.8
3 -5 14 268.47 17.8
-4 5 -14 237.28 18.2
-4 5 -14 222.58 19.8
4 -5 14 259.17 18.7
4 -5 14 250.37 17.9
-5 5 -14 626.94 32.6
-5 5 -14 598.74 30.8
5 -5 14 576.84 31
5 -5 14 570.44 30.3
-6 5 -14 524.95 29.9
-6 5 -14 541.65 28.5
6 -5 14 488.25 28.5
6 -5 14 518.35 28
-7 5 -14 73.89 12.4
-7 5 -14 61.29 10.8
7 -5 14 87.59 11.7
7 -5 14 66.69 13.8
13 4 -14 97.89 18.7
-13 -4 14 106.19 17.5
-13 -4 14 121.89 18.6
12 4 -14 71.59 14.4
12 4 -14 33.5 13.6
-12 -4 14 90.59 16.9
-12 -4 14 55.49 13.6
11 4 -14 232.38 24.5
11 4 -14 232.28 21.7
-11 -4 14 246.78 23.8
-11 -4 14 238.38 23.7
10 4 -14 762.32 42.5
10 4 -14 738.73 41.1
-10 -4 14 888.41 42.9
-10 -4 14 894.41 43
9 4 -14 375.56 26.8
9 4 -14 411.86 25.4
-9 -4 14 382.66 26.6
-9 -4 14 403.56 26.5
8 4 -14 59.49 11.1
8 4 -14 44.6 11.4
-8 -4 14 33.5 10.9
-8 -4 14 34.2 11.3
7 4 -14 209.78 19.2
7 4 -14 241.48 18.6
-7 -4 14 203.28 19.4
-7 -4 14 218.58 19.4
6 4 -14 124.79 16
6 4 -14 138.19 15.3
-6 -4 14 121.89 15.8
-6 -4 14 123.59 16.1
5 4 -14 409.46 24
5 4 -14 421.36 24.9
-5 -4 14 396.46 24.9
-5 -4 14 441.36 24.8
4 4 -14 310.97 20.7
4 4 -14 312.67 19.9
-4 -4 14 301.07 20.8
-4 -4 14 323.57 20.7
3 4 -14 -2.7 6.5
3 4 -14 2.5 6.3
-3 -4 14 0.3 6.8
-3 -4 14 3.3 7.1
2 4 -14 0.9 6.2
2 4 -14 1.4 7.1
-2 -4 14 4.9 6.9
-2 -4 14 0.9 7.2
1 4 -14 110.09 13.7
1 4 -14 108.89 13
-1 -4 14 103.59 13.6
-1 -4 14 103.99 14
0 4 -14 455.85 25.5
0 -4 14 465.75 25.3
0 -4 14 438.56 25.5
-1 4 -14 212.78 17.1
1 -4 14 225.38 17.5
1 -4 14 210.08 16.9
-2 4 -14 21.2 8
-2 4 -14 19.4 9.6
2 -4 14 22.9 8.7
2 -4 14 21.2 8.5
-3 4 -14 1.7 9.7
-3 4 -14 3 7.5
3 -4 14 -3 7.9
3 -4 14 1 7.4
-4 4 -14 162.98 16.6
-4 4 -14 177.08 18.8
4 -4 14 170.08 16.7
4 -4 14 170.68 15.9
-5 4 -14 394.56 23.8
-5 4 -14 391.56 25.3
5 -4 14 337.87 22.2
5 -4 14 334.97 23.2
-6 4 -14 252.07 19.7
-6 4 -14 231.28 20.3
6 -4 14 197.78 20.6
6 -4 14 222.68 18.2
-7 4 -14 4.5 9.2
-7 4 -14 -0.9 10.7
7 -4 14 3.2 8.9
7 -4 14 -1 12.7
13 3 -14 164.18 20.3
13 3 -14 153.58 21.3
-13 -3 14 146.29 19.9
-13 -3 14 124.59 18.1
12 3 -14 22 13.4
12 3 -14 35.8 12.4
-12 -3 14 37 14.1
-12 -3 14 44.7 13.7
11 3 -14 296.37 23.9
11 3 -14 300.57 26
-11 -3 14 352.96 26.4
-11 -3 14 342.87 25.8
10 3 -14 1005 47.4
10 3 -14 925.91 48.4
-10 -3 14 980.8 48.1
-10 -3 14 988.5 48.4
9 3 -14 366.16 25.7
9 3 -14 409.16 24.5
-9 -3 14 351.06 25.5
-9 -3 14 336.77 25.1
8 3 -14 43.9 11
8 3 -14 29.2 10
-8 -3 14 15 9.4
-8 -3 14 22.9 11.4
7 3 -14 98.49 14.2
7 3 -14 102.19 13.6
-7 -3 14 74.19 12.9
-7 -3 14 89.89 13.1
6 3 -14 201.08 16.7
6 3 -14 214.88 17.7
-6 -3 14 156.58 17.1
-6 -3 14 136.99 16.6
5 3 -14 255.37 18.2
-5 -3 14 154.88 17.1
-5 -3 14 168.58 17
4 3 -14 318.97 20.2
4 3 -14 312.67 21.1
-4 -3 14 281.07 20.4
-4 -3 14 306.57 21.2
3 3 -14 121.69 13.6
3 3 -14 120.09 15.1
-3 -3 14 109.49 14.6
-3 -3 14 120.39 15.5
2 3 -14 7.6 7.9
2 3 -14 3.6 6.8
-2 -3 14 0.9 8.1
-2 -3 14 7.8 8.4
1 3 -14 91.49 13.8
-1 -3 14 99.49 13.9
-1 -3 14 93.19 14
0 3 -14 11.1 7.7
0 -3 14 10.6 7.6
0 -3 14 19.1 8.5
-1 3 -14 16.6 8.7
1 -3 14 11.5 8.4
1 -3 14 6.8 8.3
-2 3 -14 -4.9 9.7
-2 3 -14 2.3 7.5
2 -3 14 0.5 8.4
2 -3 14 1.9 7.5
-3 3 -14 18.4 9.5
-3 3 -14 29.5 11.6
3 -3 14 24.7 9.7
3 -3 14 22.9 9
-4 3 -14 110.69 13.9
-4 3 -14 118.39 15.5
4 -3 14 124.79 15
4 -3 14 126.89 16.4
-5 3 -14 89.49 13.7
-5 3 -14 110.59 16.8
5 -3 14 132.39 15.7
5 -3 14 123.99 17.3
-6 3 -14 39.8 11
-6 3 -14 26.4 10.9
6 -3 14 31.8 12.9
6 -3 14 41.1 10.2
-7 3 -14 5 11.1
-7 3 -14 13.3 10.8
7 -3 14 10.9 9.8
7 -3 14 14.1 13.8
13 2 -14 241.68 24
13 2 -14 242.38 27.6
-13 -2 14 195.68 26.4
-13 -2 14 222.88 26
12 2 -14 93.69 17.3
12 2 -14 78.69 13.7
-12 -2 14 77.69 14.9
-12 -2 14 121.09 18.6
11 2 -14 10.3 11.3
11 2 -14 14.4 10.9
-11 -2 14 -0.3 10.7
-11 -2 14 11.9 12.3
10 2 -14 189.78 21.3
10 2 -14 181.18 18.9
-10 -2 14 145.19 20.5
-10 -2 14 143.49 20.4
9 2 -14 67.59 11.8
9 2 -14 53.39 12.2
-9 -2 14 84.89 13.6
-9 -2 14 89.89 14.9
8 2 -14 20.5 9.9
8 2 -14 30.4 9.1
-8 -2 14 17.2 9.7
-8 -2 14 30.6 11.2
7 2 -14 136.49 17.4
7 2 -14 154.38 16.1
-7 -2 14 185.08 18
-7 -2 14 166.78 18.7
6 2 -14 341.77 21.7
6 2 -14 309.77 22.6
-6 -2 14 337.37 22.5
-6 -2 14 360.86 23.5
5 2 -14 512.25 26.5
5 2 -14 491.65 27.7
-5 -2 14 431.66 26.7
-5 -2 14 451.25 27.4
4 2 -14 794.12 39.1
4 2 -14 786.82 38
-4 -2 14 745.23 38.6
-4 -2 14 814.52 39.4
3 2 -14 176.08 17.2
3 2 -14 190.38 16.3
-3 -2 14 171.08 17.3
-3 -2 14 199.08 17.3
2 2 -14 258.57 19.3
-2 -2 14 260.47 19.3
-2 -2 14 249.28 19.4
1 2 -14 769.32 38.1
-1 -2 14 794.12 38.1
-1 -2 14 728.63 37.5
0 2 -14 527.85 28
0 -2 14 465.35 27.6
0 -2 14 477.55 27.3
-1 2 -14 87.89 13.3
-1 2 -14 108.39 15.2
1 -2 14 91.89 12.2
1 -2 14 89.29 12.2
-2 2 -14 11.7 10.8
-2 2 -14 9.1 8.6
2 -2 14 14.9 9
2 -2 14 15.2 8.5
-3 2 -14 57.69 11.3
-3 2 -14 54.69 13.4
3 -2 14 61.69 12.1
3 -2 14 32.4 9.4
-4 2 -14 133.79 17.7
-4 2 -14 104.39 14.6
4 -2 14 115.09 15.2
4 -2 14 117.49 16
-5 2 -14 30.2 11.4
-5 2 -14 51.99 12
5 -2 14 40.7 10.2
5 -2 14 39 11.5
-6 2 -14 -1.3 10.6
-6 2 -14 8.7 11.4
6 -2 14 -0.4 9.4
6 -2 14 1.9 13.1
12 1 -14 106.39 15.5
12 1 -14 95.69 17.8
-12 -1 14 99.49 17.6
-12 -1 14 83.99 15.7
11 1 -14 437.46 30.6
11 1 -14 437.66 27.6
-11 -1 14 455.75 30.8
-11 -1 14 443.16 30
10 1 -14 70.29 13.3
10 1 -14 89.49 12.5
-10 -1 14 60.89 12.5
-10 -1 14 57.19 12.4
9 1 -14 44.3 9.7
9 1 -14 74.99 13.8
-9 -1 14 73.89 13.9
-9 -1 14 49 11.8
8 1 -14 43.1 12.2
8 1 -14 30.1 8.9
-8 -1 14 22.6 9.9
-8 -1 14 45.6 12.3
7 1 -14 161.08 16.6
7 1 -14 146.99 18.2
-7 -1 14 166.38 19.1
-7 -1 14 167.18 18.1
6 1 -14 649.04 32.2
6 1 -14 587.54 33.3
-6 -1 14 610.24 34
-6 -1 14 625.64 33
5 1 -14 486.15 27.9
5 1 -14 482.85 26.5
-5 -1 14 438.26 28
-5 -1 14 434.36 27
4 1 -14 446.96 24.7
-4 -1 14 316.47 23.2
-4 -1 14 352.16 23.9
3 1 -14 2.3 8
-3 -1 14 5.5 8.8
-3 -1 14 4.6 7.8
2 1 -14 383.26 24.6
-2 -1 14 413.96 24.9
-2 -1 14 378.16 24
1 1 -14 1237.68 56.89
-1 -1 14 1282.17 56.89
-1 -1 14 1206.88 56.39
0 1 -14 501.95 29.1
0 1 -14 554.54 31.4
0 -1 14 483.75 28.2
0 -1 14 501.05 28.8
-1 1 -14 12.2 9.5
-1 1 -14 13.5 11.9
1 -1 14 18.2 9.5
1 -1 14 20 10.4
-2 1 -14 47 12
-2 1 -14 47.2 11.1
2 -1 14 26.1 9.3
2 -1 14 34 10.1
-3 1 -14 109.89 16.1
-3 1 -14 132.09 18.4
3 -1 14 181.88 19.3
3 -1 14 164.88 17.6
-4 1 -14 485.55 30.4
-4 1 -14 424.36 28.5
4 -1 14 428.76 27.3
4 -1 14 478.55 29.1
-5 1 -14 192.18 22.2
-5 1 -14 182.28 21.4
5 -1 14 185.58 20.9
5 -1 14 178.78 19
-6 1 -14 8 12.7
-6 1 -14 9.4 11.7
6 -1 14 0.9 13.8
6 -1 14 14.7 10.7
12 0 -14 149.19 19.7
12 0 -14 144.29 20
-12 0 14 147.69 20.2
-12 0 14 177.98 23.2
11 0 -14 180.98 20.1
11 0 -14 203.48 23.8
-11 0 14 198.28 23.6
-11 0 14 203.68 23.2
10 0 -14 222.58 19.8
10 0 -14 220.68 23.1
-10 0 14 200.78 22.5
-10 0 14 192.78 22.3
9 0 -14 43.9 11.5
9 0 -14 35.2 11.7
-9 0 14 23.6 10.7
-9 0 14 17.3 11.8
8 0 -14 117.39 16.5
8 0 -14 125.79 16.2
-8 0 14 147.19 17.8
-8 0 14 125.59 15.5
7 0 -14 15.7 8.5
7 0 -14 27.7 11.3
-7 0 14 19.7 10.7
-7 0 14 24.7 11.2
6 0 -14 151.78 19.3
6 0 -14 166.08 16.9
-6 0 14 152.38 19.2
-6 0 14 167.88 18.6
5 0 -14 47.4 12
-5 0 14 53.49 12.6
-5 0 14 55.89 12.1
4 0 -14 29.4 9.1
-4 0 14 52.99 12.8
-4 0 14 26.4 9
3 0 -14 87.99 13.2
-3 0 14 65.69 11.4
-3 0 14 73.29 12.4
2 0 -14 97.89 14.1
-2 0 14 73.29 13
-2 0 14 79.59 13.1
1 0 -14 235.68 19.9
1 0 -14 220.48 22.5
-1 0 14 213.68 19.6
-1 0 14 205.68 18.9
0 0 -14 72.89 13.4
0 0 -14 71.19 11.6
0 0 14 46.8 10.7
0 0 14 58.39 10.2
-1 0 -14 4.3 10.7
-1 0 -14 11 11.5
1 0 14 4.4 9.8
1 0 14 9.2 9.7
-2 0 -14 252.87 22.2
-2 0 -14 240.08 23.8
2 0 14 241.28 20.3
2 0 14 261.67 21.7
-3 0 -14 1088.49 52.79
3 0 14 1102.49 52.69
3 0 14 1100.09 51.49
-4 0 -14 1231.68 57.99
-4 0 -14 1231.28 59.49
4 0 14 1239.28 56.79
4 0 14 1198.88 57.89
-5 0 -14 204.18 24.1
-5 0 -14 217.38 23.4
5 0 14 196.58 24
5 0 14 217.18 21.5
12 -1 -14 95.39 16
12 -1 -14 99.69 14
-12 1 14 76.89 16.1
-12 1 14 76.59 16.2
11 -1 -14 285.47 23.2
11 -1 -14 256.77 26.3
-11 1 14 269.87 26.1
-11 1 14 269.17 25.7
10 -1 -14 465.35 32.1
10 -1 -14 508.05 30
-10 1 14 545.15 33.1
-10 1 14 528.55 32.4
9 -1 -14 495.05 28.5
9 -1 -14 427.26 29.9
-9 1 14 482.75 30.2
-9 1 14 460.95 30.4
8 -1 -14 63.59 11.2
8 -1 -14 92.09 15.4
-8 1 14 77.29 13.9
-8 1 14 101.59 14.5
7 -1 -14 743.43 39
-7 1 14 705.93 38.2
-7 1 14 720.43 38.9
6 -1 -14 67.99 11.5
-6 1 14 63.89 11.2
5 -1 -14 105.39 15.2
-5 1 14 95.49 14.8
-5 1 14 93.99 15
4 -1 -14 69.49 11.8
-4 1 14 69.89 11.5
-4 1 14 112.19 14.8
3 -1 -14 61.89 11.6
-3 1 14 93.79 12.9
-3 1 14 62.79 11.7
2 -1 -14 52.09 11.5
2 -1 -14 60.49 13.7
-2 1 14 52.09 11.9
-2 1 14 50.89 10.8
1 -1 -14 2.9 11.8
1 -1 -14 0.5 9.2
-1 1 14 3.4 8.8
-1 1 14 -0.1 10
0 -1 -14 -1.7 11.9
0 -1 -14 -1.3 11.3
0 1 14 -4 10.7
0 1 14 -8 10.2
-1 -1 -14 35.5 12
-1 -1 -14 39.8 11.5
1 1 14 36.1 11.2
1 1 14 33.5 10.5
-2 -1 -14 26.1 13
-2 -1 -14 23.3 11.7
2 1 14 18.9 9.9
2 1 14 20.7 10.8
-3 -1 -14 245.68 24.4
-3 -1 -14 278.27 25.8
3 1 14 245.58 22.4
3 1 14 250.37 23.3
-4 -1 -14 245.98 24.7
-4 -1 -14 230.68 25.3
4 1 14 254.07 23.9
4 1 14 249.58 22.5
-5 -1 -14 113.79 17
-5 -1 -14 156.98 21
5 1 14 140.49 21
5 1 14 163.08 23
11 -2 -14 298.57 27.3
11 -2 -14 300.57 24.6
-11 2 14 297.07 27.2
-11 2 14 290.87 27.4
10 -2 -14 329.47 24.5
10 -2 -14 327.47 27.2
-10 2 14 353.16 28.2
-10 2 14 343.57 27
9 -2 -14 158.08 19.1
-9 2 14 108.89 16.9
-9 2 14 153.58 18
8 -2 -14 168.38 21.7
-8 2 14 150.78 20.6
-8 2 14 146.09 17.9
-7 2 14 823.12 42.3
-7 2 14 783.72 41.8
6 -2 -14 149.59 19.5
-6 2 14 86.69 13.9
-6 2 14 132.79 18.8
5 -2 -14 269.57 24.2
-5 2 14 343.97 24.8
-5 2 14 328.47 24.1
4 -2 -14 210.38 21
-4 2 14 222.08 21.6
-4 2 14 196.18 20.5
3 -2 -14 172.68 22.6
3 -2 -14 155.68 19.5
-3 2 14 130.69 19.4
-3 2 14 138.09 18.6
2 -2 -14 193.78 21.4
2 -2 -14 202.18 24.4
-2 2 14 199.78 21.3
-2 2 14 210.28 20.4
1 -2 -14 54.49 14.7
1 -2 -14 62.89 13.3
-1 2 14 44.3 12.9
-1 2 14 38.6 11.2
0 -2 -14 0.5 11.5
0 -2 -14 -0.2 13.2
0 2 14 0.5 10.9
0 2 14 -4.3 11.2
-1 -2 -14 58.69 14.6
-1 -2 -14 63.89 13.4
1 2 14 92.69 15.1
1 2 14 88.09 13.1
-2 -2 -14 122.79 18.3
-2 -2 -14 91.79 15.1
2 2 14 116.39 16.6
2 2 14 88.59 13.8
-3 -2 -14 15.6 14
-3 -2 -14 22.2 13.6
3 2 14 18.9 12.7
3 2 14 20.3 12.8
-4 -2 -14 24.4 15.6
-4 -2 -14 0.6 13
4 2 14 8.4 12.5
4 2 14 7 12.1
10 -3 -14 -0.5 12.1
-10 3 14 13.4 14.2
-10 3 14 4.9 12.2
9 -3 -14 19 12.2
-9 3 14 26.6 14.7
-9 3 14 14.7 11.5
8 -3 -14 264.47 25.5
-8 3 14 286.17 25.4
-8 3 14 272.17 25
7 -3 -14 534.05 32.1
-7 3 14 440.66 30.5
-7 3 14 462.55 31.3
-6 3 14 312.57 25.6
-6 3 14 346.97 26.6
5 -3 -14 292.67 27.3
5 -3 -14 268.87 24.4
-5 3 14 307.37 25.2
-5 3 14 303.97 24.5
4 -3 -14 37.3 15.1
4 -3 -14 52.69 14.5
-4 3 14 28.9 13.6
-4 3 14 37.6 13.5
3 -3 -14 516.45 34.4
3 -3 -14 494.35 32.4
-3 3 14 519.65 31.5
-3 3 14 534.85 33.1
2 -3 -14 988.9 50.39
2 -3 -14 1020.1 52.39
-2 3 14 1048.7 50.79
-2 3 14 953.3 48.8
1 -3 -14 224.28 24.5
1 -3 -14 212.78 25.4
-1 3 14 223.98 22.8
-1 3 14 211.18 22.1
0 -3 -14 60.99 16
0 -3 -14 45.4 15
0 3 14 49.7 13.6
0 3 14 37.3 13.1
-1 -3 -14 75.79 16.7
-1 -3 -14 46.1 14.8
1 3 14 64.89 15.2
1 3 14 40.7 13.1
-2 -3 -14 547.75 36.6
-2 -3 -14 523.45 35.2
2 3 14 544.45 34.5
2 3 14 512.05 32.8
-3 -3 -14 124.59 18.7
-3 -3 -14 139.99 19.1
3 3 14 101.69 15.4
3 3 14 170.98 23.7
9 -4 -14 51.99 15
-9 4 14 63.59 15.3
-9 4 14 49.3 14.2
8 -4 -14 8.4 12.3
-8 4 14 -6 12.1
-8 4 14 -1.4 11.7
7 -4 -14 11.1 14.2
-7 4 14 14.1 13.6
-7 4 14 6.4 12.4
6 -4 -14 40.7 16.3
6 -4 -14 6.7 11.6
-6 4 14 10 11.6
-6 4 14 27.2 14.4
5 -4 -14 3.9 12.7
5 -4 -14 3.3 12.6
-5 4 14 -3.6 12.1
-5 4 14 7.9 13
4 -4 -14 103.19 17.5
4 -4 -14 103.99 19.4
-4 4 14 103.39 17.2
-4 4 14 83.29 17.3
3 -4 -14 499.95 33.2
3 -4 -14 500.25 34.7
-3 4 14 479.85 33.1
-3 4 14 481.55 31.2
2 -4 -14 687.63 40.4
1 -4 -14 90.29 17.3
1 -4 -14 159.38 20.6
-1 4 14 101.09 16.1
-1 4 14 153.88 21.4
0 -4 -14 1.4 13.7
0 -4 -14 14.4 14.3
0 4 14 11.2 12.4
0 4 14 10 12.7
-1 -4 -14 121.19 18.4
-1 -4 -14 94.19 16.6
1 4 14 82.69 15.4
1 4 14 105.19 16.5
7 -5 -14 123.99 20.1
7 -5 -14 121.79 19
-7 5 14 94.39 17.1
-7 5 14 150.58 20.5
6 -5 -14 11.8 13.9
6 -5 -14 7.5 16.1
-6 5 14 3.7 14.7
-6 5 14 15.4 13.2
5 -5 -14 33.5 14
5 -5 -14 47.2 16.5
-5 5 14 41.3 13.4
-5 5 14 45 16.1
4 -5 -14 2.5 13.2
4 -5 -14 9 14.7
-4 5 14 8.4 13.3
-4 5 14 -3.8 11.7
3 -5 -14 19.4 15.6
3 -5 -14 21.2 15.4
-3 5 14 36.6 14.1
-3 5 14 30.2 15.5
2 -5 -14 115.49 20.4
2 -5 -14 103.69 19.1
-2 5 14 149.88 20.6
-2 5 14 115.09 17.7
1 -5 -14 84.89 17.7
1 -5 -14 103.99 19.1
-1 5 14 91.19 16.9
-1 5 14 63.69 15.5
3 14 -15 2.4 9.6
3 14 -15 12.9 12.1
-3 -14 15 9.2 10.4
-3 -14 15 8.4 13.9
2 14 -15 164.38 18.9
2 14 -15 186.28 20.7
-2 -14 15 160.88 19.1
-2 -14 15 179.58 23.8
1 14 -15 286.77 21.6
1 14 -15 292.17 22.9
-1 -14 15 247.38 21.4
-1 -14 15 243.38 25
0 14 -15 23.7 10.6
0 14 -15 21.5 9.7
0 -14 15 31.8 10.1
0 -14 15 29.6 13.4
6 13 -15 389.76 27
6 13 -15 382.76 29.8
-6 -13 15 390.56 28.9
-6 -13 15 350.66 28.3
5 13 -15 239.38 23.9
5 13 -15 233.58 21.5
-5 -13 15 231.08 22.8
-5 -13 15 228.38 25.5
4 13 -15 10.8 10.7
4 13 -15 28.2 12.9
-4 -13 15 36.1 14.3
-4 -13 15 17.7 11.7
3 13 -15 229.98 20.2
3 13 -15 225.08 21.9
-3 -13 15 243.08 24.4
-3 -13 15 225.58 20.6
2 13 -15 84.39 12.8
2 13 -15 83.09 13.8
-2 -13 15 55.99 11.4
-2 -13 15 70.19 14.6
1 13 -15 11.4 9.9
1 13 -15 19.1 9.5
-1 -13 15 15.8 9.4
-1 -13 15 16.4 12.3
0 13 -15 33.6 9.5
0 13 -15 38.2 10.8
0 -13 15 31.8 9.8
0 -13 15 27.6 12.2
-1 13 -15 47.8 10.6
-1 13 -15 37.7 9.3
1 -13 15 56.59 10.5
1 -13 15 44.3 12.6
-2 13 -15 39.9 9.9
-2 13 -15 39.4 8.7
2 -13 15 53.19 11.6
2 -13 15 39.5 9.4
8 12 -15 614.74 38.5
8 12 -15 609.94 36.2
-8 -12 15 618.24 37.8
-8 -12 15 641.84 37.4
7 12 -15 364.06 29.4
7 12 -15 371.46 27.3
-7 -12 15 399.66 28.8
6 12 -15 442.86 30.4
6 12 -15 439.66 28.2
-6 -12 15 457.85 29.8
-6 -12 15 429.26 29.3
5 12 -15 20.3 11.3
5 12 -15 34.8 11.9
-5 -12 15 30.3 12.4
-5 -12 15 19.5 10.9
4 12 -15 181.98 20.1
4 12 -15 169.68 18.2
-4 -12 15 153.48 19.8
-4 -12 15 137.19 18.7
3 12 -15 648.74 32.5
3 12 -15 596.64 33.4
-3 -12 15 540.95 32.3
-3 -12 15 571.94 32.7
2 12 -15 704.83 35.2
2 12 -15 665.03 33.9
-2 -12 15 611.04 34
-2 -12 15 622.84 34.1
1 12 -15 175.78 17.1
1 12 -15 174.88 18.2
-1 -12 15 186.28 17.8
-1 -12 15 182.08 17.8
0 12 -15 115.59 16
0 12 -15 111.09 14.6
0 -12 15 132.39 15.6
0 -12 15 138.69 15.8
-1 12 -15 -1 7.4
-1 12 -15 -5.5 7.7
1 -12 15 4.4 8.2
1 -12 15 2.5 8.9
-2 12 -15 39.7 9.5
-2 12 -15 37.5 8.6
2 -12 15 60.69 10
2 -12 15 69.29 12.3
-3 12 -15 35.1 8.1
-3 12 -15 35.5 8.9
3 -12 15 38.7 10
3 -12 15 41.3 9
-4 12 -15 7.2 7.4
4 -12 15 -2.5 7.5
4 -12 15 3 7.5
9 11 -15 51.39 15.9
9 11 -15 46.2 14.3
-9 -11 15 68.19 16.5
-9 -11 15 45.3 14.8
8 11 -15 375.16 29.6
8 11 -15 389.36 27.3
-8 -11 15 350.36 28.4
-8 -11 15 376.86 28.4
7 11 -15 280.67 23.3
7 11 -15 300.87 25.6
-7 -11 15 249.08 24.3
-7 -11 15 299.37 24.6
6 11 -15 170.28 21.5
6 11 -15 159.88 19.4
-6 -11 15 199.18 21.6
-6 -11 15 201.28 21.2
5 11 -15 19 10.6
5 11 -15 19.8 9.6
-5 -11 15 31.7 11.5
-5 -11 15 29 11
4 11 -15 104.09 14.6
4 11 -15 110.09 14.3
-4 -11 15 99.99 14.8
-4 -11 15 96.69 13.7
3 11 -15 588.14 31.6
3 11 -15 585.64 32.6
-3 -11 15 608.84 32.4
-3 -11 15 571.14 32.1
2 11 -15 764.32 37
2 11 -15 731.13 35.8
-2 -11 15 677.53 36
-2 -11 15 682.43 36
1 11 -15 552.94 30.3
1 11 -15 536.45 29.2
-1 -11 15 553.74 30
-1 -11 15 585.54 30.1
0 11 -15 58.69 9.5
0 11 -15 84.09 11.7
0 -11 15 74.39 11
0 -11 15 67.69 10.5
-1 11 -15 159.18 14.6
-1 11 -15 142.69 15.9
1 -11 15 164.88 15.7
1 -11 15 178.78 16.2
-2 11 -15 885.41 43.2
-2 11 -15 942.31 42.5
2 -11 15 960.9 43.2
2 -11 15 960.6 43.5
-3 11 -15 364.06 22.3
3 -11 15 394.86 23.6
3 -11 15 389.16 22
-4 11 -15 9.1 7.9
4 -11 15 0.9 7.7
4 -11 15 4.2 7.1
10 10 -15 19.9 11.6
10 10 -15 38.2 16.7
-10 -10 15 37.6 16.3
-10 -10 15 20.4 12.5
9 10 -15 13.6 10.7
9 10 -15 28.5 15.2
-9 -10 15 39.3 15.6
-9 -10 15 14.5 11.4
8 10 -15 4 10
8 10 -15 15.9 13.3
-8 -10 15 22.7 11.7
-8 -10 15 13.8 13.3
7 10 -15 11.7 12.1
7 10 -15 1.7 10.2
-7 -10 15 11.7 10.7
-7 -10 15 3.7 11.7
6 10 -15 88.09 14.2
6 10 -15 109.89 14.7
-6 -10 15 100.99 14.6
-6 -10 15 122.59 15.7
5 10 -15 41.9 10.3
5 10 -15 60.39 12.3
-5 -10 15 59.09 12.8
-5 -10 15 35.5 10.2
4 10 -15 106.39 15.6
4 10 -15 122.89 17.4
-4 -10 15 140.59 17.3
-4 -10 15 109.19 16.7
3 10 -15 638.04 32.7
3 10 -15 598.64 33.2
-3 -10 15 647.04 33.6
-3 -10 15 611.84 32.8
2 10 -15 371.86 22.8
2 10 -15 361.76 23.9
-2 -10 15 367.76 23.4
-2 -10 15 366.06 23.5
1 10 -15 35.7 9.1
1 10 -15 34.3 9.5
-1 -10 15 29.7 8.9
-1 -10 15 37.1 9.3
0 10 -15 102.59 13.2
0 10 -15 112.09 15.1
0 -10 15 116.89 14.9
0 -10 15 114.99 12.7
-1 10 -15 564.74 29
-1 10 -15 554.94 27.6
1 -10 15 516.05 28.1
1 -10 15 512.95 28.2
-2 10 -15 731.63 34.6
-2 10 -15 728.83 35.7
2 -10 15 743.93 35.5
2 -10 15 739.23 35.8
-3 10 -15 379.96 22.9
3 -10 15 432.46 22.9
3 -10 15 387.66 23.1
-4 10 -15 7.1 7.6
4 -10 15 6.6 7.3
4 -10 15 0.2 9
-5 10 -15 227.78 17.2
-5 10 -15 237.98 18.9
5 -10 15 236.48 16.5
5 -10 15 222.08 17
10 9 -15 16.6 13.1
10 9 -15 29.3 13.8
-10 -9 15 55.09 15.2
-10 -9 15 32.2 14
9 9 -15 776.72 42.7
9 9 -15 795.42 41.3
-9 -9 15 788.42 41.8
-9 -9 15 743.73 42.5
8 9 -15 943.81 46.6
8 9 -15 952.2 47.7
-8 -9 15 954.3 47.3
-8 -9 15 884.11 47.1
7 9 -15 229.98 23.1
7 9 -15 253.77 21.4
-7 -9 15 252.87 22.1
-7 -9 15 229.08 22.6
6 9 -15 9.2 10.6
6 9 -15 8.8 10.9
-6 -9 15 0.2 9.6
-6 -9 15 2.6 10.2
5 9 -15 74.39 11.3
5 9 -15 121.19 15
-5 -9 15 68.49 11.4
4 9 -15 62.99 11.5
4 9 -15 71.19 11.1
-4 -9 15 45.9 10.2
-4 -9 15 67.99 12
3 9 -15 5.8 8.5
3 9 -15 8.1 7.9
-3 -9 15 5.5 8.3
-3 -9 15 3.8 8.3
2 9 -15 6.5 7.3
2 9 -15 5.2 8.3
-2 -9 15 6.7 8.1
-2 -9 15 2.9 7.8
1 9 -15 86.09 11.7
1 9 -15 88.09 12.9
-1 -9 15 84.09 11.5
-1 -9 15 95.39 14
0 9 -15 51.69 9.9
0 9 -15 52.69 8.9
0 -9 15 46.7 9
0 -9 15 53.99 9.7
-1 9 -15 56.69 9.5
-1 9 -15 53.79 8.9
1 -9 15 33.8 8.7
1 -9 15 52.09 10.2
-2 9 -15 10.1 8
2 -9 15 35.9 9.4
2 -9 15 25 8.4
-3 9 -15 209.48 16.5
3 -9 15 190.78 16.5
3 -9 15 203.78 16.3
-4 9 -15 22.3 8.1
4 -9 15 22.8 8.1
4 -9 15 15.7 8.5
-5 9 -15 315.07 19.5
-5 9 -15 331.57 22
5 -9 15 309.17 19.4
5 -9 15 296.97 21.5
-6 9 -15 289.87 19.5
-6 9 -15 299.77 21.6
6 -9 15 347.67 20.8
6 -9 15 330.27 19.5
11 8 -15 157.18 22.2
11 8 -15 148.79 20.1
-11 -8 15 133.89 18.1
-11 -8 15 145.09 20.2
10 8 -15 19.2 11.4
10 8 -15 25.5 13.5
-10 -8 15 26 12.2
-10 -8 15 36.3 14.2
9 8 -15 604.24 35.1
9 8 -15 566.84 33.1
-9 -8 15 500.35 34
-9 -8 15 561.24 33.6
8 8 -15 792.32 41.4
8 8 -15 791.42 40.1
-8 -8 15 745.53 40.1
-8 -8 15 702.83 40.4
7 8 -15 681.53 37.4
7 8 -15 672.13 38.5
-7 -8 15 775.22 38.9
-7 -8 15 761.22 38.4
6 8 -15 248.18 22.4
6 8 -15 278.67 21.2
-6 -8 15 274.17 21.6
-6 -8 15 278.87 22.6
5 8 -15 216.08 20
5 8 -15 217.78 18.8
-5 -8 15 234.38 19.6
-5 -8 15 200.48 19.3
4 8 -15 616.54 32.6
4 8 -15 605.24 33.6
-4 -8 15 627.34 33.2
-4 -8 15 651.23 33
3 8 -15 437.16 26
3 8 -15 477.75 25.4
-3 -8 15 424.46 25.6
-3 -8 15 423.96 25.8
2 8 -15 91.59 11.5
2 8 -15 81.89 11.5
-2 -8 15 77.99 12
-2 -8 15 89.69 12.3
1 8 -15 9.9 7.8
1 8 -15 14.3 7.4
-1 -8 15 8.4 7.7
-1 -8 15 8.7 7.9
0 8 -15 28.1 8.5
0 8 -15 13.3 8.4
0 -8 15 18.8 8.2
0 -8 15 13.9 8.4
-1 8 -15 169.78 14.5
-1 8 -15 150.38 15.3
1 -8 15 176.18 15.4
1 -8 15 168.38 16.2
-2 8 -15 89.69 11
2 -8 15 87.59 13
2 -8 15 70.29 10.5
-3 8 -15 19.9 8.1
3 -8 15 13.7 8.2
3 -8 15 18.7 8.1
-4 8 -15 26.5 8.3
-4 8 -15 34.9 10.6
4 -8 15 29.1 8.6
4 -8 15 22.2 8.4
-5 8 -15 209.88 16.4
-5 8 -15 205.78 18.9
5 -8 15 209.18 16.6
5 -8 15 190.38 19.9
-6 8 -15 114.19 14
-6 8 -15 109.59 13.4
6 -8 15 113.89 14.4
6 -8 15 102.29 13.5
11 7 -15 70.89 13.2
11 7 -15 67.19 15.5
-11 -7 15 53.69 13.4
-11 -7 15 64.59 15.2
10 7 -15 176.78 23.6
10 7 -15 157.18 21.4
-10 -7 15 182.68 23.1
-10 -7 15 154.58 22.6
9 7 -15 958 50.29
9 7 -15 1039.4 49.7
-9 -7 15 997.3 50.29
-9 -7 15 1038.9 49.99
8 7 -15 1126.39 53.29
8 7 -15 1121.59 54.39
-8 -7 15 1153.48 53.79
-8 -7 15 1075.39 53.99
7 7 -15 752.72 38.6
7 7 -15 754.82 37.7
-7 -7 15 657.33 37.5
-7 -7 15 706.93 37.8
6 7 -15 158.58 18.9
6 7 -15 158.38 17.8
-6 -7 15 164.38 18.6
-6 -7 15 167.18 18.3
5 7 -15 635.14 34.8
5 7 -15 651.73 34.1
-5 -7 15 707.43 35.1
-5 -7 15 645.44 34.8
4 7 -15 1450.05 67.79
4 7 -15 1574.34 67.49
-4 -7 15 1555.64 67.99
-4 -7 15 1532.75 67.79
3 7 -15 246.68 18.4
3 7 -15 242.78 19.3
-3 -7 15 267.37 19.6
-3 -7 15 246.88 19.2
2 7 -15 57.79 9.3
2 7 -15 61.59 10.3
-2 -7 15 66.89 10.2
-2 -7 15 94.79 11.9
1 7 -15 220.58 17.6
1 7 -15 223.28 16.6
-1 -7 15 209.78 17.7
-1 -7 15 205.88 17.2
0 7 -15 151.28 15.8
0 7 -15 158.78 14.9
0 -7 15 192.38 16.2
0 -7 15 207.98 17.1
1 -7 15 425.26 24.2
1 -7 15 427.06 24.8
-2 7 -15 208.28 17.5
2 -7 15 255.87 17.8
2 -7 15 248.28 18.3
-3 7 -15 40.7 9.1
3 -7 15 48.5 9.4
3 -7 15 39.9 9.4
-4 7 -15 6.6 8
-4 7 -15 5.6 9.6
4 -7 15 9.8 7.8
4 -7 15 11.9 8.6
-5 7 -15 42 9.7
-5 7 -15 41.6 11.4
5 -7 15 45.8 9.7
5 -7 15 40 12
-6 7 -15 38.5 11
-6 7 -15 21.5 8.9
6 -7 15 38.1 9.6
6 -7 15 24.5 12.5
12 6 -15 97.99 16.1
12 6 -15 107.89 19.7
-12 -6 15 66.39 15.7
-12 -6 15 106.19 19.3
11 6 -15 50.49 12.7
11 6 -15 59.89 16.1
-11 -6 15 74.09 16.9
-11 -6 15 45.8 13.5
10 6 -15 115.69 15.5
10 6 -15 93.49 15.7
-10 -6 15 77.99 15.1
-10 -6 15 93.89 15.4
9 6 -15 420.06 30
9 6 -15 460.15 28.6
-9 -6 15 487.75 29.8
-9 -6 15 409.96 29.4
8 6 -15 56.39 12.2
8 6 -15 80.39 14.1
-8 -6 15 56.79 11.8
-8 -6 15 99.59 15.2
7 6 -15 285.47 23
7 6 -15 295.07 21.6
-7 -6 15 256.27 22.7
-7 -6 15 247.48 21.5
6 6 -15 194.78 18.3
6 6 -15 191.78 19.4
-6 -6 15 192.28 19
-6 -6 15 197.38 19.4
5 6 -15 515.85 28.9
5 6 -15 501.05 29.9
-5 -6 15 557.64 30.2
-5 -6 15 549.74 29.9
4 6 -15 656.03 32.1
4 6 -15 607.04 32.8
-4 -6 15 619.74 32.6
-4 -6 15 596.74 32.6
3 6 -15 34.8 9.8
3 6 -15 18.5 8.1
-3 -6 15 46.7 10.7
-3 -6 15 41 9.9
2 6 -15 95.49 13.6
2 6 -15 118.19 14.6
-2 -6 15 112.99 15.2
-2 -6 15 109.39 14.7
1 6 -15 120.89 14.8
1 6 -15 130.69 14.1
-1 -6 15 126.99 14.9
-1 -6 15 134.09 15.7
0 6 -15 667.53 34.5
0 6 -15 665.53 33.6
0 -6 15 703.33 34.2
0 -6 15 718.43 35
-1 6 -15 470.35 27.9
1 -6 15 541.45 28.4
1 -6 15 537.95 27.9
-2 6 -15 106.79 14.7
2 -6 15 107.29 14
2 -6 15 100.39 14.7
-3 6 -15 211.68 17.5
-3 6 -15 190.88 19.8
3 -6 15 201.68 17.5
3 -6 15 220.08 17.8
-4 6 -15 223.08 18.5
-4 6 -15 226.08 20.5
4 -6 15 251.37 18.9
4 -6 15 234.88 19
-5 6 -15 373.26 25
-5 6 -15 361.76 22.9
5 -6 15 358.06 22.9
5 -6 15 358.56 25.5
-6 6 -15 388.26 23.5
-6 6 -15 383.56 25.1
6 -6 15 348.57 23.2
6 -6 15 336.97 26.7
12 5 -15 123.79 19.6
12 5 -15 129.29 18.5
-12 -5 15 120.29 18.8
-12 -5 15 138.99 19.8
11 5 -15 16 14.2
11 5 -15 12 12.6
-11 -5 15 22.7 14.8
-11 -5 15 6.3 13.4
10 5 -15 200.28 20.8
10 5 -15 202.88 24.3
-10 -5 15 198.78 23.3
-10 -5 15 200.78 23.1
9 5 -15 89.99 13.9
9 5 -15 123.59 17.7
-9 -5 15 72.09 13.4
-9 -5 15 103.79 15.2
8 5 -15 9.8 9
8 5 -15 3.1 9.8
-8 -5 15 4 9.6
-8 -5 15 -0.5 9.2
7 5 -15 3.2 8.5
7 5 -15 5 9.3
-7 -5 15 11.4 9.6
-7 -5 15 2.9 9.3
6 5 -15 140.39 17.4
6 5 -15 130.99 16
-6 -5 15 127.39 17.7
-6 -5 15 125.39 16.6
5 5 -15 223.98 19.2
5 5 -15 215.48 18.2
-5 -5 15 222.68 19.2
-5 -5 15 223.78 19.2
4 5 -15 38.1 10.3
4 5 -15 51.79 10.4
-4 -5 15 24.7 10
-4 -5 15 19.3 9.3
3 5 -15 73.99 11.4
3 5 -15 57.89 9.5
-3 -5 15 39.3 10
-3 -5 15 44.4 9.9
2 5 -15 16 8.2
2 5 -15 16.3 7.6
-2 -5 15 15.9 8.5
-2 -5 15 9.7 7.8
1 5 -15 229.38 17.5
1 5 -15 221.58 18.7
-1 -5 15 248.48 19.3
-1 -5 15 239.38 18.3
0 5 -15 1120.59 49.99
0 -5 15 1050.69 49.2
0 -5 15 1045.3 49.6
-1 5 -15 394.36 24
1 -5 15 388.96 24
1 -5 15 385.76 23.7
-2 5 -15 141.49 15.6
2 -5 15 138.39 15.6
2 -5 15 111.79 15.6
-3 5 -15 73.89 12.7
-3 5 -15 61.99 10.6
3 -5 15 102.99 15.3
3 -5 15 104.39 12.5
-4 5 -15 89.09 14.7
-4 5 -15 106.09 15.5
4 -5 15 105.79 12.8
4 -5 15 89.29 12.5
-5 5 -15 249.38 19.5
-5 5 -15 239.98 21.6
5 -5 15 200.98 18.9
5 -5 15 190.98 22.6
-6 5 -15 178.58 17.9
-6 5 -15 175.88 20.2
6 -5 15 130.29 17.3
12 4 -15 50.49 13
12 4 -15 47.5 15.2
-12 -4 15 38.9 14.2
-12 -4 15 49.9 14.8
11 4 -15 215.68 22.5
11 4 -15 204.88 25
-11 -4 15 203.48 24.4
-11 -4 15 201.78 24
10 4 -15 1435.46 64.49
10 4 -15 1350.86 65.49
-10 -4 15 1429.36 65.39
-10 -4 15 1381.76 65.39
9 4 -15 613.24 36.1
9 4 -15 619.64 34.6
-9 -4 15 669.53 36.3
-9 -4 15 641.44 36.2
8 4 -15 10.9 9.1
8 4 -15 5.3 10.1
-8 -4 15 6.6 10
-8 -4 15 6.2 10.2
7 4 -15 47.4 10.1
7 4 -15 43.6 10.8
-7 -4 15 49.9 11.1
-7 -4 15 56.29 10.8
6 4 -15 34.3 10.5
6 4 -15 25 10.4
-6 -4 15 41.2 11.1
-6 -4 15 62.59 12.7
5 4 -15 194.48 17.4
5 4 -15 199.28 18.7
-5 -4 15 181.38 18.5
-5 -4 15 194.78 18.6
4 4 -15 72.29 12.2
4 4 -15 70.69 11.5
-4 -4 15 74.69 12.6
-4 -4 15 68.39 12.4
3 4 -15 -4.9 7.1
3 4 -15 -2.9 8.3
-3 -4 15 0.4 8.8
-3 -4 15 0.6 8.4
2 4 -15 101.69 13.4
2 4 -15 71.99 10.5
-2 -4 15 68.99 10.7
-2 -4 15 100.29 12.9
1 4 -15 79.29 12.6
-1 -4 15 54.69 10.4
-1 -4 15 67.09 11.5
0 4 -15 364.16 23.2
0 -4 15 344.57 22.9
0 -4 15 358.96 23
-1 4 -15 117.99 15.2
1 -4 15 80.49 12.2
1 -4 15 112.19 15.1
-2 4 -15 31.2 11
-2 4 -15 23.7 9.1
2 -4 15 21.9 8.9
2 -4 15 19.7 9.3
-3 4 -15 104.59 14.6
-3 4 -15 114.49 16.1
3 -4 15 137.29 16.4
3 -4 15 137.39 17.5
-4 4 -15 304.07 22.8
-4 4 -15 305.57 25
4 -4 15 361.36 23.1
4 -4 15 339.17 23.6
-5 4 -15 101.59 14.9
-5 4 -15 78.99 12.5
5 -4 15 128.09 16.8
5 -4 15 134.39 17.2
-6 4 -15 81.69 14.6
-6 4 -15 93.99 13.8
6 -4 15 71.69 15.3
6 -4 15 92.69 13
12 3 -15 78.59 15.4
-12 -3 15 35 13.9
-12 -3 15 62.99 16.8
11 3 -15 278.87 27.6
11 3 -15 337.17 24.8
-11 -3 15 309.97 27.6
-11 -3 15 331.17 27
10 3 -15 982.6 51.59
10 3 -15 1015.2 50.19
-10 -3 15 1072.79 51.89
-10 -3 15 1085.89 52.19
9 3 -15 393.56 25.7
9 3 -15 372.46 28.1
-9 -3 15 391.76 28
-9 -3 15 411.46 27.7
8 3 -15 78.19 12.1
8 3 -15 82.09 15.2
-8 -3 15 50.39 12.9
-8 -3 15 79.69 14.8
7 3 -15 47.9 10.1
7 3 -15 59.09 11.7
-7 -3 15 61.19 11.5
-7 -3 15 76.39 12.5
6 3 -15 167.18 18.1
6 3 -15 164.58 17.2
5 3 -15 606.04 33.8
5 3 -15 619.54 34.8
-5 -3 15 725.03 35.6
-5 -3 15 699.63 35
4 3 -15 805.42 40.2
4 3 -15 772.02 38.6
-4 -3 15 837.82 40.4
-4 -3 15 773.92 39.6
3 3 -15 243.28 20.6
3 3 -15 267.77 19.5
-3 -3 15 247.98 20.2
-3 -3 15 258.67 20.9
2 3 -15 60.39 11.1
-2 -3 15 45.9 11
-2 -3 15 35.9 10
1 3 -15 237.48 19.5
-1 -3 15 209.68 18.9
-1 -3 15 248.58 19.8
0 3 -15 78.09 12.1
0 -3 15 45.7 10.2
0 -3 15 56.59 10.4
-1 3 -15 18.1 11.9
-1 3 -15 21.1 9.2
1 -3 15 12.5 9.9
1 -3 15 15.2 9.4
-2 3 -15 50.59 12.1
-2 3 -15 51.99 10.6
2 -3 15 48.5 10.4
2 -3 15 62.29 11.9
-3 3 -15 1.5 9.4
-3 3 -15 4.4 11.6
3 -3 15 7.4 8.9
3 -3 15 -2.1 9.5
-4 3 -15 77.39 12.8
-4 3 -15 103.59 16.1
4 -3 15 85.79 13.6
4 -3 15 67.29 11.5
-5 3 -15 49.99 12.3
-5 3 -15 77.09 14.8
5 -3 15 74.89 16.2
5 -3 15 70.59 12.5
-6 3 -15 1.5 11.5
-6 3 -15 25.1 11.8
6 -3 15 -1.2 14.6
6 -3 15 6.1 10.2
12 2 -15 6.1 13.7
12 2 -15 24.6 12.4
-12 -2 15 19.7 14.2
-12 -2 15 25.1 13.9
11 2 -15 40.8 13.1
11 2 -15 30.9 15
-11 -2 15 34.1 15
-11 -2 15 35.4 14.9
10 2 -15 41 10.5
10 2 -15 38.2 12.9
-10 -2 15 54.99 13.1
-10 -2 15 59.69 13.5
9 2 -15 143.39 21.5
9 2 -15 166.38 18.6
-9 -2 15 166.88 21.3
-9 -2 15 177.28 21.7
8 2 -15 14.1 9.9
8 2 -15 22.5 9.4
-8 -2 15 19.6 10.4
-8 -2 15 28.9 11.8
7 2 -15 127.29 16.3
7 2 -15 105.89 16.1
-7 -2 15 121.99 18.2
-7 -2 15 101.39 14
6 2 -15 132.49 17
6 2 -15 126.89 18.2
-6 -2 15 201.58 20.2
-6 -2 15 191.98 18.8
5 2 -15 335.77 24.6
5 2 -15 364.66 23.3
-5 -2 15 348.47 24.1
-5 -2 15 372.56 25.3
4 2 -15 305.87 20.9
4 2 -15 278.27 22.3
-4 -2 15 281.57 22.3
-4 -2 15 275.17 21.7
3 2 -15 23.8 10.7
-3 -2 15 28.4 11
-3 -2 15 15.8 9.7
2 2 -15 245.98 20.7
-2 -2 15 257.77 20.4
-2 -2 15 223.68 19.9
1 2 -15 907.61 44.4
-1 -2 15 861.11 43.8
-1 -2 15 941.41 44.2
0 2 -15 375.56 25.2
0 2 -15 403.96 27.8
0 -2 15 358.36 24.6
0 -2 15 399.36 25.1
-1 2 -15 104.19 14.3
-1 2 -15 90.99 15.3
1 -2 15 89.79 12.7
1 -2 15 71.69 12.2
-2 2 -15 12.9 11.2
-2 2 -15 31 11.6
2 -2 15 18.5 10.8
2 -2 15 24.1 11
-3 2 -15 151.88 19.3
-3 2 -15 150.98 21.3
3 -2 15 145.79 19.4
3 -2 15 140.59 17.8
-4 2 -15 149.49 17.2
-4 2 -15 80.49 14.7
4 -2 15 137.39 18
4 -2 15 107.69 14.9
-5 2 -15 16.9 11.8
-5 2 -15 19 13.5
5 -2 15 22.3 10.8
5 -2 15 19.8 14.8
-12 -1 15 68.79 15.2
11 1 -15 88.19 17.7
11 1 -15 110.99 16.3
-11 -1 15 107.29 18.1
-11 -1 15 122.29 18.7
10 1 -15 6.9 9.9
10 1 -15 0.5 11.9
-10 -1 15 6.1 12.4
-10 -1 15 -1.1 11.4
9 1 -15 166.28 22.1
9 1 -15 194.08 19.9
-9 -1 15 186.78 22.5
-9 -1 15 196.28 22.6
8 1 -15 130.49 19.6
8 1 -15 143.49 18.1
-8 -1 15 140.79 21.1
-8 -1 15 130.29 16.4
7 1 -15 100.39 13.1
7 1 -15 108.79 15.4
-7 -1 15 110.79 15.1
-7 -1 15 101.09 15.4
6 1 -15 304.07 23.9
6 1 -15 351.06 22
-6 -1 15 243.98 22.4
-6 -1 15 260.17 23.6
5 1 -15 226.38 21.2
5 1 -15 216.38 18.9
-5 -1 15 175.88 20.7
-5 -1 15 200.78 20.4
4 1 -15 122.09 15.7
-4 -1 15 137.49 18.3
-4 -1 15 124.09 18.1
3 1 -15 19.1 10.1
-3 -1 15 11.4 9.3
-3 -1 15 12.4 10.2
2 1 -15 279.77 22.2
-2 -1 15 262.57 21.5
-2 -1 15 254.57 21.4
1 1 -15 590.64 31.6
-1 -1 15 513.65 30.7
-1 -1 15 507.25 30.4
0 1 -15 236.58 21.4
0 1 -15 236.38 24
0 -1 15 222.38 20.4
0 -1 15 210.18 20.9
-1 1 -15 177.98 22.6
-1 1 -15 178.98 19.9
1 -1 15 147.89 19.6
1 -1 15 174.38 18.9
-2 1 -15 35.3 13
-2 1 -15 49.3 13.2
2 -1 15 42.7 11.6
2 -1 15 74.79 13.5
-3 1 -15 294.17 26.7
-3 1 -15 315.17 24.7
3 -1 15 262.57 22.7
3 -1 15 286.27 24.8
-4 1 -15 578.54 35.1
-4 1 -15 553.84 33.6
4 -1 15 502.15 31.5
4 -1 15 527.75 34.2
-5 1 -15 203.88 24
-5 1 -15 216.68 24.5
5 -1 15 175.58 26.4
5 -1 15 193.18 21.3
11 0 -15 141.49 20.1
11 0 -15 123.69 16.6
-11 0 15 145.99 20.6
-11 0 15 171.98 21.3
10 0 -15 345.27 28.7
10 0 -15 336.87 25.3
-10 0 15 345.17 28.4
-10 0 15 330.77 28.4
9 0 -15 146.49 17.9
9 0 -15 144.59 18.7
-9 0 15 88.89 15
-9 0 15 129.59 17
8 0 -15 12.4 11.8
8 0 -15 10 9.8
-8 0 15 6.9 11.7
7 0 -15 31.8 12.5
7 0 -15 26.8 11.3
-7 0 15 28.4 11.8
-7 0 15 37.6 14
6 0 -15 64.29 12.9
-6 0 15 53.39 12.8
5 0 -15 17.3 12
-5 0 15 19.1 12.2
-5 0 15 27.7 12.5
4 0 -15 19.5 11.7
-4 0 15 12.7 11.1
-4 0 15 15.1 11.2
3 0 -15 6.2 10.7
-3 0 15 15.4 10.4
-3 0 15 13.2 11.1
2 0 -15 53.79 13.4
-2 0 15 47.8 12
-2 0 15 50.39 13.2
1 0 -15 64.49 12.9
1 0 -15 89.59 16.9
-1 0 15 72.19 13.6
-1 0 15 66.09 12.2
0 0 -15 72.79 15.7
0 0 -15 86.99 14.6
0 0 15 96.09 15.4
0 0 15 107.19 14.6
-1 0 -15 -0.8 11.9
-1 0 -15 2.1 10.7
1 0 15 -1.3 10.2
1 0 15 -1.2 9.9
-2 0 -15 270.57 26.7
-2 0 -15 272.97 25.4
2 0 15 291.77 25
2 0 15 305.77 23.8
-3 0 -15 642.94 39
-3 0 -15 640.04 37.7
3 0 15 674.43 37.9
3 0 15 620.74 35.6
-4 0 -15 434.96 32.6
-4 0 -15 445.56 31.1
4 0 15 430.56 28.8
4 0 15 436.06 31.3
10 -1 -15 495.35 33.1
10 -1 -15 470.05 29.9
-10 1 15 488.95 33.6
-10 1 15 450.15 32.6
9 -1 -15 114.79 15.2
9 -1 -15 151.48 19.5
-9 1 15 104.99 16.8
-9 1 15 128.79 18.5
8 -1 -15 155.08 22.5
-8 1 15 89.59 14.1
-8 1 15 153.48 22.7
7 -1 -15 221.88 23.9
-7 1 15 191.18 23.3
-7 1 15 202.08 22.6
6 -1 -15 88.09 13.9
-6 1 15 77.59 13.4
-6 1 15 75.59 13.5
5 -1 -15 155.68 21
-5 1 15 157.88 20.8
-5 1 15 178.58 21.4
4 -1 -15 3.8 11.5
-4 1 15 3.8 11.3
-4 1 15 4.9 12.3
3 -1 -15 0.2 14.2
3 -1 -15 8.4 11.1
-3 1 15 -4.3 11.5
-3 1 15 -1 10.8
2 -1 -15 8.5 13.1
2 -1 -15 5.4 10.1
-2 1 15 3.1 9.8
-2 1 15 7.4 11
1 -1 -15 50.09 14.3
1 -1 -15 43.2 14
-1 1 15 65.19 14.4
-1 1 15 49.7 12.9
0 -1 -15 14.7 12
0 -1 -15 20.5 15.7
0 1 15 11.8 10.6
0 1 15 14.6 13.4
-1 -1 -15 66.89 15
-1 -1 -15 79.29 15.3
1 1 15 65.39 12.9
1 1 15 58.79 13.5
-2 -1 -15 78.59 17.9
2 1 15 53.79 12.7
2 1 15 67.19 14.9
-3 -1 -15 268.97 28.3
-3 -1 -15 259.37 27.7
3 1 15 296.47 25.1
3 1 15 302.77 26.6
10 -2 -15 309.47 28.3
-10 2 15 281.77 28.4
-10 2 15 294.27 27.5
9 -2 -15 32.8 13.5
-9 2 15 47.5 16.1
-9 2 15 25.1 12.5
8 -2 -15 282.97 26.9
-8 2 15 281.07 26.5
-8 2 15 290.77 26
-7 2 15 295.97 26.3
6 -2 -15 337.97 26.5
-6 2 15 260.17 25.1
-6 2 15 264.87 25.6
5 -2 -15 60.99 15.7
-5 2 15 41 15
-5 2 15 54.59 15.1
4 -2 -15 43.3 14.5
4 -2 -15 34.1 16
-4 2 15 47 14.6
-4 2 15 50.59 14.6
3 -2 -15 291.47 28.8
3 -2 -15 300.87 26.3
-3 2 15 319.07 26.7
-3 2 15 294.97 25.4
2 -2 -15 186.08 23.1
2 -2 -15 204.18 26.2
-2 2 15 191.48 22.4
-2 2 15 182.58 22.5
1 -2 -15 119.79 17.9
1 -2 -15 140.09 21
-1 2 15 143.49 19.1
-1 2 15 133.39 17.6
0 -2 -15 66.69 17.6
0 -2 -15 53.59 13.8
0 2 15 54.79 15
0 2 15 41.7 12.9
-1 -2 -15 0.9 13.6
-1 -2 -15 2.6 13.4
1 2 15 3.8 12.1
1 2 15 2.8 11.1
-2 -2 -15 107.19 17.1
-2 -2 -15 130.29 20.8
2 2 15 159.28 22.3
2 2 15 154.98 23.3
8 -3 -15 134.69 19.2
-8 3 15 124.29 17.8
-8 3 15 135.19 20.3
7 -3 -15 194.38 25.7
-7 3 15 228.18 25.1
-7 3 15 215.78 25.4
6 -3 -15 367.26 30
-6 3 15 397.06 29.9
-6 3 15 410.46 30.6
5 -3 -15 262.57 26.9
5 -3 -15 292.87 29.3
-5 3 15 320.47 27.5
-5 3 15 308.87 26.9
4 -3 -15 4.6 14.2
4 -3 -15 2.4 13.3
-4 3 15 13.7 14.4
-4 3 15 2.9 12.6
3 -3 -15 451.45 33.7
3 -3 -15 410.96 31.3
-3 3 15 407.46 30.2
-3 3 15 433.26 31.7
2 -3 -15 540.95 36.1
2 -3 -15 575.94 38.2
-2 3 15 565.34 35.6
-2 3 15 505.75 34
1 -3 -15 144.19 21.7
1 -3 -15 169.88 21.4
-1 3 15 176.88 23.5
-1 3 15 145.19 19.1
0 -3 -15 0.5 15.3
0 -3 -15 10.5 16
0 3 15 3.6 14.5
0 3 15 0.8 13.4
6 -4 -15 39.4 16.2
6 -4 -15 26.2 15.5
-6 4 15 31.6 15.6
-6 4 15 17.7 14.7
5 -4 -15 -4.8 14.6
5 -4 -15 -8.8 15.3
-5 4 15 10.7 15
-5 4 15 -3.3 14.2
4 -4 -15 91.29 17.1
4 -4 -15 91.39 19.3
-4 4 15 109.29 17.7
-4 4 15 95.89 18.6
3 -4 -15 170.68 22.3
3 -4 -15 111.19 17.7
-3 4 15 167.28 24.8
-3 4 15 87.69 15.6
2 -4 -15 243.08 29.8
-2 4 15 237.18 26.2
-2 4 15 233.88 27.9
4 13 -16 80.79 13.6
4 13 -16 67.39 14.6
-4 -13 16 61.69 15.6
-4 -13 16 48.4 12.5
3 13 -16 201.18 20.1
3 13 -16 185.08 22
-3 -13 16 176.18 24.7
-3 -13 16 170.18 20.7
2 13 -16 65.69 11.8
2 13 -16 73.09 13.6
-2 -13 16 67.59 15.3
-2 -13 16 56.99 12.2
1 13 -16 29.6 11
1 13 -16 34.2 10.7
-1 -13 16 33.1 11.3
-1 -13 16 32.5 13.8
0 13 -16 5.8 8.9
0 13 -16 6 9.8
0 -13 16 1.3 12.8
0 -13 16 -1.5 9.4
7 12 -16 306.27 25.6
-7 -12 16 290.17 27.2
6 12 -16 191.68 21.2
6 12 -16 177.08 24.2
-6 -12 16 203.08 23.5
-6 -12 16 192.38 23.9
5 12 -16 1.8 11
5 12 -16 1.5 11.8
-5 -12 16 9.2 12.7
-5 -12 16 6.6 12.7
4 12 -16 96.29 14.4
4 12 -16 115.19 14.3
-4 -12 16 85.29 13.8
-4 -12 16 138.39 17.9
3 12 -16 296.07 23.7
3 12 -16 291.47 22.3
-3 -12 16 259.87 25
-3 -12 16 252.37 22.8
2 12 -16 265.37 22.1
2 12 -16 280.47 20.8
-2 -12 16 203.58 23.8
-2 -12 16 222.48 21.2
1 12 -16 271.17 22.2
1 12 -16 292.27 21.2
-1 -12 16 284.67 24.3
-1 -12 16 315.37 22.4
0 12 -16 127.69 16.9
0 12 -16 118.39 15.1
0 -12 16 111.49 15.3
0 -12 16 109.79 16.3
-1 12 -16 29.7 9
-1 12 -16 30.2 10
1 -12 16 47.4 10.4
1 -12 16 43 12.7
-2 12 -16 105.59 14.2
-2 12 -16 111.49 15.7
2 -12 16 112.09 15.2
2 -12 16 119.59 15.5
8 11 -16 190.78 26.2
8 11 -16 200.48 22.8
-8 -11 16 174.68 24.9
-8 -11 16 156.28 23.1
7 11 -16 125.79 17.6
7 11 -16 110.19 15.3
-7 -11 16 124.39 17.8
-7 -11 16 113.89 16.2
6 11 -16 189.38 21.8
6 11 -16 219.88 23.5
-6 -11 16 228.48 23.3
-6 -11 16 232.88 23.1
5 11 -16 121.09 16.4
5 11 -16 99.59 14.4
-5 -11 16 127.59 16.3
-5 -11 16 94.29 14.9
4 11 -16 79.69 13.1
4 11 -16 136.69 17.8
-4 -11 16 83.99 13.2
-4 -11 16 73.09 12.6
3 11 -16 415.16 27
3 11 -16 412.36 25.9
-3 -11 16 365.46 26
-3 -11 16 414.56 26.8
2 11 -16 626.14 33.2
2 11 -16 610.74 34.5
-2 -11 16 675.83 34.5
-2 -11 16 626.94 34
1 11 -16 333.67 22
1 11 -16 320.47 23.5
-1 -11 16 348.37 23.2
-1 -11 16 343.37 23.4
0 11 -16 41 10.6
0 11 -16 38.5 9.4
0 -11 16 51.49 11.7
0 -11 16 50.19 10.5
-1 11 -16 234.98 19.7
-1 11 -16 253.07 18.3
1 -11 16 241.48 19.2
1 -11 16 263.77 23
-2 11 -16 580.04 28.7
-2 11 -16 579.34 30.3
2 -11 16 534.75 29.3
2 -11 16 539.55 32.2
-3 11 -16 209.98 18.3
3 -11 16 230.88 17.7
3 -11 16 220.58 21.2
9 10 -16 179.98 22.5
9 10 -16 175.28 25.9
-9 -10 16 157.68 23.2
-9 -10 16 148.39 19.6
8 10 -16 18.6 13.2
8 10 -16 20.1 11.3
-8 -10 16 19.9 11.9
-8 -10 16 15.7 13.5
7 10 -16 3.8 11.4
7 10 -16 1.8 11.4
-7 -10 16 2.9 11.3
-7 -10 16 -3 11.1
6 10 -16 156.88 22.4
6 10 -16 156.88 19.4
-6 -10 16 146.99 21.2
-6 -10 16 173.28 20.5
5 10 -16 62.39 12.4
5 10 -16 58.79 11.5
-5 -10 16 67.49 12.3
-5 -10 16 79.79 13
4 10 -16 106.69 13.5
4 10 -16 82.49 13.1
-4 -10 16 84.59 13
-4 -10 16 98.59 13.3
3 10 -16 448.06 29.1
3 10 -16 481.45 28.1
-3 -10 16 480.95 28.8
-3 -10 16 499.75 29
2 10 -16 503.65 27.9
2 10 -16 474.75 29
-2 -10 16 495.15 28.8
-2 -10 16 496.75 28.7
1 10 -16 45.7 9.9
1 10 -16 28.5 10.8
-1 -10 16 27.3 9.9
-1 -10 16 22.3 9.5
0 10 -16 75.19 11.7
0 10 -16 82.49 11.1
0 -10 16 67.99 11.2
0 -10 16 113.69 13.3
-1 10 -16 545.35 30.5
-1 10 -16 562.14 29.3
1 -10 16 590.04 30.4
1 -10 16 570.74 30.7
-2 10 -16 529.75 28.6
2 -10 16 510.85 28
2 -10 16 519.05 30.8
-3 10 -16 183.58 17.5
3 -10 16 173.68 20.8
3 -10 16 202.58 16.9
-4 10 -16 25.7 9
4 -10 16 37.3 11.6
4 -10 16 38.4 9.2
10 9 -16 40.3 13.2
10 9 -16 53.89 16.6
-10 -9 16 51.29 16.8
-10 -9 16 47 13.9
9 9 -16 328.87 28.1
9 9 -16 314.67 26.4
-9 -9 16 297.47 27.9
-9 -9 16 295.27 26.6
8 9 -16 279.67 27.9
8 9 -16 321.17 25.4
-8 -9 16 346.57 26.1
-8 -9 16 291.07 27.4
7 9 -16 327.47 27.6
7 9 -16 361.96 25.8
-7 -9 16 362.96 27.4
-7 -9 16 358.66 26.3
6 9 -16 78.39 14.4
6 9 -16 80.09 15.3
-6 -9 16 93.29 14.8
-6 -9 16 89.99 15.4
5 9 -16 2.7 10.9
5 9 -16 -1.9 9
-5 -9 16 -0.7 10.7
-5 -9 16 0.5 9.5
4 9 -16 26.2 10.4
4 9 -16 24.8 9.5
-4 -9 16 29.7 10.8
3 9 -16 21.4 8.9
3 9 -16 25 9.9
-3 -9 16 23.6 9.9
-3 -9 16 29.6 10.7
2 9 -16 41.8 9.5
2 9 -16 38.3 10.2
-2 -9 16 36.6 9.8
-2 -9 16 21.8 9.6
1 9 -16 49.6 10.6
1 9 -16 51.29 9.6
-1 -9 16 51.99 10.8
-1 -9 16 50.89 10.2
0 9 -16 19.2 8.9
0 9 -16 28.5 9.4
0 -9 16 17.1 8.9
0 -9 16 16.2 9.2
-1 9 -16 50.99 9.6
-1 9 -16 47 10.4
1 -9 16 56.79 10.7
1 -9 16 57.09 10.7
-2 9 -16 153.98 16.7
2 -9 16 140.49 16.2
2 -9 16 153.38 17
-3 9 -16 98.29 14.6
3 -9 16 99.79 14.7
3 -9 16 107.69 14.3
-4 9 -16 28.3 9.2
-4 9 -16 22.9 10.9
4 -9 16 27.6 11.8
4 -9 16 39.3 9.1
10 8 -16 48.5 14.7
10 8 -16 68.39 15.3
-10 -8 16 58.99 15.3
-10 -8 16 71.59 15.5
9 8 -16 272.67 26.9
9 8 -16 293.97 25
-9 -8 16 220.08 25.6
-9 -8 16 217.38 24.6
8 8 -16 471.75 31.8
8 8 -16 490.05 29.5
-8 -8 16 403.56 29.1
-8 -8 16 382.86 30.4
7 8 -16 313.07 24.3
7 8 -16 293.87 25.6
-7 -8 16 317.47 25.7
-7 -8 16 316.17 24.9
6 8 -16 83.29 13.6
6 8 -16 59.09 12.5
-6 -8 16 80.79 13.4
-6 -8 16 88.69 13.6
5 8 -16 264.07 22.6
5 8 -16 248.28 20.8
-5 -8 16 259.27 22.3
-5 -8 16 260.87 21.6
4 8 -16 1299.57 59.99
4 8 -16 1350.56 59.29
-4 -8 16 1270.17 59.59
-4 -8 16 1283.47 59.39
3 8 -16 467.85 25.2
3 8 -16 433.46 26.5
-3 -8 16 386.96 25.6
-3 -8 16 359.56 25.5
2 8 -16 7.1 8.1
2 8 -16 12.3 10.1
-2 -8 16 19.2 9.7
-2 -8 16 18.2 9.9
1 8 -16 78.89 11.6
1 8 -16 75.39 12.2
-1 -8 16 102.19 13.9
-1 -8 16 88.59 13
0 8 -16 47.2 9.4
0 8 -16 54.39 10.7
0 -8 16 48.7 10.9
0 -8 16 69.79 11.6
-1 8 -16 172.48 17.3
1 -8 16 178.78 17.9
1 -8 16 184.28 17.2
-2 8 -16 65.69 11
2 -8 16 73.69 11.3
2 -8 16 84.99 12.3
-3 8 -16 36.8 9.8
3 -8 16 36 12.2
3 -8 16 30.2 9.5
-4 8 -16 74.29 13.1
-4 8 -16 78.29 11
4 -8 16 68.29 13.6
4 -8 16 72.39 11.1
-5 8 -16 164.98 19.3
-5 8 -16 143.09 16.2
5 -8 16 141.89 16.3
5 -8 16 129.89 16.5
11 7 -16 81.99 16.6
11 7 -16 65.09 17.3
-11 -7 16 54.69 16.5
-11 -7 16 73.89 18.2
10 7 -16 156.78 22.1
10 7 -16 174.68 21.6
-10 -7 16 161.08 23.1
-10 -7 16 165.68 24.4
9 7 -16 768.52 43.9
9 7 -16 783.02 42.8
-9 -7 16 846.02 44
-9 -7 16 830.42 44.3
8 7 -16 840.02 44.2
8 7 -16 840.12 42.5
-8 -7 16 758.62 43.3
-8 -7 16 837.62 43.1
7 7 -16 401.56 28.4
7 7 -16 405.86 26.8
-7 -7 16 434.36 27.6
-7 -7 16 371.66 27.8
6 7 -16 66.09 11.1
6 7 -16 66.79 13
-6 -7 16 63.79 11.7
-6 -7 16 65.09 12.1
5 7 -16 642.74 33.2
5 7 -16 636.54 34.6
-5 -7 16 596.74 33.5
-5 -7 16 581.64 33.8
4 7 -16 2050.39 86.59
4 7 -16 2048.4 85.59
-4 -7 16 1859.91 85.89
-4 -7 16 1962.7 85.99
3 7 -16 451.35 27.2
3 7 -16 460.65 25.6
-3 -7 16 383.96 26.1
-3 -7 16 410.16 26.6
2 7 -16 174.68 17
2 7 -16 174.98 17.8
-2 -7 16 191.98 18.1
-2 -7 16 202.78 19
1 7 -16 109.09 14.6
1 7 -16 122.19 16.1
-1 -7 16 108.39 13.1
-1 -7 16 74.09 12.1
0 7 -16 301.17 22
0 7 -16 298.87 20.8
0 -7 16 342.67 22.5
0 -7 16 360.76 23.3
-1 7 -16 854.21 43.3
1 -7 16 938.11 43.8
1 -7 16 932.91 43.3
-2 7 -16 183.98 18.1
2 -7 16 197.78 17.6
2 -7 16 186.88 17.9
-3 7 -16 39 11.9
-3 7 -16 57.79 11.1
3 -7 16 54.69 10.8
3 -7 16 43.4 10.3
-4 7 -16 7.4 8.7
-4 7 -16 11.7 11
4 -7 16 3.3 12.2
4 -7 16 13.8 9.2
-5 7 -16 93.49 14.4
-5 7 -16 117.69 13.9
5 -7 16 113.59 16.1
5 -7 16 117.29 16.6
11 6 -16 49.4 15.2
11 6 -16 28.6 15.6
-11 -6 16 48 16.4
-11 -6 16 60.29 18
10 6 -16 46.9 14.6
10 6 -16 71.49 13.9
-10 -6 16 37.2 14.1
-10 -6 16 78.89 16.4
9 6 -16 275.97 24.2
9 6 -16 270.57 27.1
-9 -6 16 297.07 26.6
-9 -6 16 295.87 25.1
8 6 -16 80.89 12.6
8 6 -16 112.89 16.3
-8 -6 16 69.79 13.2
-8 -6 16 96.99 15.7
7 6 -16 16.8 12.4
7 6 -16 15.6 9.6
-7 -6 16 31.9 13.2
-7 -6 16 19.3 10.8
6 6 -16 40.5 12.7
6 6 -16 39.3 11.7
-6 -6 16 32.7 12.2
-6 -6 16 46.6 12.8
5 6 -16 40.2 11
5 6 -16 42.1 10.4
-5 -6 16 42.6 11.2
-5 -6 16 33.1 10.6
4 6 -16 262.37 22.1
4 6 -16 290.47 21
-4 -6 16 287.57 22.2
-4 -6 16 292.87 22.1
3 6 -16 126.39 14.2
3 6 -16 112.09 14.5
-3 -6 16 119.49 16.8
-3 -6 16 132.89 16.9
2 6 -16 178.28 18.2
2 6 -16 182.48 17.1
-2 -6 16 186.98 18.4
-2 -6 16 203.28 18.5
1 6 -16 40.4 10.1
1 6 -16 28.2 9.5
-1 -6 16 8.9 9.4
-1 -6 16 20.2 11
0 6 -16 440.16 27.7
0 -6 16 517.75 28
0 -6 16 488.45 28.5
-1 6 -16 621.34 34.9
1 -6 16 703.23 35.6
1 -6 16 714.93 35
-2 6 -16 93.69 13.4
2 -6 16 90.39 12.7
2 -6 16 82.09 12.6
-3 6 -16 54.09 11.4
-3 6 -16 44.9 12.3
3 -6 16 45.8 10.8
3 -6 16 42.1 11.1
-4 6 -16 55.99 13.1
-4 6 -16 62.29 11.9
4 -6 16 70.39 11.7
4 -6 16 85.79 15.5
-5 6 -16 72.29 14.1
-5 6 -16 73.89 12
5 -6 16 76.59 15.6
5 -6 16 87.19 12.8
11 5 -16 50.39 17.3
11 5 -16 32.2 12.8
-11 -5 16 28.8 14.7
-11 -5 16 31.6 16.6
10 5 -16 190.68 22.1
10 5 -16 213.68 25.6
-10 -5 16 180.28 24.6
-10 -5 16 189.08 24.6
9 5 -16 137.99 19.4
9 5 -16 135.09 19.5
-9 -5 16 147.39 19.3
-9 -5 16 119.09 17.3
8 5 -16 119.29 16.6
8 5 -16 105.39 17.2
-8 -5 16 118.79 18.1
-8 -5 16 143.39 17.9
7 5 -16 96.59 16
7 5 -16 93.89 14.2
-7 -5 16 91.39 16
-7 -5 16 89.39 14.5
6 5 -16 230.68 20.1
6 5 -16 226.68 21.9
-6 -5 16 244.68 22.1
-6 -5 16 237.18 21.5
5 5 -16 270.97 20.8
5 5 -16 277.07 22.1
-5 -5 16 272.77 21.9
-5 -5 16 253.77 21.8
4 5 -16 182.08 19.2
4 5 -16 198.18 18.4
-4 -5 16 187.98 19.5
-4 -5 16 205.18 19.7
3 5 -16 98.69 12.6
-3 -5 16 98.29 14.2
-3 -5 16 77.29 11.8
2 5 -16 46.2 9.8
2 5 -16 80.29 12.6
-2 -5 16 48.8 10.9
-2 -5 16 81.49 13.1
1 5 -16 29 10.1
-1 -5 16 17.8 9.1
-1 -5 16 11.6 9.3
0 5 -16 251.27 21.3
0 -5 16 262.77 20.9
0 -5 16 283.77 21.6
-1 5 -16 279.97 22.2
1 -5 16 315.87 22.9
1 -5 16 324.07 22.7
-2 5 -16 20.9 9.9
-2 5 -16 35.8 13.2
2 -5 16 24.5 10.1
2 -5 16 21.6 10.2
-3 5 -16 122.99 16.6
3 -5 16 119.69 17.4
3 -5 16 128.79 18.4
-4 5 -16 356.86 25.3
-4 5 -16 385.86 27.8
4 -5 16 398.36 25.5
4 -5 16 366.46 28.5
-5 5 -16 92.09 13.3
-5 5 -16 75.29 14.6
5 -5 16 89.99 16.9
5 -5 16 103.19 14.1
11 4 -16 307.17 25.8
11 4 -16 314.37 29.9
-11 -4 16 310.27 29.5
-11 -4 16 285.67 28.3
10 4 -16 1026.3 53.89
10 4 -16 1061.69 51.59
-10 -4 16 1086.89 53.29
-10 -4 16 1039.5 53.69
9 4 -16 527.45 34.7
9 4 -16 566.14 31.9
-9 -4 16 529.35 34
-9 -4 16 544.65 34.5
8 4 -16 1.4 9.9
8 4 -16 8 11.5
-8 -4 16 -5 11.2
-8 -4 16 2.2 11.5
7 4 -16 154.98 20.8
7 4 -16 154.48 18.7
-7 -4 16 171.68 21.1
-7 -4 16 194.58 20.6
6 4 -16 82.79 12.4
6 4 -16 80.39 14
-6 -4 16 112.59 14.4
-6 -4 16 94.39 13.4
5 4 -16 162.78 17.6
5 4 -16 133.89 18.2
-5 -4 16 126.69 18.2
-5 -4 16 150.38 18.7
4 4 -16 130.89 17.9
4 4 -16 111.29 15.9
-4 -4 16 123.09 17.7
-4 -4 16 125.19 18
3 4 -16 25.3 8.8
3 4 -16 26.2 9.6
-3 -4 16 22.6 9.5
-3 -4 16 28.8 10.2
2 4 -16 27.8 10.4
-2 -4 16 37.1 11.1
-2 -4 16 28.7 11
1 4 -16 96.09 14.3
-1 -4 16 81.59 13.6
-1 -4 16 71.59 13
0 4 -16 5.8 8.8
0 -4 16 5 9.5
0 -4 16 19 10.2
-1 4 -16 26.5 10.2
1 -4 16 14.9 9.7
1 -4 16 12 10
-2 4 -16 21.2 13.3
-2 4 -16 13.9 10.6
2 -4 16 18.9 10.9
2 -4 16 17.3 10.2
-3 4 -16 77.39 13.5
-3 4 -16 62.09 14
3 -4 16 72.59 12.5
3 -4 16 81.89 14.5
-4 4 -16 202.38 23.5
-4 4 -16 207.78 20.9
4 -4 16 219.78 21
4 -4 16 227.08 25.2
11 3 -16 245.78 28.7
11 3 -16 257.27 23.7
-11 -3 16 227.08 26.2
10 3 -16 466.95 29.9
10 3 -16 448.46 33.2
-10 -3 16 449.26 32.8
-10 -3 16 511.45 33.2
9 3 -16 510.15 31.4
9 3 -16 509.45 34.3
-9 -3 16 561.24 34.6
-9 -3 16 552.94 34.1
8 3 -16 8.8 9.4
8 3 -16 18.9 13.1
-8 -3 16 23.8 11.9
-8 -3 16 47.6 14.5
7 3 -16 496.45 31.6
7 3 -16 505.95 29.9
-7 -3 16 494.85 31.1
-7 -3 16 545.15 32.6
6 3 -16 834.72 42.2
6 3 -16 780.32 43.2
-6 -3 16 917.11 44.1
-6 -3 16 872.01 43.6
5 3 -16 797.32 40.4
-5 -3 16 847.22 42.3
-5 -3 16 795.92 41.4
4 3 -16 303.07 21.6
4 3 -16 280.97 23
-4 -3 16 248.88 22.2
-4 -3 16 263.87 22.9
3 3 -16 29.8 11.2
-3 -3 16 30.7 11.4
-3 -3 16 29.1 11.1
2 3 -16 212.78 20.7
-2 -3 16 245.28 20.9
-2 -3 16 220.28 20.6
1 3 -16 256.67 21.5
-1 -3 16 217.88 20.7
-1 -3 16 224.78 21.3
0 3 -16 63.29 12.8
0 -3 16 63.69 13.3
0 -3 16 32.3 10.7
-1 3 -16 34.6 10.6
-1 3 -16 56.29 13.9
1 -3 16 67.19 12.2
1 -3 16 68.89 13.2
-2 3 -16 16.2 13.5
-2 3 -16 9 9.9
2 -3 16 8.5 10.1
2 -3 16 7.3 11.7
-3 3 -16 8.9 12.3
-3 3 -16 8.3 10.4
3 -3 16 10.7 10.5
3 -3 16 6.5 12.1
-4 3 -16 65.49 13.8
-4 3 -16 75.49 16.7
4 -3 16 65.09 16.7
4 -3 16 63.19 13.7
11 2 -16 16.6 14.2
11 2 -16 19.9 13.1
-11 -2 16 23.3 15.6
-11 -2 16 2.9 13.3
10 2 -16 68.49 12.5
10 2 -16 108.29 17.3
-10 -2 16 132.59 18.5
-10 -2 16 101.09 15.7
9 2 -16 162.58 23.5
9 2 -16 177.78 20.2
-9 -2 16 166.58 23.3
-9 -2 16 164.58 23.3
8 2 -16 59.49 12.3
8 2 -16 71.89 14.2
-8 -2 16 62.79 15
-8 -2 16 61.69 13.9
7 2 -16 256.67 21.5
7 2 -16 237.58 24
-7 -2 16 272.37 25
-7 -2 16 243.88 23.8
6 2 -16 356.76 26.9
6 2 -16 369.16 25.2
-6 -2 16 384.26 27.7
-6 -2 16 365.36 26.4
5 2 -16 410.76 26.9
5 2 -16 391.56 28.5
-5 -2 16 460.65 28.6
-5 -2 16 472.95 29.4
4 2 -16 260.97 23.2
-4 -2 16 250.27 22.7
-4 -2 16 248.08 22.5
3 2 -16 104.69 14.6
-3 -2 16 153.68 19.2
-3 -2 16 155.08 19.5
2 2 -16 394.26 27.6
-2 -2 16 425.06 27.7
-2 -2 16 425.36 27.6
1 2 -16 304.87 23.6
-1 -2 16 251.07 22.7
-1 -2 16 259.57 22.5
0 2 -16 165.18 23
0 2 -16 138.29 19.8
0 -2 16 145.89 17.4
0 -2 16 128.29 19.1
-1 2 -16 117.69 17.1
-1 2 -16 94.19 14.3
1 -2 16 89.09 13.4
1 -2 16 129.19 16.6
-2 2 -16 -1.3 10.6
2 -2 16 -5.8 12.4
2 -2 16 1.8 10.4
-3 2 -16 91.89 14.6
-3 2 -16 142.59 19.6
3 -2 16 111.49 17.8
3 -2 16 65.49 12.9
-4 2 -16 74.59 15.7
-4 2 -16 115.89 16.3
4 -2 16 78.99 16.8
10 1 -16 52.29 12.2
10 1 -16 29.4 14.1
-10 -1 16 35.2 14.6
-10 -1 16 69.09 15.4
9 1 -16 17.1 14.3
9 1 -16 10.9 11.6
-9 -1 16 18.8 15.1
-9 -1 16 15.3 14.5
8 1 -16 12.1 11.2
8 1 -16 14.5 12.1
-8 -1 16 17.5 14.8
-8 -1 16 4.6 11.8
7 1 -16 60.09 11.6
7 1 -16 50.29 13.2
-7 -1 16 36.6 12.3
-7 -1 16 52.99 14
6 1 -16 57.59 14.1
6 1 -16 61.49 13
-6 -1 16 46 13.1
-6 -1 16 43.5 14.6
5 1 -16 74.99 15.7
-5 -1 16 85.19 15.5
-5 -1 16 62.29 13.1
4 1 -16 42.9 13.4
-4 -1 16 26.1 11.1
-4 -1 16 32.7 13
3 1 -16 139.19 19.7
-3 -1 16 128.69 19.6
-3 -1 16 144.09 20.1
2 1 -16 63.49 12.3
-2 -1 16 88.39 13.4
1 1 -16 56.49 14.8
1 1 -16 102.79 16
-1 -1 16 47.9 11.9
-1 -1 16 65.09 14.1
0 1 -16 92.49 14.5
0 1 -16 137.19 20
0 -1 16 99.19 14.9
0 -1 16 121.39 17.1
-1 1 -16 80.69 16.6
-1 1 -16 51.59 12.6
1 -1 16 90.29 15.7
1 -1 16 58.79 12.5
-2 1 -16 85.19 15.9
-2 1 -16 83.59 14.3
2 -1 16 105.09 16.4
2 -1 16 86.49 13.8
-3 1 -16 516.05 35.7
-3 1 -16 526.95 33.7
3 -1 16 519.05 32.1
3 -1 16 495.55 34.6
10 0 -16 206.28 22.8
10 0 -16 196.88 27
-10 0 16 208.98 26.1
-10 0 16 186.38 26.8
9 0 -16 38.9 15.1
9 0 -16 34 13.2
-9 0 16 25.6 14.9
-9 0 16 23.7 16
8 0 -16 2 11.9
8 0 -16 -1.8 13.3
-8 0 16 7 15.2
-8 0 16 -0.6 12.7
7 0 -16 69.09 14.2
-7 0 16 110.29 16.7
-7 0 16 79.09 13.7
6 0 -16 183.28 24.1
-6 0 16 171.88 23
-6 0 16 195.98 23.4
5 0 -16 23 12
-5 0 16 18.9 12.5
-5 0 16 20.5 12
4 0 -16 -1.7 11.1
-4 0 16 4.9 11.3
-4 0 16 -2.3 11.6
3 0 -16 16.9 11.3
-3 0 16 14.9 11.5
-3 0 16 16.8 12.2
2 0 -16 57.99 15
2 0 -16 46.7 14.8
-2 0 16 92.49 16
-2 0 16 50.79 12.6
1 0 -16 67.09 13.4
1 0 -16 89.29 17.2
-1 0 16 64.99 13.2
-1 0 16 110.79 16.3
0 0 -16 78.79 15.7
0 0 -16 91.29 18.4
0 0 16 72.29 14.2
0 0 16 79.09 15.5
-1 0 -16 49.1 15.6
-1 0 -16 44.4 15.5
1 0 16 35.8 13.6
1 0 16 44 14.2
-2 0 -16 1.4 13.9
-2 0 -16 11.7 14.3
2 0 16 18.2 12.4
2 0 16 23.3 13
9 -1 -16 42 15
-9 1 16 18.3 13.8
-9 1 16 31.6 17.2
8 -1 -16 31.3 14.2
-8 1 16 25 16.6
-8 1 16 19.6 13.6
7 -1 -16 9.9 15.5
-7 1 16 10.7 14.6
-7 1 16 8.2 14.5
6 -1 -16 221.98 25.8
-6 1 16 232.78 25.9
-6 1 16 246.28 25.3
5 -1 -16 157.68 23.4
-5 1 16 175.78 23.2
-5 1 16 162.38 23.3
4 -1 -16 71.09 16.8
-4 1 16 55.99 15.7
-4 1 16 56.89 16
3 -1 -16 10 15.4
3 -1 -16 6.6 13.1
-3 1 16 11.7 13.2
-3 1 16 5.6 13
2 -1 -16 31 13.3
2 -1 -16 55.09 17.2
-2 1 16 50.49 14.1
-2 1 16 70.49 15.9
1 -1 -16 0.5 12.9
1 -1 -16 4.8 16.2
-1 1 16 10.1 12.7
-1 1 16 13.1 14.8
0 -1 -16 66.69 18
0 -1 -16 75.49 17.9
0 1 16 57.19 14.7
0 1 16 69.59 16.1
-1 -1 -16 7.9 15.5
-1 -1 -16 -7.8 14
1 1 16 -1.7 13.8
1 1 16 3.9 13.6
7 -2 -16 148.19 19.9
-7 2 16 140.29 20.8
-7 2 16 118.29 18.6
6 -2 -16 382.46 31.1
-6 2 16 339.37 29.7
-6 2 16 336.77 29.9
5 -2 -16 234.88 28.3
5 -2 -16 225.48 26.5
-5 2 16 216.68 25.8
-5 2 16 198.28 25.8
4 -2 -16 22.3 15.1
4 -2 -16 21.4 14.6
-4 2 16 23.7 14.6
-4 2 16 16.1 13.4
3 -2 -16 192.68 25.6
3 -2 -16 208.98 29.2
-3 2 16 252.17 26.3
-3 2 16 219.78 25.6
2 -2 -16 527.55 38.4
2 -2 -16 533.05 35.8
-2 2 16 561.44 35.5
-2 2 16 537.95 35.4
1 -2 -16 29.5 14.6
1 -2 -16 40.8 19.1
-1 2 16 37.3 15.7
-1 2 16 26.1 13.7
4 12 -17 153.48 21.7
4 12 -17 149.09 20.3
-4 -12 17 117.69 17
-4 -12 17 170.88 20.8
3 12 -17 207.38 20.7
3 12 -17 200.28 22.3
-3 -12 17 202.88 24.9
-3 -12 17 137.59 20.9
2 12 -17 215.28 22.2
2 12 -17 222.48 20.1
-2 -12 17 188.98 21.2
-2 -12 17 217.88 25
1 12 -17 232.28 22.2
1 12 -17 240.08 20.5
-1 -12 17 246.78 21.6
-1 -12 17 284.57 25.9
6 11 -17 297.27 25.4
6 11 -17 293.07 27.1
-6 -11 17 278.17 26.6
-6 -11 17 289.97 26.9
5 11 -17 46.2 14.9
5 11 -17 43.3 12.4
-5 -11 17 56.69 15.7
-5 -11 17 54.49 15.1
4 11 -17 84.69 13.2
4 11 -17 84.79 14.5
-4 -11 17 72.99 15
-4 -11 17 80.59 13.6
3 11 -17 474.05 31.1
3 11 -17 496.65 29.5
-3 -11 17 495.75 30.5
-3 -11 17 509.35 32.8
2 11 -17 348.97 24.1
2 11 -17 359.06 26.3
-2 -11 17 369.56 28.3
-2 -11 17 369.86 25.4
1 11 -17 122.79 16.4
1 11 -17 126.29 19
-1 -11 17 109.09 16.6
-1 -11 17 124.29 18
0 11 -17 28.9 9.8
0 11 -17 23.6 10.3
0 -11 17 27.6 10.5
0 -11 17 30.4 13.5
-1 11 -17 241.98 19
-1 11 -17 248.88 21.3
1 -11 17 223.38 24.6
1 -11 17 231.98 19.9
8 10 -17 49 14.8
8 10 -17 24.7 13.6
-8 -10 17 28.8 14.4
-8 -10 17 55.19 14.9
7 10 -17 4.3 12.9
7 10 -17 -5.8 12.2
-7 -10 17 1.6 12.7
-7 -10 17 -8.8 12.6
6 10 -17 36.5 13.1
6 10 -17 72.09 15.1
-6 -10 17 75.59 15.4
-6 -10 17 39.6 13
5 10 -17 27.1 12.1
5 10 -17 38.6 11.4
-5 -10 17 44.6 12.4
-5 -10 17 41.7 12.6
4 10 -17 32.6 11.3
4 10 -17 10.4 11.4
-4 -10 17 20.1 11.3
-4 -10 17 29.8 12.2
3 10 -17 382.56 25.2
3 10 -17 389.86 27.3
-3 -10 17 376.46 26.5
-3 -10 17 378.66 26.5
2 10 -17 172.88 20.6
2 10 -17 185.08 18.2
-2 -10 17 194.68 19.9
-2 -10 17 182.88 20.5
1 10 -17 16.8 9.7
1 10 -17 18.2 11.2
-1 -10 17 5.4 9.6
-1 -10 17 10.3 12.7
0 10 -17 36.1 10.2
0 10 -17 35.5 10.8
0 -10 17 47.6 11
0 -10 17 30.4 13.5
-1 10 -17 195.28 17.8
-1 10 -17 195.18 19.8
1 -10 17 272.17 24.3
1 -10 17 223.48 19.4
-2 10 -17 318.07 22.7
2 -10 17 330.57 22.6
2 -10 17 310.67 26.3
8 9 -17 109.89 18.1
8 9 -17 156.78 22.1
-8 -9 17 158.68 19.4
-8 -9 17 162.98 22.6
7 9 -17 264.57 24.7
7 9 -17 254.97 27.3
-7 -9 17 302.77 27
-7 -9 17 308.77 25.9
6 9 -17 147.19 20.1
6 9 -17 144.89 22.1
-6 -9 17 159.48 20.6
-6 -9 17 145.89 21.8
5 9 -17 100.09 13.9
5 9 -17 156.08 18.4
-5 -9 17 133.49 20.1
-5 -9 17 158.38 20.5
4 9 -17 136.59 18
4 9 -17 147.89 21
-4 -9 17 137.79 19.3
-4 -9 17 138.29 20
3 9 -17 23 11.3
3 9 -17 23.2 9.7
-3 -9 17 13.1 10.6
-3 -9 17 15.7 11.1
2 9 -17 6.6 10.2
2 9 -17 21 10.2
-2 -9 17 30.2 11.4
-2 -9 17 13.5 11
1 9 -17 4.2 9.2
1 9 -17 -1.9 9.4
-1 -9 17 -7.6 9.7
-1 -9 17 2.6 10.5
0 9 -17 49 12.1
0 9 -17 41.2 10
0 -9 17 42.4 11.1
0 -9 17 31.4 13.1
-1 9 -17 141.59 18.4
1 -9 17 168.48 22.4
1 -9 17 185.68 18.8
-2 9 -17 196.68 18.9
2 -9 17 191.98 23.1
2 -9 17 201.28 19.4
-3 9 -17 45.8 10.5
3 -9 17 32.7 14.2
3 -9 17 37.2 10.3
9 8 -17 495.45 32.8
9 8 -17 478.45 35.2
-9 -8 17 513.05 33.9
-9 -8 17 487.45 34.8
8 8 -17 531.75 33
8 8 -17 537.15 35.5
-8 -8 17 522.75 33.6
-8 -8 17 474.05 34.3
7 8 -17 636.74 38
7 8 -17 669.23 36.8
-7 -8 17 606.94 37.6
-7 -8 17 639.94 36.9
6 8 -17 224.48 21.6
6 8 -17 211.38 23.5
-6 -8 17 203.68 23
-6 -8 17 230.38 22.3
5 8 -17 470.55 31.1
5 8 -17 461.65 28.9
-5 -8 17 470.25 30
-5 -8 17 462.55 30.4
4 8 -17 700.83 37.4
4 8 -17 692.53 35.8
-4 -8 17 673.23 36.7
-4 -8 17 631.44 36.6
3 8 -17 185.88 18.3
3 8 -17 186.78 19.8
-3 -8 17 147.39 19.7
-3 -8 17 155.18 20
2 8 -17 47 10.7
2 8 -17 44 12
-2 -8 17 55.39 13.2
-2 -8 17 42.2 11.2
1 8 -17 12.2 9
1 8 -17 14 10.1
-1 -8 17 9.1 9.8
-1 -8 17 9.3 10.6
0 8 -17 77.79 12.5
0 8 -17 58.29 10.8
0 -8 17 98.29 13.6
0 -8 17 95.79 14
-1 8 -17 53.49 11.5
1 -8 17 48.5 13.4
1 -8 17 73.79 12.4
-2 8 -17 40.3 11.3
2 -8 17 38.3 10.8
2 -8 17 43.5 13.5
-3 8 -17 52.69 11.1
3 -8 17 64.99 14.3
3 -8 17 62.99 11.8
9 7 -17 630.74 36.5
9 7 -17 617.04 39.1
-9 -7 17 617.14 37
-9 -7 17 550.24 38.4
8 7 -17 311.77 25.9
8 7 -17 334.87 28.7
-8 -7 17 329.87 27
-8 -7 17 315.17 28.3
7 7 -17 319.37 25.2
7 7 -17 315.67 27.7
-7 -7 17 342.97 26.3
-7 -7 17 352.76 28
6 7 -17 120.09 16.9
6 7 -17 105.79 15.8
-6 -7 17 97.29 15.9
-6 -7 17 106.29 16.9
5 7 -17 483.15 27.7
5 7 -17 439.66 28.8
-5 -7 17 389.86 28
-5 -7 17 382.46 28.8
4 7 -17 425.76 27.3
4 7 -17 416.16 25.6
-4 -7 17 364.06 26.4
-4 -7 17 326.77 26.2
3 7 -17 337.87 23
3 7 -17 316.27 24.7
-3 -7 17 331.67 24.2
-3 -7 17 333.07 24.8
2 7 -17 124.29 17.9
2 7 -17 112.19 16.6
-2 -7 17 130.69 19.2
-2 -7 17 131.39 18.4
1 7 -17 139.89 18.1
1 7 -17 154.28 17.2
-1 -7 17 147.59 18
-1 -7 17 140.19 19.5
0 7 -17 420.46 26.1
0 -7 17 377.96 25.5
0 -7 17 391.76 26.5
-1 7 -17 580.44 34.4
1 -7 17 693.43 34.7
1 -7 17 682.03 35.8
-2 7 -17 122.49 17.6
2 -7 17 92.99 15.7
2 -7 17 117.49 17.6
-3 7 -17 35.1 11.2
-3 7 -17 19.8 12.9
3 -7 17 36.3 11.2
3 -7 17 27.8 13.5
10 6 -17 42.2 16.8
10 6 -17 21 12.9
-10 -6 17 29.1 16.2
-10 -6 17 24.8 14.4
9 6 -17 127.79 17.5
9 6 -17 134.59 20.3
-9 -6 17 101.09 17.3
-9 -6 17 97.09 19.2
8 6 -17 181.18 21.3
8 6 -17 159.48 23.4
-8 -6 17 149.88 21.9
-8 -6 17 120.29 17
7 6 -17 43.5 13.1
7 6 -17 22.5 11.9
-7 -6 17 54.39 14.7
-7 -6 17 29.1 12.7
6 6 -17 77.09 15.4
6 6 -17 50.79 11.5
-6 -6 17 87.39 16.2
-6 -6 17 56.89 12.4
5 6 -17 179.08 19.1
5 6 -17 170.58 20.9
-5 -6 17 197.18 20.9
-5 -6 17 186.48 21.6
4 6 -17 378.26 27.3
4 6 -17 366.66 25.6
-4 -6 17 440.86 27.5
-4 -6 17 434.56 27.5
3 6 -17 282.47 23.2
3 6 -17 282.67 22.4
-3 -6 17 311.77 24.1
-3 -6 17 318.57 23.7
2 6 -17 15.2 9.8
2 6 -17 26.1 10.3
-2 -6 17 33.8 12.9
-2 -6 17 20.3 11
1 6 -17 232.88 20.4
-1 -6 17 188.28 20.7
-1 -6 17 178.08 20.1
0 6 -17 339.17 24.4
0 -6 17 339.97 24.2
0 -6 17 350.36 25
-1 6 -17 607.24 33.8
1 -6 17 596.74 33.9
1 -6 17 616.44 33.3
-2 6 -17 124.09 17.3
-2 6 -17 118.49 15.5
2 -6 17 93.29 13.6
2 -6 17 67.09 14.7
-3 6 -17 79.19 13.3
-3 6 -17 80.39 15.8
3 -6 17 59.99 12.4
3 -6 17 57.19 15.2
10 5 -17 105.39 17.6
10 5 -17 161.78 21.5
-10 -5 17 171.78 25
-10 -5 17 87.79 16.7
9 5 -17 115.69 17.5
9 5 -17 188.38 22
-9 -5 17 115.79 17.3
-9 -5 17 163.08 24.3
8 5 -17 2.8 12.7
8 5 -17 -1.9 10.5
-8 -5 17 4.6 13.2
-8 -5 17 6.8 12.3
7 5 -17 33.8 10.9
7 5 -17 74.09 16
-7 -5 17 62.59 16.3
-7 -5 17 39.2 12.1
6 5 -17 93.89 14.4
6 5 -17 88.59 16.2
-6 -5 17 98.09 15.9
-6 -5 17 91.39 16.1
5 5 -17 257.07 22.4
5 5 -17 258.97 23.4
-5 -5 17 289.27 24.3
-5 -5 17 276.77 24.1
4 5 -17 198.38 20.4
4 5 -17 204.78 21.8
-4 -5 17 245.38 22.2
-4 -5 17 242.98 22.7
3 5 -17 19.5 10.3
3 5 -17 15 11.7
-3 -5 17 30.4 12.3
-3 -5 17 29.9 12.2
2 5 -17 14.8 9.8
-2 -5 17 10.8 10.4
-2 -5 17 17.6 10.5
1 5 -17 120.99 18
-1 -5 17 74.89 12.9
-1 -5 17 99.29 14.7
0 5 -17 208.88 21.9
0 -5 17 259.87 21.9
0 -5 17 255.57 22.4
-1 5 -17 416.76 28.6
1 -5 17 476.95 28.8
1 -5 17 449.46 28.9
-2 5 -17 76.89 13.2
-2 5 -17 104.09 17.4
2 -5 17 97.99 15.1
2 -5 17 97.09 16.6
-3 5 -17 92.49 15.8
-3 5 -17 120.39 16
3 -5 17 102.49 15
3 -5 17 115.29 18.4
10 4 -17 485.85 34.6
10 4 -17 466.45 30.5
-10 -4 17 426.56 33.4
-10 -4 17 439.86 33.4
9 4 -17 311.37 29.1
9 4 -17 379.16 26.1
-9 -4 17 302.47 28.7
-9 -4 17 325.37 28.5
8 4 -17 133.49 16.5
8 4 -17 89.59 15.5
-8 -4 17 133.79 18.2
-8 -4 17 88.59 15.9
7 4 -17 8.6 11.7
7 4 -17 19.9 12.4
-7 -4 17 24.7 14.1
-7 -4 17 16 12.5
6 4 -17 138.09 19.3
6 4 -17 83.29 13.5
-6 -4 17 104.19 14.8
-6 -4 17 153.28 21.4
5 4 -17 178.98 19.8
5 4 -17 181.28 21.6
-5 -4 17 171.58 21.5
-5 -4 17 162.48 21.2
4 4 -17 207.08 22
4 4 -17 218.28 20.5
-4 -4 17 240.08 22.7
-4 -4 17 202.98 21.8
3 4 -17 33.6 11.6
-3 -4 17 40.7 12.3
-3 -4 17 35.8 11.7
2 4 -17 29.2 11.8
-2 -4 17 24.7 11.9
-2 -4 17 27.6 12.2
1 4 -17 49 12.3
-1 -4 17 40 11.6
-1 -4 17 32.4 11
0 4 -17 19.2 12.1
0 -4 17 20.8 11.9
0 -4 17 10 10.8
-1 4 -17 96.59 14.8
-1 4 -17 63.39 14.9
1 -4 17 61.79 13.1
1 -4 17 96.79 15.4
-2 4 -17 112.69 17.2
-2 4 -17 147.39 17.6
2 -4 17 121.59 18.7
2 -4 17 116.09 16.3
-3 4 -17 58.39 13.7
-3 4 -17 53.79 15.8
3 -4 17 43.1 15.4
3 -4 17 56.69 12.8
10 3 -17 273.67 24.7
10 3 -17 214.98 28.4
-10 -3 17 271.67 28.7
-10 -3 17 293.47 29
9 3 -17 212.58 26.9
9 3 -17 222.88 23
-9 -3 17 279.27 27.4
-9 -3 17 244.78 27.1
8 3 -17 12.2 10.6
8 3 -17 28 15.1
-8 -3 17 9.9 12.9
-8 -3 17 8.9 14.3
7 3 -17 319.67 25.9
7 3 -17 352.16 28
-7 -3 17 343.57 28.3
-7 -3 17 337.17 27.6
6 3 -17 1443.16 67.99
6 3 -17 1482.65 66.59
-6 -3 17 1432.76 67.69
-6 -3 17 1495.05 68.39
5 3 -17 954.4 49.99
5 3 -17 978.2 48.6
-5 -3 17 1014.1 50.09
-5 -3 17 1076.89 50.99
-4 -3 17 312.97 26.2
-4 -3 17 353.36 26.8
3 3 -17 18.5 12.5
-3 -3 17 18.3 12.6
-3 -3 17 9.1 11.8
2 3 -17 84.99 14.2
-2 -3 17 73.29 13.5
-2 -3 17 89.89 15
1 3 -17 90.89 15.6
-1 -3 17 109.49 15.6
-1 -3 17 145.89 17.7
0 3 -17 91.69 15.6
0 3 -17 69.09 13
0 -3 17 77.89 13.4
0 -3 17 98.09 14.7
-1 3 -17 6.6 10.7
-1 3 -17 16.4 13
1 -3 17 6 11.9
1 -3 17 15.4 11.3
-2 3 -17 19.4 11.6
-2 3 -17 8.8 13.6
2 -3 17 12 14.8
9 2 -17 92.09 16.4
9 2 -17 72.89 17.3
-9 -2 17 102.49 18.5
-9 -2 17 97.09 19.3
8 2 -17 22 13
8 2 -17 20 15.4
-8 -2 17 33.5 16.7
-8 -2 17 30.9 15.8
7 2 -17 92.09 17.6
7 2 -17 69.29 14.1
-7 -2 17 80.99 17.4
-7 -2 17 91.59 17.5
6 2 -17 704.53 40.6
6 2 -17 725.93 38.9
-6 -2 17 686.53 40
-6 -2 17 754.22 41.3
5 2 -17 669.33 38.3
-5 -2 17 656.83 37.7
-5 -2 17 619.34 37.2
4 2 -17 66.79 14
-4 -2 17 55.79 13.2
-4 -2 17 91.99 15.9
3 2 -17 9.8 11.6
-3 -2 17 24.5 12.9
-3 -2 17 26.3 12.8
2 2 -17 21 12.9
-2 -2 17 15.3 11.3
-2 -2 17 35.6 12.9
1 2 -17 57.89 17.6
-1 -2 17 101.19 16.5
-1 -2 17 103.09 16.5
0 2 -17 37.7 14.7
0 2 -17 41.6 12.2
0 -2 17 65.99 13.5
0 -2 17 73.69 14.1
-1 2 -17 4.7 14.4
-1 2 -17 -0.5 11
1 -2 17 7.8 11.8
1 -2 17 11.1 12.9
-2 2 -17 8.6 11.8
-2 2 -17 17.5 16.1
2 -2 17 3.6 13.9
2 -2 17 8.3 12.9
-9 -1 17 27.3 16
8 1 -17 1.4 14
8 1 -17 -0.3 11.6
-8 -1 17 -1.9 14
-8 -1 17 12.4 15
7 1 -17 9.8 12.4
7 1 -17 12.7 14.6
-7 -1 17 -4.9 15.1
-7 -1 17 15 14.3
6 1 -17 77.09 16.4
-6 -1 17 71.29 15.9
-6 -1 17 89.99 16.1
5 1 -17 114.49 17.4
-5 -1 17 155.78 23.5
-5 -1 17 157.68 22.3
4 1 -17 22.1 11.9
-4 -1 17 33.8 13.6
-4 -1 17 17.6 12.7
3 1 -17 19 13.9
-3 -1 17 14.4 14.1
-3 -1 17 6.6 12.4
2 1 -17 84.59 15.1
-2 -1 17 131.89 17.9
1 1 -17 165.38 22.2
1 1 -17 171.18 20.8
-1 -1 17 128.69 18.2
0 1 -17 49.99 16
0 1 -17 91.19 16.9
0 -1 17 106.39 17.6
0 -1 17 77.29 15.7
-1 1 -17 34.1 14.9
-1 1 -17 27.3 17.2
1 -1 17 35 15.2
1 -1 17 22.7 14.1
-8 0 17 1 14.5
7 0 -17 57.39 15.3
-7 0 17 50.39 14.4
-7 0 17 42.9 15
6 0 -17 80.09 16.5
-6 0 17 82.39 16.3
5 0 -17 34.1 14.7
-5 0 17 32.3 13.8
-5 0 17 27.5 14.8
4 0 -17 61.99 17
-4 0 17 26.8 14.7
-4 0 17 50.59 16.9
3 0 -17 32.8 18.5
3 0 -17 28.1 13.6
-3 0 17 33.1 15.6
-3 0 17 28.5 13.6
2 0 -17 63.09 17
2 0 -17 66.69 19.5
-2 0 17 66.69 17.2
-2 0 17 37.3 15.6
1 0 -17 40.8 17.6
1 0 -17 29.5 13.9
-1 0 17 27.5 14.3
-1 0 17 25.7 14.2
5 -1 -17 19.2 13.9
-5 1 17 27.7 17.6
-5 1 17 21.4 14.1
4 -1 -17 24.4 14.9
4 -1 -17 10.3 17.1
-4 1 17 6.5 14.2
-4 1 17 29.9 15.3
3 -1 -17 63.09 17.6
3 -1 -17 111.59 18.8
-3 1 17 91.99 18.3
-3 1 17 63.69 15.3
5 10 -18 6.1 11.8
5 10 -18 13.1 13.6
-5 -10 18 9.6 13.7
-5 -10 18 13 12.7
4 10 -18 24.9 12.1
4 10 -18 23.4 13.3
-4 -10 18 21.1 13.7
-4 -10 18 22.7 15.5
3 10 -18 211.98 20.2
3 10 -18 181.68 22.8
-3 -10 18 175.48 24.6
-3 -10 18 179.08 22
2 10 -18 76.29 14.2
2 10 -18 57.59 11.8
-2 -10 18 67.39 15.6
-2 -10 18 49.8 12.5
1 10 -18 34.1 12.5
1 10 -18 34.2 10.8
-1 -10 18 40.1 12.4
-1 -10 18 36.2 15.2
7 9 -18 270.17 25.6
7 9 -18 273.57 29
-7 -9 18 267.77 26.7
-7 -9 18 264.37 27.8
6 9 -18 65.29 12.8
6 9 -18 74.79 15.1
-6 -9 18 58.29 13.6
-6 -9 18 74.99 15.6
5 9 -18 217.78 25.8
5 9 -18 225.88 22.2
-5 -9 18 234.48 24.1
-5 -9 18 240.58 25.3
4 9 -18 158.28 23.2
4 9 -18 171.58 20.1
-4 -9 18 170.28 22.3
-4 -9 18 156.68 22.5
3 9 -18 -2.6 10.9
3 9 -18 -8.6 10
-3 -9 18 -4.3 13.7
-3 -9 18 4.2 11.1
2 9 -18 14.9 11
2 9 -18 11.7 10
-2 -9 18 10.8 10.7
-2 -9 18 6.4 13.7
1 9 -18 48 11.3
1 9 -18 43.5 12
-1 -9 18 79.29 14
-1 -9 18 40.2 14.9
0 9 -18 -4.5 9.2
0 9 -18 4.7 11
0 -9 18 1.7 11.2
0 -9 18 15 14.6
7 8 -18 648.04 36
7 8 -18 593.84 38
-7 -8 18 584.84 36.5
-7 -8 18 585.54 37.7
6 8 -18 9.8 11.1
6 8 -18 13.3 13
-6 -8 18 26.4 13.7
-6 -8 18 16.8 12.2
5 8 -18 200.08 23.9
5 8 -18 208.68 21.5
-5 -8 18 171.38 23.6
-5 -8 18 199.48 22.6
4 8 -18 203.18 23.1
4 8 -18 229.08 21.1
-4 -8 18 176.08 22.7
-4 -8 18 202.58 23.4
3 8 -18 111.39 15
3 8 -18 107.19 16.4
-3 -8 18 85.69 16
-3 -8 18 101.29 16.6
2 8 -18 36.1 13.1
2 8 -18 18.8 10.6
-2 -8 18 24.6 13.4
-2 -8 18 35.8 13.4
1 8 -18 36.5 12.2
1 8 -18 32.3 10.5
-1 -8 18 45.1 13.1
-1 -8 18 26.8 14.2
0 8 -18 64.69 13.8
0 -8 18 51.79 12.8
0 -8 18 41.3 15.1
-1 8 -18 15.9 11
1 -8 18 13.1 14
1 -8 18 22.3 11.3
8 7 -18 451.85 30.6
8 7 -18 426.06 33.9
-8 -7 18 379.66 33
-8 -7 18 423.46 31.5
7 7 -18 38 15.9
7 7 -18 43.9 13.9
-7 -7 18 27.3 13.8
-7 -7 18 25.7 14.8
6 7 -18 17.6 12.9
6 7 -18 20.6 11.4
-6 -7 18 9.6 11.9
-6 -7 18 20.3 13.3
5 7 -18 107.09 15.6
5 7 -18 65.49 15
-5 -7 18 89.29 16.2
-5 -7 18 55.79 14.1
4 7 -18 207.78 23.7
4 7 -18 225.38 21.8
-4 -7 18 264.97 24.4
-4 -7 18 301.97 24.3
3 7 -18 295.57 25.5
3 7 -18 300.87 23.4
-3 -7 18 329.07 25.7
-3 -7 18 319.77 26.3
2 7 -18 41.2 10.9
2 7 -18 51.49 12
-2 -7 18 62.59 13
-2 -7 18 75.79 14.5
1 7 -18 98.59 14.3
-1 -7 18 95.09 13.9
-1 -7 18 108.39 16.3
0 7 -18 389.16 27.2
0 -7 18 365.26 29.8
0 -7 18 408.46 27.4
-1 7 -18 234.28 22.4
1 -7 18 215.88 25.8
1 -7 18 237.08 22.3
8 6 -18 99.19 19.1
8 6 -18 52.69 14.3
-8 -6 18 59.29 17.4
-8 -6 18 62.29 16.4
7 6 -18 2.8 12.3
7 6 -18 10.9 11.3
-7 -6 18 12 12.5
-7 -6 18 7.1 13
6 6 -18 56.49 16.1
6 6 -18 30.2 11.8
-6 -6 18 33.8 13.1
-6 -6 18 58.99 16.6
5 6 -18 291.67 26.7
5 6 -18 310.77 24.6
-5 -6 18 307.77 27
-5 -6 18 328.97 26.6
4 6 -18 283.17 25.1
4 6 -18 300.47 23.5
-4 -6 18 275.97 25
-4 -6 18 253.37 24.5
3 6 -18 98.89 13.7
3 6 -18 69.89 13.1
-3 -6 18 62.19 13.6
-3 -6 18 92.49 14.7
2 6 -18 15.7 11.4
2 6 -18 20.5 10.7
-2 -6 18 16.9 13.4
-2 -6 18 11.4 11.5
1 6 -18 402.96 27.2
-1 -6 18 384.86 28.2
-1 -6 18 342.07 26.8
0 6 -18 498.95 30.2
0 -6 18 439.86 29.5
0 -6 18 421.36 31.8
-1 6 -18 517.45 32.3
1 -6 18 548.55 35
1 -6 18 497.25 31.5
8 5 -18 7.6 11.1
8 5 -18 12.1 14.7
-8 -5 18 14.8 15
-8 -5 18 10.8 12.8
7 5 -18 11.7 15.5
7 5 -18 2.4 11.1
-7 -5 18 33 16.6
-7 -5 18 13.1 12.3
6 5 -18 14.4 12.6
6 5 -18 11 12.5
-6 -5 18 14.3 14.2
-6 -5 18 4.6 12.4
5 5 -18 36.7 11.9
5 5 -18 80.59 15.2
-5 -5 18 45.3 13.1
-5 -5 18 74.09 15.7
4 5 -18 2.7 11.9
4 5 -18 0.1 10.3
-4 -5 18 -1.4 11.8
-4 -5 18 11.7 12.2
3 5 -18 68.39 14.4
3 5 -18 32.4 11.1
-3 -5 18 80.29 15.5
-3 -5 18 56.49 13.8
2 5 -18 -6.3 10.3
-2 -5 18 3.8 11.4
-2 -5 18 -1.6 12.7
1 5 -18 163.28 21.6
-1 -5 18 156.78 21.9
-1 -5 18 163.98 21.7
0 -5 18 67.79 15.1
0 -5 18 88.79 14.6
-1 5 -18 208.38 23.4
-1 5 -18 201.48 26.8
1 -5 18 230.78 26.7
1 -5 18 215.08 23.6
8 4 -18 336.77 26.8
8 4 -18 301.17 31
-8 -4 18 323.17 29.3
-8 -4 18 331.77 31.5
7 4 -18 0.7 13.7
7 4 -18 -8.6 13.1
-7 -4 18 5.4 14.5
-7 -4 18 -0.7 14.4
6 4 -18 259.07 25.9
6 4 -18 222.18 23.5
-6 -4 18 248.78 25.6
-6 -4 18 239.68 26.1
5 4 -18 327.67 25.9
5 4 -18 343.57 28.3
-5 -4 18 342.87 28.3
-5 -4 18 338.77 28.5
4 4 -18 95.29 15
4 4 -18 121.49 17.1
-4 -4 18 129.69 18.2
-4 -4 18 133.49 18
3 4 -18 1.1 11.6
-3 -4 18 5.8 13.5
-3 -4 18 1.4 12
2 4 -18 5.2 13.4
-2 -4 18 2.1 12.3
-2 -4 18 12.9 13.5
1 4 -18 74.59 15
-1 -4 18 86.29 15.9
-1 -4 18 106.59 16.8
0 4 -18 47.9 13
0 -4 18 36.7 13.5
0 -4 18 77.09 14.9
-8 -3 18 54.29 17.5
7 3 -18 99.59 17
7 3 -18 85.29 15.1
-7 -3 18 116.89 18.3
-7 -3 18 90.19 16.8
6 3 -18 640.84 36.9
6 3 -18 645.24 39
-6 -3 18 639.84 39.1
-6 -3 18 644.44 39.3
5 3 -18 751.12 41.5
-5 -3 18 710.73 41.3
-5 -3 18 685.23 40.6
-4 -3 18 109.59 16.7
-4 -3 18 123.69 18.4
3 3 -18 20.1 14.5
-3 -3 18 25.9 14.3
-3 -3 18 33.1 14.3
2 3 -18 42.4 14
-2 -3 18 64.29 15.8
-2 -3 18 38.2 12.9
1 3 -18 37.5 12.9
-1 -3 18 50.69 14.2
-1 -3 18 66.29 15.5
0 3 -18 33.8 15.6
0 3 -18 23.3 12.4
0 -3 18 16.1 12.7
0 -3 18 32.5 13.3
7 2 -18 204.28 24.3
7 2 -18 203.48 27.1
-7 -2 18 233.08 28.1
-7 -2 18 215.38 27.2
6 2 -18 808.82 46.4
-6 -2 18 851.91 46.2
-6 -2 18 830.12 46
5 2 -18 728.83 42
-5 -2 18 711.73 41.3
-5 -2 18 677.43 41.1
4 2 -18 96.99 17.4
-4 -2 18 78.19 15
-4 -2 18 121.39 18.3
3 2 -18 30.4 14.5
-3 -2 18 17.4 12.8
-3 -2 18 23.7 14.4
2 2 -18 115.79 18.3
-2 -2 18 74.89 15.2
-2 -2 18 128.79 19.4
1 2 -18 320.17 32.7
-1 -2 18 352.86 28.7
-5 -1 18 56.29 17.2
-4 -1 18 28.7 15.9
-5 -7 19 356.66 29.5
4 7 -19 343.47 26.8
4 7 -19 342.87 29
-4 -7 19 358.26 29.3
-4 -7 19 348.67 29.5
3 7 -19 199.78 23.6
3 7 -19 183.28 21.4
-3 -7 19 177.58 25
-3 -7 19 166.18 23.5
5 6 -19 215.38 26.3
-5 -6 19 201.08 26.1
4 6 -19 219.58 23
4 6 -19 171.38 25.5
-4 -6 19 210.58 25.7
-4 -6 19 220.38 25.7
3 6 -19 122.39 17.3
3 6 -19 144.39 20.4
-3 -6 19 95.89 16.2
-3 -6 19 134.59 19.1
-4 -5 19 -1.4 14.4
loop_
_platon_missing_refln_index_h
_platon_missing_refln_index_k
_platon_missing_refln_index_l
_platon_missing_refln_theta
1 0 0 3.297
-3 1 0 10.093
-1 1 0 4.422
0 1 0 3.383
4 -4 1 17.877
3 -3 1 13.376
2 -2 1 9.039
0 -1 1 3.488
1 -1 1 5.048
-3 0 1 9.584
-1 0 1 3.811
0 0 1 2.972
1 0 1 4.992
3 0 1 11.118
-1 1 1 5.600
3 1 1 12.339
-1 2 1 8.449
-1 3 1 11.627
1 -5 2 15.934
4 -5 2 20.423
3 -4 2 15.982
4 -4 2 18.314
5 -4 2 20.987
1 -3 2 10.176
3 -3 2 14.047
1 -1 2 7.015
0 0 2 5.951
-2 1 2 8.986
-1 2 2 10.468
4 -5 3 21.064
1 -4 3 13.557
3 -4 3 16.859
4 -4 3 19.243
5 -4 3 21.951
0 -3 3 10.518
-1 -1 3 8.067
4 -5 4 22.134
