#------------------------------------------------------------------------------
#$Date: 2019-11-02 08:10:59 +0200 (Sat, 02 Nov 2019) $
#$Revision: 221052 $
#$URL: file:///home/coder/svn-repositories/cod/cif/4/12/78/4127892.cif $
#------------------------------------------------------------------------------
#
# This file is available in the Crystallography Open Database (COD),
# http://www.crystallography.net/
#
# All data on this site have been placed in the public domain by the
# contributors.
#
data_4127892
loop_
_publ_author_name
'Lysova, Anna A.'
'Samsonenko, Denis G.'
'Dorovatovskii, Pavel V.'
'Lazarenko, Vladimir A.'
'Khrustalev, Victor N.'
'Kovalenko, Konstantin A.'
'Dybtsev, Danil N.'
'Fedin, Vladimir P.'
_publ_section_title
;
 Tuning the Molecular and Cationic Affinity in a Series of Multifunctional
 Metal-Organic Frameworks Based on Dodecanuclear Zn(II) Carboxylate
 Wheels.
;
_journal_issue                   43
_journal_name_full               'Journal of the American Chemical Society'
_journal_page_first              17260
_journal_page_last               17269
_journal_paper_doi               10.1021/jacs.9b08322
_journal_volume                  141
_journal_year                    2019
_chemical_formula_sum            'C29.7 H43.3 N3.9 O14.9 S2 Zn4'
_chemical_formula_weight         1018.98
_space_group_crystal_system      trigonal
_space_group_IT_number           166
_space_group_name_Hall           '-R 3 2"'
_space_group_name_H-M_alt        'R -3 m :H'
_symmetry_space_group_name_Hall  '-R 3 2"'
_symmetry_space_group_name_H-M   'R -3 m :H'
_atom_sites_solution_hydrogens   geom
_atom_sites_solution_primary     dual
_atom_sites_solution_secondary   difmap
_audit_creation_method           SHELXL-2018/3
_cell_angle_alpha                90
_cell_angle_beta                 90
_cell_angle_gamma                120
_cell_formula_units_Z            9
_cell_length_a                   31.7683(6)
_cell_length_b                   31.7683(6)
_cell_length_c                   11.8414(4)
_cell_measurement_reflns_used    600
_cell_measurement_temperature    100(2)
_cell_measurement_theta_max      29.0
_cell_measurement_theta_min      3.6
_cell_volume                     10349.6(4)
_computing_cell_refinement       'iMosflm (Battye et al., 2011)'
_computing_data_collection       'Marccd (Doyle, 2011)'
_computing_data_reduction        iMosflm
_computing_molecular_graphics    'ShelXle (H\"ubschle, 2011)'
_computing_publication_material  'CIFTAB (Sheldrick, 2015)'
_computing_structure_refinement  'SHELXL-2018 (Sheldrick, 2015)'
_computing_structure_solution    'SHELXT-2018 (Sheldrick, 2015)'
_diffrn_ambient_temperature      100(2)
_diffrn_measured_fraction_theta_full 0.985
_diffrn_measured_fraction_theta_max 0.986
_diffrn_measurement_device_type  'Rayonix SX-165 CCD'
_diffrn_measurement_method       '\f scan'
_diffrn_radiation_monochromator  'Double Crystal Monochromator'
_diffrn_radiation_source         synchrotron
_diffrn_radiation_type           synchrotron
_diffrn_radiation_wavelength     0.80246
_diffrn_reflns_av_R_equivalents  0.1514
_diffrn_reflns_av_unetI/netI     0.1276
_diffrn_reflns_Laue_measured_fraction_full 0.985
_diffrn_reflns_Laue_measured_fraction_max 0.986
_diffrn_reflns_limit_h_max       38
_diffrn_reflns_limit_h_min       -38
_diffrn_reflns_limit_k_max       38
_diffrn_reflns_limit_k_min       -26
_diffrn_reflns_limit_l_max       9
_diffrn_reflns_limit_l_min       -14
_diffrn_reflns_number            11820
_diffrn_reflns_point_group_measured_fraction_full 0.985
_diffrn_reflns_point_group_measured_fraction_max 0.986
_diffrn_reflns_theta_full        28.782
_diffrn_reflns_theta_max         29.290
_diffrn_reflns_theta_min         3.586
_diffrn_source                   synchrotron
_exptl_absorpt_coefficient_mu    3.073
_exptl_absorpt_correction_T_max  0.950
_exptl_absorpt_correction_T_min  0.810
_exptl_absorpt_correction_type   multi-scan
_exptl_absorpt_process_details   'Scala (Evans, 2006)'
_exptl_crystal_colour            colorless
_exptl_crystal_density_diffrn    1.471
_exptl_crystal_description       block
_exptl_crystal_F_000             4680
_exptl_crystal_size_max          0.10
_exptl_crystal_size_mid          0.05
_exptl_crystal_size_min          0.02
_refine_diff_density_max         1.554
_refine_diff_density_min         -0.936
_refine_diff_density_rms         0.125
_refine_ls_extinction_coef       0.0034(4)
_refine_ls_extinction_expression Fc^*^=kFc[1+0.001xFc^2^\l^3^/sin(2\q)]^-1/4^
_refine_ls_extinction_method     'SHELXL-2018/3 (Sheldrick 2018)'
_refine_ls_goodness_of_fit_ref   1.022
_refine_ls_hydrogen_treatment    constr
_refine_ls_matrix_type           full
_refine_ls_number_parameters     133
_refine_ls_number_reflns         2292
_refine_ls_number_restraints     38
_refine_ls_restrained_S_all      1.030
_refine_ls_R_factor_all          0.0897
_refine_ls_R_factor_gt           0.0774
_refine_ls_shift/su_max          0.000
_refine_ls_shift/su_mean         0.000
_refine_ls_structure_factor_coef Fsqd
_refine_ls_weighting_details
'w=1/[\s^2^(Fo^2^)+(0.1193P)^2^] where P=(Fo^2^+2Fc^2^)/3'
_refine_ls_weighting_scheme      calc
_refine_ls_wR_factor_gt          0.2070
_refine_ls_wR_factor_ref         0.2213
_reflns_Friedel_coverage         0.000
_reflns_number_gt                1776
_reflns_number_total             2292
_reflns_threshold_expression     'I > 2\s(I)'
_cod_data_source_file            ja9b08322_si_003.cif
_cod_data_source_block           pr_sq
_cod_original_cell_volume        10349.5(5)
_cod_original_formula_sum        'C29.70 H43.30 N3.90 O14.90 S2 Zn4'
_cod_database_code               4127892
_shelx_shelxl_version_number     2018/3
_shelx_space_group_comment
;
The symmetry employed for this shelxl refinement is uniquely defined
by the following loop, which should always be used as a source of
symmetry information in preference to the above space-group names.
They are only intended as comments.
;
_shelx_estimated_absorpt_t_min   0.749
_shelx_estimated_absorpt_t_max   0.941
_shelx_res_file
;
TITL pr in R-3m; 100K; Moscow
    pr_sq.res
    created by SHELXL-2018/3 at 14:46:20 on 17-Jul-2018
CELL 0.80246  31.7683  31.7683  11.8414  90  90  120
ZERR 9.000     0.0006   0.0006   0.0004  0   0   0
LATT 3
SYMM -Y, X-Y, Z
SYMM -X+Y, -X, Z
SYMM Y, X, -Z
SYMM X-Y, -Y, -Z
SYMM -X, -X+Y, -Z
SFAC C     H     N    O     S  Zn
DISP C 0.005 0.002 15.071
DISP H -0 0 0.629
DISP N 0.009 0.004 26.694
DISP O 0.015 0.008 45.138
DISP S 0.15 0.158 759.774
DISP Zn 0.212 1.814 8142.113
UNIT 267.3 389.7 35.1 134.1 18 36
 
L.S. 6 0 24
PLAN 5
BOND $H
FMAP 2
 
REM [Zn4(C6H12N2)(C6H2SO4)2(C3H6O2)2]*1.9DMF*H2O
 
LIST 4 ! automatically inserted. Change 6 to 4 for CHECKCIF!!
TEMP -173
 
SIMU 0.01 0.02 N1 C1 C2 C3
SIMU 0.01 0.01 O21 C21 C22 C23
 
EQIV $1 x, x-y, z
 
FREE C1 C1_$1
FREE C1 C2_$1
FREE C2 C1_$1
FREE C2 C3_$1
FREE C3 C2_$1
FREE C3 C3_$1
 
SADI 0.01 O21 C21  O21_$1 C22
SADI 0.01 C21 C22  C21 C23
 
FREE C21 C21_$1
FREE C22 C22_$1
FREE C21 C22_$1
FREE C22 C21_$1
FREE C23 C22_$1
FREE C23_$1 C22
 
OMIT -6 11 4
OMIT -9 9 3
OMIT -16 16 1
OMIT 0 9 0
OMIT 0 11 7
OMIT -5 6 1
OMIT -2 2 2
OMIT 0 5 1
 
SHEL 99999 0.82
 
ABIN
ACTA
 
SIZE 0.10 0.05 0.02
 
WGHT    0.119300
EXTI    0.003438
FVAR       0.51883
ZN1   6    0.424703    0.212351    0.861620    10.50000    0.05055    0.04302 =
         0.04935    0.00160    0.00321    0.02527
ZN2   6    0.468752    0.333333    0.833333    10.50000    0.05874    0.03982 =
         0.06407    0.00617    0.00309    0.01991
S1    5    0.443495    0.443495    0.500000    10.50000    0.04616    0.04616 =
         0.04936    0.00345   -0.00345    0.01080
O11   4    0.434947    0.346695    0.712466    11.00000    0.06606    0.05757 =
         0.07849    0.02096   -0.00817    0.01887
O12   4    0.489729    0.424989    0.691660    11.00000    0.07193    0.04416 =
         0.05956    0.00111   -0.01869    0.01504
C11   1    0.450834    0.387344    0.668140    11.00000    0.05196    0.05076 =
         0.04969    0.00136    0.00338    0.02099
C12   1    0.420485    0.391051    0.576112    11.00000    0.05591    0.04547 =
         0.05088    0.00365   -0.00030    0.01648
C13   1    0.375076    0.358146    0.543999    11.00000    0.05916    0.04518 =
         0.06924    0.00847   -0.00268    0.01068
AFIX  43
H13   2    0.356601    0.326921    0.577378    11.00000   -1.20000
AFIX   0
O21   4    0.472038    0.277056    0.798782    11.00000    0.05825    0.04878 =
         0.08243    0.00695    0.02064    0.02234
C21   1    0.514324    0.278573    0.763058    10.50000    0.07706    0.06637 =
         0.09214    0.01173    0.03018    0.02378
AFIX  13
H21   2    0.538355    0.290686    0.826416    10.50000   -1.20000
AFIX   0
C22   1    0.505749    0.229116    0.725566    10.50000    0.06872    0.06665 =
         0.07857    0.01957    0.03288    0.03825
AFIX  23
H22A  2    0.493243    0.222237    0.647191    10.50000   -1.20000
H22B  2    0.536504    0.228348    0.728355    10.50000   -1.20000
AFIX   0
C23   1    0.536589    0.312388    0.661241    10.50000    0.09186    0.07591 =
         0.10609    0.01314    0.04308    0.03094
AFIX  37
H23A  2    0.545382    0.345584    0.682737    10.50000   -1.50000
H23B  2    0.512884    0.301351    0.599506    10.50000   -1.50000
H23C  2    0.565740    0.311854    0.636364    10.50000   -1.50000
AFIX   0
N1    3    0.367442    0.183721    0.741226    10.50000    0.05291    0.04233 =
         0.04300    0.00071    0.00142    0.02645
C1    1    0.383916    0.172133    0.637230    10.50000    0.06111    0.08828 =
         0.05145   -0.00844   -0.00118    0.04319
AFIX  23
H1A   2    0.398247    0.151501    0.655112    10.50000   -1.20000
H1B   2    0.409613    0.202560    0.602572    10.50000   -1.20000
AFIX   0
C2    1    0.351928    0.217610    0.713770    10.50000    0.06723    0.04270 =
         0.06718   -0.00976   -0.02177    0.03274
AFIX  23
H2A   2    0.380428    0.248791    0.690490    10.50000   -1.20000
H2B   2    0.337647    0.223800    0.781666    10.50000   -1.20000
AFIX   0
C3    1    0.324472    0.136540    0.781325    10.50000    0.06666    0.05346 =
         0.05062    0.01324   -0.01749    0.00530
AFIX  23
H3A   2    0.314139    0.140954    0.857172    10.50000   -1.20000
H3B   2    0.333522    0.110959    0.786247    10.50000   -1.20000
AFIX   0
HKLF 4
 
 
 
 
REM  pr in R-3m; 100K; Moscow
REM wR2 = 0.2213, GooF = S = 1.022, Restrained GooF = 1.030 for all data
REM R1 = 0.0774 for 1776 Fo > 4sig(Fo) and 0.0897 for all 2292 data
REM 133 parameters refined using 38 restraints
 
END
 
WGHT      0.1193      0.0000
 
REM Highest difference peak  1.554,  deepest hole -0.936,  1-sigma level  0.125
Q1    1   0.6667  0.3333  0.7399  10.16667  0.05    0.60
Q2    1   0.4782  0.2391  0.9946  10.50000  0.05    0.60
Q3    1   0.6449  0.3225  0.4869  10.50000  0.05    0.58
Q4    1   0.4257  0.2128  0.9760  10.50000  0.05    0.54
Q5    1   0.5181  0.4101  0.7390  11.00000  0.05    0.50
;
_shelx_res_checksum              54872
_shelx_hkl_file
;
   0   0 -12  561.62  242.32   1
   0   0 -15  -44.62   80.29   1
   0   1 -13  183.39  120.70   1
  -1   0 -13  134.80  124.23   1
   1  -1 -13   36.54  127.23   1
   1  -1 -10  137.93  133.31   1
   0  -1 -11  337.73  167.94   1
   1   0 -11  122.65  155.04   1
   0  -1 -14   57.22   87.44   1
   1   0 -14  132.25   96.12   1
  -1   1 -14  -61.37  102.98   1
   0   2 -14   34.06  106.68   1
  -2   0 -14   77.02   99.87   1
   2  -2 -14   67.19  109.98   1
   2  -2 -11  257.24  156.55   1
   2  -2  -810685.20 2406.54   1
   2  -2  -2   95.80   58.21   1
   2   0 -10 6555.21 1524.56   1
   0  -2 -13  983.91  338.01   1
   2   0 -13 1372.41  354.70   1
  -2   2 -13 1106.48  363.23   1
   0   3 -15  -13.05   82.89   1
  -3   0 -15  132.53   94.85   1
   0   3 -12  238.60  145.05   1
   3  -3 -12   37.99  119.49   1
   3  -3  -914924.14 3307.82   1
   3  -3  -612417.08 2758.37   1
   3  -3  -3 6957.11 1555.22   1
   3   0  -3 4362.64 1004.13   1
   3   0  -9 5760.74 1350.55   1
   0  -3 -12  629.30  261.77   1
   3   0 -12  914.45  273.96   1
   0  -3 -15   83.85  101.59   1
   3   0 -15   15.19   97.89   1
  -3   3 -15    9.75   95.51   1
   0   4 -13  721.11  261.83   1
   4  -4 -13  686.97  256.86   1
   4  -4 -10 1908.70  535.47   1
   4  -4  -714896.66 3293.07   1
   4  -4  -4  872.29  268.90   1
  -4   0  -1   93.84   70.70   1
   4   0   1  132.58   70.02   1
   4  -4  -1   60.73   62.46   1
  -4   4   1   26.78   63.84   1
  -4   0   2 2048.86  508.45   1
   4   0  -2 2105.79  510.78   1
   4   0  -5 1095.09  322.53   1
   4   0  -8 8008.21 1824.63   1
   0  -4 -11 2742.72  883.28   1
   4   0 -11 4116.51  867.35   1
   0  -4 -14  149.75  163.33   1
   4   0 -14  463.89  174.61   1
  -4   4 -14  296.49  171.73   1
   0   5 -14 1419.76  334.59   1
  -5   0 -14  594.22  327.26   1
   5  -5 -14 1292.83  336.69   1
   5  -5 -1112482.11 2775.57   1
   5  -5  -838846.81 8388.35   1
   5  -5  -533212.48 7176.27   1
   0   5   115074.82 4124.69   1
  -5   0   122934.55 4131.91   1
   5   0  -119766.64 4128.20   1
   5   0  -4 3278.45  782.51   1
   5   0  -7  254.75  138.36   1
   0  -5 -10   84.53   97.92   1
   5   0 -10   19.78   94.82   1
   0  -5 -13  567.94  275.63   1
   5   0 -13 1088.58  292.77   1
   0   6 -12 2607.02  667.10   1
   6  -6 -12 2512.93  689.30   1
   6  -6  -9 8655.63 1964.28   1
   6  -6  -615539.01 3435.91   1
  -6   0  -350736.44 9239.63   1
   6  -6  -345791.79 9237.25   1
  -6   6   331605.45 9243.05   1
  -6   0   0 1797.05  544.76   1
   6   0   0 2617.63  546.25   1
   6  -6   0 2574.58  549.52   1
  -6   6   0 1971.09  546.70   1
  -6   0   3  976.82  294.28   1
   6   0  -3 1058.03  297.67   1
   6   0  -6 6531.07 1482.64   1
   0  -6  -9  -55.98   77.64   1
   6   0  -9   53.28   76.17   1
   0  -6 -12   93.18  110.30   1
   6   0 -12  147.62  139.12   1
   0   7 -13  163.01  179.97   1
  -7   0 -13  679.20  243.31   1
   7  -7 -10 4150.38 1002.86   1
   7  -7  -7 3231.12  802.33   1
  -7   0  -4 6659.82 1279.21   1
   7  -7  -4 4739.92 1272.47   1
  -7   7   4 5248.49 1263.84   1
  -7   0  -113989.95 3018.29   1
   7   0   115136.36 3014.98   1
   7  -7  -113812.93 3005.88   1
  -7   7   112291.85 3006.05   1
  -7   0   215265.56 3392.29   1
   7   0  -215806.77 3390.03   1
   7   0  -5 5091.79 1187.97   1
   0  -7  -8  100.39  113.15   1
   7   0  -8  161.98  111.86   1
   0  -7 -11  155.50  150.89   1
   7   0 -11  508.11  185.93   1
   0  -7 -14   64.74  126.79   1
   7   0 -14  194.46  127.60   1
   0   8 -14  338.31  139.90   1
  -8   0 -14  185.26  199.22   1
   8  -8 -14  273.02  155.89   1
  -8   0 -11 3345.23  873.46   1
   8  -8 -11 3553.51  851.36   1
  -8   0  -8  243.17  178.68   1
   8  -8  -8  302.65  151.42   1
  -8   0  -5  787.80  270.39   1
   8  -8  -5  738.91  252.74   1
  -8   0  -216923.28 3925.76   1
   8   0   218332.05 3930.49   1
   8  -8  -221167.35 3935.34   1
  -8   8   215995.26 3933.70   1
   0   8   1 9381.74 2400.70   1
  -8   0   111419.74 2404.85   1
   8   0  -111124.42 2396.56   1
  -8   8  -111676.58 2405.78   1
   8   0  -4  349.94  159.75   1
   0  -8  -7  802.36  356.38   1
   8   0  -7 1559.33  362.48   1
   0  -8 -10  752.82  392.63   1
   8   0 -10 1769.12  391.85   1
   0  -8 -13  811.41  396.79   1
   8   0 -13 1559.94  381.92   1
   0   9 -12  103.71   95.51   1
  -9   0 -12    7.98  171.19   1
   9  -9 -12    4.74   98.14   1
  -9   0  -9 8109.95 2002.96   1
   9  -9  -9 9460.45 1994.88   1
   9  -9  -628308.41 6141.56   1
  -9   0  -394791.3418204.64   1
   9   0   394702.7318195.72   1
   9  -9  -376952.3718179.59   1
  -9   9   377575.7818185.26   1
  -9   0   070776.8415810.86   1
  -9   9   077246.9315816.56   1
  -9   0   327695.82 6139.78   1
   9   0  -329157.24 6142.93   1
   9   0  -622596.09 4928.24   1
   9   0  -9 7598.59 1744.12   1
   0  -9 -12  233.82  137.80   1
   0  -9 -12  171.97  119.27   1
   9   0 -12  142.23  148.01   1
   0  10 -13   65.71   98.80   1
 -10   0 -13  -99.35  173.84   1
  10 -10 -13   17.81  110.09   1
 -10   0 -10  168.82  192.95   1
  10 -10 -10  287.33  144.53   1
 -10   0  -7 3499.95  864.41   1
 -10   0  -4 2533.24  671.99   1
  10 -10  -4 2725.33  647.44   1
 -10  10   4 2513.54  671.02   1
 -10   0  -1 2904.50  824.02   1
  10   0   1 3624.17  834.23   1
  10 -10  -1 3594.83  823.87   1
 -10  10   1 3619.34  839.12   1
   0  10   214116.92 3473.89   1
 -10   0   217007.46 3474.98   1
  10   0  -215510.96 3462.45   1
 -10  10  -217030.69 3490.05   1
  10   0  -512669.62 2809.21   1
  10   0  -812863.39 2862.86   1
   0 -10 -11 1752.37  519.59   1
   0 -10 -11  960.91  510.60   1
  10   0 -11 3433.75  533.18   1
  10   0 -14  870.15  301.01   1
   0  11 -14  293.58  128.90   1
 -11   0 -14   56.31  187.96   1
 -11   0 -11  762.63  344.09   1
 -11   0  -8 -127.89  108.19   1
  11 -11  -8   55.58   94.89   1
 -11   0  -5  423.26  199.43   1
  11 -11  -5  379.34  170.49   1
 -11   0  -2  870.71  307.49   1
  11   0   2  819.44  310.95   1
  11 -11  -2 1108.89  299.03   1
   0  11   111041.72 2586.06   1
 -11   0   111273.93 2590.87   1
  11   0  -113101.99 2582.25   1
 -11  11  -111161.46 2590.69   1
 -11   0   421083.03 4938.38   1
  11   0  -424274.54 4937.29   1
  11   0  -754852.2511798.28   1
  11   0 -1015884.50 3506.86   1
  11   0 -13 4840.42 1151.72   1
   0  12 -12  -21.01  104.35   1
 -12   0 -12  116.30  166.46   1
  12 -12 -12  198.77  138.59   1
 -12   0  -9  537.99  286.67   1
  12 -12  -9  940.82  273.57   1
  12 -12  -6 8516.74 1776.58   1
 -12  12   6 7098.65 1776.36   1
 -12   0  -317940.69 4742.34   1
  12   0   323414.87 4756.33   1
  12 -12  -329448.93 4768.56   1
 -12  12   318512.18 4746.39   1
 -12   0   0 8767.34 2305.12   1
  12   0   011410.83 2306.13   1
 -12  12   010922.20 2319.38   1
 -12   0   3 3903.08  960.12   1
  12   0  -3 4145.81  956.87   1
  12   0  -6  226.52  135.46   1
  12   0  -9 2115.05  567.46   1
  12   0 -12  312.53  183.12   1
   0  13 -13  677.30  229.48   1
 -13   0 -13  292.12  269.82   1
  13 -13 -13  899.66  257.43   1
 -13   0 -10  678.34  339.99   1
  13 -13 -10 1218.57  323.78   1
 -13   0  -7 1677.74  508.19   1
  13 -13  -7 1710.62  464.83   1
 -13   0  -4 2360.54  768.49   1
  13 -13  -4 4297.11  797.91   1
 -13   0  -1 5375.51 1459.15   1
  13   0   1 7530.66 1472.29   1
  13 -13  -1 6061.44 1455.81   1
 -13  13   1 6644.51 1479.91   1
   0  13   2 7873.32 1922.50   1
 -13   0   2 8935.21 1939.55   1
  13   0  -2 8899.26 1911.56   1
 -13  13  -2 8274.25 1923.09   1
 -13   0   515606.47 3475.05   1
  13   0  -515935.28 3470.64   1
  13   0  -8 1711.77  457.57   1
  13   0 -11  117.63  109.93   1
  13   0 -14  -40.90   63.98   1
 -14   0 -11 1742.78  816.76   1
  14 -14 -11 4794.29  816.31   1
 -14   0  -8 4854.52 1568.78   1
  14 -14  -8 7646.25 1519.22   1
 -14   0  -524160.12 6258.42   1
  14 -14  -538783.76 6282.90   1
 -14  14   525037.36 6282.03   1
 -14   0  -2 1258.83  448.48   1
  14   0   2 1923.19  454.76   1
  14 -14  -2 1745.03  443.33   1
 -14  14   2 1342.25  450.86   1
   0  14   1 8684.80 2060.16   1
 -14   0   1 9478.21 2068.69   1
  14   0  -1 9221.30 2059.95   1
 -14  14  -1 9334.51 2066.61   1
 -14   0   4  400.26  178.85   1
  14   0  -4  421.38  179.81   1
  14   0  -7 5319.86 1247.94   1
  14   0 -10  -63.03   54.44   1
  14   0 -13   24.38   87.78   1
   0  15 -12  954.31  281.81   1
 -15   0 -12  461.99  340.46   1
  15 -15 -12  966.61  278.87   1
 -15   0  -9 3888.93 1013.58   1
  15 -15  -9 4326.33  983.56   1
 -15   0  -622550.10 5307.98   1
  15 -15  -636930.95 5336.79   1
 -15  15   617890.68 5294.11   1
 -15   0  -324140.50 5512.49   1
  15   0   328214.30 5512.92   1
  15 -15  -326210.23 5498.48   1
 -15  15   322068.29 5523.39   1
 -15   0   017279.72 4319.86   1
  15   0   019725.05 4296.69   1
 -15  15   022418.10 4328.12   1
 -15   0   319378.12 4345.07   1
  15   0  -319769.28 4337.37   1
 -15  15  -320495.84 4351.66   1
  15   0  -6 4068.29  977.82   1
  15   0  -9   37.67   89.20   1
  15   0 -12  440.55  202.32   1
   0  16 -13  -16.41   82.77   1
 -16   0 -13   27.92  171.46   1
  16 -16 -13   87.35  151.51   1
 -16   0 -10  559.62  302.95   1
  16 -16 -10  597.99  240.58   1
 -16   0  -7 8801.69 2800.39   1
  16 -16  -721161.01 2857.76   1
 -16  16   712008.12 2810.53   1
 -16   0  -453802.4210769.08   1
  16   0   451664.0410756.38   1
  16 -16  -465096.6910750.82   1
 -16  16   433552.1510731.88   1
 -16   0  -179009.5218840.07   1
  16   0   199999.0018836.06   1
 -16  16   184100.2618839.89   1
   0  16   249213.4610535.48   1
 -16   0   249681.3810537.69   1
  16   0  -247493.9910521.91   1
 -16  16  -249550.4910534.00   1
 -16   0   541832.75 8794.17   1
  16   0  -537221.73 8784.75   1
 -16  16  -544271.84 8810.72   1
  16   0  -8 8661.46 1959.86   1
  16   0 -11 1106.86  340.27   1
   0  17 -11  742.22  217.81   1
 -17   0 -11  102.16  260.92   1
  17 -17 -11  803.59  244.47   1
 -17   0  -8  545.96  293.01   1
  17 -17  -8  965.50  285.56   1
 -17   0  -5  911.68  343.26   1
  17 -17  -5 1199.77  320.25   1
 -17  17   5  739.14  311.26   1
 -17   0  -2 1947.41  618.30   1
  17   0   2 3418.41  638.06   1
  17 -17  -2 2503.30  631.65   1
 -17  17   2 1562.33  634.84   1
   0  17   1 7912.80 1717.19   1
 -17   0   1 6908.29 1730.41   1
  17   0  -1 7293.83 1733.55   1
 -17  17  -1 8018.44 1740.84   1
 -17   0   4 6575.14 1488.49   1
  17   0  -4 6255.29 1485.13   1
 -17  17  -4 6565.64 1503.98   1
  17   0  -7  -79.93   57.54   1
  17   0 -10  280.26  137.16   1
  17   0 -13  579.50  202.20   1
 -17  17 -13  340.68  243.77   1
   0  18 -12   33.29   82.44   1
 -18   0 -12   25.33  116.35   1
  18 -18 -12   29.46  159.83   1
 -18   0  -9  -38.62  121.17   1
  18 -18  -9  197.90  127.91   1
 -18   0  -6 2294.56  883.74   1
  18 -18  -6 4798.47  884.85   1
 -18   0  -3 1969.73  595.80   1
  18   0   3 2528.97  598.85   1
  18 -18  -3 2194.87  583.62   1
 -18  18   3 2112.67  598.51   1
   0  18   0  546.48  213.92   1
 -18   0   0  539.44  221.24   1
  18   0   0  628.14  209.91   1
 -18  18   0  354.89  240.29   1
   0  18   3 1104.32  396.16   1
 -18   0   3 1700.53  414.04   1
  18   0  -3 1320.01  401.97   1
 -18  18  -3 1410.98  429.11   1
  18   0  -6 1476.39  499.77   1
 -18  18  -6 2364.76  531.31   1
  18   0  -9  853.29  266.70   1
 -18  18  -9  675.76  306.44   1
  18   0 -12  329.36  145.09   1
 -18  18 -12   82.88  191.27   1
   0  19 -10 1044.18  255.82   1
 -19   0 -10  263.94  257.13   1
  19 -19 -10 1113.64  310.66   1
 -19   0  -7 1879.09  587.12   1
  19 -19  -7 3100.77  579.54   1
 -19  19   7 1550.95  556.09   1
 -19   0  -4 6697.80 1406.26   1
  19   0   4 5369.98 1387.15   1
  19 -19  -4 6826.43 1391.86   1
 -19  19   4 4979.31 1407.44   1
   0  19  -1  903.54  303.45   1
 -19   0  -1  668.57  320.86   1
  19   0   1 1357.61  342.43   1
 -19  19   1 1008.33  323.63   1
   0  19   2  787.34  254.35   1
 -19   0   2  695.32  269.34   1
  19   0  -2  594.85  267.57   1
 -19  19  -2  610.25  283.75   1
 -19   0   5 3333.35  786.99   1
  19   0  -5 2931.62  781.53   1
 -19  19  -5 3207.50  801.93   1
  19   0  -8 3204.45  781.56   1
 -19  19  -8 2775.11  765.48   1
  19   0 -11 2015.67  521.85   1
 -19  19 -11 1908.41  561.41   1
   0  20 -11 1301.43  310.02   1
 -20   0 -11  235.35  325.18   1
  20 -20 -11 1541.79  356.20   1
 -20   0  -8  587.97  407.58   1
  20 -20  -8 1779.00  369.74   1
 -20  20   8  927.15  348.67   1
 -20   0  -5  408.27  206.47   1
 -20  20   5  294.67  175.24   1
 -20   0  -2 9794.17 2432.40   1
  20   0   214165.06 2451.38   1
 -20  20   2 8487.25 2458.81   1
   0  20   112649.14 2808.53   1
 -20   0   112829.18 2817.46   1
  20   0  -112270.69 2793.82   1
 -20  20  -112916.04 2831.01   1
 -20   0   418447.82 4074.95   1
  20   0  -418601.50 4071.71   1
 -20  20  -418784.24 4089.29   1
  20   0  -7 7719.63 1815.63   1
 -20  20  -7 8432.10 1840.67   1
  20   0 -10 4371.87  999.16   1
 -20  20 -10 3958.55 1027.47   1
   0  21 -12  431.11  132.57   1
 -21   0 -12  -76.34  163.17   1
   0  21  -9 1988.66  430.58   1
 -21   0  -9  823.45  484.59   1
  21 -21  -9 1461.41  460.22   1
 -21   0  -6 1166.61  395.31   1
 -21  21   6 1201.01  383.51   1
  21   0   3 7713.12 1537.90   1
 -21  21   3 5374.70 1538.14   1
   0  21   0 4138.81 1071.33   1
 -21   0   0 4688.52 1075.39   1
  21   0   0 4686.36 1069.56   1
 -21  21   0 4130.61 1091.72   1
   0  21   3  121.91   65.24   1
 -21   0   3  -92.97  125.68   1
  21   0  -3  108.25  121.76   1
 -21  21  -3   18.05  179.98   1
  21   0  -6   28.04  109.16   1
 -21  21  -6  169.38  156.82   1
  21   0  -9  357.54  157.60   1
 -21  21  -9  282.52  193.33   1
  21   0 -12  -23.09  100.67   1
 -21  21 -12  157.06  125.54   1
   0  22 -10 1135.70  241.68   1
 -22   0 -10  162.92  266.25   1
  22 -22 -10  644.44  287.46   1
   0  22  -7 7914.21 1339.98   1
 -22   0  -7 3758.89 1314.80   1
 -22   0  -4  808.44  257.98   1
  22   0   4  615.94  272.96   1
 -22  22   4  460.46  262.50   1
   0  22  -1  557.17  203.52   1
 -22   0  -1  479.40  227.72   1
  22   0   1  843.49  249.83   1
 -22  22   1  323.57  225.27   1
   0  22   2 4906.26 1196.77   1
 -22   0   2 5225.35 1188.79   1
  22   0  -2 5180.56 1181.90   1
 -22  22  -2 4520.92 1210.95   1
 -22   0   5 1845.67  494.70   1
  22   0  -5 1673.27  486.60   1
 -22  22  -5 1875.93  520.81   1
  22   0  -8 1194.75  392.16   1
 -22  22  -8 1544.08  415.79   1
  22   0 -11  572.77  225.17   1
 -22  22 -11  526.46  243.37   1
   0  23 -11  210.97  108.63   1
 -23   0 -11  -72.51  136.62   1
  23 -23 -11  141.71  166.22   1
   0  23  -8 2056.20  436.87   1
 -23   0  -8 1396.36  470.51   1
  23 -23  -8 1419.07  467.49   1
 -23  23   8 1212.24  460.50   1
   0  23  -5 5430.82 1232.46   1
 -23   0  -5 4422.48 1248.46   1
  23 -23  -5 6969.64 1280.79   1
 -23  23   5 4445.87 1258.98   1
   0  23  -2  111.72  140.71   1
 -23   0  -2  177.48  157.62   1
  23   0   2  340.04  171.32   1
 -23  23   2   79.33  177.96   1
   0  23   1 1008.02  306.36   1
 -23   0   1  821.23  313.00   1
  23   0  -1  859.56  298.75   1
 -23  23  -1  967.59  330.53   1
 -23   0   4 4640.16 1299.74   1
  23   0  -4 6327.51 1303.55   1
 -23  23  -4 5839.56 1320.48   1
  23   0  -7 1008.55  332.88   1
 -23  23  -7 1152.84  355.17   1
  23   0 -10  240.55  164.45   1
 -23  23 -10  290.78  178.16   1
   0  24  -9  179.46  127.72   1
 -24   0  -9   88.30  176.69   1
  24 -24  -9  281.89  180.80   1
   0  24  -6 4958.78  807.92   1
 -24   0  -6 2097.36  801.48   1
  24 -24  -6 3579.23  831.06   1
 -24  24   6 2648.06  809.27   1
   0  24  -3 4403.94  937.66   1
 -24   0  -3 3246.26  945.34   1
  24   0   3 4682.89  951.94   1
 -24  24   3 2857.03  956.95   1
   0  24   0 1825.40  436.55   1
 -24   0   0 1379.05  453.96   1
  24   0   0 1875.82  469.45   1
 -24  24   0 1009.39  473.57   1
   0  24   3 3603.14 1084.48   1
 -24   0   3 4792.74 1080.53   1
  24   0  -3 5483.51 1090.36   1
 -24  24  -3 4128.15 1111.16   1
  24   0  -6  101.52  116.38   1
 -24  24  -6  127.09  175.19   1
  24   0  -9  262.86  153.00   1
 -24  24  -9  104.00  161.32   1
   0  25 -10 1736.03  298.55   1
 -25   0 -10  137.18  312.28   1
  25 -25 -10  865.35  357.87   1
   0  25  -7 4833.60  799.27   1
 -25   0  -7 2148.90  793.90   1
  25 -25  -7 4830.93  866.01   1
 -25  25   7 2096.54  797.42   1
   0  25  -424034.98 3611.75   1
 -25   0  -414046.98 3621.89   1
  25   0   416638.14 3632.64   1
 -25  25   4 9216.07 3628.91   1
   0  25  -115574.05 2843.29   1
 -25   0  -112028.42 2842.09   1
  25   0   116595.12 2850.32   1
 -25  25   1 7589.21 2832.93   1
   0  25   233805.94 6464.55   1
 -25   0   231826.46 6454.17   1
  25   0  -226210.49 6425.32   1
 -25  25  -229250.69 6467.05   1
 -25   0   5 7463.12 1853.03   1
  25   0  -5 9042.86 1856.31   1
 -25  25  -5 8011.18 1866.16   1
  25   0  -8 4763.86 1030.78   1
 -25  25  -8 3815.14 1049.46   1
   0  26  -8    0.83   94.91   1
 -26   0  -8  175.16  116.56   1
 -26  26   8   -5.36   96.46   1
   0  26  -5  425.49  200.86   1
 -26   0  -5  593.11  230.54   1
 -26  26   5  422.55  229.80   1
   0  26  -2 1965.03  478.18   1
 -26   0  -2 1660.05  506.27   1
  26   0   2 2048.72  515.74   1
 -26  26   2 1252.09  524.70   1
   0  26   1 3352.24  809.38   1
 -26   0   1 3072.43  812.47   1
  26   0  -1 4001.63  819.86   1
 -26  26  -1 2294.77  836.01   1
 -26   0   4 1130.86  424.96   1
  26   0  -4 1808.36  439.14   1
 -26  26  -4 1645.23  462.03   1
  26   0  -7  325.57  172.80   1
 -26  26  -7  428.68  216.31   1
  26   0 -10  384.90  152.28   1
 -26  26 -10  108.26  177.49   1
   0  27  -9   94.02   96.27   1
 -27   0  -9   45.47  113.27   1
   0  27  -6  220.53  128.04   1
 -27   0  -6  186.55  164.75   1
 -27  27   6  184.80  147.56   1
   0  27  -3 1156.01  296.09   1
 -27   0  -3  692.79  302.76   1
  27   0   3  952.91  322.09   1
 -27  27   3  489.18  310.70   1
   0  27   0  428.19  192.96   1
 -27   0   0  312.37  180.13   1
  27   0   0  628.77  208.05   1
 -27  27   0   98.67  183.97   1
 -27   0   3 3315.36  836.61   1
  27   0  -3 3303.69  817.43   1
 -27  27  -3 3712.69  864.93   1
  27   0  -6 2363.26  537.90   1
 -27  27  -6 1535.82  540.12   1
  27   0  -9 1396.97  307.89   1
 -27  27  -9  422.19  326.38   1
   0  28  -7 2735.11  451.04   1
 -28   0  -7  955.57  473.81   1
 -28  28   7 1041.84  451.88   1
   0  28  -4 2681.09  558.72   1
 -28   0  -4 1325.66  575.47   1
  28   0   4 2919.47  586.09   1
 -28  28   4 1371.85  574.19   1
   0  28  -1 5226.91  923.83   1
 -28   0  -1 2823.06  937.88   1
  28   0   1 5244.90  957.18   1
 -28  28   1 2121.87  928.44   1
 -28   0   2  648.64  268.85   1
  28   0  -2  998.28  272.76   1
 -28  28  -2  488.48  300.41   1
 -28   0   5   97.58   99.62   1
  28   0  -5   57.40  109.38   1
 -28  28  -5  -27.37  139.20   1
  28   0  -8  167.28  128.48   1
 -28  28  -8   91.81  145.73   1
   0  29  -8  354.98  118.79   1
 -29   0  -8   43.86  149.72   1
 -29  29   8   55.10  126.56   1
   0  29  -5  746.65  194.57   1
 -29   0  -5  183.21  210.86   1
 -29  29   5  279.71  188.44   1
   0  29  -2  247.99  152.38   1
 -29   0  -2  131.15  123.42   1
  29   0   2   42.23  160.53   1
   0  29   1  138.04  102.84   1
 -29   0   1  -42.16  120.27   1
  29   0  -1    5.58  146.65   1
 -29  29  -1  206.38  132.95   1
 -29   0   4  119.68  105.57   1
  29   0  -4  113.43   93.46   1
 -29  29  -4   -5.31  144.51   1
  29   0  -7  329.64  169.62   1
 -29  29  -7  173.18  184.63   1
   0  30  -6  895.29  230.00   1
 -30   0  -6  256.99  249.13   1
 -30  30   6  554.89  249.15   1
   0  30  -3 1310.35  254.29   1
 -30   0  -3  296.56  238.91   1
  30   0   3  611.36  264.76   1
 -30  30   3  414.24  253.30   1
   0  30   0   55.92  111.13   1
 -30   0   0  149.05  126.94   1
  30   0   0   59.84  160.97   1
 -30  30   0  160.11  116.87   1
 -30   0   3  -14.07   69.92   1
  30   0  -3 -149.42   97.58   1
 -30  30  -3   91.21  115.36   1
  30   0  -6   -3.05  108.27   1
 -30  30  -6   30.38  127.13   1
   0  31  -7 1281.71  230.71   1
 -31   0  -7  209.42  255.05   1
 -31  31   7  257.05  233.25   1
   0  31  -4 1618.82  290.08   1
 -31   0  -4  414.48  297.59   1
  31   0   4 1022.34  318.90   1
 -31  31   4  375.98  273.09   1
   0  31  -1  947.57  283.74   1
 -31   0  -1 1011.50  315.37   1
  31   0   1  838.30  290.28   1
 -31  31   1  287.15  290.02   1
   0  31   2   76.42  115.93   1
 -31   0   2  110.07  137.07   1
  31   0  -2  464.78  169.66   1
 -31  31  -2  178.13  162.48   1
 -31   0   5   50.84  238.32   1
  31   0  -5  143.28  112.27   1
 -31  31  -5   88.48  141.13   1
   0  32  -5  632.09  175.80   1
 -32   0  -5  366.59  190.81   1
 -32  32   5  164.06  177.98   1
   0  32  -2  404.16  165.53   1
 -32   0  -2  324.18  191.74   1
  32   0   2  539.07  216.25   1
 -32  32   2  104.82  187.05   1
   0  32   1  456.82  170.58   1
 -32   0   1  356.08  166.58   1
  32   0  -1  295.08  184.39   1
 -32  32  -1  152.36  158.75   1
 -32   0   4  364.76  194.28   1
  32   0  -4  566.85  207.28   1
 -32  32  -4  489.81  232.61   1
   0  33  -3   84.82   97.17   1
 -33   0  -3  107.54  140.91   1
  33   0   3   74.65  173.88   1
 -33  33   3   22.72  105.67   1
   0  33   0  787.10  252.05   1
 -33   0   0  571.18  248.59   1
  33   0   0  663.06  254.91   1
 -33  33   0  683.95  286.59   1
 -33   0   3   46.77  127.69   1
  33   0  -3  473.29  162.30   1
 -33  33  -3   85.04  162.10   1
 -34  34   4  116.49  113.94   1
   0  34  -1 1554.95  442.31   1
 -34   0  -1 1232.73  432.67   1
  34   0   1 1643.65  447.43   1
   0  34   2  461.47  206.43   1
 -34   0   2  406.34  217.22   1
  34   0  -2 1066.89  241.21   1
 -34  34  -2  528.14  227.39   1
   0  35   1  176.74   99.94   1
 -35   0   1  -11.11   96.71   1
  35   0  -1  -28.40  132.42   1
 -35  35  -1  187.11  133.52   1
   1   1 -15   18.87   76.80   1
  -2   1 -15  -38.99   85.16   1
   1   1 -12  -56.33  103.50   1
   1  -2 -12   70.70   98.67   1
   2  -1  -9   35.85   76.92   1
  -1  -1 -12  149.10  111.54   1
   2  -1 -12  -54.96  101.17   1
  -1   2 -12 -114.29  115.70   1
  -1   2 -15   85.17   93.46   1
   1   2 -13  159.43  143.10   1
  -3   1 -13  335.56  168.70   1
   2  -3 -13  285.19  148.09   1
   2  -3 -10 3280.22  805.30   1
  -3   1   227256.53 5869.98   1
   3  -1  -512977.19 2865.11   1
   3  -1  -8   68.85   86.21   1
  -1  -2 -11  -77.31  108.27   1
   3  -1 -11   -9.44   96.35   1
  -1  -2 -14    1.25   87.59   1
   3  -1 -14  150.61  105.02   1
  -2   3 -14  -34.84  106.96   1
   1   3 -14  158.29  101.56   1
  -4   1 -14   22.34  119.73   1
   3  -4 -14    3.03  107.74   1
   1   3 -11 1245.94  338.35   1
   3  -4 -11  879.11  326.83   1
   3  -4  -8 2021.60  533.75   1
   3  -4  -5 7300.70 1648.77   1
   3  -4  -212936.04 2813.76   1
  -3   4   212846.32 2816.26   1
   1   3   1 5696.31 1165.89   1
  -1  -3  -1 4188.88 1162.06   1
  -4   1   1 4884.70 1163.74   1
   4  -1  -1 5859.45 1160.70   1
   4  -1  -4 3411.84  809.57   1
   4  -1  -7 1451.84  415.59   1
   4  -1 -10   94.81  107.79   1
  -1  -3 -13   31.84   72.68   1
   4  -1 -13 -144.61   82.64   1
   1   4 -15   -2.15   98.28   1
  -5   1 -15    2.21   86.84   1
   4  -5 -15   -6.57   95.27   1
   1   4 -12  224.43  163.56   1
   4  -5  -9 7706.82 1756.05   1
   4  -5  -6 6406.53 1481.52   1
  -4   5   3 3955.46  921.03   1
  -5   1   012948.76 2822.23   1
   5  -1   012318.56 2820.37   1
  -4   5   013632.68 2825.42   1
  -5   1   3  959.86  288.02   1
   5  -1  -3 1046.22  289.69   1
   5  -1  -6 5083.39 1175.11   1
   5  -1  -9   88.50   96.82   1
  -1  -4 -12  -32.00   98.39   1
   5  -1 -12   82.82  107.80   1
  -1  -4 -15   19.37   85.47   1
  -4   5 -15 -101.72   94.60   1
   1   5 -13  695.51  222.52   1
   5  -6 -13  395.15  224.06   1
   5  -6  -7 5119.04 1208.96   1
   5  -6  -414811.92 3249.40   1
  -6   1  -1  552.26  204.11   1
   6  -1   1  657.22  213.00   1
   5  -6  -1  500.15  197.72   1
  -5   6   1  785.49  208.30   1
  -6   1   2  178.62   90.38   1
   6  -1  -2   90.89   87.83   1
   6  -1  -5   58.12   76.51   1
   6  -1  -8  699.37  237.47   1
  -1  -5 -11  112.93  148.76   1
   6  -1 -11  417.73  168.64   1
  -1  -5 -14    0.59   75.29   1
   6  -1 -14 -136.77   80.91   1
   1   6 -14   12.08   82.65   1
  -7   1 -14   14.31  168.73   1
   1   6 -11  641.53  219.20   1
   6  -7 -11  413.63  219.18   1
   6  -7  -8  844.43  302.17   1
   6  -7  -5   68.09   78.66   1
  -7   1  -240831.95 9004.05   1
   7  -1   241921.37 9002.27   1
   6  -7  -246647.68 9007.10   1
  -6   7   238412.82 9002.85   1
  -7   1   1  870.20  303.37   1
   1   6   1  854.75  270.02   1
   7  -1  -1 1093.26  271.69   1
   7  -1  -4  277.20  137.15   1
   7  -1  -7 1347.77  395.11   1
  -1  -6 -10    9.79  120.65   1
   7  -1 -10  278.66  127.61   1
  -1  -6 -13  -60.52   83.48   1
   7  -1 -13   24.13   93.45   1
   1   7 -12  972.48  302.44   1
   7  -8 -12  877.30  310.54   1
   7  -8  -9 2309.91  633.78   1
  -8   1  -6 1918.89  549.17   1
   7  -8  -6 2006.12  526.98   1
  -8   1  -324389.25 4446.92   1
   7  -8  -318930.16 4422.11   1
  -7   8   318757.51 4438.86   1
  -8   1   0 2000.66  568.76   1
   8  -1   0 2479.13  565.35   1
  -7   8   0 2360.98  568.28   1
  -8   1   3 3609.75  845.40   1
   8  -1  -3 3528.73  849.21   1
   8  -1  -6  889.86  294.43   1
  -1  -7  -9 1836.00  566.50   1
   8  -1  -9 2511.79  579.73   1
  -1  -7 -12  281.88  153.69   1
   1   8 -13  386.99  174.61   1
  -9   1 -13  275.07  213.67   1
   8  -9 -13  354.37  165.20   1
  -9   1 -10  250.29  218.55   1
   8  -9 -10  326.35  160.52   1
  -9   1  -7  961.68  347.35   1
   8  -9  -7 1215.79  336.87   1
  -9   1  -4  453.16  204.67   1
   8  -9  -4  606.83  203.96   1
  -8   9   4  429.57  189.72   1
  -9   1  -1 6729.57 1490.81   1
   9  -1   1 6656.42 1479.76   1
   8  -9  -1 6549.41 1479.15   1
  -8   9   1 6192.79 1482.00   1
   1   8   2 1480.30  364.75   1
  -9   1   2 1031.66  370.66   1
   9  -1  -2 1422.57  360.40   1
   9  -1  -5 1814.82  491.78   1
  -1  -8  -8 1897.94  637.85   1
   9  -1  -8 3017.96  643.87   1
  -1  -8 -11  742.73  330.43   1
  -1  -8 -11  501.13  293.14   1
   9  -1 -11 1563.81  319.30   1
  -1  -8 -14   44.96  180.93   1
   9  -1 -14  532.13  163.47   1
   1   9 -14   84.29  284.38   1
   9 -10 -14 -119.94  301.95   1
   1   9 -11 1536.09  395.82   1
 -10   1 -11 1142.66  422.22   1
 -10   1  -8 1877.08  538.74   1
   9 -10  -8 1862.95  510.79   1
 -10   1  -5 2774.57  681.91   1
   9 -10  -5 3188.29  685.44   1
  -9  10   5 2100.03  665.80   1
 -10   1  -2 8785.18 2345.31   1
  10  -1   212596.31 2362.86   1
   9 -10  -211657.13 2363.10   1
  -9  10   2 9961.13 2382.26   1
   1   9   1 2494.40  642.91   1
 -10   1   1 2207.84  652.96   1
  10  -1  -1 2822.73  644.08   1
  -9  10  -1 2998.90  656.30   1
 -10   1   4 2964.49  745.78   1
  10  -1  -4 3111.32  747.08   1
  10  -1  -7  130.82  119.69   1
  10  -1 -10 -131.11   26.45   1
  -1  -9 -13  157.36  115.39   1
  -1  -9 -13    8.04   94.84   1
  10  -1 -13  156.44  130.20   1
   1  10 -12  144.91   83.87   1
 -11   1 -12 -137.51  170.00   1
 -11   1  -9  413.81  231.21   1
 -11   1  -6  274.86  163.82   1
  10 -11  -6  194.31  151.03   1
 -11   1  -3 7995.88 1681.85   1
  11  -1   3 7852.12 1675.32   1
  10 -11  -3 8571.67 1674.11   1
 -10  11   3 5246.81 1664.44   1
   1  10   0  161.12   90.00   1
 -11   1   0  193.33  104.37   1
  11  -1   0  136.57  100.67   1
 -10  11   0   59.52  122.53   1
 -11   1   3 4846.99 1192.79   1
  11  -1  -3 5377.88 1187.52   1
  11  -1  -6 6489.97 1498.21   1
  11  -1  -9 2744.54  705.53   1
  11  -1 -12 1024.98  317.69   1
   1  11 -13  128.77  117.71   1
 -12   1 -13  207.82  216.99   1
  11 -12 -13   62.09  140.36   1
 -12   1 -10 2190.63  651.28   1
  11 -12 -10 2344.36  604.38   1
 -12   1  -7 3958.87 1202.72   1
  11 -12  -7 6492.08 1217.62   1
 -12   1  -425445.87 5088.04   1
  11 -12  -425360.45 5065.54   1
 -11  12   419481.17 5063.24   1
 -12   1  -1  820.26  311.01   1
  12  -1   1 1093.85  331.87   1
  11 -12  -1 1333.88  319.19   1
 -11  12   1  878.35  324.56   1
   1  11   2  195.87  113.55   1
 -12   1   2  122.83  133.54   1
  12  -1  -2  291.20  125.51   1
 -12   1   5 4517.34 1094.66   1
  12  -1  -5 4713.09 1092.41   1
  12  -1  -8 2943.69  746.32   1
  12  -1 -11  900.69  314.86   1
  12  -1 -14  130.57  121.31   1
   1  12 -14   95.13   90.57   1
 -13   1 -14 -197.00  179.83   1
  12 -13 -14  272.33  133.13   1
   1  12 -11  313.76  161.57   1
 -13   1 -11   31.72  209.69   1
  12 -13 -11  519.51  162.54   1
 -13   1  -8  539.61  302.74   1
  12 -13  -8  919.43  284.75   1
 -13   1  -522391.74 5042.64   1
  12 -13  -529039.76 5056.60   1
 -12  13   519244.64 5026.14   1
 -13   1  -2 5309.73 1222.13   1
  13  -1   2 5871.69 1218.07   1
  12 -13  -2 5906.81 1212.42   1
 -12  13   2 3682.63 1205.82   1
   1  12   117336.05 3645.61   1
 -13   1   114549.00 3644.59   1
  13  -1  -120156.69 3652.05   1
 -12  13  -114928.71 3645.83   1
 -13   1   4 4914.98 1194.77   1
  13  -1  -4 5318.68 1194.67   1
  13  -1  -7 3155.25  786.91   1
  13  -1 -10  773.29  272.38   1
  13  -1 -13  688.36  259.36   1
   1  13 -12  353.68  155.56   1
 -14   1 -12  233.42  222.33   1
  13 -14 -12  307.29  181.35   1
 -14   1  -9  524.23  250.28   1
  13 -14  -9  364.30  195.50   1
 -14   1  -6  224.37  155.93   1
 -13  14   6  141.67  116.17   1
 -14   1  -3 1631.52  509.09   1
  14  -1   3 2261.84  508.93   1
  13 -14  -3 2076.66  506.22   1
 -13  14   3 1367.59  499.75   1
   1  13   0 4963.35 1025.54   1
 -14   1   0 4120.75 1025.17   1
  14  -1   0 3749.61 1003.84   1
 -13  14   0 4707.52 1039.97   1
 -14   1   3 2065.01  547.28   1
  14  -1  -3 2038.53  537.20   1
  14  -1  -617204.35 3778.71   1
  14  -1  -9 1675.07  468.76   1
   1  14 -13  223.98  143.21   1
 -15   1 -13   34.16  201.44   1
  14 -15 -13  355.06  149.07   1
   1  14 -10 1016.89  300.34   1
  14 -15 -10  632.32  257.33   1
 -15   1  -7  990.34  352.53   1
 -15   1  -4 2186.97  644.79   1
  15  -1   4 2984.71  673.72   1
  14 -15  -4 3459.54  667.76   1
 -14  15   4 1773.68  651.02   1
 -15   1  -1  318.97  176.50   1
  15  -1   1  480.40  203.91   1
 -14  15   1  318.25  207.05   1
   1  14   2 2863.22  688.64   1
 -15   1   2 2446.58  694.70   1
  15  -1  -2 2854.54  682.23   1
 -14  15  -2 2662.10  696.93   1
 -15   1   5  115.89  133.61   1
  15  -1  -5  147.46  117.76   1
  15  -1  -8 1051.95  332.22   1
  15  -1 -11  112.11  133.86   1
   1  15 -11  135.17  117.90   1
 -16   1 -11  206.44  168.98   1
  15 -16 -11   88.64  138.71   1
 -16   1  -8 1468.23  442.45   1
  15 -16  -8 1054.61  398.25   1
 -16   1  -5 1642.70  556.80   1
  15 -16  -5 3409.72  597.15   1
 -15  16   5 1765.02  567.86   1
 -16   1  -213435.84 3098.72   1
  16  -1   217526.75 3111.40   1
  15 -16  -215502.83 3110.24   1
 -15  16   210219.02 3094.49   1
   1  15   112962.05 2665.27   1
 -16   1   111171.01 2673.26   1
  16  -1  -114087.32 2678.15   1
 -15  16  -1 9823.54 2672.17   1
 -16   1   413558.93 3195.30   1
  16  -1  -414214.00 3192.34   1
 -15  16  -416038.99 3216.93   1
  16  -1  -7 4287.33 1025.61   1
  16  -1 -10  304.58  145.33   1
  16  -1 -13   49.00   88.20   1
   1  16 -12  425.93  144.21   1
 -17   1 -12  109.35  206.75   1
  16 -17 -12  168.26  198.01   1
 -17   1  -9   21.59  203.75   1
  16 -17  -9  233.18  140.12   1
 -17   1  -6  142.82  115.87   1
  16 -17  -6  113.96  157.44   1
 -16  17   6  119.46  124.43   1
 -17   1  -3 4650.24 1091.14   1
  17  -1   3 5457.48 1096.91   1
  16 -17  -3 4604.21 1084.53   1
 -16  17   3 3605.10 1082.96   1
   1  16   0 9310.65 1755.72   1
 -17   1   0 6248.64 1755.94   1
  17  -1   0 7160.82 1735.55   1
 -16  17   0 8297.95 1772.82   1
 -17   1   3 5574.35 1375.24   1
  17  -1  -3 6157.87 1363.71   1
  17  -1  -6  908.32  321.73   1
  17  -1  -9  -90.05   44.89   1
  17  -1 -12  408.36  187.03   1
   1  17 -13   64.85   70.80   1
 -18   1 -13  -69.03  134.71   1
  17 -18 -13  -70.47  158.03   1
   1  17 -10  150.62  126.17   1
 -18   1 -10  251.40  187.94   1
  17 -18 -10  123.67  153.31   1
 -18   1  -7  399.27  202.95   1
  17 -18  -7  602.86  233.31   1
 -17  18   7  332.32  186.70   1
 -18   1  -4  850.70  329.17   1
  18  -1   4 1108.12  332.29   1
  17 -18  -4 1195.41  334.02   1
 -17  18   4  692.63  321.92   1
   1  17  -1 1123.52  330.99   1
 -18   1  -1  783.88  332.32   1
  18  -1   1  929.86  349.21   1
 -17  18   1 1461.79  365.75   1
   1  17   2 1142.14  343.49   1
 -18   1   2  808.26  354.27   1
  18  -1  -2 1580.35  362.29   1
 -17  18  -2  938.62  364.00   1
 -18   1   5 3206.39  776.14   1
  18  -1  -5 2935.65  770.33   1
 -17  18  -5 3197.25  796.58   1
  18  -1  -8 1590.20  444.98   1
  18  -1 -11  963.12  307.27   1
   1  18 -11   53.80   77.77   1
 -19   1 -11  -39.85  125.69   1
  18 -19 -11  -72.52  107.41   1
 -19   1  -8  545.05  293.30   1
  18 -19  -8 1584.81  327.49   1
 -19   1  -5 3666.95  805.92   1
  18 -19  -5 3518.58  772.25   1
 -18  19   5 2162.98  764.18   1
   1  18  -2 7845.98 1571.21   1
 -19   1  -2 5606.50 1571.47   1
  19  -1   2 9377.91 1590.26   1
 -18  19   2 4698.16 1574.89   1
   1  18   1 1510.08  417.96   1
 -19   1   1 1735.10  423.88   1
  19  -1  -1 1341.89  393.45   1
 -18  19  -1 1001.21  415.34   1
 -19   1   4 5070.23 1150.52   1
  19  -1  -4 4754.99 1147.72   1
 -18  19  -4 4739.59 1164.81   1
  19  -1  -7   68.08  114.20   1
 -18  19  -7  198.97  170.37   1
  19  -1 -10   29.87   82.62   1
   1  19 -12   35.25   69.51   1
 -20   1 -12  -88.43  104.58   1
  19 -20 -12  -52.23  139.07   1
   1  19  -9  474.38  159.14   1
 -20   1  -9  193.05  169.24   1
  19 -20  -9  265.24  185.31   1
 -20   1  -6  821.45  430.25   1
  19 -20  -6 1868.68  407.42   1
 -19  20   6 1131.22  392.87   1
   1  19  -3  306.02  165.13   1
 -20   1  -3  167.31  187.81   1
  20  -1   3  385.16  211.14   1
 -19  20   3  239.62  169.36   1
   1  19   0  472.87  219.28   1
 -20   1   0  798.20  254.49   1
  20  -1   0  670.10  264.97   1
 -19  20   0  489.27  259.27   1
   1  19   3 2425.81  624.57   1
 -20   1   3 2463.31  638.66   1
  20  -1  -3 2692.50  629.42   1
 -19  20  -3 2139.44  629.36   1
 -20   1   6 1041.64  321.12   1
  20  -1  -6  742.60  314.58   1
 -19  20  -6 1165.15  343.14   1
  20  -1  -9 1142.85  359.79   1
 -19  20  -9 1327.59  394.90   1
  20  -1 -12  712.77  230.76   1
 -19  20 -12  463.90  267.72   1
   1  20 -10  270.18  121.93   1
 -21   1 -10   34.32  148.44   1
   1  20  -7  279.37  129.23   1
 -21   1  -7  193.47  189.31   1
  20 -21  -7  226.12  157.11   1
 -20  21   7  -56.14  118.59   1
   1  20  -4 2544.67  498.14   1
 -21   1  -4 1911.98  518.77   1
  21  -1   4 2115.56  520.80   1
  20 -21  -4 1732.39  527.19   1
 -20  21   4  810.80  489.61   1
   1  20  -1 6046.48 1534.10   1
 -21   1  -1 6777.57 1559.71   1
  21  -1   1 9200.52 1562.87   1
 -20  21   1 5035.83 1562.71   1
   1  20   2 6477.05 1455.84   1
 -21   1   2 6638.52 1511.98   1
  21  -1  -2 6485.91 1462.90   1
 -20  21  -2 5636.87 1472.19   1
 -21   1   5 1580.23  463.32   1
  21  -1  -5 1673.09  458.01   1
 -20  21  -5 1670.97  481.45   1
  21  -1  -8  961.58  309.49   1
 -20  21  -8  986.31  337.69   1
  21  -1 -11  318.01  148.43   1
 -20  21 -11   96.71  182.83   1
   1  21 -11  208.22  110.31   1
 -22   1 -11   -1.52  158.10   1
  21 -22 -11  121.40  161.21   1
   1  21  -8   82.37  102.23   1
 -22   1  -8   -9.94  173.07   1
  21 -22  -8   38.57  134.53   1
 -21  22   8  106.48   94.84   1
   1  21  -5  276.55  139.07   1
 -22   1  -5   54.95  173.59   1
  21 -22  -5  162.18  175.78   1
   1  21  -2  728.87  197.65   1
 -22   1  -2  327.27  209.62   1
  22  -1   2  390.69  231.12   1
 -21  22   2  268.75  214.79   1
   1  21   1  237.97  153.68   1
 -22   1   1   89.52  163.04   1
  22  -1  -1  349.08  165.60   1
 -21  22  -1  288.35  198.68   1
 -22   1   4 1155.45  398.21   1
  22  -1  -4 1279.73  396.31   1
 -21  22  -4 1647.96  430.72   1
  22  -1  -7  621.92  222.37   1
 -21  22  -7  514.70  253.20   1
  22  -1 -10  845.12  274.97   1
 -21  22 -10  656.59  296.62   1
   1  22  -9  109.98  119.37   1
 -23   1  -9  323.24  176.31   1
  22 -23  -9  109.48  173.23   1
   1  22  -6   -3.67  103.98   1
  22 -23  -6  232.05  181.20   1
 -22  23   6  154.61  139.15   1
   1  22  -3 1745.46  404.11   1
 -23   1  -3 1101.50  409.93   1
  23  -1   3 1283.37  431.91   1
 -22  23   3 1259.74  428.80   1
   1  22   0 4420.34 1050.70   1
 -23   1   0 4383.61 1069.55   1
  23  -1   0 5167.21 1076.57   1
 -22  23   0 3556.81 1088.31   1
   1  22   3 9027.08 2261.68   1
 -23   1   3 9447.54 2257.55   1
  23  -1  -313864.25 2319.43   1
 -22  23  -3 9442.73 2265.27   1
 -23   1   6 2262.66  562.41   1
  23  -1  -6 2094.27  552.06   1
 -22  23  -6 1939.06  576.50   1
  23  -1  -9 1340.39  373.37   1
 -22  23  -9 1168.39  394.93   1
   1  23 -10   81.17  114.68   1
 -24   1 -10   90.85  144.85   1
  23 -24 -10  268.13  185.91   1
   1  23  -7   67.44  103.94   1
 -24   1  -7  292.11  162.83   1
  23 -24  -7  -10.72  169.55   1
 -23  24   7    3.69  116.87   1
   1  23  -4  -97.78   90.14   1
 -24   1  -4    5.31  107.85   1
  24  -1   4   64.32  132.79   1
 -23  24   4   21.82  103.93   1
   1  23  -1  601.90  214.12   1
 -24   1  -1  464.88  215.48   1
  24  -1   1  808.74  267.57   1
 -23  24   1  210.86  214.23   1
   1  23   2 1583.63  419.54   1
 -24   1   2 1611.21  440.30   1
  24  -1  -2 1336.52  407.01   1
 -23  24  -2 1413.57  461.93   1
 -24   1   5  764.45  315.69   1
  24  -1  -5  954.68  316.06   1
 -23  24  -5 1209.07  349.85   1
  24  -1  -8  384.18  154.65   1
 -23  24  -8  145.03  182.26   1
  24  -1 -11  140.28  110.34   1
 -23  24 -11  -50.82  122.30   1
   1  24  -8   73.49  102.49   1
 -25   1  -8  159.92  143.73   1
 -24  25   8   89.77  113.83   1
   1  24  -5 2604.33  531.20   1
 -25   1  -5 1863.30  550.11   1
 -24  25   5 1466.26  535.29   1
   1  24  -2 4139.02  684.75   1
 -25   1  -2 1089.41  687.65   1
  25  -1   2 2678.43  671.31   1
 -24  25   2 2459.86  720.31   1
 -25   1   1 3292.99  926.68   1
  25  -1  -1 4413.76  929.59   1
 -24  25  -1 3541.78  940.72   1
 -25   1   4 1702.56  488.72   1
  25  -1  -4 1905.35  505.89   1
 -24  25  -4 1763.22  512.58   1
  25  -1  -7  427.03  191.22   1
 -24  25  -7  450.66  224.55   1
  25  -1 -10  222.55  134.07   1
 -24  25 -10   68.99  150.92   1
   1  25  -9  336.53  145.35   1
 -26   1  -9  181.70  164.65   1
   1  25  -6 1235.67  266.10   1
 -26   1  -6  458.78  270.00   1
 -25  26   6  711.45  277.15   1
   1  25  -3 3829.11  787.43   1
 -26   1  -3 2627.63  796.14   1
  26  -1   3 4288.79  807.73   1
 -25  26   3 2077.48  779.48   1
   1  25   0 3837.14  846.48   1
 -26   1   0 3204.78  856.44   1
  26  -1   0 3877.84  861.30   1
 -25  26   0 2681.28  871.88   1
   1  25   3  653.02  242.00   1
 -26   1   3  644.09  266.72   1
  26  -1  -3  648.20  247.22   1
 -25  26  -3 1068.09  298.97   1
 -26   1   6  306.27  177.94   1
  26  -1  -6  491.66  186.99   1
 -25  26  -6  286.96  220.76   1
  26  -1  -9   11.34  109.21   1
 -25  26  -9   72.19  129.21   1
   1  26  -7   29.46   84.66   1
 -27   1  -7  -12.27  125.83   1
 -26  27   7  137.02  112.72   1
   1  26  -4  348.00  163.33   1
 -27   1  -4   85.40  167.69   1
  27  -1   4  476.52  195.10   1
 -26  27   4  132.67  168.98   1
   1  26  -1  291.92  149.94   1
 -27   1  -1  -81.96  161.54   1
  27  -1   1  243.61  183.47   1
 -26  27   1  220.40  142.95   1
   1  26   2  -89.80  104.17   1
 -27   1   2  165.34  132.53   1
  27  -1  -2  196.67  137.34   1
 -26  27  -2   58.47  152.06   1
 -27   1   5  205.96  144.20   1
  27  -1  -5  261.80  157.34   1
 -26  27  -5  171.45  169.06   1
  27  -1  -8  110.45  133.05   1
 -26  27  -8  184.01  156.41   1
   1  27  -8  826.01  197.95   1
 -28   1  -8  301.93  203.90   1
 -27  28   8  371.16  202.20   1
   1  27  -5 2926.09  501.81   1
 -28   1  -5 1463.45  518.17   1
 -27  28   5 1069.51  499.46   1
   1  27  -2 4488.90  710.21   1
 -28   1  -2 2401.99  706.51   1
  28  -1   2 3007.66  711.62   1
 -27  28   2 1232.95  697.11   1
   1  27   1 1689.67  467.50   1
 -28   1   1 1415.58  475.78   1
  28  -1  -1 2199.81  482.46   1
 -27  28  -1 1239.10  499.86   1
 -28   1   4  -41.28   83.92   1
  28  -1  -4  -13.74   73.65   1
 -27  28  -4   15.49  131.90   1
  28  -1  -7   18.35  108.76   1
 -27  28  -7  -33.95  131.85   1
   1  28  -6  303.86  139.72   1
 -29   1  -6  228.63  160.00   1
 -28  29   6   43.32  141.13   1
   1  28  -3  595.22  183.06   1
 -29   1  -3   92.69  180.35   1
  29  -1   3  195.45  189.18   1
 -28  29   3  277.82  184.94   1
   1  28   0  456.64  188.47   1
 -29   1   0  413.59  193.44   1
  29  -1   0  615.81  222.60   1
 -28  29   0  217.09  195.24   1
 -29   1   3  203.40  107.03   1
  29  -1  -3 -107.23  119.39   1
 -28  29  -3  121.17  138.19   1
  29  -1  -6   86.38  129.74   1
 -28  29  -6   22.45  137.87   1
   1  29  -7  361.10  154.70   1
 -30   1  -7  197.62  174.77   1
 -29  30   7  245.49  164.23   1
   1  29  -4  506.04  190.54   1
 -30   1  -4  268.78  197.67   1
  30  -1   4  430.48  221.02   1
 -29  30   4  208.95  190.10   1
   1  29  -1  245.38  107.44   1
 -30   1  -1 -101.39   93.27   1
  30  -1   1  -65.37  138.50   1
 -29  30   1  243.21  130.42   1
 -30   1   2   -0.45   97.05   1
  30  -1  -2   46.79  120.22   1
 -29  30  -2  -56.63  128.67   1
 -30   1   5  -65.34   50.35   1
  30  -1  -5 -165.47   74.24   1
 -29  30  -5 -140.27  103.45   1
  30  -1  -8  150.07  116.42   1
 -29  30  -8  -42.02  119.58   1
   1  30  -5  280.23  131.52   1
 -31   1  -5   82.30  142.90   1
 -30  31   5    6.48  119.19   1
   1  30  -2  381.34  134.80   1
 -31   1  -2  168.47  122.77   1
  31  -1   2  -64.29  171.43   1
 -30  31   2  140.70  148.01   1
   1  30   1 -115.03  112.63   1
 -31   1   1  -31.63  110.08   1
  31  -1  -1  257.69  133.15   1
 -30  31  -1  130.03  119.97   1
 -31   1   4   -2.12   80.41   1
  31  -1  -4  -13.28  110.55   1
 -30  31  -4  -11.55  123.47   1
  31  -1  -7  278.19  125.16   1
 -30  31  -7  -88.89  151.60   1
   1  31  -6   48.84   86.55   1
 -32   1  -6 -118.28  110.29   1
 -31  32   6  -81.39  101.32   1
   1  31  -3  115.62  100.87   1
 -32   1  -3  -53.29  124.29   1
  32  -1   3   87.83  127.41   1
   1  31   0  154.46  119.65   1
 -32   1   0  144.00  116.64   1
  32  -1   0  114.49  144.42   1
 -31  32   0  -14.12   99.26   1
 -32   1   3  124.52  111.33   1
  32  -1  -3  164.67  151.91   1
 -31  32  -3   70.87  162.92   1
  32  -1  -6   52.01   91.83   1
 -31  32  -6    6.37  121.71   1
   1  32  -4   66.58   77.28   1
 -33   1  -4   -7.26  115.79   1
  33  -1   4 -141.22  163.18   1
 -32  33   4   21.10   88.98   1
   1  32  -1   -6.34   56.80   1
 -33   1  -1  -88.27   80.81   1
 -32  33   1 -155.84   80.52   1
   1  32   2   71.45   72.46   1
 -33   1   2  -20.31   91.43   1
  33  -1  -2  -39.44  109.09   1
 -32  33  -2   59.11  116.89   1
 -33   1   5  -21.03   82.57   1
  33  -1  -5  139.40  110.92   1
 -32  33  -5  -64.18  113.69   1
   1  33  -2    9.80   90.79   1
 -34   1  -2   17.95  149.32   1
  34  -1   2   98.22  180.58   1
 -33  34   2  150.44  116.53   1
   1  33   1  200.39  111.06   1
 -34   1   1  129.50  116.21   1
  34  -1  -1   60.92  146.65   1
 -33  34  -1   76.52  126.04   1
 -34   1   4  -82.92   77.21   1
  34  -1  -4  111.07  114.30   1
 -33  34  -4   30.41  108.65   1
   1  34  -3  -22.00   74.76   1
 -35   1  -3  -15.47  131.26   1
  35  -1   3   38.00  152.90   1
 -34  35   3   53.97  112.24   1
   1  34   0  -10.71   94.39   1
 -35   1   0    5.60   89.11   1
  35  -1   0   68.47  115.61   1
 -34  35   0  -55.59  130.38   1
 -35   1   3  -98.34   52.53   1
  35  -1  -3  -60.00   91.14   1
 -34  35  -3  -27.44  102.15   1
   2   1 -14   42.57  111.05   1
  -3   2 -14   35.01  127.18   1
   1  -3 -14  203.69  120.23   1
   2   1 -11  220.24  135.45   1
   1  -3 -11  -67.12  127.44   1
   1  -3  -221083.88 4555.65   1
   3  -2  -4 9061.64 2017.10   1
   3  -2  -723147.38 5051.56   1
   3  -2 -10 3231.08  790.31   1
  -2  -1 -13  355.13  139.86   1
   3  -2 -13  230.75  148.42   1
  -1   3 -13   -0.75  138.98   1
   2   2 -15 -133.16   69.73   1
  -4   2 -15   45.90   70.40   1
   2  -4 -15  -73.96   89.36   1
   2   2 -12  102.81  122.00   1
   2  -4 -12   49.90  106.43   1
   2  -4  -9  175.24  124.40   1
   2  -4  -6  288.04  140.36   1
   2  -4  -3  550.42  179.70   1
   4  -2  -3  912.01  264.91   1
   4  -2  -6  140.28  101.81   1
   4  -2  -9   77.58   88.19   1
  -2  -2 -12  -80.82  110.71   1
   4  -2 -12  126.74   97.56   1
  -2  -2 -15  194.66   97.52   1
   4  -2 -15  -86.08  114.45   1
  -2   4 -15  -57.50   93.62   1
   2   3 -13  546.73  179.61   1
   3  -5 -13  154.40  180.28   1
   2   3 -10  554.55  249.74   1
   3  -5 -10  716.62  238.63   1
   3  -5  -7  104.09   90.69   1
   3  -5  -4 1589.84  425.70   1
  -2  -3  -2 2520.93  606.63   1
  -5   2   2 2591.86  604.69   1
   5  -2  -2 2393.10  602.47   1
   5  -2  -5 5259.47 1216.78   1
   5  -2  -8  400.20  179.18   1
   5  -2 -11  460.87  213.62   1
  -2  -3 -14   68.46  106.38   1
   5  -2 -14  189.64  129.22   1
  -3   5 -14  118.89  130.25   1
   2   4 -14  135.36  101.89   1
   4  -6 -14   35.57  123.14   1
   2   4 -11  509.90  202.04   1
   4  -6 -11  547.32  217.90   1
   4  -6  -8  241.07  146.70   1
   2   4   111032.59 2398.41   1
  -2  -4  -111546.95 2402.45   1
  -6   2   1 9461.46 2402.20   1
   6  -2  -111717.04 2401.11   1
   6  -2  -4 4320.50 1014.86   1
   6  -2  -7  823.64  277.24   1
   6  -2 -10   83.82  101.78   1
  -2  -4 -13   87.82  140.45   1
   6  -2 -13  428.71  163.58   1
   2   5 -12  101.89  118.67   1
   5  -7 -12   88.10  124.50   1
   5  -7  -9 3073.47  778.13   1
   5  -7  -6 4588.72 1093.84   1
  -7   2  -3  737.70  233.82   1
   5  -7  -3  738.96  231.99   1
  -5   7   3  605.01  223.97   1
   2   5   0  883.82  277.17   1
  -7   2   0 1002.31  292.23   1
   7  -2   0 1143.58  278.91   1
  -7   2   3 4803.07 1228.30   1
   7  -2  -3 6010.94 1232.71   1
   7  -2  -6 2139.82  554.58   1
   7  -2  -9 3491.40  870.12   1
  -2  -5 -12  400.64  181.13   1
   2   6 -13  403.16  162.77   1
   6  -8 -13  163.87  167.75   1
   2   6 -1012855.29 2790.95   1
   6  -8 -1012209.67 2797.73   1
   6  -8  -719035.80 4177.45   1
  -8   2  -478177.7013680.91   1
   6  -8  -465579.5913672.25   1
  -6   8   449099.9913671.88   1
  -8   2  -121532.85 5473.68   1
   8  -2   127354.94 5490.17   1
   6  -8  -126250.72 5485.27   1
  -6   8   127629.62 5491.10   1
   2   6   212280.15 2744.25   1
  -8   2   212724.99 2751.22   1
   8  -2  -212528.93 2741.30   1
  -2  -6  -5   50.12   86.25   1
   8  -2  -5  132.98   98.03   1
   8  -2  -8 1304.21  395.86   1
  -2  -6 -11  224.35  148.02   1
   8  -2 -11  284.84  173.98   1
  -2  -6 -14  112.18  141.87   1
  -2  -6 -14  -25.86   95.86   1
   8  -2 -14   62.55  111.87   1
   2   7 -14   54.89  118.40   1
  -9   2 -14  303.19  167.08   1
   7  -9 -14   27.89  106.81   1
   2   7 -11    7.62  105.34   1
   7  -9 -11  127.48  100.68   1
   7  -9  -8  177.48  123.45   1
  -9   2  -5  417.57  207.86   1
   7  -9  -5  572.87  196.76   1
  -9   2  -210355.83 2264.72   1
   9  -2   210749.11 2261.26   1
   7  -9  -210743.40 2258.40   1
  -7   9   2 8480.02 2277.07   1
  -9   2   1 1070.41  345.00   1
   9  -2  -1 1377.62  340.86   1
  -9   2   4 1112.93  346.09   1
   9  -2  -4 1287.44  349.01   1
  -2  -7  -7  852.45  333.25   1
   9  -2  -7 1194.61  332.27   1
  -2  -7 -10  -39.63   81.69   1
   9  -2 -10   92.74   91.56   1
  -2  -7 -13  167.42  159.23   1
  -2  -7 -13  123.77  134.81   1
   9  -2 -13  535.14  168.87   1
   2   8 -12  201.32  133.06   1
 -10   2 -12  287.49  208.83   1
   8 -10 -12  170.22  134.46   1
 -10   2  -9  -25.15  112.49   1
   8 -10  -9  105.17   87.94   1
 -10   2  -6  403.85  234.51   1
   8 -10  -6  675.11  215.99   1
 -10   2  -3   96.97  125.30   1
   8 -10  -3  282.97  109.73   1
  -8  10   3   23.76   94.50   1
   2   8   010197.94 2184.09   1
 -10   2   0 9675.00 2198.27   1
  10  -2   0 9828.02 2177.52   1
  -8  10   0 9788.19 2198.26   1
 -10   2   3 9336.78 2075.10   1
  10  -2  -3 9219.62 2068.43   1
  10  -2  -617437.49 3831.30   1
  -2  -8  -9 9235.58 1961.12   1
  -2  -8  -9 6804.69 1947.70   1
  10  -2  -9 9950.66 1958.31   1
  -2  -8 -12  264.41  223.99   1
  -2  -8 -12  260.93  206.51   1
  10  -2 -12 1216.34  238.48   1
   2   9 -13 1134.58  298.08   1
 -11   2 -13  304.01  326.93   1
   9 -11 -13 1328.97  316.22   1
   2   9 -10 4903.24 1118.16   1
 -11   2 -10 4298.43 1161.66   1
   9 -11 -10 4815.87 1128.23   1
 -11   2  -7 2049.86  553.02   1
 -11   2  -422937.80 4643.56   1
   9 -11  -425579.31 4639.33   1
  -9  11   415769.11 4629.89   1
   2   9  -1  803.96  234.82   1
 -11   2  -1  493.88  255.85   1
  11  -2   1  847.62  252.60   1
  -9  11   1  714.26  251.82   1
   2   9   2  121.29   85.63   1
 -11   2   2  101.33  108.75   1
  11  -2  -2  154.60  102.49   1
 -11   2   5 4017.68  945.33   1
  11  -2  -5 3835.87  943.84   1
  11  -2  -8  782.49  262.19   1
  -2  -9 -11   92.92   84.71   1
  -2  -9 -11    0.68   65.91   1
  11  -2 -11  -27.64  122.33   1
  -2  -9 -14  -40.41   47.53   1
   2  10 -14   54.09  103.36   1
 -12   2 -14  114.48  177.04   1
   2  10 -11  311.43  133.78   1
 -12   2 -11  211.37  201.72   1
  10 -12 -11   61.06  138.59   1
 -12   2  -8 1357.03  468.51   1
  10 -12  -8 1963.26  469.49   1
 -12   2  -5  143.60  119.97   1
  10 -12  -5  -32.21   79.38   1
 -10  12   5  -93.84   50.30   1
 -12   2  -2 2262.88  757.26   1
  12  -2   2 3840.05  774.13   1
  10 -12  -2 3525.14  769.98   1
   2  10   1  698.14  212.27   1
 -12   2   1  522.25  220.08   1
  12  -2  -1  701.21  232.68   1
 -10  12  -1  483.44  225.73   1
 -12   2   4  948.66  311.38   1
  12  -2  -4 1088.31  313.47   1
  12  -2  -7 1740.44  484.59   1
  12  -2 -10  151.28  115.80   1
  12  -2 -13    5.42   97.77   1
   2  11 -12  521.80  185.16   1
 -13   2 -12  196.61  281.35   1
  11 -13 -12  510.92  193.47   1
 -13   2  -9  894.97  368.64   1
  11 -13  -9  860.96  317.01   1
 -13   2  -6  792.59  306.66   1
  11 -13  -6 1016.46  284.58   1
 -11  13   6  712.60  283.60   1
 -13   2  -320704.32 4937.57   1
  13  -2   324472.33 4962.27   1
  11 -13  -325948.85 4950.40   1
 -11  13   319880.63 4969.92   1
   2  11   0 5724.79 1222.01   1
 -13   2   0 4659.46 1234.73   1
  13  -2   0 5431.50 1217.78   1
 -13   2   3  403.19  178.07   1
  13  -2  -3  359.69  168.16   1
  13  -2  -6 4982.58 1175.19   1
  13  -2  -9   62.96  100.12   1
  13  -2 -12  217.49  160.21   1
   2  12 -13  835.00  234.26   1
 -14   2 -13  330.86  287.95   1
  12 -14 -13  604.73  227.87   1
   2  12 -10  149.69  131.46   1
 -14   2 -10  191.57  191.83   1
  12 -14 -10  170.40  140.94   1
  12 -14  -7  485.92  207.48   1
 -14   2  -4 1818.90  518.74   1
  12 -14  -4 2439.09  512.93   1
 -12  14   4 1283.47  498.79   1
   2  12  -1 1135.22  313.41   1
 -14   2  -1  800.16  323.31   1
  14  -2   1 1370.27  336.31   1
 -12  14   1  947.48  338.88   1
   2  12   2 2146.04  550.41   1
 -14   2   2 1974.15  554.55   1
  14  -2  -2 2197.87  542.15   1
 -12  14  -2 1966.07  560.59   1
 -14   2   5   50.93   60.30   1
  14  -2  -5  -58.30   75.39   1
  14  -2  -8  459.51  201.10   1
  14  -2 -11  718.14  274.28   1
  14  -2 -14  262.58  151.17   1
   2  13 -11  227.41  128.27   1
 -15   2 -11  127.54  178.47   1
 -15   2  -8  522.40  293.33   1
  13 -15  -8  781.64  265.01   1
 -15   2  -5 1087.30  389.75   1
  13 -15  -5 1482.01  375.02   1
 -13  15   5  885.10  373.67   1
 -15   2  -2 2143.79  567.85   1
  15  -2   2 2731.13  571.10   1
 -13  15   2 1593.73  548.00   1
   2  13   1 6529.88 1360.02   1
 -15   2   1 5264.82 1353.31   1
  15  -2  -1 6247.39 1354.12   1
 -13  15  -1 5296.06 1355.52   1
 -15   2   4 1736.83  487.57   1
  15  -2  -4 1845.94  484.24   1
  15  -2  -7  130.94  118.19   1
  15  -2 -10  154.57  123.07   1
  15  -2 -13   89.84  118.31   1
   2  14 -12  214.49  120.59   1
 -16   2 -12  -60.14  174.69   1
  14 -16 -12  175.35  141.56   1
   2  14  -9 1539.50  335.95   1
 -16   2  -9  538.13  361.83   1
 -16   2  -6 1902.15  677.52   1
  14 -16  -6 4271.79  712.45   1
 -14  16   6 2230.91  662.10   1
 -16   2  -3 3828.02  872.47   1
  16  -2   3 3655.67  860.17   1
  14 -16  -3 3751.47  849.98   1
 -14  16   3 2686.04  847.27   1
   2  14   0  268.43  157.26   1
 -16   2   0  337.15  168.98   1
  16  -2   0  494.89  174.13   1
 -14  16   0  226.57  192.52   1
   2  14   3   52.57   64.27   1
 -16   2   3   -6.37   97.31   1
  16  -2  -3   88.80   98.13   1
 -14  16  -3  -28.99  117.00   1
  16  -2  -611510.14 2561.46   1
  16  -2  -9 1379.38  383.15   1
  16  -2 -12 1266.13  385.49   1
   2  15 -13   42.60   94.50   1
 -17   2 -13   94.05  160.32   1
  15 -17 -13   63.58  126.01   1
   2  15 -10  417.56  186.66   1
 -17   2 -10  355.50  229.04   1
  15 -17 -10  546.10  215.74   1
 -17   2  -7 3643.59  957.43   1
  15 -17  -7 5030.35  942.82   1
 -15  17   7 2823.11  917.79   1
 -17   2  -4 8545.62 2308.80   1
  17  -2   412816.41 2344.62   1
  15 -17  -412830.80 2326.38   1
 -15  17   4 8287.54 2318.02   1
   2  15  -1 7588.44 1682.47   1
 -17   2  -1 6031.28 1686.83   1
  17  -2   1 8262.75 1689.44   1
 -15  17   1 7587.74 1704.58   1
   2  15   2 1422.65  369.55   1
 -17   2   2 1121.54  383.16   1
  17  -2  -2 1609.22  386.50   1
 -15  17  -2  929.18  375.89   1
 -17   2   5  233.64  136.14   1
  17  -2  -5   59.96  121.81   1
  17  -2  -8  317.66  164.49   1
  17  -2 -11   20.25   98.54   1
   2  16 -11  840.85  237.03   1
 -18   2 -11  391.69  302.77   1
  16 -18 -11  746.31  272.49   1
   2  16  -8   95.52  101.19   1
 -18   2  -8 -188.56  185.74   1
  16 -18  -8  228.18  127.40   1
 -18   2  -5  164.86  112.75   1
  16 -18  -5  113.26  126.15   1
 -16  18   5   11.02  110.02   1
   2  16  -2  142.97   92.82   1
 -18   2  -2   12.21  116.88   1
  18  -2   2  -11.29  145.62   1
 -16  18   2  178.09   96.20   1
 -18   2   1 2008.25  563.89   1
  18  -2  -1 2178.08  541.85   1
 -16  18  -1 2062.17  570.43   1
 -18   2   4 4725.97 1110.21   1
  18  -2  -4 4426.31 1106.03   1
 -16  18  -4 4889.18 1128.36   1
  18  -2  -7  542.06  239.22   1
  18  -2 -10  176.63  125.54   1
  18  -2 -13   22.65   91.32   1
   2  17 -12 -126.72   86.36   1
 -19   2 -12  235.89  151.61   1
  17 -19 -12    8.05  141.27   1
   2  17  -9   61.93  104.08   1
 -19   2  -9   -8.18  170.18   1
  17 -19  -9  160.78  130.75   1
   2  17  -6 3706.42  620.63   1
 -19   2  -6 1552.83  584.71   1
  17 -19  -6 2389.19  596.38   1
 -17  19   6 1684.74  585.92   1
   2  17  -3 4594.31  950.35   1
 -19   2  -3 3650.52  958.75   1
  19  -2   3 4939.02  965.51   1
 -17  19   3 2628.43  949.71   1
   2  17   019117.68 4151.87   1
 -19   2   014138.20 4168.54   1
  19  -2   023377.76 4173.21   1
 -17  19   019570.33 4188.84   1
   2  17   329951.32 6620.97   1
 -19   2   331490.99 6622.07   1
  19  -2  -330278.36 6607.91   1
 -17  19  -330335.21 6623.07   1
 -19   2   614990.14 3076.83   1
  19  -2  -612855.34 3071.33   1
  19  -2  -9 2707.09  684.72   1
  19  -2 -12 1092.04  339.79   1
   2  18 -10  498.00  191.51   1
 -20   2 -10  395.23  229.64   1
  18 -20 -10  505.63  220.92   1
   2  18  -7 1099.17  282.86   1
 -20   2  -7  696.17  299.70   1
  18 -20  -7  901.29  303.94   1
 -18  20   7  605.61  278.17   1
   2  18  -4  419.35  170.25   1
 -20   2  -4  332.92  196.53   1
  20  -2   4  365.35  202.75   1
  18 -20  -4  167.48  184.79   1
 -18  20   4  161.87  167.15   1
   2  18  -1  142.90   87.13   1
 -20   2  -1   11.65  126.15   1
  20  -2   1  222.04  161.98   1
 -18  20   1 -173.18  147.63   1
   2  18   2 3776.28  889.62   1
 -20   2   2 3735.30  902.89   1
  20  -2  -2 3663.04  899.45   1
 -18  20  -2 3407.73  909.26   1
 -20   2   5 1770.42  524.91   1
  20  -2  -5 2552.67  560.82   1
 -18  20  -5 1686.33  548.05   1
  20  -2  -8  -65.42   62.34   1
  20  -2 -11   34.34  101.78   1
   2  19 -11  728.31  179.36   1
 -21   2 -11  188.31  180.05   1
  19 -21 -11  302.53  197.87   1
   2  19  -8  161.43  125.18   1
 -21   2  -8  148.98  142.92   1
  19 -21  -8  143.76  153.60   1
   2  19  -5  177.25  159.99   1
 -21   2  -5  514.15  190.62   1
  19 -21  -5  300.49  195.70   1
 -19  21   5  141.99  155.50   1
   2  19  -2 2427.11  555.79   1
 -21   2  -2 1975.45  566.12   1
  21  -2   2 2558.63  580.38   1
 -19  21   2 1376.68  561.19   1
   2  19   1  335.03  190.68   1
 -21   2   1  440.23  225.30   1
  21  -2  -1  570.15  200.48   1
 -19  21  -1  265.66  232.48   1
 -21   2   4 2262.50  536.89   1
  21  -2  -4 1878.17  530.81   1
 -19  21  -4 1747.09  553.37   1
  21  -2  -7  222.38  143.66   1
 -19  21  -7  231.72  187.00   1
  21  -2 -10  -10.59   28.73   1
 -19  21 -10 -243.01  104.01   1
   2  20 -12  106.13   89.03   1
 -22   2 -12   74.07  142.03   1
  20 -22 -12   -5.84  127.81   1
   2  20  -9   29.64   89.84   1
 -22   2  -9  156.56  145.79   1
  20 -22  -9   -8.92  125.15   1
   2  20  -6  590.50  217.98   1
 -22   2  -6  375.75  254.01   1
  20 -22  -6  610.28  243.12   1
 -20  22   6  541.75  236.52   1
   2  20  -3 1937.39  510.91   1
 -22   2  -3 1679.15  529.50   1
  22  -2   3 1964.62  540.45   1
   2  20   0 4014.33 1016.83   1
 -22   2   0 4792.54 1032.85   1
  22  -2   0 4440.97 1039.54   1
 -20  22   0 3724.75 1044.09   1
   2  20   313051.88 2933.63   1
 -22   2   313742.81 2952.36   1
  22  -2  -312234.53 2954.66   1
 -20  22  -314056.61 2954.42   1
 -22   2   6 1502.02  438.85   1
  22  -2  -6 1485.62  431.13   1
 -20  22  -6 1575.75  455.05   1
  22  -2  -9   67.75   50.41   1
 -20  22  -9 -255.04  108.34   1
  22  -2 -12  166.16  129.15   1
 -20  22 -12   76.05  155.13   1
   2  21 -10  243.40  133.27   1
 -23   2 -10  179.15  172.93   1
  21 -23 -10  130.80  182.10   1
   2  21  -7 1464.96  349.16   1
 -23   2  -7  893.24  392.06   1
  21 -23  -7 1397.35  377.74   1
 -21  23   7  682.34  368.40   1
   2  21  -4 1400.56  323.10   1
 -23   2  -4  754.93  347.87   1
  23  -2   4 1253.87  353.49   1
 -21  23   4  636.23  320.40   1
   2  21  -1  551.75  211.37   1
 -23   2  -1  458.21  231.48   1
  23  -2   1  548.31  252.01   1
 -21  23   1  499.53  226.43   1
   2  21   2  805.72  248.12   1
 -23   2   2  567.68  259.36   1
  23  -2  -2  623.53  229.08   1
 -21  23  -2  605.63  273.69   1
 -23   2   5  -21.59  125.99   1
  23  -2  -5  191.03  126.89   1
 -21  23  -5  195.21  159.20   1
  23  -2  -8   90.93  110.07   1
 -21  23  -8  105.26  145.20   1
  23  -2 -11   82.48  145.02   1
 -21  23 -11  322.04  170.42   1
   2  22 -11  801.47  250.52   1
 -24   2 -11    3.03  202.38   1
   2  22  -8 2313.34  431.80   1
 -24   2  -8 1208.63  445.29   1
  22 -24  -8 1959.42  477.55   1
 -22  24   8  822.29  434.32   1
   2  22  -515444.34 2836.35   1
 -24   2  -511104.23 2860.10   1
 -22  24   510688.67 2871.69   1
   2  22  -2 2971.05  670.40   1
 -24   2  -2 2214.21  677.31   1
  24  -2   2 3374.08  708.23   1
 -22  24   2 2281.43  718.49   1
   2  22   1 9557.90 1948.93   1
 -24   2   1 7354.64 1950.37   1
  24  -2  -1 9448.15 1946.68   1
 -22  24  -1 7682.23 1964.39   1
 -24   2   4  189.63  125.22   1
  24  -2  -4  187.81  139.99   1
 -22  24  -4 -160.21  180.58   1
  24  -2  -7   24.23  105.21   1
 -22  24  -7  112.14  139.27   1
  24  -2 -10   66.56  125.35   1
 -22  24 -10   77.44  140.22   1
   2  23  -9  103.10  109.85   1
 -25   2  -9   84.13  156.07   1
   2  23  -6 3875.12  742.66   1
 -25   2  -6 2355.90  773.50   1
 -23  25   6 2295.15  781.27   1
   2  23  -3  421.33  151.68   1
 -25   2  -3  137.48  182.56   1
  25  -2   3  271.67  211.42   1
 -23  25   3  391.49  199.03   1
   2  23   0  750.63  242.51   1
 -25   2   0  655.28  250.32   1
  25  -2   0  676.61  251.11   1
 -23  25   0  113.63  267.40   1
   2  23   3  167.75  114.56   1
 -25   2   3   -9.86  149.18   1
  25  -2  -3  155.03  126.23   1
 -23  25  -3  344.42  168.11   1
 -25   2   6  612.10  241.90   1
  25  -2  -6  618.22  243.44   1
 -23  25  -6  666.78  260.27   1
  25  -2  -9  288.93  148.59   1
 -23  25  -9   95.10  169.99   1
   2  24 -10   59.13   92.53   1
 -26   2 -10   62.33  143.14   1
   2  24  -7 -141.73   51.32   1
 -26   2  -7   50.81  119.93   1
 -24  26   7  -51.69   84.76   1
   2  24  -4  594.91  161.15   1
 -26   2  -4  227.98  165.79   1
  26  -2   4  243.60  202.32   1
 -24  26   4  153.37  184.89   1
   2  24  -1  119.10  131.49   1
 -26   2  -1   29.75  140.16   1
  26  -2   1   50.42  163.41   1
 -24  26   1   45.37  120.29   1
   2  24   2 3838.67  810.01   1
 -26   2   2 3297.63  811.68   1
  26  -2  -2 3324.34  793.83   1
 -24  26  -2 2536.09  803.29   1
 -26   2   5  751.41  281.48   1
  26  -2  -5  877.92  296.78   1
 -24  26  -5  854.36  312.62   1
  26  -2  -8  366.24  176.70   1
 -24  26  -8  247.42  194.50   1
   2  25  -8 1384.67  258.85   1
 -27   2  -8  377.87  286.96   1
 -25  27   8  362.06  258.35   1
   2  25  -5  413.65  159.32   1
 -27   2  -5  266.13  193.02   1
 -25  27   5  235.95  192.76   1
   2  25  -2  122.11  141.41   1
  27  -2   2   78.75  155.40   1
 -25  27   2  -53.79  140.96   1
   2  25   1  112.77  101.24   1
 -27   2   1  -24.05  108.21   1
  27  -2  -1  -37.77  145.27   1
 -25  27  -1  215.83  149.67   1
  27  -2  -4 1004.10  309.53   1
 -27   2   4  387.90  245.50   1
 -25  27  -4  760.20  270.30   1
  27  -2  -7 -164.85  101.58   1
 -25  27  -7  170.87  145.52   1
  27  -2 -10  218.89  149.31   1
 -25  27 -10  246.84  163.87   1
   2  26  -9  116.84  112.41   1
 -28   2  -9  115.65  132.02   1
   2  26  -6  199.45   92.72   1
 -28   2  -6  -47.61  137.85   1
 -26  28   6   52.99  120.31   1
   2  26  -3 2362.82  377.52   1
 -28   2  -3  871.69  375.46   1
  28  -2   3 1020.84  385.32   1
 -26  28   3  596.05  364.35   1
   2  26   0 1748.56  411.49   1
 -28   2   0  892.79  394.52   1
  28  -2   0 1737.52  409.87   1
 -26  28   0  883.44  410.93   1
   2  26   3 2968.61  707.47   1
 -28   2   3 2305.43  705.33   1
  28  -2  -3 3097.63  691.23   1
 -26  28  -3 2628.71  735.02   1
 -28   2   6 1241.81  418.20   1
  28  -2  -6 1636.12  430.55   1
 -26  28  -6 1539.63  443.34   1
  28  -2  -9  850.70  267.65   1
 -26  28  -9  609.50  276.55   1
   2  27  -7   26.28   97.69   1
 -29   2  -7   45.16  117.17   1
 -27  29   7   -4.87  101.86   1
   2  27  -4  -30.57  117.66   1
 -29   2  -4  101.63  127.24   1
  29  -2   4  -90.72  142.47   1
 -27  29   4   43.83  102.33   1
   2  27  -1  252.74  124.00   1
 -29   2  -1 -167.67  155.90   1
  29  -2   1  138.93  148.62   1
 -27  29   1   37.93  120.97   1
   2  27   2  -11.73  130.90   1
 -29   2   2  224.88  151.02   1
  29  -2  -2  318.49  172.21   1
 -27  29  -2  287.83  173.08   1
 -29   2   5  162.91  135.66   1
  29  -2  -5  336.25  127.76   1
 -27  29  -5   46.38  167.13   1
  29  -2  -8   81.11  330.11   1
 -27  29  -8 -110.06  112.43   1
   2  28  -8  147.43  136.71   1
 -28  30   8  255.14  136.92   1
   2  28  -5  -69.58  114.71   1
 -30   2  -5   47.37  123.47   1
 -28  30   5   91.84  104.74   1
   2  28  -2   19.29  119.70   1
 -30   2  -2  222.58  133.71   1
  30  -2   2   78.21  161.51   1
 -28  30   2  -13.02  132.57   1
   2  28   1 1172.50  277.30   1
 -30   2   1  570.79  266.92   1
  30  -2  -1  700.01  271.92   1
 -28  30  -1  529.10  268.87   1
 -30   2   4   64.32   97.13   1
  30  -2  -4  171.56  108.96   1
 -28  30  -4 -170.85  141.41   1
  30  -2  -7  -46.58  109.99   1
 -28  30  -7   63.05  120.89   1
   2  29  -6   -4.03   97.45   1
 -31   2  -6  163.90  122.87   1
 -29  31   6  -55.91   99.30   1
   2  29  -3  -26.44   79.34   1
 -31   2  -3  -75.96  113.39   1
  31  -2   3   69.51  114.21   1
 -29  31   3  -99.41   86.25   1
   2  29   0  975.93  271.91   1
 -31   2   0  581.04  307.82   1
  31  -2   0  975.85  274.36   1
 -29  31   0  388.33  262.40   1
 -31   2   3   86.93  110.64   1
  31  -2  -3   72.76  139.18   1
 -29  31  -3  121.45  137.91   1
 -31   2   6  -54.99   69.01   1
  31  -2  -6  -34.04   81.58   1
 -29  31  -6  -37.87  112.44   1
   2  30  -7  272.32  129.15   1
 -32   2  -7   18.04  151.79   1
 -30  32   7  128.39  136.52   1
   2  30  -4  497.91  170.39   1
 -32   2  -4  197.91  195.08   1
  32  -2   4  660.66  223.59   1
 -30  32   4  186.73  172.29   1
   2  30  -1  348.60  156.77   1
 -32   2  -1  327.20  144.66   1
  32  -2   1  216.78  167.32   1
 -30  32   1   97.43  157.28   1
   2  30   2  -23.96   64.34   1
 -32   2   2   18.34   98.65   1
  32  -2  -2  -17.02  121.74   1
 -30  32  -2   -9.98  119.46   1
 -32   2   5  -33.78  106.21   1
  32  -2  -5  161.10  124.80   1
 -30  32  -5  194.02  144.56   1
   2  31  -5 1206.73  267.57   1
 -33   2  -5  477.64  274.08   1
 -31  33   5  414.75  270.59   1
   2  31  -2 1045.27  238.11   1
 -33   2  -2  541.31  262.65   1
  33  -2   2  578.20  280.92   1
 -31  33   2  342.90  224.48   1
   2  31   1  178.83  120.18   1
 -33   2   1  270.50  130.57   1
  33  -2  -1  -72.74  147.67   1
 -31  33  -1  127.17  127.08   1
 -33   2   4  -45.77   78.80   1
  33  -2  -4  156.30  122.53   1
 -31  33  -4 -125.95  116.82   1
   2  32  -3  -32.77   87.53   1
 -34   2  -3  136.07  139.59   1
  34  -2   3  -86.38  155.33   1
 -32  34   3   54.35   89.43   1
   2  32   0  300.30  161.42   1
 -34   2   0  137.37  146.53   1
  34  -2   0  335.04  169.89   1
 -32  34   0  104.12  145.20   1
 -34   2   3   70.54  102.77   1
  34  -2  -3  153.70  141.54   1
 -32  34  -3  110.95  159.72   1
   2  33  -1  465.55  181.58   1
 -35   2  -1  604.65  219.77   1
  35  -2   1  159.72  234.61   1
 -33  35   1  408.40  219.22   1
   2  33   2  434.67  169.64   1
 -35   2   2  390.67  174.00   1
  35  -2  -2  987.22  199.43   1
 -33  35  -2  -38.09  178.57   1
   2  34   1   76.64  122.53   1
 -36   2   1   52.69  102.21   1
  36  -2  -1   28.37  133.17   1
 -34  36  -1  150.13  118.88   1
   3   1 -13   92.34  110.02   1
   1  -4 -13   76.80  110.18   1
   3   1 -10   86.10  117.27   1
   1  -4 -10  130.17  115.85   1
  -3  -1   1 4488.84 1669.15   1
   3   1  -1 5655.72 1137.34   1
  -3  -1  -218632.67 3566.23   1
  -4   3   213546.67 3565.22   1
   4  -3  -217033.62 3562.41   1
   4  -3  -5 6644.49 1512.05   1
   4  -3  -8 1810.48  484.09   1
   4  -3 -11 1359.66  393.48   1
  -3  -1 -14  131.65  126.67   1
   4  -3 -14  177.07  120.95   1
  -1   4 -14   49.66  121.15   1
   3   2 -14   73.62  118.52   1
   2  -5 -14  179.67  124.33   1
   3   2 -11  311.32  154.54   1
   2  -5 -11  355.91  165.36   1
   3   2  -8  325.02  148.96   1
   2  -5  -8  233.24  144.04   1
   2  -5  -5 4815.88 1125.41   1
   3   2  -2 2678.90  497.69   1
  -2   5   2 1377.27  495.47   1
   5  -3  -4 1769.09  465.90   1
   5  -3  -7  -89.04   18.30   1
  -3  -2 -13  367.49  187.19   1
  -2   5 -13  279.80  181.14   1
   3   3 -12 3509.43  860.95   1
   3   3  -9 6346.07 1472.52   1
   3  -6  -6  827.01  271.08   1
   3  -6  -310605.32 2340.03   1
   3   3   0  866.77  238.74   1
  -3  -3   0  796.54  236.88   1
  -6   3   0  665.05  234.56   1
   6  -3   0 1055.58  246.35   1
  -3  -3  -314011.20 2790.66   1
  -6   3   311236.19 2784.43   1
   6  -3  -313034.82 2789.34   1
   6  -3  -6 1195.99  359.16   1
   6  -3  -9 5379.41 1276.45   1
  -3  -3 -12 2593.97  664.47   1
  -3  -3 -15  103.78  170.50   1
   3   4 -13  199.45  140.49   1
   4  -7 -13  209.72  149.47   1
   3   4 -10 2070.36  550.25   1
   4  -7 -10 2257.02  577.70   1
   4  -7  -7 6467.14 1503.13   1
   4  -7  -4  322.35  140.39   1
   3   4  -1  605.31  189.13   1
  -7   3  -1  408.15  205.91   1
   7  -3   1  802.72  204.75   1
  -4   7   1  600.23  195.92   1
  -3  -4  -2 8428.74 1816.06   1
  -7   3   2 8420.25 1819.39   1
   7  -3  -2 7680.36 1810.79   1
   7  -3  -8  -48.16   58.46   1
  -3  -4 -14   -0.85  152.72   1
  -3  -4 -14   38.86   94.72   1
   7  -3 -14   69.65  113.43   1
   3   5 -14  153.97  115.68   1
   5  -8 -14  119.90  136.05   1
   3   5 -11 3387.30  812.49   1
   5  -8 -11 3169.85  822.54   1
   5  -8  -819991.57 4388.63   1
   5  -8  -554114.7511632.38   1
   3   5  -225244.54 5507.19   1
  -8   3  -225931.27 5513.73   1
   8  -3   226454.15 5519.81   1
   5  -8  -225332.34 5511.75   1
  -5   8   224326.12 5530.57   1
   3   5   1   82.88   82.24   1
  -3  -5  -1   93.91   84.60   1
  -8   3   1  159.11   95.40   1
   8  -3  -1  281.99  106.35   1
  -3  -5  -4 1514.25  440.21   1
  -8   3   4 1472.48  419.67   1
   8  -3  -4 1726.16  427.37   1
   8  -3 -10 1273.89  394.48   1
  -3  -5 -13  283.67  165.96   1
  -3  -5 -13  106.57  106.87   1
   8  -3 -13  -34.91  120.01   1
   3   6 -12 1013.82  315.45   1
   3   6  -9 4763.08 1126.50   1
   6  -9  -9 4698.97 1135.08   1
   6  -9  -6 7132.95 1634.52   1
  -9   3  -339076.06 7710.47   1
   6  -9  -341132.59 7712.13   1
  -6   9   326662.87 7714.00   1
   3   6   0  761.84  228.51   1
  -9   3   0  703.83  245.92   1
   9  -3   0  739.02  247.84   1
  -3  -6  -3 3030.93  886.13   1
  -9   3   3 4220.16  888.12   1
   9  -3  -3 3884.77  880.81   1
  -3  -6  -6 5126.99 1210.59   1
   9  -3  -6 5113.00 1192.59   1
   9  -3  -9 2020.69  533.90   1
  -3  -6 -12 1226.30  437.12   1
  -3  -6 -12  899.37  409.84   1
   9  -3 -12 2285.84  432.95   1
   3   7 -13   92.14  112.23   1
   7 -10 -13   89.82   99.08   1
   3   7 -10  169.23  126.18   1
   7 -10 -10   99.94  118.19   1
 -10   3  -7  382.69  203.60   1
   7 -10  -7  470.10  178.82   1
 -10   3  -4  930.36  294.61   1
   7 -10  -4 1045.21  280.88   1
  -7  10   4  655.72  279.46   1
   3   7  -128392.86 5639.34   1
 -10   3  -121035.75 5631.46   1
  10  -3   130649.92 5658.63   1
  -7  10   126447.28 5652.94   1
   3   7   2 5835.81 1110.70   1
  -3  -7  -2 4283.40 1090.81   1
 -10   3   2 3973.19 1101.04   1
  10  -3  -2 5017.66 1095.85   1
 -10   3   5 9685.95 2315.56   1
  10  -3  -510884.43 2301.15   1
  10  -3  -8 6781.94 1572.40   1
  -3  -7 -11  310.07  214.27   1
  -3  -7 -11  388.92  191.93   1
  10  -3 -11  812.31  228.87   1
  -3  -7 -14  -40.00  117.76   1
  -3  -7 -14  -33.11   85.42   1
  10  -3 -14   56.20   95.19   1
   3   8 -14  178.37  104.06   1
 -11   3 -14 -118.21  170.54   1
   8 -11 -14   51.90  114.83   1
   3   8 -11  509.54  225.64   1
 -11   3 -11  555.66  291.25   1
   8 -11 -11  730.67  233.93   1
 -11   3  -8  150.72  132.15   1
   8 -11  -8   68.63  116.47   1
 -11   3  -5  247.39  141.69   1
   8 -11  -5  102.85   95.79   1
  -8  11   5   82.39   98.35   1
   3   8  -2 3350.33  768.99   1
 -11   3  -2 3282.19  790.95   1
  11  -3   2 3561.04  779.01   1
   8 -11  -2 3583.89  781.09   1
  -8  11   2 2434.65  759.87   1
 -11   3   116513.54 6154.90   1
   3   8   120665.20 4021.71   1
  11  -3  -117932.55 4032.56   1
 -11   3   437681.37 7940.70   1
  11  -3  -435938.89 7941.96   1
  11  -3  -729053.08 6309.56   1
  -3  -8 -10 4674.80 1126.53   1
  -3  -8 -10 3399.47 1114.85   1
  11  -3 -10 6344.16 1132.14   1
  -3  -8 -13  598.18  352.32   1
  11  -3 -13 1639.95  356.79   1
   3   9 -12  204.81  151.78   1
 -12   3 -12  255.36  224.98   1
   9 -12 -12  488.09  174.22   1
   3   9  -9  301.00  154.14   1
 -12   3  -9  154.49  187.26   1
 -12   3  -6  451.92  181.94   1
   9 -12  -6  146.21  141.14   1
 -12   3  -3  -18.82  103.17   1
  12  -3   3  -27.39   93.80   1
   9 -12  -3  110.09   71.35   1
  -9  12   3  -19.22   59.44   1
   3   9   0 3161.14  739.68   1
 -12   3   0 2553.33  748.43   1
  12  -3   0 3586.67  747.95   1
  -9  12   0 2847.41  749.35   1
   3   9   321242.04 3983.26   1
  -3  -9  -313246.47 3965.48   1
 -12   3   321001.24 3970.44   1
  12  -3  -317812.81 3958.80   1
  12  -3  -621898.54 4780.44   1
  -3  -9  -9 1759.24  661.33   1
  12  -3  -9 3361.91  656.77   1
  -3  -9 -12  266.00  197.66   1
  -3  -9 -12  106.55  181.92   1
  12  -3 -12 1256.20  224.98   1
   3  10 -13  584.61  197.39   1
 -13   3 -13   61.09  283.01   1
  10 -13 -13  717.63  221.64   1
   3  10 -10  757.09  286.24   1
 -13   3 -10  742.84  353.73   1
  10 -13 -10 1024.05  287.23   1
 -13   3  -7  340.35  202.52   1
  10 -13  -7  358.64  165.45   1
 -13   3  -4 4369.03 1064.81   1
  10 -13  -4 5409.42 1061.57   1
 -10  13   4 3503.44 1056.32   1
   3  10  -1 5124.62 1236.64   1
 -13   3  -1 5096.56 1262.57   1
  13  -3   1 5795.81 1251.43   1
 -10  13   1 5454.09 1264.03   1
   3  10   2   60.67   13.90   1
 -13   3   2  -51.58   64.79   1
  13  -3  -2 -128.13   70.42   1
 -13   3   5  -37.79   49.60   1
  13  -3  -5  -39.25   61.82   1
  13  -3  -8 2933.16  743.29   1
  13  -3 -11 1886.17  525.83   1
  13  -3 -14  509.93  200.53   1
   3  11 -14  191.19  121.27   1
 -14   3 -14   51.78  196.38   1
  11 -14 -14  116.35  105.49   1
   3  11 -11  511.28  193.66   1
 -14   3 -11  355.36  286.69   1
  11 -14 -11  503.43  214.57   1
   3  11  -8   80.08  112.00   1
 -14   3  -8   56.33  133.87   1
  11 -14  -8   57.32   90.16   1
 -14   3  -5 7199.75 1990.81   1
  11 -14  -512280.46 1998.93   1
 -11  14   5 7147.09 1983.48   1
   3  11  -253217.33 9896.60   1
 -14   3  -241474.86 9897.76   1
  14  -3   247729.03 9902.50   1
 -11  14   241305.46 9900.75   1
   3  11   1 9946.43 1902.07   1
 -14   3   1 6763.03 1904.04   1
  14  -3  -1 8651.52 1894.68   1
 -11  14  -1 8315.75 1899.36   1
 -14   3   4 9239.82 2073.22   1
  14  -3  -4 9181.50 2066.07   1
  14  -3  -7  898.01  298.96   1
  14  -3 -10  378.89  180.95   1
   3  12 -12  559.25  177.36   1
 -15   3 -12  147.93  216.95   1
  12 -15 -12  502.29  172.97   1
   3  12  -9  156.65  127.81   1
 -15   3  -9  162.63  169.59   1
  12 -15  -9  102.84  120.77   1
 -15   3  -6  456.93  271.41   1
  12 -15  -6 1076.33  259.39   1
 -12  15   6  473.70  244.16   1
   3  12  -3   -9.82  103.35   1
 -15   3  -3  135.89  111.50   1
  15  -3   3  300.17  136.24   1
  12 -15  -3  317.23  115.56   1
 -12  15   3  -58.50  113.42   1
   3  12   0 1827.46  457.80   1
 -15   3   0 1321.17  462.28   1
  15  -3   0 2035.34  472.63   1
 -12  15   0 1524.66  467.68   1
   3  12   3 2203.31  516.81   1
 -15   3   3 1326.78  539.63   1
  15  -3  -3 2314.96  528.86   1
 -15   3   6 3356.75  768.36   1
  15  -3  -6 2765.06  759.23   1
  15  -3  -9 1192.88  364.88   1
  15  -3 -12  403.68  197.95   1
   3  13 -13  173.39  112.58   1
 -16   3 -13 -122.73  160.34   1
  13 -16 -13  274.96  148.53   1
   3  13 -10 3585.96  782.70   1
 -16   3 -10 2006.30  841.39   1
  13 -16 -10 3536.37  823.21   1
   3  13  -7 6137.18 1322.01   1
 -16   3  -7 4500.31 1357.29   1
  13 -16  -7 6107.77 1346.69   1
   3  13  -417059.63 3048.05   1
 -16   3  -413596.17 3050.97   1
 -13  16   410361.28 3054.36   1
   3  13  -1 7313.26 1839.78   1
 -16   3  -1 7775.81 1849.12   1
  16  -3   1 9799.52 1855.81   1
 -13  16   1 7820.11 1860.53   1
   3  13   214633.50 3013.42   1
 -16   3   211906.32 3015.12   1
  16  -3  -215260.35 3014.45   1
 -13  16  -212475.83 3020.52   1
 -16   3   5  533.11  197.60   1
  16  -3  -5  326.25  188.39   1
  16  -3  -8  483.93  205.01   1
  16  -3 -11  205.91  147.76   1
   3  14 -11 2390.71  521.46   1
 -17   3 -11 1436.85  579.14   1
  14 -17 -11 1855.51  537.44   1
   3  14  -813261.95 2537.93   1
 -17   3  -8 6821.96 2572.97   1
  14 -17  -813138.78 2572.92   1
   3  14  -539150.85 6280.25   1
 -17   3  -523768.89 6272.02   1
  14 -17  -530713.11 6294.33   1
 -14  17   521808.34 6293.80   1
   3  14  -239907.84 7551.28   1
 -17   3  -235214.29 7559.41   1
  17  -3   239637.75 7560.53   1
 -14  17   226944.08 7539.12   1
   3  14   120427.54 3400.59   1
 -17   3   113822.18 3388.36   1
  17  -3  -114523.26 3358.83   1
 -14  17  -114056.36 3373.94   1
 -17   3   4 2843.02  748.54   1
  17  -3  -4 3091.81  744.46   1
  17  -3  -7  271.07  152.75   1
  17  -3 -10  233.59  142.60   1
   3  15 -12  183.10  117.13   1
 -18   3 -12  126.57  182.09   1
  15 -18 -12   88.94  148.80   1
   3  15  -9  203.84  132.54   1
 -18   3  -9   70.70  192.91   1
  15 -18  -9  322.71  161.40   1
   3  15  -6 1163.52  296.74   1
 -18   3  -6  559.23  322.00   1
  15 -18  -6  821.38  313.62   1
   3  15  -3 7181.70 1347.88   1
 -18   3  -3 5106.76 1372.27   1
  18  -3   3 6084.33 1363.04   1
 -15  18   3 4541.10 1356.84   1
   3  15   015909.26 3071.27   1
 -18   3   011029.16 3078.33   1
  18  -3   016332.16 3093.05   1
 -15  18   012577.21 3076.87   1
   3  15   3 7017.46 1259.84   1
 -18   3   3 4161.09 1279.26   1
  18  -3  -3 5127.03 1235.35   1
 -15  18  -3 4732.79 1253.42   1
 -18   3   6 1685.03  481.70   1
  18  -3  -6 1734.54  473.21   1
  18  -3  -9   36.19   90.63   1
  18  -3 -12   94.39  102.44   1
   3  16 -13   17.19   86.56   1
 -19   3 -13   21.20  167.96   1
   3  16 -10  944.09  267.43   1
 -19   3 -10  632.26  317.87   1
   3  16  -7   58.75  112.60   1
 -19   3  -7   43.98  144.72   1
  16 -19  -7  181.09  135.63   1
 -16  19   7   32.99  100.15   1
   3  16  -4  118.83  134.25   1
 -19   3  -4    9.16  150.92   1
  19  -3   4  373.82  152.17   1
 -16  19   4  146.40  119.15   1
   3  16  -1 9093.59 1787.68   1
 -19   3  -1 6131.71 1792.38   1
  19  -3   1 7752.69 1796.25   1
 -16  19   1 8461.15 1811.36   1
   3  16   213402.98 2677.61   1
 -19   3   211978.38 2677.94   1
  19  -3  -212923.79 2669.51   1
 -16  19  -2 9509.34 2678.47   1
 -19   3   514516.65 3280.25   1
  19  -3  -515217.74 3280.60   1
  19  -3  -8 2601.79  662.44   1
  19  -3 -11  713.30  251.75   1
   3  17 -11  395.56  164.64   1
 -20   3 -11  206.89  236.23   1
   3  17  -8 1835.05  380.95   1
 -20   3  -8  743.41  410.85   1
  17 -20  -8 1147.23  407.52   1
   3  17  -5   84.05  124.08   1
 -20   3  -5  110.07  148.14   1
  17 -20  -5  143.56  152.38   1
 -17  20   5  135.77  115.99   1
   3  17  -2 1996.55  592.73   1
 -20   3  -2 2086.26  613.96   1
  20  -3   2 2744.43  612.04   1
 -20   3   116159.40 3645.00   1
  20  -3  -117048.58 3641.31   1
 -17  20  -116659.08 3668.32   1
 -20   3   419150.19 4065.15   1
  20  -3  -416488.61 4053.73   1
 -17  20  -420423.25 4075.67   1
  20  -3  -7 3647.34  890.23   1
  20  -3 -10 1889.04  510.45   1
   3  18 -12   48.05   75.61   1
  18 -21 -12  -81.83   97.57   1
   3  18  -9   59.96   87.17   1
 -21   3  -9   46.97  127.80   1
  18 -21  -9    3.36  115.66   1
   3  18  -6  312.07  141.74   1
 -21   3  -6    3.66  163.43   1
  18 -21  -6  282.48  166.19   1
 -18  21   6  165.00  138.71   1
   3  18  -3  423.70  147.94   1
 -21   3  -3  158.51  188.92   1
  21  -3   3  335.37  186.10   1
 -18  21   3  -19.47  166.17   1
   3  18   0  414.57  177.88   1
 -21   3   0  262.17  194.38   1
  21  -3   0  507.10  228.55   1
 -18  21   0  435.46  220.20   1
   3  18   3 5238.95 1182.36   1
 -21   3   3 5722.28 1191.91   1
  21  -3  -3 4494.79 1191.22   1
 -18  21  -3 4473.97 1193.08   1
 -21   3   6 1361.20  439.70   1
  21  -3  -6 1668.31  434.46   1
  21  -3  -9  719.49  256.44   1
  21  -3 -12  180.01  146.97   1
   3  19 -10 1711.56  313.46   1
 -22   3 -10  429.97  308.84   1
  19 -22 -10 1001.70  344.58   1
   3  19  -7  299.23  151.07   1
 -22   3  -7  350.66  200.35   1
  19 -22  -7  286.54  181.01   1
 -19  22   7  165.07  147.68   1
   3  19  -4   21.27   97.56   1
 -22   3  -4  -87.93  149.12   1
  22  -3   4  117.39  149.38   1
 -19  22   4  166.79  102.98   1
 -22   3  -1    6.11  159.42   1
  22  -3   1  290.77  195.80   1
 -19  22   1  327.18  174.92   1
   3  19   2 5067.64 1043.22   1
 -22   3   2 4181.38 1042.66   1
  22  -3  -2 3751.57 1011.06   1
 -19  22  -2 4546.74 1048.17   1
 -22   3   5  233.59  206.58   1
  22  -3  -5  372.57  203.57   1
 -19  22  -5  858.44  235.62   1
  22  -3  -8 1164.82  357.21   1
  22  -3 -11  877.47  257.90   1
 -19  22 -11  405.29  286.57   1
   3  20 -11  111.96   76.95   1
 -23   3 -11 -121.99   99.87   1
   3  20  -8  543.58  166.04   1
  20 -23  -8   60.42  202.92   1
   3  20  -5 1358.64  305.05   1
 -23   3  -5  616.40  334.26   1
 -20  23   5  772.69  310.57   1
   3  20  -2  757.53  230.96   1
 -23   3  -2  614.26  245.33   1
  23  -3   2  518.04  266.47   1
 -20  23   2  511.88  217.54   1
   3  20   1 2363.25  578.46   1
 -23   3   1 1954.66  569.09   1
  23  -3  -1 2092.29  568.41   1
 -20  23  -1 1854.34  584.47   1
 -23   3   4 2603.77  656.13   1
  23  -3  -4 2970.27  666.17   1
 -20  23  -4 2136.91  645.55   1
  23  -3  -7   55.84  108.30   1
 -20  23  -7  112.83  152.03   1
  23  -3 -10   68.91   87.01   1
 -20  23 -10  -29.00  152.85   1
   3  21  -9 1357.90  340.01   1
 -24   3  -9  756.49  401.56   1
   3  21  -6 7491.25 1536.89   1
 -24   3  -6 5656.86 1561.62   1
   3  21  -3 4829.42 1001.07   1
 -24   3  -3 4268.71 1015.94   1
  24  -3   3 4256.40 1022.07   1
 -21  24   3 3005.26 1029.59   1
   3  21   0 5412.17 1014.79   1
 -24   3   0 4075.02  999.41   1
  24  -3   0 3828.10 1001.00   1
 -21  24   0 3209.62 1013.78   1
   3  21   3  600.14  227.85   1
 -24   3   3  687.99  251.84   1
  24  -3  -3  717.81  229.95   1
 -21  24  -3  366.13  274.65   1
 -24   3   6  136.91  118.00   1
  24  -3  -6   18.45  116.49   1
 -21  24  -6   96.52  149.34   1
  24  -3  -9  294.21  143.27   1
 -21  24  -9  291.90  183.77   1
   3  22 -10  543.10  155.29   1
 -25   3 -10   15.30  191.96   1
   3  22  -7 4519.73  729.05   1
 -25   3  -7 2494.56  733.45   1
 -22  25   7 1727.73  732.21   1
   3  22  -412875.72 2180.44   1
 -25   3  -4 7851.90 2170.14   1
  25  -3   411309.67 2209.14   1
 -22  25   4 6549.41 2211.62   1
   3  22  -1 4265.15  737.02   1
 -25   3  -1 2358.15  728.89   1
  25  -3   1 3759.76  746.58   1
 -22  25   1 1571.47  714.13   1
   3  22   2  717.68  242.10   1
 -25   3   2  751.95  262.43   1
  25  -3  -2  854.85  259.91   1
 -22  25  -2  312.76  287.42   1
 -25   3   5 1062.90  395.50   1
  25  -3  -5 1705.90  414.57   1
 -22  25  -5 1358.26  418.17   1
  25  -3  -8 1443.95  409.66   1
 -22  25  -8 1422.92  429.79   1
  25  -3 -11  709.37  226.45   1
 -22  25 -11  413.19  246.03   1
   3  23  -8 1038.72  235.56   1
 -26   3  -8  577.27  279.24   1
 -23  26   8  347.75  243.64   1
   3  23  -5 5560.68  995.90   1
 -26   3  -5 4164.13 1021.91   1
 -23  26   5 2647.98 1004.26   1
   3  23  -2 3726.00  753.95   1
 -26   3  -2 1989.06  771.92   1
  26  -3   2 3905.42  782.32   1
 -23  26   2 2096.37  790.95   1
   3  23   1 5714.13 1204.58   1
 -26   3   1 4111.78 1207.80   1
  26  -3  -1 6050.53 1215.74   1
 -23  26  -1 4407.18 1222.65   1
 -26   3   4 2052.35  563.56   1
  26  -3  -4 1805.01  551.66   1
 -23  26  -4 2584.21  584.17   1
  26  -3  -7  920.39  297.44   1
 -23  26  -7  823.43  313.25   1
  26  -3 -10    4.89   95.04   1
 -23  26 -10  -43.21  107.47   1
   3  24  -9 -120.79   89.87   1
 -27   3  -9  139.83  124.50   1
   3  24  -6  -40.39   65.08   1
 -27   3  -6  -64.67  110.44   1
 -24  27   6   19.33   96.56   1
   3  24  -3 1715.88  343.94   1
 -27   3  -3  568.55  337.94   1
  27  -3   3 1326.27  373.78   1
 -24  27   3  931.17  353.31   1
   3  24   0 1379.14  418.61   1
 -27   3   0 1407.96  436.50   1
  27  -3   0 1803.40  441.99   1
 -24  27   0 1121.55  460.72   1
   3  24   3 4892.82  957.89   1
 -27   3   3 4120.19  972.58   1
  27  -3  -3 4107.26  945.94   1
 -24  27  -3 2940.87  957.56   1
 -27   3   6 1473.45  453.80   1
  27  -3  -6 1738.57  466.65   1
 -24  27  -6 1666.57  473.44   1
  27  -3  -9 1600.24  396.71   1
 -24  27  -9 1033.85  408.24   1
   3  25  -7  102.90   78.79   1
 -28   3  -7   58.77  123.74   1
 -25  28   7  -22.10  105.90   1
   3  25  -4  115.83  134.61   1
 -28   3  -4   94.41  121.50   1
  28  -3   4  -58.48  146.30   1
 -25  28   4   89.36  108.59   1
   3  25  -1 1445.61  290.48   1
 -28   3  -1  500.72  286.55   1
  28  -3   1  899.85  297.45   1
 -25  28   1  410.62  271.29   1
   3  25   2 2650.09  712.53   1
 -28   3   2 2891.31  738.70   1
  28  -3  -2 3499.43  744.27   1
 -25  28  -2 2489.59  755.06   1
 -28   3   5 3380.14  836.21   1
  28  -3  -5 3563.70  828.65   1
 -25  28  -5 3285.66  858.19   1
  28  -3  -8 1445.80  379.27   1
 -25  28  -8  982.48  386.88   1
   3  26  -8   99.23   97.77   1
 -29   3  -8  -11.78   96.12   1
 -26  29   8  -82.82   93.41   1
   3  26  -5   76.31  132.91   1
 -29   3  -5   75.82  138.88   1
 -26  29   5  128.75  134.41   1
   3  26  -2  215.16  122.01   1
 -29   3  -2   47.66  127.98   1
  29  -3   2  102.64  168.30   1
 -26  29   2   -6.24  132.47   1
   3  26   1  118.00  142.71   1
 -29   3   1  255.62  147.56   1
  29  -3  -1  304.35  174.08   1
 -26  29  -1  219.37  186.48   1
 -29   3   4  273.02  171.94   1
  29  -3  -4  372.42  170.38   1
 -26  29  -4  368.45  202.25   1
  29  -3  -7  664.88  217.30   1
 -26  29  -7  269.56  224.36   1
   3  27  -6  380.95  141.29   1
 -30   3  -6  147.72  161.09   1
 -27  30   6   32.76  147.21   1
   3  27  -3  592.05  199.98   1
 -30   3  -3  330.49  202.15   1
  30  -3   3  496.71  218.62   1
 -27  30   3  320.52  198.65   1
   3  27   0 1164.46  300.76   1
 -30   3   0  747.47  300.60   1
  30  -3   0  912.06  327.51   1
 -27  30   0  690.53  310.79   1
   3  27   3  889.99  295.98   1
 -30   3   3  648.30  296.37   1
  30  -3  -3 1169.08  313.61   1
 -27  30  -3  813.65  323.37   1
 -30   3   6   70.38  113.48   1
  30  -3  -6  134.12  120.36   1
 -27  30  -6   92.98  150.16   1
   3  28  -7  123.07  118.73   1
 -31   3  -7 -146.14  130.49   1
 -28  31   7  266.32  125.79   1
   3  28  -4  -36.38  106.46   1
 -31   3  -4    8.62  118.38   1
  31  -3   4  160.26  147.87   1
 -28  31   4 -133.69  100.21   1
   3  28  -1  413.78  174.73   1
 -31   3  -1  242.58  172.73   1
  31  -3   1  232.47  184.56   1
 -28  31   1  361.59  173.11   1
   3  28   2   -4.98   59.92   1
 -31   3   2    4.25   89.60   1
  31  -3  -2 -183.83  114.65   1
 -28  31  -2   77.08  117.16   1
 -31   3   5   22.99   97.44   1
  31  -3  -5   55.29  112.82   1
 -28  31  -5   44.99  138.07   1
  31  -3  -8  140.20  103.47   1
 -28  31  -8 -115.62  122.05   1
   3  29  -5  331.27  154.88   1
 -32   3  -5  169.71  162.84   1
 -29  32   5  168.61  161.72   1
   3  29  -2  173.75  138.16   1
 -32   3  -2    5.11  151.42   1
  32  -3   2  339.97  176.79   1
 -29  32   2  208.61  140.18   1
   3  29   1   66.01  122.33   1
 -32   3   1   73.28  131.35   1
  32  -3  -1  351.62  177.64   1
 -29  32  -1  168.89  160.09   1
 -32   3   4  130.27  119.82   1
 -29  32  -4  161.44  159.73   1
  32  -3  -7  105.21   93.71   1
 -29  32  -7  -42.16  121.63   1
   3  30  -6 2481.17  383.42   1
 -33   3  -6  808.71  392.23   1
 -30  33   6  564.09  377.35   1
   3  30  -3 1271.62  422.36   1
 -33   3  -3 1316.96  429.17   1
  33  -3   3 2161.39  448.21   1
 -30  33   3  960.79  431.31   1
   3  30   0 1049.68  279.92   1
 -33   3   0  762.86  284.96   1
  33  -3   0 1149.76  303.64   1
 -30  33   0  347.52  271.52   1
 -33   3   3  175.89  151.01   1
  33  -3  -3  366.28  183.46   1
 -30  33  -3  274.00  178.65   1
 -33   3   6  -71.05   81.35   1
  33  -3  -6   61.13  103.52   1
 -30  33  -6   94.74  121.78   1
   3  31  -4  126.24  124.74   1
 -34   3  -4  196.42  148.71   1
  34  -3   4   81.55  192.45   1
 -31  34   4  174.48  132.62   1
   3  31  -1  414.46  164.06   1
 -34   3  -1   62.43  171.00   1
  34  -3   1  486.26  185.88   1
 -31  34   1  154.90  183.78   1
   3  31   2   77.67   95.36   1
 -34   3   2  102.97  111.69   1
  34  -3  -2  117.82  134.19   1
 -31  34  -2    2.48  161.69   1
 -34   3   5   94.14   91.49   1
  34  -3  -5 -149.30  131.96   1
 -31  34  -5  257.79  125.74   1
   3  32  -2  361.47  150.74   1
 -35   3  -2  198.70  178.07   1
  35  -3   2  390.24  188.24   1
 -32  35   2    2.89  140.22   1
   3  32   1  967.20  257.09   1
 -35   3   1  626.56  253.79   1
  35  -3  -1  657.39  256.90   1
 -32  35  -1  578.77  253.54   1
 -35   3   4  304.20  150.21   1
  35  -3  -4  216.79  184.06   1
 -32  35  -4  367.91  191.07   1
   3  33   0  532.22  159.89   1
 -36   3   0  228.88  160.89   1
  36  -3   0  178.37  179.59   1
 -33  36   0  190.10  193.75   1
   4   1 -15   52.29  100.20   1
  -5   4 -15  -42.58   92.73   1
   1  -5 -15   97.23  106.78   1
   4   1 -12  101.65  126.35   1
   1  -5 -12  163.53  120.14   1
   4   1  -9    9.25   85.27   1
   1  -5  -9   14.89   86.02   1
   4   1  -6 5369.80 1251.17   1
   4   1  -3  972.48  254.36   1
   1  -5  -3  757.31  252.57   1
   4   1   011938.07 2871.31   1
  -4  -1   012152.06 2874.14   1
  -5   4   014984.79 2882.56   1
   5  -4   013978.35 2871.76   1
  -4  -1  -3 6027.13 1148.37   1
  -5   4   3 4550.35 1134.12   1
   5  -4  -3 4530.62 1140.72   1
   5  -4  -6 7678.78 1751.08   1
   5  -4  -9 8178.43 1876.77   1
   5  -4 -12  196.79  163.40   1
  -4  -1 -15   24.40   89.35   1
   5  -4 -15   93.72   99.94   1
  -1   5 -15  -24.99   89.43   1
   4   2 -13  275.75  139.85   1
   2  -6 -13  122.39  143.94   1
   4   2 -10  161.42  101.33   1
   2  -6 -10  -32.53   97.56   1
   4   2  -7  890.91  252.84   1
   2  -6  -7  552.74  250.53   1
   4   2  -4 3745.95  854.35   1
   2  -6  -4 3424.66  860.37   1
   4   2  -111232.37 2447.61   1
  -4  -2   110137.87 2441.41   1
  -6   4  -112280.05 2449.00   1
   6  -4  -8  220.48  143.10   1
   6  -4 -11  657.29  271.10   1
  -4  -2 -14   26.38  109.00   1
   6  -4 -14   64.88  128.69   1
  -2   6 -14  193.17  120.89   1
   4   3 -14   99.87   85.53   1
   3  -7 -14 -116.70   89.29   1
   4   3 -11 -121.40   62.83   1
   3  -7 -11   43.01   65.07   1
   4   3  -8   98.23   99.41   1
   3  -7  -8  110.40   99.71   1
   4   3  -5   -5.63   63.42   1
   3  -7  -5   48.69   50.37   1
   4   3  -2 8759.22 1924.56   1
  -7   4  -210180.45 1936.04   1
  -3   7   2 7127.04 1935.38   1
  -4  -3  -1  417.27  168.67   1
  -7   4   1  479.73  175.77   1
   7  -4  -1  574.54  165.68   1
  -7   4   4  395.19  165.71   1
   7  -4  -4  442.79  169.38   1
   7  -4  -7 7425.12 1709.31   1
   7  -4 -10 2728.31  694.23   1
   7  -4 -13  450.96  216.16   1
   4   4 -12   84.65  118.41   1
   4  -8 -12  100.01  104.46   1
   4   4  -9   -9.77  109.16   1
   4  -8  -9  152.17   97.99   1
   4   4  -6 6992.54 1499.18   1
   4  -8  -6 5952.31 1513.38   1
   4   4  -310068.19 2067.91   1
  -8   4  -310763.50 2080.35   1
   4  -8  -311224.98 2079.10   1
  -4   8   3 5418.34 2072.78   1
   4   4   0  138.83   82.46   1
  -4  -4   0  146.88   73.80   1
  -8   4   0   76.06   83.48   1
   8  -4   0  105.37  103.38   1
  -4  -4  -3 8229.39 1883.54   1
  -8   4   3 8658.22 1893.25   1
   8  -4  -3 8489.98 1884.72   1
  -4  -4  -6 6696.48 1648.57   1
   8  -4  -6 7501.96 1637.53   1
   8  -4  -9    9.54   84.63   1
   8  -4 -12  163.79  148.30   1
   4   5 -13  285.52  140.67   1
   4   5 -10 2137.25  506.42   1
   5  -9 -10 1592.17  502.35   1
   4   5  -7   92.83  126.83   1
   5  -9  -7  322.83  123.74   1
   4   5  -4 3660.34  778.12   1
  -9   4  -4 3319.24  793.21   1
   5  -9  -4 2696.80  773.50   1
   4   5  -1 2662.45  649.57   1
  -9   4  -1 2736.87  667.37   1
   9  -4   1 2770.51  659.84   1
  -5   9   1 2645.66  659.74   1
  -4  -5  -230323.11 6843.83   1
  -9   4   231392.72 6845.48   1
   9  -4  -233226.30 6836.39   1
  -4  -5  -5 9213.54 2056.96   1
   9  -4  -5 9039.84 2052.28   1
  -4  -5  -815069.33 3272.66   1
   9  -4  -814348.92 3258.77   1
  -4  -5 -11 4591.85 1267.89   1
   9  -4 -11 5949.99 1263.17   1
  -4  -5 -14  151.77  212.12   1
  -4  -5 -14  132.77  163.81   1
   9  -4 -14  617.82  170.41   1
   4   6 -14  -53.78   91.47   1
 -10   4 -14   91.56  152.45   1
   6 -10 -14  -26.06   82.43   1
   4   6 -11  -48.37   62.75   1
   6 -10 -11  -43.38   53.85   1
   4   6  -8    3.35  102.51   1
   6 -10  -8   57.37   76.05   1
   4   6  -5 1026.68  298.33   1
 -10   4  -5  738.03  316.54   1
   6 -10  -5 1096.62  313.90   1
   4   6  -2  515.40  155.01   1
 -10   4  -2  315.24  184.52   1
  10  -4   2  402.63  172.59   1
  -6  10   2  322.10  158.29   1
   4   6   1 6346.39 1286.69   1
  -4  -6  -1 5245.57 1283.41   1
 -10   4   1 5316.59 1295.13   1
  10  -4  -1 5672.65 1282.60   1
 -10   4   4 9433.25 2525.31   1
  10  -4  -413384.35 2526.83   1
  -4  -6  -7 3582.56  937.30   1
  10  -4  -7 4102.83  939.86   1
  10  -4 -10 1346.01  418.08   1
  -4  -6 -13  179.51  153.07   1
  -4  -6 -13    1.72  128.32   1
  10  -4 -13  524.59  165.11   1
   4   7 -12  303.86  159.72   1
 -11   4 -12  420.46  218.65   1
   7 -11 -12  301.34  160.84   1
   4   7  -9 3078.23  689.55   1
 -11   4  -9 2248.88  729.93   1
   7 -11  -9 2624.69  702.29   1
   4   7  -6 3905.08  856.05   1
 -11   4  -6 2827.29  860.53   1
   7 -11  -6 3972.94  892.92   1
   4   7  -313962.52 2732.34   1
 -11   4  -312807.65 2750.13   1
   7 -11  -314359.17 2744.85   1
  -7  11   3 8248.49 2741.75   1
   4   7   0  135.48  104.60   1
 -11   4   0  184.22  129.07   1
  11  -4   0  222.42  142.85   1
   4   7   3 3750.65  827.42   1
  -4  -7  -3 2452.01  826.74   1
 -11   4   3 3512.09  831.09   1
  11  -4  -3 3876.61  823.35   1
  -4  -7  -6  228.67  134.62   1
  11  -4  -6  199.30  135.21   1
  -4  -7  -9   20.26  133.22   1
  11  -4  -9  197.70  117.18   1
  -4  -7 -12  142.69  140.77   1
  -4  -7 -12   76.48  119.28   1
  11  -4 -12  301.77  156.77   1
   4   8 -13   59.50   93.21   1
   4   8 -10  298.61  172.76   1
 -12   4 -10  531.16  241.64   1
   8 -12 -10  276.59  186.63   1
   4   8  -7 2303.95  533.04   1
 -12   4  -7 1511.10  537.24   1
   8 -12  -7 2196.28  561.57   1
   4   8  -430466.79 6619.55   1
 -12   4  -430766.62 6633.90   1
   4   8  -1 4613.32  919.95   1
 -12   4  -1 2891.88  916.88   1
  12  -4   1 4933.01  940.54   1
  -8  12   1 3469.53  928.22   1
   4   8   217524.56 3305.29   1
  -4  -8  -213183.28 3296.21   1
 -12   4   213150.59 3305.24   1
  12  -4  -216372.91 3297.95   1
 -12   4   517368.57 3910.82   1
  12  -4  -518310.62 3909.93   1
  -4  -8  -8 2064.91  660.81   1
  12  -4  -8 3067.05  665.23   1
  -4  -8 -11  847.46  449.81   1
  -4  -8 -11  678.22  422.59   1
  12  -4 -11 2721.55  430.04   1
  -4  -8 -14  150.63  110.84   1
  -4  -8 -14   31.61   92.73   1
   4   9 -14   36.96  102.67   1
   9 -13 -14   51.77   93.82   1
   4   9 -11  605.32  211.68   1
 -13   4 -11  475.24  278.52   1
   4   9  -8  700.20  224.84   1
 -13   4  -8  193.47  233.33   1
   9 -13  -8  835.70  229.70   1
   4   9  -5 1102.41  276.97   1
 -13   4  -5  788.49  293.14   1
   9 -13  -5  997.83  296.60   1
  -9  13   5  487.87  278.25   1
   4   9  -2  -49.50   74.49   1
 -13   4  -2   82.30  109.93   1
  13  -4   2   84.70  115.68   1
  -9  13   2  129.79   94.34   1
   4   9   1 6682.95 1179.51   1
 -13   4   1 3535.93 1182.17   1
  13  -4  -1 5008.82 1165.30   1
  -4  -9  -4   14.95   41.01   1
 -13   4   4  -32.13   72.68   1
  13  -4  -4   49.13   74.45   1
  13  -4  -7 1964.75  534.65   1
  -4  -9 -10  270.16  109.04   1
  -4  -9 -10   -0.99   92.32   1
  13  -4 -13  -19.02   97.44   1
   4  10 -12  128.38   77.91   1
 -14   4 -12  -73.04  196.64   1
   4  10  -9  367.66  172.39   1
 -14   4  -9  448.07  229.26   1
  10 -14  -9  243.02  157.22   1
   4  10  -6 4453.46  990.21   1
 -14   4  -6 3390.85 1012.85   1
  10 -14  -6 4392.16  999.62   1
   4  10  -3 5058.77 1110.33   1
 -14   4  -3 5051.44 1138.44   1
  14  -4   3 4918.98 1130.57   1
  10 -14  -3 5157.58 1129.37   1
 -10  14   3 3538.27 1121.32   1
   4  10   020756.94 4278.71   1
 -14   4   016439.05 4278.21   1
  14  -4   022625.96 4285.79   1
 -10  14   018757.02 4281.74   1
   4  10   330083.73 5928.42   1
 -14   4   326341.41 5915.52   1
  14  -4  -325999.47 5899.76   1
 -14   4   6 6014.02 1440.17   1
  14  -4  -6 6384.62 1434.92   1
  14  -4  -9  684.13  255.39   1
   4  11 -13  533.91  178.07   1
 -15   4 -13   91.74  239.80   1
  11 -15 -13  363.75  166.90   1
   4  11 -10 2267.47  558.06   1
 -15   4 -10 2379.24  592.69   1
  11 -15 -10 1800.38  552.32   1
   4  11  -7 9234.21 1991.84   1
 -15   4  -7 6772.85 2025.58   1
  11 -15  -710225.34 2020.92   1
   4  11  -411099.70 2120.59   1
 -15   4  -4 9442.09 2147.47   1
  11 -15  -410030.33 2138.51   1
 -11  15   4 6836.84 2135.58   1
   4  11  -112255.13 2700.85   1
 -15   4  -111102.16 2717.45   1
  15  -4   113496.17 2722.40   1
 -11  15   111976.63 2727.86   1
   4  11   228658.57 6194.02   1
 -15   4   225198.71 6201.65   1
  15  -4  -232985.59 6226.38   1
 -15   4   5  148.91  128.63   1
  15  -4  -5  261.40  132.05   1
  15  -4  -8  219.90  143.46   1
  15  -4 -11  674.32  262.85   1
  15  -4 -14   72.28  111.18   1
   4  12 -11  127.17   92.61   1
 -16   4 -11    5.56  149.54   1
   4  12  -8 1118.98  332.89   1
 -16   4  -8 1067.00  378.39   1
  12 -16  -8  995.84  342.05   1
   4  12  -5   81.06  104.33   1
 -16   4  -5  123.75  131.37   1
  12 -16  -5  -90.26   95.76   1
 -12  16   5   31.59   78.87   1
   4  12  -2 1181.56  454.31   1
 -16   4  -2 1883.05  489.84   1
  16  -4   2 2393.19  484.52   1
 -12  16   2 1663.79  487.23   1
   4  12   1    1.99   78.45   1
  16  -4  -1  100.85   90.44   1
 -12  16  -1   27.45  106.02   1
 -16   4   4 1742.06  486.14   1
  16  -4  -4 1749.58  480.40   1
  16  -4  -7 2114.79  561.94   1
  16  -4 -10  212.47  127.40   1
  16  -4 -13    6.40   76.17   1
   4  13 -12  242.99  117.44   1
 -17   4 -12  -31.23  165.18   1
  13 -17 -12  117.03  123.49   1
   4  13  -9 3082.77  725.65   1
 -17   4  -9 2796.87  784.14   1
  13 -17  -9 2780.07  744.05   1
   4  13  -612912.69 2389.40   1
 -17   4  -610647.64 2418.35   1
  13 -17  -612487.50 2411.22   1
 -13  17   6 7338.64 2383.15   1
   4  13  -318871.64 3475.98   1
 -17   4  -313353.34 3473.36   1
  17  -4   316852.98 3494.11   1
 -13  17   313912.88 3501.67   1
 -17   4   0 4668.63 1375.91   1
  17  -4   0 7219.20 1385.24   1
 -13  17   0 5972.26 1380.52   1
   4  13   3 6791.44 1621.48   1
 -17   4   3 6487.12 1643.13   1
  17  -4  -3 8062.62 1632.11   1
 -17   4   6 1585.48  444.96   1
  17  -4  -6 1499.50  436.48   1
  17  -4  -9  165.17  126.72   1
  17  -4 -12  -10.85   73.51   1
   4  14 -13   84.18   93.09   1
 -18   4 -13 -124.66  138.75   1
   4  14 -10  503.43  197.67   1
  14 -18 -10  493.05  209.53   1
   4  14  -7  867.95  244.14   1
 -18   4  -7  444.26  282.80   1
  14 -18  -7  578.10  251.77   1
   4  14  -4 -131.93   91.55   1
 -18   4  -4  148.78   87.86   1
 -14  18   4    3.94   69.22   1
   4  14  -1   72.05   92.82   1
 -18   4  -1   85.48  120.84   1
  18  -4   1  145.54  147.51   1
   4  14   2  484.95  176.07   1
 -18   4   2  516.61  192.70   1
  18  -4  -2  247.31  185.22   1
 -14  18  -2  388.79  201.11   1
 -18   4   5 4252.51 1073.47   1
  18  -4  -5 4743.24 1072.96   1
  18  -4  -8  809.79  277.59   1
  18  -4 -11  785.21  272.77   1
   4  15 -11  118.28   83.72   1
 -19   4 -11   89.78  168.42   1
  15 -19 -11  -38.77  100.92   1
   4  15  -8  162.54  119.48   1
 -19   4  -8  233.40  222.71   1
  15 -19  -8   19.35  142.50   1
   4  15  -5 7513.57 1394.53   1
 -19   4  -5 4718.72 1392.72   1
  15 -19  -5 7512.15 1421.92   1
 -15  19   5 4511.20 1408.95   1
   4  15  -2  454.80  180.97   1
 -19   4  -2  657.84  199.29   1
  19  -4   2  363.92  214.20   1
 -15  19   2  182.07  200.87   1
   4  15   1 1708.35  399.56   1
 -19   4   1 1089.99  406.40   1
  19  -4  -1 1431.23  396.48   1
 -15  19  -1 1189.80  413.91   1
 -19   4   4 4371.35  987.35   1
  19  -4  -4 3770.04  971.65   1
  19  -4  -7  -14.66   82.86   1
  19  -4 -10  144.29  117.94   1
  19  -4 -13   36.41  110.11   1
   4  16 -12 1125.60  273.26   1
 -20   4 -12  439.10  314.97   1
   4  16  -9 4664.63  734.52   1
 -20   4  -9 2105.37  723.54   1
  16 -20  -9 2087.43  704.24   1
   4  16  -6 5289.25  948.13   1
 -20   4  -6 2445.76  932.54   1
  16 -20  -6 5383.17  979.07   1
 -16  20   6 3464.52  964.03   1
   4  16  -3 6815.43 1168.24   1
 -20   4  -3 4686.75 1194.75   1
  20  -4   3 4658.19 1190.11   1
 -16  20   3 2971.47 1196.54   1
   4  16   0 6949.49 1196.50   1
 -20   4   0 3310.32 1181.24   1
  20  -4   0 5827.16 1195.92   1
 -16  20   0 4178.13 1203.11   1
   4  16   3 3127.83  723.21   1
 -20   4   3 2775.46  715.58   1
  20  -4  -3 2547.42  719.39   1
 -16  20  -3 2681.17  724.66   1
 -20   4   6 1571.91  434.80   1
  20  -4  -6 1425.34  431.99   1
  20  -4  -9  494.47  207.03   1
  20  -4 -12  311.95  178.28   1
   4  17 -10   50.56   94.93   1
 -21   4 -10  183.49  189.86   1
  17 -21 -10  109.50  114.95   1
   4  17  -7   57.33  105.27   1
 -21   4  -7  169.99  127.39   1
  17 -21  -7   22.27  132.56   1
 -17  21   7   87.06   96.76   1
   4  17  -4 3327.03  617.27   1
 -21   4  -4 1722.86  654.58   1
  21  -4   4 2726.85  653.51   1
 -17  21   4 1532.97  626.86   1
   4  17  -1  790.08  292.01   1
 -21   4  -1  814.52  321.97   1
  21  -4   1 1212.11  340.48   1
 -17  21   1  924.75  329.39   1
 -21   4   2 5051.48 1298.23   1
   4  17   2 4405.82  946.00   1
  21  -4  -2 3317.60  920.55   1
 -17  21  -2 3463.14  956.99   1
 -21   4   5  424.83  230.38   1
  21  -4  -5  688.54  224.99   1
  21  -4  -8  -94.67   53.46   1
  21  -4 -11   39.49  121.68   1
   4  18 -11  131.97   96.73   1
 -22   4 -11  -75.24  124.59   1
   4  18  -8  195.17  120.35   1
 -22   4  -8   47.21  154.81   1
  18 -22  -8  307.76  154.03   1
   4  18  -5  488.69  210.09   1
 -22   4  -5  579.32  260.89   1
   4  18  -2  -21.17  108.84   1
 -22   4  -2  166.52  162.26   1
  22  -4   2  356.55  187.93   1
 -18  22   2   24.75  126.02   1
   4  18   1 3153.58  803.62   1
 -22   4   1 3176.76  814.16   1
  22  -4  -1 3498.95  817.39   1
 -18  22  -1 3058.64  822.86   1
 -22   4   4  408.19  153.38   1
  22  -4  -4   78.21  156.61   1
 -18  22  -4  -40.41  170.99   1
  22  -4  -7  301.30  166.82   1
  22  -4 -10  263.34  149.13   1
   4  19 -12   27.70   88.86   1
 -23   4 -12  -15.81  115.72   1
   4  19  -9  732.97  179.06   1
 -23   4  -9   67.22  203.99   1
   4  19  -6 1008.31  249.73   1
 -23   4  -6  589.12  301.20   1
 -19  23   6  421.35  259.62   1
   4  19  -3  233.56  128.47   1
 -23   4  -3  280.90  168.38   1
  23  -4   3   80.30  172.20   1
 -19  23   3   61.51  159.87   1
   4  19   0  690.42  215.21   1
 -23   4   0  417.25  226.22   1
  23  -4   0  514.82  237.06   1
 -19  23   0  298.70  247.04   1
   4  19   3  464.72  195.43   1
 -23   4   3  589.35  215.15   1
  23  -4  -3  475.25  189.15   1
 -19  23  -3   94.15  219.72   1
 -23   4   6  200.50  158.81   1
  23  -4  -6  205.19  159.10   1
 -19  23  -6  388.82  194.01   1
  23  -4  -9  695.97  252.03   1
  23  -4 -12   -4.22  112.19   1
 -19  23 -12  109.28  143.66   1
   4  20 -10  161.32  111.48   1
 -24   4 -10   14.32  122.20   1
   4  20  -7  662.58  202.63   1
 -24   4  -7  424.98  270.09   1
 -20  24   7  414.51  205.67   1
   4  20  -4 2063.79  480.55   1
 -24   4  -4 1928.00  522.96   1
  24  -4   4 2108.03  536.52   1
 -20  24   4  947.34  533.12   1
   4  20  -1  -57.78   57.27   1
 -24   4  -1   40.87  102.46   1
  24  -4   1  -37.72  134.11   1
 -20  24   1 -177.17  130.49   1
 -24   4   2  923.13  339.12   1
  24  -4  -2 1041.12  331.82   1
 -20  24  -2 1113.92  362.83   1
 -24   4   5  129.91  163.30   1
  24  -4  -5  307.92  176.45   1
 -20  24  -5  373.14  189.24   1
  24  -4  -8  470.68  192.40   1
 -20  24  -8  396.32  224.99   1
  24  -4 -11   91.10   99.87   1
 -20  24 -11 -105.11  140.16   1
   4  21 -11  -28.75   91.10   1
 -25   4 -11   34.44  131.92   1
   4  21  -8  -85.81   62.08   1
 -25   4  -8  101.47  152.88   1
   4  21  -5  185.09  117.87   1
 -21  25   5   90.06  121.66   1
   4  21  -2    7.90  100.97   1
 -25   4  -2  161.83  132.50   1
  25  -4   2  205.91  179.01   1
 -21  25   2   18.55  110.93   1
   4  21   1 2900.22  641.01   1
 -25   4   1 2125.65  653.44   1
  25  -4  -1 2724.96  656.70   1
 -21  25  -1 1971.89  674.06   1
 -25   4   4  936.14  300.66   1
  25  -4  -4  822.03  286.60   1
 -21  25  -4  811.23  315.79   1
 -25   4   7 3214.34  807.87   1
  25  -4  -7 3126.95  756.60   1
 -21  25  -7 2760.75  771.29   1
  25  -4 -10  706.55  245.70   1
 -21  25 -10  559.82  272.60   1
   4  22  -9  624.86  196.61   1
 -26   4  -9  146.05  248.65   1
   4  22  -6  132.01  103.10   1
 -26   4  -6   82.95  166.24   1
 -22  26   6   94.23  109.58   1
   4  22  -3 1649.19  415.16   1
 -26   4  -3 1246.55  425.73   1
  26  -4   3 1557.19  436.95   1
 -22  26   3 1202.45  443.77   1
   4  22   0   27.56   87.28   1
 -26   4   0  -99.07  124.72   1
 -22  26   0   56.59  131.51   1
   4  22   3 1193.91  266.53   1
 -26   4   3  448.52  277.76   1
  26  -4  -3  636.27  255.17   1
 -22  26  -3  682.28  298.10   1
 -26   4   6  393.35  168.71   1
  26  -4  -6  249.24  212.13   1
 -22  26  -6  245.86  195.44   1
  26  -4  -9  679.47  220.08   1
 -22  26  -9  335.48  245.11   1
   4  23 -10   27.50   94.51   1
 -27   4 -10   14.84  121.69   1
   4  23  -7  100.50   94.19   1
 -27   4  -7  178.33  166.24   1
   4  23  -4  259.21  114.09   1
 -27   4  -4  -20.00  151.68   1
  27  -4   4  211.47  166.43   1
 -23  27   4   81.42  125.97   1
   4  23  -1  178.70  144.80   1
 -27   4  -1  220.81  153.88   1
  27  -4   1  -60.05  173.16   1
 -23  27   1  334.85  160.86   1
   4  23   2 2039.45  510.78   1
 -27   4   2 1726.83  531.06   1
  27  -4  -2 2244.15  543.13   1
 -23  27  -2 1636.78  554.16   1
 -27   4   5  107.07  105.76   1
  27  -4  -5   39.18  103.14   1
 -23  27  -5   13.71  154.03   1
  27  -4  -8  784.57  222.23   1
 -23  27  -8  148.84  222.26   1
   4  24  -8  199.21  147.53   1
 -28   4  -8  224.36  172.90   1
 -24  28   8  187.80  135.72   1
   4  24  -5  142.74  107.71   1
 -24  28   5  106.07  133.13   1
   4  24  -2   98.00  127.94   1
 -28   4  -2   33.85  141.71   1
  28  -4   2  229.96  200.63   1
 -24  28   2  285.17  150.24   1
   4  24   1  230.23  123.73   1
 -28   4   1  -93.93  121.71   1
  28  -4  -1   76.70  156.22   1
 -24  28  -1  287.60  158.82   1
 -28   4   4 1988.75  579.90   1
  28  -4  -4 2232.29  558.59   1
 -24  28  -4 2360.17  601.81   1
  28  -4  -7 1708.46  483.49   1
 -24  28  -7 1668.54  537.98   1
  28  -4 -10  262.82  150.21   1
 -24  28 -10   45.10  143.62   1
   4  25  -9  256.47  135.90   1
 -29   4  -9   82.35  167.68   1
   4  25  -6  198.58  119.22   1
 -29   4  -6  197.08  153.03   1
 -25  29   6  126.96  139.84   1
   4  25  -3 1849.80  365.80   1
 -29   4  -3  943.56  342.35   1
  29  -4   3 1120.54  378.63   1
 -25  29   3  774.76  380.87   1
   4  25   0  336.44  193.44   1
 -29   4   0  455.78  208.05   1
  29  -4   0  440.72  227.68   1
 -25  29   0  325.56  232.35   1
   4  25   3  434.17  209.41   1
 -29   4   3  546.00  221.12   1
  29  -4  -3  522.27  229.34   1
 -25  29  -3  470.19  242.52   1
 -29   4   6   66.46  117.53   1
  29  -4  -6  178.67  109.73   1
 -25  29  -6  128.30  168.00   1
  29  -4  -9  269.67  169.56   1
 -25  29  -9  272.06  172.05   1
   4  26  -7 -103.30   98.53   1
 -30   4  -7  -20.53   95.48   1
 -26  30   7   32.47   83.80   1
   4  26  -4  161.92  130.40   1
 -30   4  -4  195.01  125.84   1
  30  -4   4  107.75  165.86   1
 -26  30   4  148.14  128.34   1
 -30   4  -1  388.61  204.18   1
  30  -4   1  495.52  206.77   1
 -26  30   1  303.11  187.41   1
   4  26   2  558.85  190.58   1
 -30   4   2  293.88  216.15   1
  30  -4  -2  683.39  227.34   1
 -26  30  -2  294.46  229.62   1
 -30   4   5  313.62  199.83   1
  30  -4  -5  415.56  191.02   1
 -26  30  -5  797.42  242.37   1
  30  -4  -8  418.48  172.44   1
 -26  30  -8  165.53  186.67   1
   4  27  -8  206.33  133.49   1
 -31   4  -8  210.96  157.52   1
 -27  31   8   85.81  125.07   1
   4  27  -5  894.61  229.46   1
 -31   4  -5  341.20  233.54   1
 -27  31   5  360.57  241.98   1
   4  27  -2 1934.86  406.16   1
 -31   4  -2 1290.80  400.82   1
  31  -4   2 1358.00  416.05   1
 -27  31   2  589.55  426.39   1
   4  27   1  242.74  135.84   1
 -31   4   1   26.63  132.50   1
  31  -4  -1  406.27  172.93   1
 -27  31  -1    2.91  183.59   1
 -31   4   4  274.68  208.50   1
  31  -4  -4  678.36  222.61   1
 -27  31  -4  581.53  237.65   1
  31  -4  -7  170.45  130.63   1
 -27  31  -7  205.37  161.52   1
   4  28  -6    3.32  105.10   1
 -32   4  -6  -65.98  108.06   1
 -28  32   6   72.16  107.22   1
   4  28  -3   93.22  102.40   1
 -32   4  -3  129.04  107.24   1
  32  -4   3  -67.82  128.75   1
 -28  32   3   26.09  124.96   1
   4  28   0  552.77  190.63   1
 -32   4   0  111.24  182.86   1
  32  -4   0  662.50  210.77   1
 -28  32   0  271.47  196.58   1
   4  28   3   49.05   85.83   1
 -32   4   3  112.08  126.78   1
  32  -4  -3   70.40  147.99   1
 -28  32  -3  240.70  142.46   1
 -32   4   6  242.98  146.82   1
  32  -4  -6  279.57  151.06   1
 -28  32  -6  252.22  172.04   1
   4  29  -7   58.85   96.62   1
 -33   4  -7   99.63  106.09   1
 -29  33   7 -173.64  101.98   1
   4  29  -4  165.90  110.76   1
 -33   4  -4  -52.31  142.93   1
  33  -4   4  147.42  191.41   1
 -29  33   4   97.24  108.69   1
   4  29  -1  298.83  133.44   1
 -33   4  -1 -139.85  119.91   1
  33  -4   1  131.59  156.67   1
 -29  33   1  131.32  124.41   1
   4  29   2  262.68  111.48   1
 -33   4   2   75.55  134.36   1
  33  -4  -2    0.69  146.01   1
 -29  33  -2  174.16  144.68   1
 -33   4   5   -8.26   97.04   1
  33  -4  -5  308.31  135.47   1
 -29  33  -5 -134.26  139.87   1
   4  30  -5   51.27  106.38   1
 -34   4  -5   -2.12  117.52   1
 -30  34   5  -21.75  110.61   1
   4  30  -2  116.98  109.74   1
 -34   4  -2    9.53  136.93   1
  34  -4   2  -84.75  151.30   1
 -30  34   2  194.37  113.43   1
   4  30   1  192.41  129.73   1
 -34   4   1  329.67  145.95   1
  34  -4  -1  146.73  167.90   1
 -30  34  -1   86.32  156.38   1
 -34   4   4   43.25  143.85   1
  34  -4  -4  496.16  172.26   1
 -30  34  -4  307.84  205.20   1
   4  31  -3  -24.65   81.66   1
 -35   4  -3   82.57  123.62   1
  35  -4   3  146.13  163.92   1
 -31  35   3  -37.33   96.03   1
   4  31   0  167.51  131.03   1
 -35   4   0  145.88  135.90   1
  35  -4   0  277.70  150.78   1
 -31  35   0   82.59  109.37   1
 -35   4   3   52.69  115.46   1
  35  -4  -3  362.25  161.81   1
 -31  35  -3  102.44  162.27   1
   4  32  -1   98.97  106.08   1
 -36   4  -1  104.52  106.07   1
  36  -4   1  -49.94  130.30   1
 -32  36   1   54.44  111.07   1
   4  32   2  -54.17  100.25   1
 -36   4   2   17.79   89.69   1
  36  -4  -2  146.22  117.62   1
 -32  36  -2  -10.68  128.67   1
   4  33   1  405.52  154.40   1
 -37   4   1   65.12  149.28   1
  37  -4  -1  311.58  172.25   1
   5   1 -14  -65.64   82.08   1
   5   1 -11  264.09  150.77   1
   1  -6 -11  183.75  139.22   1
   5   1  -8  357.87  183.44   1
   1  -6  -8  498.66  183.57   1
   5   1  -5   27.06   67.84   1
   1  -6  -5   37.45   50.49   1
   5   1  -2  197.91  108.85   1
  -5  -1   2  222.32  103.45   1
   5   1   1  818.80  233.88   1
  -5  -1  -1  697.60  233.77   1
  -6   5   1  534.84  235.57   1
   6  -5  -1  923.81  235.39   1
  -5  -1  -416004.58 2937.97   1
  -6   5   411310.57 2931.92   1
   6  -5  -412822.82 2931.87   1
   6  -5  -7 5380.90 1259.85   1
   6  -5 -13  576.21  220.45   1
  -1   6 -13  493.85  227.19   1
   5   2 -12  778.63  255.97   1
   5   2  -9 2955.41  700.66   1
   2  -7  -9 2696.43  731.03   1
   5   2  -6 2066.15  541.40   1
   5   2  -3 6092.48 1376.95   1
  -5  -2   0  762.03  321.75   1
  -7   5   0 1445.66  328.74   1
   7  -5   0 1350.98  322.15   1
  -5  -2  -3  815.81  234.70   1
  -7   5   3  671.96  226.20   1
   7  -5  -3  588.28  218.93   1
   7  -5  -6 4975.60 1180.32   1
   7  -5  -9 3130.52  779.45   1
   7  -5 -12   80.44  127.40   1
   5   3 -13  221.54  139.20   1
   3  -8 -13  172.21  137.12   1
   5   3 -10  973.95  295.03   1
   3  -8 -10  984.44  326.34   1
   5   3  -7  962.01  304.32   1
   5   3  -4 1711.68  432.73   1
   3  -8  -4 1528.07  439.50   1
   5   3  -1  162.21  101.46   1
  -5  -3   1   64.03   94.92   1
  -8   5  -1  193.01  122.38   1
   8  -5   1  331.96  111.89   1
   5   3   226438.70 5432.51   1
  -5  -3  -225414.66 5427.06   1
  -8   5   221999.98 5422.51   1
   8  -5  -226577.76 5421.24   1
  -5  -3  -569763.4114964.36   1
   8  -5  -569739.8314949.73   1
   8  -5  -822024.71 4803.45   1
   8  -5 -11 3962.26  983.51   1
  -5  -3 -14  323.45  186.78   1
  -5  -3 -14  183.20  129.98   1
   8  -5 -14  256.84  140.84   1
  -3   8 -14    1.51  143.98   1
   5   4 -14  518.58  180.94   1
   4  -9 -14  236.27  164.71   1
   5   4 -11 5011.02 1096.02   1
   4  -9 -11 4142.68 1113.46   1
   5   4  -814623.34 3035.99   1
   4  -9  -812495.85 3059.70   1
   5   4  -510229.71 2126.30   1
   4  -9  -5 8591.68 2142.51   1
   5   4  -233572.62 7202.02   1
  -9   5  -232687.97 7207.35   1
  -4   9   234243.06 7222.52   1
   5   4   1 3095.77  660.18   1
  -5  -4  -1 2532.64  662.56   1
  -9   5   1 2716.52  665.38   1
   9  -5  -1 2581.57  657.03   1
  -5  -4  -4 2946.83  686.63   1
  -9   5   4 2327.19  675.15   1
   9  -5  -4 2945.34  676.42   1
  -5  -4  -7  320.25  162.49   1
   9  -5  -7  257.91  159.22   1
  -5  -4 -10 1839.92  606.01   1
   9  -5 -10 2536.53  603.42   1
  -5  -4 -13   21.78  122.23   1
   9  -5 -13  231.46  140.62   1
   5   5 -12  392.94  170.02   1
   5 -10 -12  289.39  157.94   1
   5   5  -9 6286.19 1451.17   1
   5   5  -612033.84 2675.69   1
   5 -10  -612088.02 2691.02   1
   5   5  -342654.70 9243.71   1
 -10   5  -343945.20 9250.83   1
   5 -10  -349995.42 9265.26   1
  -5  10   336168.25 9257.16   1
  -5  -5   061299.2112273.66   1
 -10   5   050675.7512270.79   1
  10  -5   060786.4112283.65   1
   5   5   350938.3410252.46   1
  -5  -5  -344574.9910246.92   1
 -10   5   347090.3410242.45   1
  10  -5  -348265.0410243.04   1
  -5  -5  -612629.35 2849.14   1
  10  -5  -612894.15 2838.66   1
  -5  -5  -9 6583.78 1542.16   1
  10  -5  -9 6580.04 1509.55   1
  10  -5 -12  507.01  216.34   1
   5   6 -13  138.07   89.19   1
 -11   5 -13  -12.14  169.82   1
   6 -11 -13  -48.02   85.01   1
   5   6 -10  227.31  138.72   1
   6 -11 -10  214.94  130.77   1
   5   6  -7 7146.53 1576.03   1
   6 -11  -7 6562.09 1584.29   1
   5   6  -492084.8917143.54   1
 -11   5  -484590.5217159.52   1
   6 -11  -492299.8017155.74   1
  -6  11   450752.4817151.21   1
   5   6  -149463.85 9635.66   1
 -11   5  -147386.75 9651.05   1
  11  -5   137466.94 9636.75   1
  -6  11   145485.66 9640.83   1
   5   6   246100.4211314.72   1
  -5  -6  -251939.0211334.10   1
 -11   5   253765.4111334.41   1
  11  -5  -262206.2511337.85   1
  -5  -6  -525981.57 6276.17   1
 -11   5   531536.57 6282.58   1
  11  -5  -529674.77 6282.09   1
  -5  -6  -8 5875.53 1439.50   1
  11  -5  -8 6540.95 1446.24   1
  -5  -6 -11  -65.44  149.13   1
  11  -5 -11  344.89  155.33   1
  -5  -6 -14   86.97  159.73   1
  -5  -6 -14   93.92  104.62   1
  11  -5 -14  158.55  119.08   1
   5   7 -14  102.17  106.37   1
 -12   5 -14  114.45  150.92   1
   7 -12 -14  -17.23   91.05   1
   5   7 -11  413.55  168.49   1
 -12   5 -11  159.67  246.66   1
   7 -12 -11  448.16  175.60   1
   5   7  -8  156.51   96.14   1
 -12   5  -8 -112.28  115.72   1
   7 -12  -8  -13.03   83.86   1
   5   7  -5  164.89  136.61   1
 -12   5  -5  448.62  164.72   1
   7 -12  -5  169.11  143.53   1
   5   7  -2 1116.54  333.68   1
 -12   5  -2 1127.67  354.81   1
  12  -5   2 1327.70  351.45   1
  -7  12   2 1138.99  356.03   1
   5   7   1   79.71   80.54   1
  -5  -7  -1   40.92   74.36   1
 -12   5   1   89.01   98.96   1
  12  -5  -1  152.59  100.60   1
  -5  -7  -4   87.86   68.63   1
 -12   5   4   29.15   90.22   1
  12  -5  -4   72.15   87.28   1
  -5  -7  -7  452.77  209.03   1
  12  -5  -7  484.58  203.48   1
  -5  -7 -13 -106.86   54.93   1
  12  -5 -13   22.93   88.70   1
   5   8 -12 1536.93  411.13   1
 -13   5 -12 1233.23  440.42   1
   8 -13 -12 1608.18  410.74   1
   5   8  -9 5272.15 1103.97   1
 -13   5  -9 3164.53 1113.15   1
   8 -13  -9 5803.91 1127.30   1
   5   8  -616048.17 3352.95   1
 -13   5  -612255.12 3354.96   1
   8 -13  -617911.48 3370.15   1
   5   8  -328536.15 5762.88   1
 -13   5  -328334.02 5784.63   1
  -8  13   322338.97 5782.42   1
   5   8   0 3966.26  971.65   1
 -13   5   0 3660.24  984.96   1
  13  -5   0 4732.74  981.60   1
  -5  -8  -3 6172.55 1622.63   1
 -13   5   3 7221.62 1626.62   1
  13  -5  -3 7803.18 1613.94   1
  -5  -8  -6  737.44  372.62   1
 -13   5   6 1348.59  369.59   1
  13  -5  -6 1518.63  367.30   1
  -5  -8  -9  521.75  291.25   1
  13  -5  -9 1087.69  287.72   1
  -5  -8 -12  -51.00   73.81   1
  -5  -8 -12   11.32   46.44   1
   5   9 -13  -18.66  108.50   1
   9 -14 -13   64.40   69.09   1
   5   9 -10  356.90  142.50   1
 -14   5 -10  131.60  218.24   1
   9 -14 -10  208.14  127.06   1
   5   9  -7  229.50  145.67   1
 -14   5  -7  228.03  180.21   1
   5   9  -4  492.20  208.25   1
 -14   5  -4  819.46  247.74   1
   9 -14  -4  693.36  220.99   1
  -9  14   4  306.89  211.69   1
   5   9  -1  603.36  197.32   1
 -14   5  -1  367.83  205.24   1
  14  -5   1  648.91  224.96   1
  -9  14   1  493.64  210.53   1
   5   9   2 8188.73 1675.95   1
  -5  -9  -2 6829.72 1674.01   1
 -14   5   2 6197.50 1682.65   1
  14  -5  -2 8286.24 1684.70   1
  -5  -9  -5 5881.01 2073.06   1
 -14   5   511174.51 2066.06   1
  14  -5  -5 9888.56 2049.14   1
  14  -5  -814009.63 3082.84   1
  -5  -9 -11  499.79  485.03   1
  14  -5 -11 3991.32  525.45   1
  14  -5 -14  822.76  283.54   1
   5  10 -14  281.90  132.54   1
 -15   5 -14   14.43  197.34   1
   5  10 -11 1783.98  428.69   1
 -15   5 -11 1123.48  472.69   1
  10 -15 -11 1692.60  418.47   1
   5  10  -8 4445.56 1044.68   1
 -15   5  -8 4004.03 1053.27   1
  10 -15  -8 4792.09 1055.77   1
   5  10  -511788.47 2339.84   1
 -15   5  -512392.26 2377.41   1
 -10  15   5 7507.16 2349.76   1
   5  10  -2  426.45  123.70   1
 -15   5  -2  131.77  138.23   1
  15  -5   2  166.91  104.45   1
 -15   5   111454.71 4373.53   1
   5  10   113481.13 2907.69   1
  15  -5  -114014.16 2897.54   1
   5  10   4 2620.18  661.22   1
  -5 -10  -4 1636.76  635.45   1
 -15   5   4 2616.36  650.90   1
  15  -5  -4 3213.64  643.11   1
  15  -5  -7 1253.21  376.13   1
  15  -5 -10 1993.21  546.29   1
  15  -5 -13  430.19  191.42   1
   5  11 -12 4206.17  994.80   1
   5  11  -9 9424.45 2086.82   1
  11 -16  -9 9133.89 2106.94   1
   5  11  -628418.87 5501.15   1
 -16   5  -621372.36 5515.48   1
  11 -16  -631899.12 5532.12   1
 -11  16   620255.80 5512.75   1
   5  11  -313459.49 2874.07   1
 -16   5  -312971.04 2892.60   1
  16  -5   314353.34 2898.84   1
 -11  16   310896.98 2905.97   1
   5  11   0 9117.50 1782.70   1
 -16   5   0 6682.55 1782.24   1
  16  -5   0 8301.72 1782.71   1
 -11  16   0 7184.22 1786.87   1
   5  11   3  365.43  149.43   1
 -16   5   3  358.80  157.04   1
  16  -5  -3   83.93  160.83   1
 -16   5   6 1653.23  456.39   1
  16  -5  -6 1545.83  449.82   1
  16  -5  -9  849.59  288.00   1
  16  -5 -12  265.23  138.12   1
   5  12 -13  272.86  149.16   1
 -17   5 -13  176.00  193.84   1
   5  12 -10 1339.07  412.46   1
 -17   5 -10 1005.52  469.60   1
  12 -17 -10 2103.71  440.23   1
   5  12  -7  149.84   85.50   1
 -17   5  -7 -181.39  142.27   1
   5  12  -4  458.59  207.18   1
 -17   5  -4  668.61  252.52   1
   5  12  -1 3657.12  838.45   1
 -17   5  -1 3068.26  855.15   1
  17  -5   1 3942.22  868.36   1
 -12  17   1 3151.23  873.23   1
   5  12   212188.96 2243.33   1
 -17   5   2 8656.20 2244.52   1
  17  -5  -2 9309.49 2222.52   1
 -17   5   515987.02 3510.10   1
  17  -5  -515886.81 3510.37   1
  17  -5  -8 4308.32 1031.92   1
  17  -5 -11 1343.25  397.71   1
   5  13 -11  120.60   82.73   1
 -18   5 -11   -0.32  166.74   1
  13 -18 -11   11.01   86.46   1
   5  13  -8  360.74  167.72   1
  13 -18  -8  196.70  159.54   1
   5  13  -5 1364.53  338.21   1
 -18   5  -5 1033.81  361.92   1
 -13  18   5  872.21  342.12   1
   5  13  -2 3763.78  872.66   1
 -18   5  -2 3654.99  901.60   1
  18  -5   2 3283.59  885.21   1
 -13  18   2 3697.33  915.65   1
   5  13   1  728.97  193.40   1
 -18   5   1  354.30  196.63   1
  18  -5  -1  493.50  207.09   1
 -13  18  -1  213.10  205.21   1
   5  13   4   80.95  123.08   1
 -18   5   4  212.35  157.77   1
  18  -5  -4  227.00  142.20   1
  18  -5  -7 1893.70  517.71   1
  18  -5 -10  131.74  120.30   1
  18  -5 -13  188.11  148.00   1
   5  14 -12  183.41  121.46   1
 -19   5 -12  -78.61  165.02   1
   5  14  -9  270.15  120.93   1
 -19   5  -9  109.45  189.61   1
  14 -19  -9   76.18  133.26   1
   5  14  -6 7109.68 1372.44   1
 -19   5  -6 6637.49 1416.81   1
  14 -19  -6 5953.76 1392.27   1
 -14  19   6 4274.16 1371.46   1
   5  14  -319058.76 4086.51   1
 -19   5  -317633.50 4122.95   1
  19  -5   320100.15 4126.51   1
 -14  19   317776.69 4162.60   1
   5  14   028763.97 4968.83   1
 -19   5   016393.40 4957.47   1
  19  -5   025130.12 4958.80   1
 -14  19   021273.98 4963.41   1
   5  14   322722.33 5583.31   1
 -19   5   327029.31 5602.11   1
  19  -5  -328129.63 5603.52   1
 -19   5   6 8632.09 1968.36   1
  19  -5  -6 8732.78 1967.02   1
  19  -5  -9   40.67   95.92   1
  19  -5 -12   42.91  112.85   1
   5  15 -13  -31.11   96.50   1
 -20   5 -13  109.76  170.80   1
   5  15 -10  652.02  205.84   1
 -20   5 -10  709.67  274.65   1
  15 -20 -10  330.79  212.70   1
   5  15  -710633.89 2255.26   1
 -20   5  -710027.46 2306.53   1
  15 -20  -7 9406.59 2279.19   1
   5  15  -422288.90 3751.49   1
 -20   5  -416912.16 3757.43   1
 -15  20   410756.43 3767.92   1
   5  15  -125327.87 4991.31   1
 -20   5  -117850.36 5010.93   1
  20  -5   126860.75 5020.14   1
 -15  20   121398.36 5009.44   1
   5  15   235954.56 6944.60   1
 -20   5   236567.29 6949.09   1
  20  -5  -228333.04 6914.59   1
 -15  20  -229215.90 6952.60   1
 -20   5   522934.05 4979.77   1
  20  -5  -522738.75 4973.36   1
  20  -5  -8 2472.65  643.59   1
  20  -5 -11  701.81  252.22   1
   5  16 -11   50.78   99.44   1
 -21   5 -11  -91.27  162.48   1
   5  16  -8  -14.17   94.34   1
 -21   5  -8   14.52  199.74   1
  16 -21  -8  282.09  119.94   1
   5  16  -5 1228.56  284.64   1
 -21   5  -5  686.18  291.19   1
 -16  21   5  604.12  296.00   1
   5  16  -2 2263.86  565.74   1
 -21   5  -2 2003.04  581.41   1
  21  -5   2 2090.33  586.78   1
   5  16   1 5384.93 1071.12   1
 -21   5   1 4020.59 1061.46   1
  21  -5  -1 4953.07 1071.07   1
 -16  21  -1 3350.71 1066.63   1
 -21   5   4 7062.11 1579.95   1
  21  -5  -4 6567.40 1581.70   1
 -21   5   7 7482.68 1702.36   1
  21  -5  -7 7388.25 1697.77   1
  21  -5 -10 4254.22 1028.11   1
   5  17 -12  258.96  138.86   1
 -22   5 -12  126.78  177.90   1
   5  17  -9 1262.30  321.64   1
 -22   5  -9  751.97  377.01   1
   5  17  -6 4553.76  815.14   1
 -22   5  -6 2435.06  820.05   1
 -17  22   6 2807.46  836.45   1
   5  17  -3 8273.76 1675.22   1
 -22   5  -3 7713.85 1710.89   1
  22  -5   3 8583.37 1717.74   1
 -17  22   3 4293.69 1720.14   1
   5  17   0 4032.40  780.48   1
 -22   5   0 2718.17  769.53   1
  22  -5   0 3016.08  776.92   1
 -17  22   0 2451.94  792.32   1
   5  17   3   35.74  114.70   1
 -22   5   3  206.23  131.18   1
  22  -5  -3   10.93  119.46   1
 -17  22  -3  244.94  162.09   1
 -22   5   6  332.40  173.38   1
  22  -5  -6  294.71  171.51   1
  22  -5  -9  375.67  186.01   1
  22  -5 -12  368.20  191.17   1
   5  18 -10  293.52  158.26   1
 -23   5 -10  201.83  182.99   1
   5  18  -7   13.92  101.56   1
 -23   5  -7  124.96  118.65   1
 -18  23   7  133.64   94.38   1
   5  18  -4  132.29  127.58   1
 -23   5  -4  345.28  185.88   1
  23  -5   4  262.28  191.69   1
   5  18  -1  649.35  238.49   1
 -23   5  -1  535.70  261.74   1
  23  -5   1  854.73  280.54   1
 -18  23   1  593.10  273.84   1
  23  -5  -2 1538.58  518.04   1
   5  18   2 1325.60  387.17   1
 -23   5   2 1247.19  406.98   1
 -18  23  -2 1090.70  407.48   1
 -23   5   5  245.68  158.69   1
  23  -5  -5   25.49  169.16   1
 -18  23  -5  419.39  190.69   1
  23  -5  -8   -6.81   90.11   1
  23  -5 -11  251.86  163.45   1
   5  19 -11  405.04  138.46   1
 -24   5 -11  -49.83  149.76   1
   5  19  -8 1810.69  420.93   1
 -24   5  -8 1155.91  445.82   1
   5  19  -5  745.98  215.37   1
 -24   5  -5  622.79  267.27   1
 -19  24   5  269.49  224.76   1
   5  19  -2  356.26  158.33   1
 -24   5  -2  205.39  189.23   1
  24  -5   2  296.91  213.26   1
 -19  24   2  171.55  160.22   1
  24  -5  -1 1384.37  520.19   1
   5  19   1 1636.54  401.05   1
 -24   5   1 1032.12  397.41   1
 -19  24  -1 1132.89  408.90   1
 -24   5   4 1328.74  464.45   1
  24  -5  -4 1529.13  448.59   1
 -19  24  -4 2227.25  514.02   1
 -24   5   7 1041.45  352.78   1
  24  -5  -7 1205.72  350.20   1
  24  -5 -10  670.03  259.71   1
   5  20  -9 7420.39 1308.69   1
 -25   5  -9 3053.60 1337.39   1
   5  20  -612310.96 2043.49   1
 -20  25   6 5039.49 2058.34   1
   5  20  -3 6924.50 1318.52   1
 -25   5  -3 5143.86 1330.43   1
  25  -5   3 5766.32 1333.80   1
 -20  25   3 3991.32 1366.45   1
   5  20   0 6526.10 1192.75   1
 -25   5   0 4374.64 1177.47   1
  25  -5   0 4924.99 1180.88   1
 -20  25   0 4051.56 1199.71   1
   5  20   3  547.81  218.94   1
 -25   5   3  408.79  227.21   1
  25  -5  -3  494.89  212.64   1
 -20  25  -3  590.40  240.26   1
 -25   5   6 1637.04  459.40   1
  25  -5  -6 1656.52  475.27   1
 -20  25  -6 1634.82  482.26   1
  25  -5  -9  178.89  132.93   1
 -20  25  -9  164.31  184.28   1
   5  21 -10  317.14  137.68   1
 -26   5 -10  -47.19  179.09   1
   5  21  -7 2127.25  390.07   1
 -26   5  -7 1600.80  448.89   1
 -21  26   7  610.36  380.57   1
   5  21  -4 2823.25  554.45   1
 -26   5  -4 1850.09  552.04   1
  26  -5   4 2567.74  589.94   1
 -21  26   4 1238.47  558.11   1
   5  21  -1 3231.95  661.41   1
 -26   5  -1 2204.02  652.24   1
  26  -5   1 2644.33  664.66   1
 -21  26   1 1755.33  687.38   1
   5  21   2 2853.11  576.14   1
 -26   5   2 1669.47  580.62   1
  26  -5  -2 2200.38  589.96   1
 -21  26  -2 1844.81  595.03   1
 -26   5   5  353.51  178.54   1
  26  -5  -5  262.24  176.65   1
 -21  26  -5  418.11  202.17   1
  26  -5  -8  490.30  177.36   1
 -21  26  -8  110.68  190.37   1
  26  -5 -11  177.83  126.89   1
 -21  26 -11   36.22  153.75   1
   5  22  -8  320.38  123.09   1
 -27   5  -8   91.50  171.01   1
   5  22  -5 3555.65  745.37   1
 -27   5  -5 2310.62  765.78   1
   5  22  -2 2490.48  414.18   1
 -27   5  -2 1133.27  405.58   1
  27  -5   2 1580.93  422.99   1
 -22  27   2  598.54  383.31   1
   5  22   111793.73 2287.37   1
 -27   5   1 9021.06 2295.58   1
  27  -5  -110979.18 2291.35   1
 -22  27  -1 8306.42 2320.65   1
 -27   5   4 5128.80 1138.06   1
  27  -5  -4 4350.03 1108.94   1
 -22  27  -4 5100.80 1148.97   1
 -27   5   7  390.78  219.16   1
  27  -5  -7  625.88  233.03   1
 -22  27  -7  635.01  238.67   1
  27  -5 -10  -64.80  107.03   1
 -22  27 -10   -7.18  119.79   1
   5  23  -9   13.37  109.03   1
 -28   5  -9   97.35  138.03   1
   5  23  -6   95.66  107.94   1
 -28   5  -6  183.42  170.08   1
   5  23  -3 1133.12  258.20   1
 -28   5  -3  461.14  255.37   1
  28  -5   3  557.53  274.86   1
 -23  28   3  478.10  274.45   1
   5  23   0 1095.69  310.23   1
 -28   5   0  668.80  323.76   1
  28  -5   0 1120.89  344.06   1
 -23  28   0  791.75  339.31   1
   5  23   3 1449.18  343.93   1
 -28   5   3  892.98  353.10   1
  28  -5  -3 1121.19  354.12   1
 -23  28  -3  894.67  371.54   1
 -28   5   6  358.23  182.29   1
  28  -5  -6  300.01  175.43   1
 -23  28  -6  518.55  205.39   1
  28  -5  -9   67.18  129.62   1
 -23  28  -9   68.99  139.94   1
   5  24  -7   52.91   95.22   1
 -29   5  -7   45.02  154.95   1
 -24  29   7  163.72  105.78   1
   5  24  -4   40.65  105.19   1
 -29   5  -4   74.46  117.00   1
  29  -5   4   36.67  144.87   1
 -24  29   4   24.93   53.53   1
   5  24  -1  668.59  208.26   1
 -29   5  -1  253.96  210.70   1
  29  -5   1  612.74  219.39   1
 -24  29   1  291.16  200.13   1
   5  24   2 1221.21  309.92   1
 -29   5   2  698.48  309.26   1
  29  -5  -2 1047.43  327.95   1
 -24  29  -2  708.73  341.01   1
 -29   5   5  242.08  144.73   1
  29  -5  -5  233.50  137.32   1
 -24  29  -5  221.23  193.21   1
  29  -5  -8  454.14  226.72   1
 -24  29  -8  563.53  232.29   1
   5  25  -8   69.22  114.54   1
 -30   5  -8   18.89  127.49   1
 -25  30   8   43.99   94.34   1
   5  25  -5   54.98  116.26   1
 -30   5  -5  -77.25  132.26   1
 -25  30   5  278.58  122.99   1
   5  25  -2  102.48  122.74   1
 -30   5  -2  207.12  142.22   1
  30  -5   2  311.03  182.43   1
 -25  30   2   21.85  142.66   1
   5  25   1  911.88  277.10   1
 -30   5   1  529.40  284.96   1
  30  -5  -1 1014.68  304.76   1
 -25  30  -1  758.72  304.72   1
 -30   5   4 2870.02  821.67   1
  30  -5  -4 3698.78  818.40   1
 -25  30  -4 3375.00  838.74   1
 -30   5   7 2234.10  614.90   1
  30  -5  -7 2566.83  608.15   1
 -25  30  -7 2293.32  632.21   1
   5  26  -6   -8.05   91.45   1
 -31   5  -6  183.91  110.89   1
 -26  31   6  -61.15  103.89   1
   5  26  -3   88.65   99.05   1
 -31   5  -3  -25.78   99.17   1
  31  -5   3    3.79  129.32   1
 -26  31   3   70.72  121.64   1
   5  26   0   62.36  110.31   1
 -31   5   0  -57.90  117.08   1
  31  -5   0   28.57  129.47   1
 -26  31   0  -12.09  136.42   1
   5  26   3  164.38  115.71   1
 -31   5   3  345.18  155.64   1
  31  -5  -3  288.08  169.61   1
 -26  31  -3  128.57  182.16   1
 -31   5   6  268.23  165.08   1
  31  -5  -6  308.39  166.35   1
 -26  31  -6  500.86  231.96   1
   5  27  -7  580.43  170.41   1
 -32   5  -7  172.06  184.87   1
 -27  32   7  149.47  164.64   1
   5  27  -4  768.26  183.15   1
 -32   5  -4   19.34  196.45   1
  32  -5   4  556.38  227.84   1
 -27  32   4  124.17  189.33   1
   5  27  -1  232.73  142.71   1
 -32   5  -1   71.31  152.16   1
  32  -5   1  258.37  175.84   1
 -27  32   1  133.73  130.64   1
   5  27   2   68.25   91.72   1
 -32   5   2   14.81  113.26   1
  32  -5  -2  -14.19  135.15   1
 -27  32  -2  157.43  174.48   1
 -32   5   5  201.87  137.68   1
  32  -5  -5  314.64  165.80   1
 -27  32  -5  105.10  168.00   1
  32  -5  -8   -6.04   90.24   1
 -27  32  -8  104.18  122.98   1
   5  28  -5 -107.42   57.97   1
 -33   5  -5  -62.77  108.38   1
 -28  33   5  -63.11   77.16   1
   5  28  -2  457.69  162.80   1
 -33   5  -2   28.61  161.75   1
  33  -5   2  352.48  170.27   1
 -28  33   2  161.58  180.57   1
   5  28   1  896.36  255.89   1
 -33   5   1  389.60  299.44   1
  33  -5  -1  998.73  286.18   1
 -28  33  -1  379.91  298.54   1
 -33   5   4  911.35  352.55   1
  33  -5  -4 1424.85  377.54   1
 -28  33  -4 1236.11  387.16   1
  33  -5  -7  774.43  260.51   1
 -28  33  -7  767.73  286.33   1
   5  29  -6 1411.12  225.97   1
 -34   5  -6  182.18  214.09   1
 -29  34   6  210.58  222.00   1
 -34   5  -3  548.31  233.79   1
  34  -5   3  935.29  271.88   1
 -29  34   3  152.45  239.43   1
   5  29   0  706.94  226.26   1
 -34   5   0  485.19  236.33   1
  34  -5   0  866.37  244.95   1
 -29  34   0  273.65  226.80   1
   5  29   3   45.59  101.82   1
 -34   5   3  120.77  116.89   1
  34  -5  -3  149.15  133.41   1
 -29  34  -3  103.97  169.30   1
 -34   5   6  117.08   93.27   1
  34  -5  -6  138.30  128.96   1
 -29  34  -6  -94.09  128.15   1
   5  30  -4  509.38  162.84   1
 -35   5  -4  382.13  190.29   1
 -30  35   4  101.66  163.61   1
   5  30  -1 3000.36  525.91   1
 -35   5  -1 1512.96  506.91   1
  35  -5   1 1914.81  513.61   1
 -30  35   1  926.22  529.86   1
   5  30   2 1775.11  374.56   1
 -35   5   2  811.15  362.62   1
  35  -5  -2 1246.55  376.86   1
 -30  35  -2  964.44  394.28   1
 -35   5   5  383.29  197.49   1
  35  -5  -5  562.67  225.28   1
 -30  35  -5  611.38  235.36   1
   5  31  -2 2632.31  430.64   1
 -36   5  -2  818.54  418.86   1
  36  -5   2 1707.29  443.05   1
 -31  36   2  680.96  427.88   1
  36  -5  -1 3685.26  700.98   1
 -36   5   1 1728.00  488.20   1
 -31  36  -1 1229.88  470.96   1
 -36   5   4  101.96  151.77   1
  36  -5  -4  564.34  176.38   1
 -31  36  -4  305.69  200.60   1
   5  32   0  100.80   98.90   1
 -37   5   0  -19.06   97.31   1
  37  -5   0  144.07  122.09   1
 -32  37   0  -44.67  114.51   1
   6   1 -13  -59.42  108.75   1
   1  -7 -13   81.03   83.70   1
   6   1 -10  109.04  103.78   1
   1  -7 -10   70.08  101.99   1
   6   1  -7 1158.51  331.57   1
   1  -7  -7 1005.20  338.49   1
   6   1  -4  452.59  174.34   1
   6   1  -1  959.46  245.28   1
  -6  -1   1  545.34  249.27   1
  -7   6  -1  963.51  253.71   1
   6   1   242004.50 8015.03   1
  -6  -1  -241043.71 8020.60   1
  -7   6   229254.62 8014.45   1
   7  -6  -237132.21 8010.18   1
  -6  -1  -5   28.32   70.46   1
   7  -6  -5  -57.46   53.02   1
   7  -6  -8  846.08  285.42   1
   7  -6 -11  499.19  233.58   1
  -6  -1 -14  157.06  146.57   1
  -6  -1 -14  -45.54  103.00   1
   7  -6 -14  -59.57  105.69   1
  -1   7 -14  -71.54   91.24   1
   6   2 -14  -75.32  156.28   1
   2  -8 -14  532.48  157.54   1
   6   2 -11  234.36  149.56   1
   2  -8 -11  300.28  155.05   1
   6   2  -8 1146.11  332.44   1
   2  -8  -8  987.50  336.76   1
   6   2  -5   24.63   66.93   1
   2  -8  -5   19.15   46.11   1
   6   2  -211464.35 2767.52   1
  -6  -2   212588.87 2763.32   1
  -8   6  -213912.08 2774.78   1
   6   2   124249.24 5370.77   1
  -6  -2  -122429.47 5378.72   1
  -8   6   126347.44 5392.17   1
   8  -6  -127103.99 5383.80   1
  -6  -2  -478370.2113848.29   1
  -8   6   452750.2613836.93   1
   8  -6  -718851.56 4146.98   1
   8  -6 -1012578.57 2823.32   1
   8  -6 -13  674.25  251.41   1
   6   3 -12 2282.52  447.46   1
   3  -9 -12  943.19  435.11   1
   6   3  -9 1509.43  429.14   1
   6   3  -6 4992.60 1114.42   1
   3  -9  -6 4463.21 1125.08   1
   6   3  -3 5227.15 1186.24   1
  -9   6  -3 5069.83 1201.78   1
  -6  -3   0  676.97  204.77   1
  -9   6   0  564.91  225.07   1
   9  -6   0  580.18  213.88   1
   6   3   342108.30 7553.32   1
  -6  -3  -331957.79 7532.87   1
  -9   6   331609.76 7551.17   1
   9  -6  -335460.60 7541.41   1
  -6  -3  -6 7889.62 1847.16   1
   9  -6  -6 8260.07 1830.25   1
  -6  -3  -9 4384.10 1092.42   1
   9  -6  -9 4555.54 1065.97   1
  -6  -3 -12  773.11  339.05   1
   9  -6 -12 1131.41  334.17   1
   6   4 -13  126.57  107.24   1
   4 -10 -13   15.74   94.24   1
   6   4 -10  924.84  280.00   1
   4 -10 -10  743.96  280.68   1
   6   4  -7 4016.82  903.81   1
   4 -10  -7 3417.30  915.45   1
   6   4  -412081.54 2896.99   1
 -10   6  -414682.46 2920.60   1
   6   4  -1 7212.15 1343.55   1
  -6  -4   1 4681.49 1337.65   1
 -10   6  -1 5969.24 1353.75   1
   6   4   2  497.44  174.92   1
  -6  -4  -2  338.46  157.38   1
  10  -6  -2  373.85  163.74   1
 -10   6   5  645.06  226.12   1
  10  -6  -5  664.89  233.46   1
  10  -6  -8  186.56  134.60   1
  -6  -4 -11  129.44  141.02   1
  10  -6 -11   64.67  131.92   1
  -6  -4 -14  117.05  145.40   1
  -6  -4 -14  -84.08   75.28   1
   6   5 -14  200.04  136.43   1
 -11   6 -14  272.38  195.61   1
   5 -11 -14  114.13  125.01   1
   6   5 -11  221.21  134.59   1
   6   5  -8 6102.43 1369.59   1
   5 -11  -8 5732.32 1371.96   1
   6   5  -532309.24 6966.49   1
 -11   6  -532167.46 6993.03   1
 -11   6  -258392.0912433.51   1
  -5  11   257391.3712437.93   1
  -6  -5  -149692.30 9930.86   1
 -11   6   139633.54 9927.13   1
  11  -6  -149956.29 9936.95   1
  -6  -5  -472902.7216565.90   1
 -11   6   476452.2316563.95   1
  11  -6  -481265.0916547.38   1
  -6  -5  -7 5178.94 1353.67   1
  11  -6  -7 6174.71 1342.43   1
  -6  -5 -10  163.13  156.98   1
  -6  -5 -13  257.68  194.10   1
  -6  -5 -13  104.43  121.59   1
   6   6 -12  -46.42   89.11   1
 -12   6 -12  117.24  183.15   1
   6 -12 -12  143.84   95.55   1
   6   6  -9 1782.00  490.75   1
   6 -12  -9 1836.40  487.61   1
   6   6  -6  874.40  274.17   1
 -12   6  -6  800.63  301.09   1
   6   6  -3 4173.76  873.19   1
 -12   6  -3 4078.45  887.92   1
  -6  12   3 2517.96  889.94   1
   6   6   0  401.55  158.64   1
  -6  -6   0  360.56  153.61   1
 -12   6   0  284.72  165.58   1
  12  -6   0  521.08  187.43   1
   6   6   3 3846.01  862.97   1
  -6  -6  -3 2722.95  856.74   1
 -12   6   3 3685.60  863.25   1
  12  -6  -3 3921.13  854.11   1
  12  -6  -6  445.82  183.05   1
  -6  -6  -9 1270.15  457.55   1
  12  -6  -9 1872.66  456.48   1
  -6  -6 -12   96.24  133.88   1
   6   7 -13   36.64   94.95   1
 -13   6 -13   13.50  171.25   1
   7 -13 -13  157.54   94.62   1
   6   7 -10  693.48  243.43   1
 -13   6 -10  597.20  310.00   1
   7 -13 -10  763.38  257.43   1
   6   7  -7 6573.42 1462.95   1
 -13   6  -7 6074.00 1492.42   1
   6   7  -414823.46 3224.79   1
 -13   6  -414506.64 3241.92   1
   6   7  -118114.26 3840.92   1
 -13   6  -116576.10 3835.26   1
  13  -6   117678.92 3841.51   1
  -7  13   118043.44 3845.27   1
   6   7   211643.68 2397.09   1
  -6  -7  -211085.43 2398.70   1
 -13   6   210088.39 2398.25   1
  13  -6  -210345.81 2384.42   1
  -6  -7  -5   36.11   69.86   1
 -13   6   5  -15.61   77.82   1
  13  -6  -5  106.22   85.07   1
  -6  -7  -8  121.65  194.06   1
  13  -6  -8  463.78  165.23   1
  -6  -7 -11   70.76  166.73   1
  13  -6 -11  514.91  181.44   1
  -6  -7 -14 -195.77  108.76   1
  -6  -7 -14   81.44   60.82   1
  13  -6 -14  -30.45   60.44   1
   6   8 -14   52.61  109.99   1
 -14   6 -14  149.02  187.16   1
   6   8 -11 1462.19  358.17   1
 -14   6 -11  997.41  391.04   1
   8 -14 -11 1187.04  355.28   1
   6   8  -814389.68 3295.07   1
 -14   6  -813770.19 3330.19   1
   8 -14  -817141.04 3331.21   1
   6   8  -526026.58 4859.01   1
 -14   6  -520420.43 4878.87   1
   8 -14  -528187.16 4887.38   1
  -8  14   514856.46 4870.85   1
   6   8  -227986.77 5635.13   1
 -14   6  -227218.31 5653.90   1
  14  -6   222707.34 5633.61   1
  -8  14   226575.34 5661.57   1
   6   8   1 8569.41 2045.37   1
  -6  -8  -1 8816.38 2045.13   1
 -14   6   1 7510.25 2060.85   1
  14  -6  -111997.18 2063.13   1
  -6  -8  -4   37.86   77.55   1
 -14   6   4  102.05  103.56   1
  14  -6  -4   80.00  102.84   1
  14  -6  -7 2763.21  703.39   1
  14  -6 -10  745.43  278.27   1
  14  -6 -13  283.93  158.93   1
   6   9 -12  269.15  133.27   1
 -15   6 -12  348.64  238.05   1
   6   9  -9   37.73   99.96   1
 -15   6  -9  102.01  152.82   1
   9 -15  -9   76.23  101.29   1
   6   9  -6  565.94  221.14   1
 -15   6  -6  527.01  252.73   1
   9 -15  -6  657.85  226.84   1
   6   9  -3   59.63   70.26   1
 -15   6  -3   -9.82  119.26   1
  -9  15   3    1.40   79.33   1
   6   9   0  716.24  240.51   1
 -15   6   0  700.10  255.81   1
  15  -6   0  711.71  264.79   1
   6   9   3 2106.78  547.76   1
 -15   6   3 1698.30  542.49   1
  15  -6  -3 2236.19  544.36   1
  -6  -9  -6 2996.42 1155.78   1
 -15   6   6 5397.16 1161.30   1
  15  -6  -6 6359.65 1160.28   1
  15  -6  -9 3709.15  909.45   1
  15  -6 -12  972.60  297.19   1
   6  10 -13  768.08  210.99   1
 -16   6 -13  215.43  257.74   1
   6  10 -10 3411.50  885.61   1
 -16   6 -10 4087.61  938.35   1
   6  10  -7 6501.62 2077.82   1
 -16   6  -7 7107.11 1478.95   1
  10 -16  -7 5498.10 1454.60   1
   6  10  -4 5225.09 1011.44   1
 -16   6  -4 4525.39 1038.17   1
 -10  16   4 2858.56 1023.89   1
   6  10  -1 2309.06  537.69   1
 -16   6  -1 1714.36  552.60   1
  16  -6   1 2206.51  545.56   1
 -10  16   1 1798.30  546.27   1
   6  10   2  213.24  113.84   1
  -6 -10  -2  122.80  104.72   1
 -16   6   2  142.73  127.55   1
  16  -6  -2  162.60  110.58   1
 -16   6   5  -50.74   41.68   1
  16  -6  -5  -86.61   64.93   1
  16  -6  -8  119.18  117.27   1
  16  -6 -11  397.09  188.00   1
   6  11 -11 1960.94  521.63   1
 -17   6 -11 2044.41  578.41   1
   6  11  -8 1384.71  355.48   1
 -17   6  -8  937.40  398.26   1
  11 -17  -8 1173.83  371.67   1
   6  11  -5  147.25  123.13   1
 -17   6  -5  226.85  162.11   1
 -11  17   5  120.31  116.63   1
   6  11  -2 1049.04  252.88   1
 -17   6  -2  444.51  245.72   1
  17  -6   2  746.02  270.09   1
 -11  17   2  718.55  268.57   1
   6  11   1 3144.15  739.21   1
 -17   6   1 2195.74  746.26   1
  17  -6  -1 3668.60  760.17   1
   6  11   4 7809.55 1774.07   1
  -6 -11  -4 5301.86 1762.52   1
 -17   6   4 8721.80 1770.89   1
  17  -6  -4 9007.03 1758.86   1
  17  -6  -7 9751.13 2198.23   1
  17  -6 -10 1602.23  436.02   1
  17  -6 -13  -28.60  102.38   1
   6  12 -12   83.93  112.54   1
 -18   6 -12  -27.95  151.95   1
   6  12  -9  891.15  277.76   1
 -18   6  -9  791.63  338.87   1
   6  12  -6  775.85  243.15   1
 -18   6  -6  817.22  285.28   1
 -12  18   6  460.54  244.16   1
   6  12  -3  107.05   82.76   1
 -18   6  -3  -81.52  111.21   1
  18  -6   3  148.86  119.15   1
 -12  18   3   57.91   95.71   1
   6  12   0 6962.59 1370.73   1
 -18   6   0 4582.74 1370.12   1
  18  -6   0 6750.93 1370.59   1
 -12  18   0 5115.42 1376.99   1
 -18   6   3 2907.22  805.79   1
  18  -6  -3 3490.09  803.64   1
 -18   6   6 2115.97  559.66   1
  18  -6  -6 2055.25  561.13   1
  18  -6  -9 1754.29  488.41   1
  18  -6 -12  604.47  229.57   1
   6  13 -13  385.54  177.62   1
   6  13 -10  235.60  144.52   1
 -19   6 -10  339.55  203.35   1
   6  13  -7 1093.02  301.90   1
 -19   6  -7  790.25  323.14   1
   6  13  -4 1730.87  362.68   1
 -19   6  -4 1191.05  377.51   1
 -13  19   4  583.88  374.33   1
   6  13  -112733.27 2338.76   1
 -19   6  -1 8840.44 2333.25   1
  19  -6   110437.63 2343.17   1
 -13  19   1 9550.48 2358.93   1
   6  13   2 4280.11  835.73   1
 -19   6   2 2890.02  838.36   1
  19  -6  -2 3080.19  811.36   1
 -19   6   5  636.53  246.14   1
  19  -6  -5  573.70  235.87   1
  19  -6  -8   -5.30   82.88   1
  19  -6 -11 1906.07  532.47   1
   6  14 -11   63.20  129.18   1
 -20   6 -11  213.16  171.94   1
   6  14  -8 1609.00  409.52   1
 -20   6  -8 1214.59  452.62   1
   6  14  -5 4631.17  950.33   1
 -20   6  -5 4759.40  977.59   1
 -14  20   5 2514.40  957.43   1
   6  14  -239294.37 8846.11   1
 -20   6  -240027.02 8887.47   1
  20  -6   242569.16 8869.28   1
 -14  20   243708.61 8906.98   1
   6  14   141829.70 8109.44   1
 -20   6   128304.03 8114.89   1
  20  -6  -142532.89 8126.45   1
 -14  20  -137821.76 8125.18   1
   6  14   416841.30 3965.42   1
 -20   6   418974.51 3963.07   1
  20  -6  -418114.46 3964.40   1
 -20   6   7 2051.42  602.60   1
  20  -6  -7 2467.47  597.71   1
  20  -6 -10  244.57  164.32   1
  20  -6 -13   26.82  114.45   1
   6  15 -12  245.76  143.53   1
 -21   6 -12  162.87  177.35   1
   6  15  -9  -30.62   63.48   1
 -21   6  -9   -8.48  181.34   1
   6  15  -6  279.43  129.21   1
 -21   6  -6   50.99  173.96   1
   6  15  -3 4757.38 1101.31   1
 -21   6  -3 4612.73 1134.08   1
  21  -6   3 4506.10 1120.79   1
   6  15   0 5566.15 1221.06   1
 -21   6   0 4832.93 1232.99   1
  21  -6   0 6378.93 1241.61   1
 -15  21   0 3955.99 1241.68   1
   6  15   3 2611.39  671.17   1
 -21   6   3 2830.36  695.81   1
  21  -6  -3 2628.76  669.57   1
 -21   6   6 2200.89  555.30   1
  21  -6  -6 1948.46  554.17   1
  21  -6  -9 1343.34  400.13   1
  21  -6 -12   76.80  127.40   1
   6  16 -10  475.47  151.88   1
 -22   6 -10   35.05  243.05   1
   6  16  -7 5550.33  975.36   1
 -22   6  -7 4217.07 1008.63   1
 -16  22   7 2342.15  981.39   1
   6  16  -4  467.26  173.11   1
 -22   6  -4  388.45  206.57   1
 -16  22   4  219.98  182.98   1
 -22   6  -1 1112.34  395.28   1
  22  -6   1 1518.52  399.08   1
 -16  22   1 1096.34  388.22   1
   6  16   2 1271.23  330.58   1
 -22   6   2 1101.22  349.63   1
  22  -6  -2 1004.54  335.99   1
 -16  22  -2  699.65  351.14   1
 -22   6   5  356.49  211.72   1
  22  -6  -5  534.04  218.64   1
  22  -6  -8 2627.12  649.88   1
  22  -6 -11 1180.53  371.91   1
   6  17 -11  489.34  183.91   1
 -23   6 -11  227.23  242.53   1
   6  17  -8 3527.14  691.33   1
 -23   6  -8 1790.87  718.67   1
   6  17  -5 6025.69 1020.08   1
 -23   6  -5 3831.04 1039.94   1
 -17  23   5 2481.13 1036.23   1
   6  17  -210062.02 1859.77   1
 -23   6  -2 7819.83 1860.72   1
  23  -6   2 8355.97 1862.95   1
 -17  23   2 5774.69 1883.23   1
   6  17   1 9739.09 2082.17   1
 -23   6   1 7961.66 2091.55   1
  23  -6  -110444.80 2098.73   1
 -17  23  -1 8762.63 2100.82   1
 -23   6   4 1901.37  544.62   1
  23  -6  -4 1986.52  523.20   1
 -23   6   7  -74.48   77.11   1
  23  -6  -7  -90.83   80.01   1
  23  -6 -10  155.52  139.43   1
   6  18  -9  588.03  205.06   1
 -24   6  -9  521.06  220.63   1
   6  18  -6   98.97   71.31   1
 -24   6  -6 -180.55  106.15   1
 -18  24   6   15.72   68.15   1
   6  18  -3  -17.92  119.91   1
 -24   6  -3  262.58  168.06   1
  24  -6   3  152.66  164.69   1
 -18  24   3  104.22  156.90   1
   6  18   0 3228.42  726.85   1
 -24   6   0 2823.95  740.22   1
  24  -6   0 2908.71  752.53   1
 -18  24   0 2475.07  766.09   1
   6  18   3 2002.14  503.50   1
 -24   6   3 1750.68  515.82   1
  24  -6  -3 1655.82  492.50   1
 -18  24  -3 2049.29  525.56   1
 -24   6   6 2974.62  835.70   1
  24  -6  -6 3893.64  851.03   1
  24  -6  -9  885.45  293.66   1
   6  19 -10 2591.74  469.02   1
 -25   6 -10  712.49  477.73   1
   6  19  -7 3149.77  515.46   1
 -25   6  -7 1886.97  522.76   1
 -19  25   7  898.60  507.65   1
   6  19  -4  684.26  204.97   1
 -25   6  -4  558.48  237.97   1
 -19  25   4  204.85  211.11   1
   6  19  -1  911.25  262.74   1
 -25   6  -1  695.46  265.04   1
  25  -6   1  754.77  279.75   1
 -19  25   1  438.55  268.39   1
   6  19   2 2144.73  518.24   1
 -25   6   2 1618.16  528.77   1
  25  -6  -2 2056.05  537.68   1
 -19  25  -2 1669.90  536.17   1
 -25   6   5  893.87  303.49   1
  25  -6  -5  961.21  299.58   1
 -19  25  -5  795.64  323.94   1
  25  -6  -8 1404.76  418.24   1
  25  -6 -11  -43.77   93.27   1
   6  20 -11  635.11  178.44   1
 -26   6 -11  189.03  181.48   1
   6  20  -8 2215.88  509.45   1
 -26   6  -8 1471.30  551.02   1
   6  20  -5 3080.59  680.43   1
 -26   6  -5 2185.45  701.34   1
   6  20  -2 5604.41  916.73   1
 -26   6  -2 3466.35  913.44   1
  26  -6   2 3843.41  919.93   1
 -20  26   2 2076.59  908.35   1
   6  20   1  119.62  126.30   1
 -26   6   1  270.25  161.59   1
  26  -6  -1   40.27  168.97   1
 -20  26  -1  215.74  168.02   1
   6  20   4  693.90  242.59   1
 -26   6   4  474.83  257.07   1
  26  -6  -4  727.87  230.28   1
 -20  26  -4  598.75  267.35   1
 -26   6   7   68.47   94.93   1
  26  -6  -7  -62.40  121.16   1
 -20  26  -7   87.66  138.43   1
 -20  26 -10   19.71  434.09   1
  26  -6 -10  -33.42  111.34   1
   6  21  -9  -29.49  102.22   1
 -27   6  -9   11.48  142.34   1
   6  21  -6  729.98  178.86   1
 -27   6  -6  296.38  197.62   1
 -21  27   6  203.52  172.58   1
   6  21  -3 2834.20  638.96   1
 -27   6  -3 2473.17  668.86   1
  27  -6   3 2617.36  674.74   1
 -21  27   3 1851.42  703.87   1
   6  21   0 7554.23 1434.20   1
 -27   6   0 5270.94 1449.91   1
  27  -6   0 7704.67 1459.62   1
 -21  27   0 4378.92 1440.97   1
   6  21   3  874.22  299.72   1
 -27   6   3  793.29  317.55   1
  27  -6  -3 1111.52  323.01   1
 -21  27  -3  920.03  336.90   1
 -27   6   6  733.08  239.65   1
  27  -6  -6  695.43  240.27   1
 -21  27  -6  457.84  262.85   1
  27  -6  -9   57.31  134.44   1
 -21  27  -9  120.18  157.18   1
   6  22 -10  179.65  111.01   1
 -28   6 -10   15.76  160.02   1
   6  22  -7  222.16   99.20   1
 -28   6  -7  176.23  158.30   1
 -22  28   7  -37.13   91.07   1
   6  22  -4  450.64  194.89   1
 -28   6  -4  419.29  233.71   1
  28  -6   4  710.57  252.32   1
   6  22  -1 1403.86  294.88   1
 -28   6  -1  546.25  308.12   1
  28  -6   1 1003.15  323.05   1
 -22  28   1  484.92  321.13   1
   6  22   2  262.49  140.02   1
 -28   6   2  135.71  147.43   1
  28  -6  -2  339.66  177.68   1
 -22  28  -2   63.06  187.34   1
 -28   6   5    7.31  109.39   1
  28  -6  -5   59.18  101.84   1
 -22  28  -5   78.42  137.32   1
  28  -6  -8  102.99  152.56   1
 -22  28  -8  191.96  169.52   1
   6  23  -8   10.82  100.07   1
 -29   6  -8   46.60  125.12   1
   6  23  -5  -55.12  111.43   1
 -29   6  -5  248.92  138.73   1
   6  23  -2 1080.63  258.94   1
 -29   6  -2  530.71  255.97   1
  29  -6   2  862.90  277.94   1
 -23  29   2  204.27  257.94   1
   6  23   1    3.13  107.34   1
 -29   6   1   96.98  146.29   1
  29  -6  -1  -20.63  164.50   1
 -23  29  -1  392.29  163.50   1
 -29   6   4   27.42  106.29   1
  29  -6  -4 -105.51  119.79   1
 -23  29  -4  111.61  154.43   1
 -29   6   7   88.16   94.92   1
  29  -6  -7   11.68   88.87   1
 -23  29  -7   33.59  135.07   1
 -23  29 -10   16.56  118.01   1
   6  24  -9  235.97  123.38   1
 -30   6  -9  129.52  163.92   1
   6  24  -6 1440.79  277.22   1
 -30   6  -6  551.58  306.53   1
 -24  30   6  401.77  286.51   1
   6  24  -3 2118.26  442.90   1
 -30   6  -3  969.41  435.48   1
  30  -6   3 1516.42  452.47   1
   6  24   0   58.58  127.69   1
 -30   6   0  164.69  141.52   1
  30  -6   0   88.57  152.02   1
 -24  30   0   61.73  164.48   1
   6  24   3   34.81   54.54   1
 -30   6   3   27.55  107.64   1
  30  -6  -3  -61.92  125.36   1
 -24  30  -3  -30.91  139.44   1
 -30   6   6  753.35  278.39   1
  30  -6  -6  796.90  265.78   1
 -24  30  -6 1000.79  299.26   1
  30  -6  -9  256.35  152.60   1
 -24  30  -9  179.00  161.57   1
   6  25  -7  -39.46   74.53   1
 -31   6  -7    0.28   97.94   1
 -25  31   7  -31.52   88.84   1
   6  25  -4  555.44  140.34   1
 -31   6  -4   48.90  137.85   1
 -25  31   4  -47.70  128.83   1
   6  25  -1  105.34  131.75   1
 -31   6  -1    8.98  133.92   1
  31  -6   1  129.70  172.18   1
 -25  31   1  198.19  124.28   1
   6  25   2  302.25  136.72   1
 -31   6   2  104.56  139.13   1
  31  -6  -2  150.85  171.02   1
 -25  31  -2  244.93  178.90   1
 -31   6   5 1043.52  415.49   1
  31  -6  -5 1803.25  417.22   1
 -25  31  -5 1523.45  440.41   1
  31  -6  -8 1058.60  322.53   1
 -25  31  -8 1079.61  348.33   1
   6  26  -8  107.97  112.48   1
 -32   6  -8  168.99  143.47   1
   6  26  -5  -60.17   86.25   1
 -32   6  -5   92.40  113.25   1
 -26  32   5  -35.79   97.97   1
   6  26  -2  628.57  206.11   1
 -32   6  -2  353.59  202.11   1
  32  -6   2  313.89  212.28   1
   6  26   1    7.95  100.17   1
 -32   6   1  194.06  103.96   1
  32  -6  -1   89.98  149.09   1
 -26  32  -1   -6.35  161.14   1
 -32   6   4  196.63  158.26   1
  32  -6  -4  351.74  181.52   1
 -26  32  -4  197.35  172.18   1
 -32   6   7  113.60   78.58   1
  32  -6  -7  -72.55   97.34   1
 -26  32  -7  -16.39  123.54   1
   6  27  -6  154.12  127.68   1
 -33   6  -6   74.77  138.29   1
 -27  33   6   93.47  127.64   1
   6  27  -3  190.51  103.00   1
 -33   6  -3  144.64  119.41   1
  33  -6   3  -17.49  138.52   1
 -27  33   3   -0.05  131.94   1
   6  27   0 1448.36  282.47   1
 -33   6   0  504.43  287.05   1
  33  -6   0  634.11  294.28   1
 -27  33   0  569.09  309.08   1
   6  27   3 2019.86  420.53   1
 -33   6   3 1206.35  443.10   1
  33  -6  -3 1653.67  447.11   1
 -27  33  -3  979.27  475.27   1
 -33   6   6  498.09  304.54   1
  33  -6  -6 1215.82  319.61   1
 -27  33  -6 1187.00  327.06   1
   6  28  -4  -66.70   54.04   1
 -34   6  -4  -46.16  106.22   1
 -28  34   4  -99.71   74.90   1
   6  28  -1  205.26  171.32   1
 -34   6  -1  372.29  181.67   1
  34  -6   1  264.96  176.84   1
 -28  34   1  166.12  153.45   1
   6  28   2  568.10  177.53   1
 -34   6   2  268.70  189.70   1
  34  -6  -2  464.95  203.73   1
 -28  34  -2  235.21  202.39   1
 -34   6   5  509.84  209.75   1
  34  -6  -5  633.99  239.37   1
 -28  34  -5  495.13  241.35   1
   6  29  -5  380.25  131.78   1
 -35   6  -5    6.51  148.60   1
 -29  35   5   89.95  142.90   1
   6  29  -2  647.77  206.32   1
 -35   6  -2  385.12  228.02   1
  35  -6   2  731.11  247.87   1
 -29  35   2  286.64  210.30   1
   6  29   1  364.00  137.18   1
 -35   6   1   93.13  150.99   1
  35  -6  -1   91.73  170.17   1
 -29  35  -1  378.77  181.79   1
 -35   6   4  142.16  100.11   1
  35  -6  -4  -74.78  126.80   1
 -29  35  -4  151.61  168.83   1
   6  30  -3 2055.97  362.03   1
 -36   6  -3  721.36  358.42   1
  36  -6   3 1168.68  390.22   1
 -30  36   3  577.26  367.30   1
   6  30   0 1650.04  355.19   1
 -36   6   0  903.93  366.87   1
  36  -6   0 1540.58  373.54   1
 -30  36   0  675.88  355.46   1
   6  30   3  811.65  262.91   1
 -36   6   3  531.56  252.48   1
  36  -6  -3  708.18  268.58   1
 -30  36  -3  895.97  290.36   1
   6  31  -1  162.96   95.58   1
 -37   6  -1  -40.22   92.06   1
  37  -6   1  -24.60  124.99   1
 -31  37   1  -60.79   98.74   1
 -37   6   2  147.18  128.10   1
  37  -6  -2  325.46  154.30   1
 -31  37  -2   22.86  169.08   1
   7   1 -12  880.77  307.69   1
   7   1  -9 2465.58  543.22   1
   1  -8  -9 1570.88  540.64   1
   7   1  -6  870.14  253.35   1
   1  -8  -6  603.02  252.62   1
   7   1  -3 3611.02  916.87   1
  -7  -1   3 4144.69  914.77   1
   7   1   0 2314.66  595.54   1
  -7  -1   0 1854.82  600.88   1
  -8   7   0 2836.56  613.13   1
   8  -7   0 2864.21  602.95   1
  -7  -1  -319057.02 4410.66   1
  -8   7   317388.80 4414.22   1
   8  -7  -324177.90 4410.78   1
  -7  -1  -6 2029.82  568.40   1
   8  -7  -6 2102.19  546.52   1
   8  -7  -9 2452.45  660.53   1
  -7  -1 -12  664.28  382.91   1
   8  -7 -12 1192.74  326.28   1
   7   2 -13  649.89  187.66   1
   2  -9 -13  112.29  159.07   1
   7   2 -10   27.62   91.36   1
   2  -9 -10   57.28   85.07   1
   7   2  -7 1164.30  317.92   1
   2  -9  -7  942.47  342.31   1
   7   2  -4 1366.83  383.81   1
   7   2  -1 1287.08  344.07   1
  -7  -2   1 1412.89  348.20   1
  -9   7  -1 1058.23  352.80   1
   7   2   212010.88 2352.96   1
  -7  -2  -212153.55 2350.82   1
  -9   7   2 9397.77 2342.65   1
   9  -7  -2 9530.12 2321.96   1
  -7  -2  -5  464.91  192.37   1
  -9   7   5  392.67  178.89   1
  -7  -2  -8   75.90  110.28   1
   9  -7  -8   68.84   95.85   1
  -7  -2 -11 -100.35  119.99   1
   9  -7 -11   39.57  106.92   1
  -7  -2 -14   65.20  148.09   1
  -7  -2 -14  -43.35   95.80   1
   9  -7 -14  -24.83   79.91   1
  -2   9 -14 -130.15   98.50   1
   3 -10 -14    4.10  160.73   1
   3 -10 -14  166.87   97.97   1
   7   3 -11  657.37  201.10   1
   3 -10 -11  301.33  194.77   1
   7   3  -8 7300.80 1487.26   1
   3 -10  -8 5405.09 1502.70   1
   7   3  -511229.45 2492.69   1
   7   3  -2 5525.56 1184.58   1
  -7  -3   2 4998.62 1180.29   1
 -10   7  -2 4974.80 1189.86   1
  -3  10   2 5051.73 1189.31   1
   7   3   117164.58 5038.40   1
  -7  -3  -125821.44 5027.70   1
 -10   7   123014.18 5042.19   1
  10  -7  -125801.64 5028.77   1
  -7  -3  -4  957.65  308.31   1
 -10   7   4  809.67  298.88   1
  10  -7  -4 1043.29  297.13   1
  -7  -3  -7  319.92  197.49   1
  10  -7  -7  494.06  188.13   1
  -7  -3 -10  290.99  189.01   1
  -7  -3 -13   36.18  164.17   1
   7   4 -12  172.51  116.02   1
   4 -11 -12  -29.61   80.55   1
   7   4  -9    4.26   92.02   1
   4 -11  -9  101.71   73.73   1
   7   4  -6  155.47  112.06   1
   7   4  -3 3921.24 1230.52   1
 -11   7  -3 3598.28  906.95   1
  -7  -4   0  261.25  134.44   1
 -11   7   0  279.92  146.40   1
  11  -7   0  261.07  149.47   1
  -7  -4  -313232.46 2928.13   1
 -11   7   312565.01 2918.36   1
  11  -7  -313942.74 2921.29   1
  -7  -4  -6 3363.69  818.92   1
  11  -7  -6 3085.20  796.16   1
  -7  -4  -9 2343.22  627.66   1
  11  -7  -9 2316.86  603.37   1
  -7  -4 -12   93.17  142.88   1
   7   5 -13   -4.82   95.28   1
 -12   7 -13   15.79  152.38   1
   5 -12 -13  -43.46   59.72   1
   7   5 -10  128.99   86.51   1
   5 -12 -10  -75.83   81.35   1
   7   5  -7  672.53  240.43   1
   7   5  -4  116.78   72.55   1
 -12   7  -4  -89.32  108.62   1
   7   5  -1   65.41   79.12   1
  -7  -5   1  -27.08   72.03   1
 -12   7  -1   88.90  115.69   1
  12  -7   1  120.26  103.91   1
   7   5   2 1322.15  307.80   1
  -7  -5  -2  956.43  308.17   1
 -12   7   2  904.73  310.30   1
  12  -7  -2  911.12  295.01   1
  -7  -5  -5  175.39  111.73   1
 -12   7   5   82.94  113.14   1
  12  -7  -5  228.75  118.92   1
  -7  -5  -8   37.96  125.55   1
  12  -7  -8   71.38   95.92   1
  -7  -5 -11  248.86  172.64   1
  -7  -5 -14  133.25  148.02   1
  -7  -5 -14   16.13   83.17   1
  12  -7 -14  -33.61   89.58   1
   7   6 -14   14.74   86.51   1
   7   6 -11  231.56  138.56   1
 -13   7 -11  278.02  221.22   1
   6 -13 -11  218.40  136.92   1
   7   6  -8  209.46  125.80   1
 -13   7  -8  119.31  178.93   1
   7   6  -5   99.64   72.23   1
 -13   7  -5  -88.15  114.36   1
   7   6  -213083.89 2741.59   1
  13  -7   212992.74 2754.52   1
  -6  13   210978.75 2754.26   1
   7   6   120242.83 4237.11   1
 -13   7   116305.75 4236.23   1
  13  -7  -122008.02 4245.36   1
  -7  -6  -411161.29 2815.63   1
 -13   7   411386.42 2815.25   1
  13  -7  -414943.87 2802.42   1
  -7  -6  -7 6055.24 1445.15   1
  13  -7  -7 6079.80 1412.85   1
  13  -7 -10  768.80  264.67   1
  -7  -6 -13  -54.25   90.16   1
  13  -7 -13   95.90   79.87   1
   7   7 -12  172.90   84.40   1
 -14   7 -12  -77.30  163.92   1
   7   7  -9  -78.57   85.57   1
 -14   7  -9  207.72  144.72   1
   7   7  -6 2851.91  690.64   1
 -14   7  -6 2636.24  717.28   1
   7   7  -3 4573.69  953.16   1
 -14   7  -3 4343.50  978.05   1
  -7  14   3 2809.75  975.79   1
   7   7   027782.45 6113.53   1
  -7  -7   026809.82 6109.34   1
 -14   7   025930.54 6127.05   1
  14  -7   032865.41 6127.42   1
   7   7   3 4827.85  927.71   1
  -7  -7  -3 3015.59  912.30   1
 -14   7   3 3612.66  915.50   1
  14  -7  -3 3767.94  909.75   1
  -7  -7  -6 1467.65  564.54   1
 -14   7   6 2329.53  552.65   1
  14  -7  -6 2297.95  555.14   1
  14  -7  -9  195.52  137.90   1
  -7  -7 -12   -0.85   86.99   1
  -7  -7 -12  -53.57   48.80   1
   7   8 -13  364.10  157.85   1
 -15   7 -13  160.22  209.51   1
   7   8 -10  978.58  272.41   1
 -15   7 -10  577.42  334.83   1
   7   8  -713367.07 2953.93   1
 -15   7  -713386.33 2985.66   1
   7   8  -4 1152.91  303.71   1
 -15   7  -4 1126.30  337.75   1
  -8  15   4  648.70  308.03   1
 -15   7  -110248.85 4362.11   1
   7   8  -113293.05 2886.58   1
  15  -7   114961.24 2895.92   1
  -8  15   114178.29 2910.50   1
   7   8   2 1763.48  404.24   1
  -7  -8  -2 1179.27  396.99   1
 -15   7   2 1159.78  395.11   1
  15  -7  -2 1393.33  379.74   1
  -7  -8  -5  397.14  147.96   1
 -15   7   5  123.40  149.70   1
  15  -7  -5  439.62  164.84   1
  -7  -8  -8  120.74  124.16   1
  15  -7  -8  181.16  119.99   1
  -7  -8 -11   26.45   70.37   1
  15  -7 -14  -51.17   91.90   1
   7   9 -11   94.87   92.25   1
 -16   7 -11   54.88  202.60   1
   7   9  -8  585.19  233.80   1
 -16   7  -8  742.26  292.32   1
   7   9  -5 4468.62  770.60   1
 -16   7  -5 3359.66  806.37   1
  -9  16   5 1486.64  772.58   1
   7   9  -217692.88 3510.67   1
 -16   7  -214400.57 3520.65   1
  16  -7   215056.47 3517.83   1
  -9  16   216607.11 3530.77   1
   7   9   1 7891.31 1843.85   1
  -7  -9  -1 8027.06 1845.67   1
 -16   7   1 6568.57 1861.08   1
  16  -7  -110653.62 1872.74   1
   7   9   4 6752.21 1581.58   1
 -16   7   4 5389.87 1583.35   1
  16  -7  -4 8287.35 1578.96   1
  -7  -9  -7 3430.62 1367.04   1
  16  -7  -7 7512.30 1344.83   1
  16  -7 -10  398.31  181.96   1
  16  -7 -13   29.04  119.95   1
   7  10 -12   95.82  130.50   1
 -17   7 -12   86.10  216.46   1
   7  10  -9  178.62  125.02   1
 -17   7  -9  211.49  199.37   1
   7  10  -6  420.53  177.86   1
 -17   7  -6  357.59  226.43   1
   7  10  -3 3461.12  717.76   1
 -17   7  -3 3205.08  745.72   1
 -10  17   3 1819.60  729.04   1
   7  10   0   58.40   65.91   1
 -17   7   0  -91.43   92.38   1
  17  -7   0  -67.75  118.13   1
 -10  17   0   39.43   81.31   1
   7  10   3 2596.65  537.33   1
  -7 -10  -3 1432.84  511.64   1
 -17   7   3 1812.16  523.64   1
  17  -7  -3 1950.10  511.61   1
  -7 -10  -6  222.36  151.72   1
 -17   7   6  337.63  171.57   1
  17  -7  -6  368.45  173.39   1
  17  -7  -9 2820.87  722.17   1
  17  -7 -12  256.32  161.83   1
   7  11 -13   37.69   85.04   1
   7  11 -10   48.49  110.36   1
 -18   7 -10  253.80  184.03   1
   7  11  -7  360.09  187.50   1
 -18   7  -7  576.20  243.75   1
   7  11  -4 3485.02  693.53   1
 -18   7  -4 3155.61  728.47   1
 -11  18   4 1438.29  709.23   1
   7  11  -1 7368.66 1681.90   1
 -18   7  -1 8378.59 1741.03   1
 -11  18   1 6815.26 1705.74   1
   7  11   2  369.22  167.54   1
 -18   7   2  221.65  178.10   1
  18  -7  -2  443.37  177.46   1
  -7 -11  -5  404.48  255.53   1
 -18   7   5  898.27  283.01   1
  18  -7  -5 1022.55  274.37   1
  18  -7  -8  -84.87   59.73   1
  18  -7 -11  597.92  256.41   1
   7  12 -11 1153.56  318.54   1
 -19   7 -11  861.33  375.74   1
   7  12  -8 4989.91 1063.76   1
 -19   7  -8 3642.83 1116.16   1
   7  12  -5 7424.31 1527.17   1
 -19   7  -5 7826.63 1559.59   1
 -12  19   5 4673.30 1542.26   1
   7  12  -211416.77 2040.70   1
 -19   7  -2 7313.49 2037.98   1
  19  -7   2 9273.21 2046.61   1
 -12  19   2 8076.88 2047.95   1
   7  12   1 6687.80 1329.07   1
 -19   7   1 3983.32 1325.36   1
  19  -7  -1 6515.93 1339.04   1
   7  12   4  346.03  198.25   1
  -7 -12  -4  203.59  187.08   1
 -19   7   4  589.83  210.33   1
  19  -7  -4  538.64  217.38   1
 -19   7   7   70.60  120.88   1
  19  -7  -7   90.03  119.29   1
  19  -7 -10  361.34  189.40   1
  19  -7 -13   27.77  125.07   1
   7  13 -12   55.57  100.02   1
 -20   7 -12   23.65  154.01   1
   7  13  -9  150.70  119.79   1
 -20   7  -9  218.32  198.12   1
   7  13  -6  201.64  131.67   1
 -20   7  -6  288.90  185.63   1
 -13  20   6  148.58  124.73   1
   7  13  -3  -11.59   79.08   1
 -20   7  -3  -28.19   97.99   1
  20  -7   3   22.60  129.77   1
 -13  20   3   78.63   67.63   1
   7  13   0 5852.76 1164.14   1
 -20   7   0 3573.10 1180.78   1
  20  -7   0 5738.35 1187.48   1
 -13  20   0 4456.47 1189.05   1
   7  13   3  129.17   95.45   1
 -20   7   3  129.64  153.08   1
  20  -7  -3   24.36  104.08   1
 -20   7   6  155.89  145.51   1
  20  -7  -6  237.23  149.59   1
  20  -7  -9   82.86  113.31   1
  20  -7 -12 -171.84   81.64   1
   7  14 -10  276.51  141.21   1
 -21   7 -10  269.64  207.48   1
   7  14  -7 1748.78  414.88   1
 -21   7  -7 1158.91  439.04   1
   7  14  -4  151.02  134.78   1
 -21   7  -4  281.56  148.18   1
 -14  21   4  154.70  138.61   1
   7  14  -1 3469.19  744.72   1
 -21   7  -1 3093.46  749.34   1
  21  -7   1 2897.59  750.85   1
 -14  21   1 2203.10  750.20   1
   7  14   2 1025.39  324.96   1
 -21   7   2 1010.37  366.11   1
  21  -7  -2 1024.34  348.02   1
 -21   7   5 1457.02  501.11   1
  21  -7  -5 2126.21  509.68   1
  21  -7  -8   86.89  109.19   1
  21  -7 -11  228.62  173.69   1
   7  15 -11   60.87  116.18   1
   7  15  -8   73.00   72.05   1
 -22   7  -8  -77.13  134.43   1
   7  15  -5  216.55  115.34   1
 -22   7  -5   99.50  138.62   1
 -15  22   5   57.25  114.40   1
   7  15  -2 2702.38  517.64   1
 -22   7  -2 1586.84  512.02   1
  22  -7   2 1735.20  534.38   1
 -15  22   2 1406.97  551.95   1
   7  15   1 2082.83  507.78   1
 -22   7   1 1820.68  507.16   1
  22  -7  -1 1757.15  512.38   1
 -15  22  -1 1570.51  514.67   1
   7  15   4 1083.49  347.88   1
 -22   7   4 1193.23  382.50   1
  22  -7  -4  962.29  326.10   1
 -22   7   7  -67.33   80.96   1
  22  -7 -10  -26.37  120.92   1
   7  16 -12   -3.55   82.41   1
 -23   7 -12   91.68  161.01   1
   7  16  -9  726.86  249.95   1
 -23   7  -9  766.15  331.51   1
   7  16  -6 1615.72  347.10   1
 -23   7  -6 1144.84  358.00   1
 -16  23   6  638.61  347.42   1
   7  16  -3   63.33  139.68   1
 -23   7  -3  224.03  176.37   1
  23  -7   3  345.43  178.92   1
 -16  23   3  111.54  150.00   1
   7  16   0  957.09  288.68   1
 -23   7   0  610.61  297.37   1
  23  -7   0  965.44  324.68   1
 -16  23   0  765.83  305.38   1
   7  16   3  101.33  104.39   1
 -23   7   3  134.24  135.75   1
  23  -7  -3  161.93  147.21   1
 -23   7   6  535.74  215.65   1
  23  -7  -6  466.22  232.82   1
  23  -7  -9  559.10  223.11   1
  23  -7 -12  -22.48   97.85   1
   7  17 -10  682.99  234.04   1
 -24   7 -10  476.54  276.79   1
   7  17  -7 1793.79  338.10   1
 -24   7  -7  798.75  348.27   1
 -17  24   7  724.75  336.83   1
   7  17  -4  799.77  223.57   1
 -24   7  -4  530.63  268.54   1
 -17  24   4  294.94  229.99   1
   7  17  -1 1375.07  385.42   1
 -24   7  -1 1183.01  396.04   1
  24  -7   1 1312.46  400.22   1
 -17  24   1 1078.21  406.75   1
   7  17   2   57.70   91.53   1
 -24   7   2  139.27  142.24   1
  24  -7  -2 -133.12  146.66   1
 -17  24  -2    1.89  137.91   1
 -24   7   5 -119.21  122.47   1
  24  -7  -5  175.53  109.77   1
  24  -7  -8  618.32  248.09   1
  24  -7 -11  416.34  202.85   1
   7  18 -11  -17.98   72.15   1
 -25   7 -11 -111.72  108.13   1
   7  18  -8  914.27  242.38   1
 -25   7  -8  460.64  260.19   1
   7  18  -5  744.85  225.43   1
 -25   7  -5  622.66  268.89   1
 -18  25   5  334.21  229.26   1
   7  18  -2 2031.74  468.67   1
 -25   7  -2 1653.15  480.47   1
  25  -7   2 1713.06  483.34   1
 -18  25   2  987.96  494.16   1
   7  18   1  233.34  150.37   1
 -25   7   1  232.74  168.87   1
  25  -7  -1  303.57  197.92   1
 -18  25  -1  298.16  208.66   1
   7  18   4 1914.72  449.98   1
 -25   7   4 1421.23  447.71   1
  25  -7  -4 1243.54  414.84   1
 -18  25  -4 1663.15  457.90   1
 -25   7   7  817.18  306.65   1
  25  -7  -7 1039.05  322.92   1
  25  -7 -10  128.74  139.72   1
   7  19  -9  217.44  138.42   1
 -26   7  -9   37.97  134.51   1
   7  19  -6 1211.20  301.41   1
 -26   7  -6 1184.28  342.56   1
 -19  26   6  372.12  309.79   1
   7  19  -3  688.08  257.97   1
 -26   7  -3  906.67  295.29   1
  26  -7   3 1032.09  300.88   1
 -19  26   3  438.52  293.21   1
   7  19   0 5717.67  977.07   1
 -26   7   0 2864.76  964.45   1
  26  -7   0 4390.30  980.47   1
 -19  26   0 2871.90  996.44   1
   7  19   3 1619.59  438.37   1
 -26   7   3 1362.52  465.12   1
  26  -7  -3 1786.82  469.65   1
 -19  26  -3 1636.10  475.84   1
 -26   7   6  997.87  340.11   1
  26  -7  -6 1274.58  381.14   1
  26  -7  -9  126.68  134.67   1
   7  20 -10   -0.66  104.02   1
 -27   7 -10  232.10  133.48   1
   7  20  -7   90.49   87.39   1
 -27   7  -7  106.05  168.06   1
 -20  27   7  -29.20   75.75   1
   7  20  -4  346.70  153.98   1
 -27   7  -4  159.10  187.57   1
   7  20  -1  345.53  185.88   1
 -27   7  -1  212.41  176.43   1
  27  -7   1  188.74  215.24   1
 -20  27   1  475.32  208.73   1
   7  20   2  156.26  171.64   1
 -27   7   2  184.78  198.05   1
  27  -7  -2  538.48  203.58   1
 -20  27  -2  412.43  223.58   1
 -27   7   5  901.33  288.64   1
  27  -7  -5  617.52  268.85   1
 -20  27  -5 1056.32  307.45   1
  27  -7  -8  715.85  279.38   1
 -20  27  -8  833.24  335.52   1
 -20  27 -11  213.86  181.11   1
   7  21  -8  750.32  265.73   1
   7  21  -5 1811.71  360.67   1
 -28   7  -5 1220.87  381.90   1
 -21  28   5  477.10  360.40   1
   7  21  -2   75.67  116.48   1
 -28   7  -2 -205.18  134.14   1
  28  -7   2  289.97  166.79   1
 -21  28   2  151.09  111.75   1
   7  21   1 2676.51  479.73   1
 -28   7   1 1252.02  474.84   1
  28  -7  -1 1644.65  478.99   1
 -21  28  -1 1058.66  492.76   1
 -28   7   4   13.43  202.50   1
  28  -7  -4  457.78  200.17   1
 -21  28  -4  713.97  215.10   1
 -28   7   7    2.85   92.60   1
  28  -7  -7  132.43   86.10   1
 -21  28  -7 -119.48  126.67   1
  28  -7 -10  280.71  148.85   1
 -21  28 -10  -89.91  149.17   1
   7  22  -9  118.02   99.06   1
 -29   7  -9   48.64  145.50   1
   7  22  -6  -73.41   46.37   1
 -29   7  -6 -100.26  127.22   1
   7  22  -3  -17.86  120.77   1
 -29   7  -3  104.57  135.67   1
  29  -7   3  223.71  155.67   1
 -22  29   3  138.54  145.54   1
   7  22   0 1446.77  341.11   1
 -29   7   0  486.10  349.60   1
  29  -7   0 1125.78  361.35   1
 -22  29   0 1170.16  366.46   1
   7  22   3 1136.51  333.47   1
 -29   7   3  827.70  363.75   1
  29  -7  -3 1554.02  376.46   1
 -22  29  -3 1131.72  386.63   1
 -29   7   6   28.05  122.96   1
  29  -7  -6  135.05  118.64   1
 -22  29  -6  308.83  154.75   1
  29  -7  -9  226.97  171.49   1
 -22  29  -9  346.95  191.71   1
   7  23  -7  177.42  110.65   1
 -30   7  -7  151.16  154.26   1
 -23  30   7   11.25   87.88   1
   7  23  -4 -138.73  157.50   1
 -30   7  -4  794.71  182.97   1
 -23  30   4  166.60  154.46   1
 -30   7  -1  497.04  232.16   1
  30  -7   1  759.57  257.86   1
 -23  30   1  389.79  242.41   1
   7  23   2  890.41  231.16   1
 -30   7   2  147.78  231.18   1
  30  -7  -2  639.70  251.72   1
 -23  30  -2  617.94  238.41   1
 -30   7   5  581.35  277.12   1
  30  -7  -5  988.01  278.50   1
 -23  30  -5  839.18  297.77   1
  30  -7  -8  391.26  177.85   1
 -23  30  -8  360.88  206.49   1
   7  24  -8   86.71   97.41   1
 -31   7  -8   56.54  124.10   1
   7  24  -5  198.90  138.64   1
 -31   7  -5  168.78  153.27   1
   7  24  -2 1040.20  245.43   1
 -31   7  -2  605.48  258.15   1
  31  -7   2  507.18  271.44   1
 -24  31   2  373.89  261.16   1
   7  24   1   50.31   94.42   1
 -31   7   1  -13.18  132.63   1
  31  -7  -1   -7.17  150.51   1
 -24  31  -1  230.02  185.56   1
 -31   7   4   29.35   95.22   1
  31  -7  -4   22.53  116.46   1
 -24  31  -4 -117.36  144.42   1
 -31   7   7   65.63  114.17   1
  31  -7  -7  252.00  156.85   1
 -24  31  -7  262.52  152.42   1
   7  25  -6   -6.41  112.78   1
 -32   7  -6  -50.14  106.25   1
 -25  32   6   81.25   95.32   1
   7  25  -3  168.25  124.88   1
 -32   7  -3  162.35  129.03   1
  32  -7   3  121.77  153.37   1
 -25  32   3   55.53  145.52   1
   7  25   0 1232.75  267.48   1
 -32   7   0  355.92  259.59   1
  32  -7   0  732.98  262.00   1
 -25  32   0  391.37  285.53   1
   7  25   3  766.08  204.66   1
 -32   7   3  345.70  232.20   1
  32  -7  -3  682.36  242.97   1
 -25  32  -3  411.80  230.14   1
 -32   7   6  456.23  239.26   1
  32  -7  -6  801.35  253.71   1
 -25  32  -6  725.88  248.75   1
   7  26  -7  594.45  153.15   1
 -33   7  -7  128.18  160.55   1
 -26  33   7   34.72  145.61   1
   7  26  -4  210.08  129.91   1
 -33   7  -4   53.90  136.32   1
 -26  33   4  233.65  127.45   1
   7  26  -1  115.69  132.99   1
 -33   7  -1  107.24  137.59   1
  33  -7   1  333.44  167.88   1
 -26  33   1   28.39  132.61   1
   7  26   2  129.40  109.45   1
 -33   7   2   30.08  107.69   1
  33  -7  -2  132.09  140.80   1
 -26  33  -2  -55.56  181.09   1
 -33   7   5  169.68  134.41   1
  33  -7  -5  155.07  164.84   1
 -26  33  -5  276.74  174.61   1
   7  27  -5  -54.43  106.84   1
 -34   7  -5   68.45  126.98   1
 -27  34   5  115.21  131.87   1
   7  27  -2  446.19  172.05   1
 -34   7  -2  272.11  177.07   1
  34  -7   2  270.94  192.64   1
   7  27   1   96.03   90.41   1
 -34   7   1   16.33  120.02   1
  34  -7  -1   92.62  138.42   1
 -27  34  -1    1.81  126.94   1
 -34   7   4  303.77  157.81   1
  34  -7  -4  270.99  171.02   1
 -27  34  -4  194.73  184.59   1
 -34   7   7  -35.24   67.25   1
  34  -7  -7   23.20  112.07   1
 -27  34  -7 -104.61  127.59   1
   7  28  -6  544.48  167.53   1
 -28  35   6  106.08  174.25   1
   7  28  -3 2080.03  337.82   1
 -35   7  -3  587.66  330.24   1
  35  -7   3 1416.12  363.55   1
 -28  35   3  298.56  323.08   1
   7  28   0  848.15  206.76   1
 -35   7   0  469.33  222.68   1
  35  -7   0  399.36  229.85   1
 -28  35   0  283.40  223.75   1
   7  28   3  365.53  158.25   1
 -35   7   3   59.20  150.92   1
  35  -7  -3  298.70  169.97   1
 -28  35  -3  226.57  202.67   1
 -35   7   6  160.68  109.87   1
  35  -7  -6  129.68  141.04   1
 -28  35  -6   82.45  141.83   1
   7  29  -4   47.87  149.05   1
 -36   7  -4  314.66  153.28   1
   7  29  -1   59.12  114.41   1
 -36   7  -1   89.22  134.05   1
  36  -7   1   47.50  143.90   1
 -29  36   1   54.04  106.59   1
   7  29   2  179.73  146.23   1
 -36   7   2  190.02  124.07   1
  36  -7  -2 -121.89  146.07   1
 -29  36  -2  226.05  155.29   1
 -36   7   5   22.12   99.61   1
  36  -7  -5  211.09  126.23   1
 -29  36  -5   55.17  151.98   1
   7  30  -2  159.19   95.72   1
 -37   7  -2  -26.10  109.80   1
  37  -7   2  -38.27  132.24   1
 -30  37   2 -177.92   90.23   1
   7  30   1   60.37  109.87   1
 -37   7   1  128.94  117.23   1
  37  -7  -1  118.45  133.00   1
 -30  37  -1   96.64  145.36   1
   7  31   0  110.82  110.31   1
 -38   7   0 -126.35   87.86   1
  38  -7   0  -46.46  109.13   1
 -31  38   0   51.15   97.36   1
   8   1 -14  421.61  131.99   1
   1  -9 -14   74.08  158.26   1
   1  -9 -14   62.09  130.49   1
   8   1 -11 1225.24  273.37   1
   1  -9 -11  331.67  261.64   1
   8   1  -8 2688.53  592.35   1
   1  -9  -8 1788.75  588.50   1
   8   1  -5 2267.07  587.03   1
   8   1  -2 1456.16  393.42   1
  -8  -1   2 1440.81  393.55   1
  -9   8  -2 1481.53  406.88   1
   8   1   1 6040.42 1294.27   1
  -8  -1  -1 5403.38 1303.53   1
  -9   8   1 4633.55 1292.01   1
   9  -8  -1 6992.45 1305.74   1
  -8  -1  -4  581.64  248.91   1
  -9   8   4  681.26  229.12   1
   9  -8  -4  670.80  226.40   1
  -8  -1  -7  795.80  318.82   1
   9  -8  -7 1088.78  304.98   1
  -8  -1 -10  231.89  169.59   1
   9  -8 -10  163.56  137.42   1
  -8  -1 -13  277.70  250.65   1
   9  -8 -13  489.16  191.77   1
  -1   9 -13  438.24  196.82   1
   8   2 -12  987.42  241.33   1
   2 -10 -12  215.54  214.65   1
   8   2  -910376.19 1973.16   1
   2 -10  -9 7147.40 1965.05   1
   8   2  -620818.21 4544.77   1
   8   2  -3 9931.64 2118.41   1
  -8  -2   3 9064.61 2116.67   1
   8   2   010725.43 2296.61   1
  -8  -2   0 9776.10 2300.19   1
 -10   8   0 9845.09 2303.06   1
  10  -8   011107.97 2299.86   1
   8   2   3   13.28   96.47   1
  -8  -2  -3  106.36   78.86   1
 -10   8   3   65.04   87.62   1
  10  -8  -3  136.98   85.38   1
  -8  -2  -6  682.10  249.19   1
  10  -8  -6  561.95  231.38   1
  -8  -2  -9 -117.87   99.17   1
  -8  -2 -12  254.43  200.57   1
  10  -8 -12  309.38  162.30   1
   8   3 -13 1660.55  292.43   1
   3 -11 -13  662.83  282.77   1
   3 -11 -13  367.92  261.40   1
   8   3 -10 6901.16 1179.17   1
   3 -11 -10 3361.81 1164.05   1
   8   3  -728956.84 6279.59   1
   8   3  -438101.76 8205.58   1
   8   3  -119647.31 4361.06   1
  -8  -3   118662.02 4365.27   1
 -11   8  -120718.15 4377.05   1
  11  -8   121522.92 4373.16   1
   8   3   2 3852.02  734.96   1
  -8  -3  -2 2080.65  726.91   1
 -11   8   2 2334.22  727.70   1
  11  -8  -2 3789.27  738.46   1
  -8  -3  -5   98.83  120.98   1
 -11   8   5  164.77  101.56   1
  11  -8  -5  127.19  109.31   1
  -8  -3  -8  105.94  143.49   1
  11  -8  -8   69.24  103.54   1
  11  -8 -11  505.83  228.97   1
  -8  -3 -14   41.51  156.03   1
  -8  -3 -14   83.58  106.69   1
  11  -8 -14   93.97   85.77   1
  -3  11 -14 -120.21  110.57   1
   8   4 -14  130.42   79.98   1
 -12   8 -14 -228.16  155.74   1
   8   4 -11 2506.38  647.50   1
   8   4  -8 3506.82  857.44   1
   8   4  -521088.82 4486.34   1
 -12   8  -519879.11 4507.29   1
   8   4  -215943.78 3434.51   1
  -8  -4   214781.31 3431.71   1
 -12   8  -216557.73 3448.26   1
  -4  12   215590.38 3445.65   1
   8   4   1 5593.78 1001.44   1
  -8  -4  -1 3289.63  992.24   1
 -12   8   1 3945.32 1014.43   1
  12  -8  -1 4048.13  995.46   1
  -8  -4  -423999.66 5582.21   1
 -12   8   422928.45 5586.58   1
  12  -8  -429119.64 5567.39   1
  -8  -4  -7 1517.77  482.83   1
  12  -8  -7 1726.89  463.39   1
  12  -8 -10  371.68  189.22   1
  12  -8 -13   38.91   86.75   1
   8   5 -12   -9.29  100.43   1
 -13   8 -12  215.04  186.43   1
   8   5  -9 1056.39  329.81   1
   8   5  -6 1763.24  447.03   1
 -13   8  -6 1420.79  472.69   1
   8   5  -3 9315.40 1943.89   1
 -13   8  -3 7926.74 1949.90   1
   8   5   0 4580.38  954.19   1
  -8  -5   0 3889.20  961.60   1
 -13   8   0 3355.09  948.25   1
  13  -8   0 4504.18  963.14   1
  -8  -5  -322230.62 5312.65   1
 -13   8   323675.07 5320.78   1
  13  -8  -327016.92 5304.50   1
  -8  -5  -612670.86 3066.07   1
 -13   8   613170.28 3043.31   1
  13  -8  -615734.59 3064.36   1
  -8  -5 -12  519.77  229.39   1
   8   6 -13  275.31  146.72   1
 -14   8 -13  126.06  196.58   1
   8   6 -10  628.94  212.62   1
 -14   8 -10  453.10  238.03   1
   8   6  -7 2841.19  709.37   1
 -14   8  -7 3056.21  758.32   1
   8   6  -4  197.90  140.05   1
 -14   8  -4  285.51  170.16   1
   8   6  -110433.41 2219.77   1
  -8  -6   1 8909.71 2226.26   1
 -14   8  -110381.54 2249.16   1
  14  -8   110328.00 2235.18   1
   8   6   223535.83 5378.97   1
  -8  -6  -225437.47 5409.97   1
 -14   8   221616.02 5402.60   1
  14  -8  -229362.79 5401.48   1
  -8  -6  -521368.62 5303.18   1
 -14   8   524575.35 5296.63   1
  14  -8  -526620.94 5293.15   1
  14  -8  -813803.88 3066.15   1
  -8  -6 -11  685.82  339.97   1
  14  -8 -11 1520.94  347.14   1
  -8  -6 -14  -30.72  126.58   1
  -8  -6 -14   45.52   69.63   1
  14  -8 -14  -65.71  114.01   1
   8   7 -14   -4.30   94.40   1
 -15   8 -14  113.20  146.16   1
   8   7 -11  100.34   69.62   1
 -15   8 -11 -184.75  165.25   1
   8   7  -8  342.51  159.89   1
 -15   8  -8  265.01  202.78   1
   8   7  -5  411.36  201.56   1
 -15   8  -5  628.79  234.16   1
   8   7  -2 1763.44  417.06   1
 -15   8  -2 1343.34  431.76   1
  15  -8   2 1478.86  431.11   1
  -7  15   2 1323.97  420.68   1
   8   7   114535.64 3016.36   1
  -8  -7  -113689.33 3015.62   1
 -15   8   112480.01 3015.18   1
  15  -8  -113890.88 3015.49   1
   8   7   4  877.21  323.21   1
  -8  -7  -4  661.91  313.95   1
 -15   8   4  980.71  323.17   1
  15  -8  -4 1434.63  328.06   1
  -8  -7  -7 8156.89 2438.96   1
  15  -8  -713194.42 2430.96   1
  15  -8 -10 1035.00  343.48   1
  -8  -7 -13   19.17  112.34   1
  -8  -7 -13   22.50  100.80   1
  15  -8 -13  363.35  137.10   1
   8   8 -12 2033.81  461.22   1
 -16   8 -12 1160.42  505.26   1
   8   8  -9 1026.52  312.50   1
 -16   8  -9  954.64  352.48   1
   8   8  -6   79.58  118.54   1
 -16   8  -6  236.08  186.61   1
   8   8  -3 1202.88  274.88   1
 -16   8  -3  780.82  299.10   1
  -8  16   3  471.45  264.64   1
   8   8   0 2151.91  547.50   1
  -8  -8   0 1939.55  536.90   1
 -16   8   0 1769.58  570.52   1
  16  -8   0 2487.58  564.68   1
   8   8   3 1111.12  302.62   1
 -16   8   3  892.05  293.70   1
  16  -8  -3  735.29  265.23   1
  -8  -8  -6   -2.78  101.17   1
 -16   8   6   90.02   97.03   1
  16  -8  -6  153.43  113.82   1
  16  -8  -9 1165.89  367.61   1
  -8  -8 -12  254.43  248.19   1
  -8  -8 -12  215.05  239.83   1
   8   9 -13  637.88  179.85   1
 -17   8 -13  138.86  230.03   1
   8   9 -10 2404.67  655.94   1
 -17   8 -10 2849.74  712.05   1
   8   9  -7  328.73  177.50   1
 -17   8  -7  476.05  240.93   1
   8   9  -4 2817.85  554.85   1
 -17   8  -4 2271.23  582.37   1
  -9  17   4 1208.41  553.68   1
   8   9  -115854.62 2865.44   1
 -17   8  -1 9890.05 2852.63   1
  17  -8   114057.17 2866.76   1
  -9  17   112474.54 2869.48   1
   8   9   2  806.56  271.46   1
  -8  -9  -2  629.98  249.93   1
 -17   8   2  493.16  255.49   1
  17  -8  -2  954.19  269.47   1
  -8  -9  -5  347.58  237.01   1
 -17   8   5  642.69  246.64   1
  17  -8  -5  955.54  250.58   1
  -8  -9  -8  198.20  186.24   1
  17  -8  -8  760.16  206.11   1
  17  -8 -11 1522.89  431.08   1
   8  10 -11 2401.53  637.85   1
 -18   8 -11 2666.69  694.74   1
   8  10  -8 1157.86  353.19   1
 -18   8  -8 1213.59  395.12   1
   8  10  -5 5692.10 1331.42   1
 -18   8  -5 5800.11 1364.44   1
   8  10  -2 8737.79 1675.76   1
 -18   8  -2 5894.63 1664.64   1
 -10  18   2 7719.11 1698.89   1
   8  10   1 1189.14  297.50   1
  -8 -10  -1  813.72  296.56   1
 -18   8   1  624.86  304.69   1
  18  -8  -1  987.36  310.67   1
   8  10   4  205.88  151.08   1
  -8 -10  -4  101.77  135.55   1
 -18   8   4  287.66  152.99   1
  18  -8  -4  328.75  158.12   1
  -8 -10  -7   82.15  167.92   1
 -18   8   7  517.60  192.83   1
  18  -8  -7  571.35  189.45   1
  18  -8 -10  288.64  193.10   1
  18  -8 -13  181.96  161.70   1
   8  11 -12  779.41  210.07   1
 -19   8 -12  274.25  232.73   1
   8  11  -9 8929.34 1610.25   1
 -19   8  -9 5050.18 1618.25   1
   8  11  -610923.99 2355.93   1
 -19   8  -6 9987.49 2392.63   1
   8  11  -320966.68 3507.77   1
 -19   8  -318603.69 3516.49   1
 -11  19   3 8995.37 3499.84   1
   8  11   010917.32 2464.64   1
 -19   8   0 9717.04 2461.61   1
  19  -8   012833.89 2475.20   1
 -11  19   010743.69 2478.85   1
   8  11   3  365.40  156.26   1
  -8 -11  -3  185.06  127.33   1
 -19   8   3  138.92  150.08   1
  19  -8  -3  229.55  134.51   1
 -19   8   6   61.48  115.82   1
  19  -8  -6   83.63  121.14   1
  19  -8  -9 1255.94  364.52   1
  19  -8 -12  526.03  222.00   1
   8  12 -13   90.76  108.24   1
 -20   8 -13  196.36  180.50   1
   8  12 -10 1181.40  287.71   1
 -20   8 -10  406.14  347.87   1
   8  12  -7 2088.82  517.67   1
 -20   8  -7 1724.65  557.19   1
   8  12  -4 7777.64 1497.04   1
 -20   8  -4 7288.55 1526.08   1
 -12  20   4 3992.00 1516.66   1
   8  12  -113099.41 2757.29   1
 -20   8  -113793.24 2791.80   1
  20  -8   111091.78 2772.90   1
 -12  20   112004.06 2770.71   1
   8  12   2 7466.17 1362.18   1
 -20   8   2 4179.97 1351.25   1
  20  -8  -2 5881.09 1359.09   1
  -8 -12  -5 2589.15  793.97   1
 -20   8   5 3190.71  807.11   1
  20  -8  -5 3863.94  813.05   1
  20  -8  -8  282.51  166.69   1
  20  -8 -11  273.19  186.97   1
   8  13 -11   47.05  109.50   1
 -21   8 -11   52.98  159.10   1
   8  13  -8  248.52  141.86   1
 -21   8  -8  254.41  192.39   1
   8  13  -5 2585.17  525.42   1
 -21   8  -5 2156.45  564.08   1
 -13  21   5 1050.83  528.86   1
   8  13  -2 9188.82 1862.31   1
 -21   8  -2 8632.61 1881.00   1
  21  -8   2 8540.45 1868.37   1
 -13  21   2 6270.29 1868.43   1
   8  13   124994.45 5152.57   1
 -21   8   120867.35 5145.42   1
  21  -8  -126302.47 5147.38   1
 -13  21  -122085.93 5164.42   1
   8  13   423545.20 4832.82   1
 -21   8   421239.99 4835.90   1
  21  -8  -421644.37 4808.11   1
 -21   8   7 9283.26 2065.22   1
  21  -8  -7 8980.69 2067.79   1
  21  -8 -10 1517.26  421.92   1
   8  14 -12  215.72  126.22   1
 -22   8 -12  165.71  176.19   1
   8  14  -9 1109.59  297.97   1
 -22   8  -9  692.82  349.25   1
   8  14  -6  265.09  119.12   1
 -22   8  -6   47.00  179.87   1
 -14  22   6   94.76  100.19   1
   8  14  -3 6034.10 1146.75   1
 -22   8  -3 4658.41 1168.21   1
  22  -8   3 6218.24 1185.89   1
 -14  22   3 2708.63 1160.38   1
   8  14   014422.67 3314.39   1
 -22   8   014585.73 3334.05   1
  22  -8   018120.10 3341.60   1
 -14  22   013268.02 3343.57   1
   8  14   318109.80 4033.64   1
 -22   8   319453.73 4053.04   1
  22  -8  -317937.29 4029.71   1
 -22   8   613737.86 3181.07   1
  22  -8  -615208.55 3200.92   1
  22  -8  -9 5523.54 1293.62   1
  22  -8 -12  337.97  185.14   1
   8  15 -10   76.07   43.88   1
 -23   8 -10 -294.93  168.56   1
   8  15  -7  106.67  112.22   1
 -23   8  -7  156.69  162.43   1
   8  15  -4  974.36  240.36   1
 -23   8  -4  544.95  242.53   1
 -15  23   4  292.80  245.79   1
   8  15  -1 7576.83 1597.00   1
 -23   8  -1 6582.22 1596.88   1
  23  -8   1 7617.93 1596.02   1
 -15  23   1 5373.62 1625.54   1
   8  15   2 6602.88 1458.11   1
 -23   8   2 6399.16 1511.05   1
  23  -8  -2 6532.79 1472.31   1
 -15  23  -2 5562.60 1480.21   1
 -23   8   5 4800.54 1151.83   1
  23  -8  -5 4827.88 1136.53   1
  23  -8  -8 1440.70  430.63   1
  23  -8 -11  334.72  189.82   1
   8  16 -11   86.67   94.62   1
 -24   8 -11   40.75  170.05   1
   8  16  -8  494.13  207.29   1
 -24   8  -8  568.64  278.63   1
   8  16  -5   48.82   88.03   1
 -24   8  -5  -80.32  100.28   1
 -16  24   5   56.28   70.26   1
   8  16  -2 1508.94  436.47   1
 -24   8  -2 1899.94  447.79   1
  24  -8   2 1355.42  451.18   1
 -16  24   2  994.41  471.99   1
   8  16   1 7984.43 1604.92   1
 -24   8   1 6048.39 1597.70   1
  24  -8  -1 8772.83 1600.37   1
 -16  24  -1 5253.03 1586.00   1
   8  16   4  196.33  131.05   1
 -24   8   4  120.23  140.83   1
  24  -8  -4   78.08  138.76   1
 -24   8   7  172.27  124.37   1
  24  -8  -7  126.10  155.50   1
  24  -8 -10  321.79  186.58   1
   8  17  -9  911.75  214.33   1
 -25   8  -9  103.68  258.73   1
   8  17  -6   42.60  137.08   1
 -25   8  -6  265.97  130.59   1
 -17  25   6   41.64  116.61   1
   8  17  -3   50.39  167.23   1
 -25   8  -3  384.35  200.73   1
  25  -8   3  423.70  206.24   1
 -17  25   3  394.35  170.39   1
   8  17   0 6799.13 1365.69   1
 -25   8   0 4460.04 1352.17   1
  25  -8   0 7027.43 1368.95   1
 -17  25   0 5078.83 1370.58   1
   8  17   3  923.69  291.84   1
 -25   8   3  944.09  322.54   1
  25  -8  -3 1123.36  330.48   1
 -17  25  -3  639.03  332.36   1
 -25   8   6  567.60  243.87   1
  25  -8  -6  692.21  242.00   1
  25  -8  -9  574.54  242.63   1
   8  18 -10 1016.04  259.99   1
 -26   8 -10  466.32  280.86   1
   8  18  -7 1849.05  319.82   1
 -26   8  -7  976.63  323.85   1
 -18  26   7  383.65  300.25   1
   8  18  -4   95.84   95.84   1
 -26   8  -4   83.60  153.90   1
 -18  26   4  -57.07  101.41   1
   8  18  -1 3454.55  861.71   1
 -26   8  -1 3249.94  886.87   1
  26  -8   1 4452.38  932.11   1
 -18  26   1 3405.33  912.98   1
   8  18   2 1275.23  306.13   1
 -26   8   2  778.97  309.61   1
  26  -8  -2  666.61  307.46   1
 -18  26  -2  702.69  313.05   1
 -26   8   5  814.55  274.63   1
  26  -8  -5  673.39  250.93   1
  26  -8  -8   31.54  116.13   1
  26  -8 -11   25.10  126.00   1
   8  19 -11  334.38  124.06   1
 -27   8 -11   86.33  140.89   1
   8  19  -8 5335.06  968.54   1
 -27   8  -8 2564.87  981.79   1
   8  19  -5 6900.13 1299.26   1
 -27   8  -5 4370.28 1292.94   1
   8  19  -213219.62 2180.39   1
 -27   8  -2 8286.62 2180.59   1
  27  -8   213706.61 2237.48   1
 -19  27   2 5734.55 2168.01   1
   8  19   1 2486.48  518.27   1
 -27   8   1 1508.55  536.15   1
  27  -8  -1 2559.40  545.23   1
 -19  27  -1  972.48  552.98   1
   8  19   4  148.82  133.01   1
 -27   8   4  108.75  151.21   1
  27  -8  -4  221.49  155.46   1
 -19  27  -4   64.17  162.46   1
 -27   8   7   22.85   97.26   1
  27  -8  -7   16.23   89.34   1
  27  -8 -10  220.14  175.77   1
   8  20  -9 2066.20  406.68   1
 -28   8  -9  570.46  432.52   1
   8  20  -6 3699.98  676.54   1
 -28   8  -6 2980.24  707.35   1
 -20  28   6 1118.56  684.63   1
   8  20  -3 7779.46 1431.14   1
 -28   8  -3 5707.39 1435.52   1
  28  -8   3 6523.94 1445.17   1
 -20  28   3 3541.87 1478.86   1
   8  20   0 8164.20 1542.55   1
 -28   8   0 4627.47 1553.95   1
  28  -8   0 7097.62 1564.22   1
 -20  28   0 6814.97 1594.13   1
   8  20   3  989.48  259.29   1
 -28   8   3  435.34  279.21   1
  28  -8  -3  958.50  294.88   1
 -20  28  -3  627.45  295.26   1
 -28   8   6   11.04  112.27   1
  28  -8  -6  183.06  110.39   1
 -20  28  -6   51.67  148.94   1
  28  -8  -9  497.16  230.60   1
   8  21 -10  -68.00   50.57   1
 -29   8 -10  -45.54  143.59   1
   8  21  -7  -21.17   79.30   1
 -29   8  -7    1.12  154.72   1
 -21  29   7   39.89   61.58   1
   8  21  -4 1023.83  275.76   1
 -29   8  -4  540.87  295.33   1
   8  21  -1 2504.89  541.10   1
 -29   8  -1 1485.38  550.80   1
  29  -8   1 2382.07  568.05   1
 -21  29   1 1481.83  597.81   1
   8  21   2 3699.54  667.19   1
 -29   8   2 2092.30  651.79   1
  29  -8  -2 2234.53  647.95   1
 -21  29  -2 2127.64  662.25   1
 -29   8   5  459.47  270.49   1
  29  -8  -5  997.49  269.85   1
 -21  29  -5  764.32  287.49   1
  29  -8  -8  111.59  135.36   1
 -21  29  -8  227.37  174.31   1
   8  22  -8 -110.53   78.60   1
 -30   8  -8   96.96  124.53   1
   8  22  -5   28.55  100.83   1
 -30   8  -5   92.51  144.13   1
 -22  30   5  119.30   98.75   1
   8  22  -2 3727.45  557.40   1
 -30   8  -2 1359.35  542.80   1
  30  -8   2 2074.77  555.32   1
 -22  30   2 1080.29  543.70   1
   8  22   1 4851.13  979.53   1
 -30   8   1 3391.21  992.87   1
  30  -8  -1 4492.68 1001.92   1
 -22  30  -1 3295.05 1021.89   1
 -30   8   4 3375.48 1037.21   1
  30  -8  -4 5548.80 1044.90   1
 -22  30  -4 4024.38 1045.08   1
 -30   8   7 1798.00  597.89   1
  30  -8  -7 2464.02  586.40   1
 -22  30  -7 2671.95  622.05   1
   8  23  -9   15.17   65.93   1
 -31   8  -9  -67.14  125.20   1
   8  23  -6   26.09   58.25   1
 -31   8  -6 -111.87  126.07   1
   8  23  -3  418.51  160.55   1
 -31   8  -3  265.57  167.29   1
  31  -8   3  137.80  184.96   1
 -23  31   3  231.48  165.45   1
   8  23   0 3500.49  567.55   1
 -31   8   0 1533.50  553.93   1
  31  -8   0 2000.27  558.93   1
 -23  31   0 1493.70  556.53   1
   8  23   3 1553.43  356.95   1
 -31   8   3  649.58  382.97   1
  31  -8  -3 1786.05  392.14   1
 -23  31  -3  867.34  403.69   1
 -31   8   6 1960.52  706.49   1
  31  -8  -6 3587.74  708.78   1
 -23  31  -6 2873.83  727.05   1
  31  -8  -9  414.19  180.95   1
 -23  31  -9  362.13  204.47   1
   8  24  -7   -8.10   77.90   1
 -32   8  -7   43.73  122.67   1
 -24  32   7  -47.91   59.06   1
   8  24  -4   77.23  112.19   1
 -32   8  -4  262.05  131.48   1
 -24  32   4  -40.57  113.73   1
   8  24  -1   69.95  141.80   1
 -32   8  -1   18.93  130.84   1
  32  -8   1  126.03  170.88   1
 -24  32   1  234.75  137.90   1
   8  24   2  154.94   97.54   1
 -32   8   2  -53.23   91.09   1
  32  -8  -2   -5.64  137.83   1
 -24  32  -2  -48.13  150.68   1
 -32   8   5   24.82  121.22   1
  32  -8  -5   75.13  150.95   1
 -24  32  -5  231.00  151.35   1
  32  -8  -8  185.35  135.31   1
 -24  32  -8  130.11  148.42   1
   8  25  -8  128.40  106.71   1
 -33   8  -8   88.47  132.75   1
   8  25  -5   47.25   89.85   1
 -33   8  -5   81.59  109.52   1
 -25  33   5  -30.65  104.46   1
   8  25  -2 2612.32  458.63   1
 -33   8  -2  751.54  448.84   1
  33  -8   2 1414.63  458.74   1
 -33   8   1  100.09  133.50   1
  33  -8  -1  105.85  151.01   1
 -25  33  -1  236.53  191.11   1
 -33   8   4  568.20  230.10   1
  33  -8  -4  583.82  239.42   1
 -25  33  -4  509.95  251.04   1
 -33   8   7  -66.54   97.09   1
  33  -8  -7  101.24  135.15   1
 -25  33  -7  207.51  125.39   1
   8  26  -6  156.25  112.70   1
 -34   8  -6   10.92  140.79   1
 -26  34   6   87.79  122.29   1
   8  26  -3  210.43  140.72   1
 -34   8  -3   17.58  132.01   1
  34  -8   3  187.79  155.47   1
 -26  34   3  196.32  135.13   1
   8  26   0  -45.37   92.64   1
 -34   8   0  -11.52  114.65   1
  34  -8   0   54.35  141.30   1
 -26  34   0  220.94  138.94   1
   8  26   3   53.03  138.73   1
 -34   8   3  347.88  149.22   1
  34  -8  -3  189.86  162.88   1
 -26  34  -3  178.20  176.70   1
 -34   8   6    3.31   80.65   1
  34  -8  -6  124.15  119.14   1
 -26  34  -6  -62.05  125.67   1
   8  27  -4 1797.31  286.17   1
 -35   8  -4  675.91  289.97   1
 -27  35   4  100.19  269.74   1
   8  27  -1 2653.60  421.73   1
 -35   8  -1 1436.47  415.28   1
  35  -8   1 1645.29  424.11   1
 -27  35   1  523.94  379.31   1
 -35   8   2  128.68  107.49   1
  35  -8  -2 -174.36  132.94   1
 -27  35  -2  116.46  162.32   1
 -35   8   5   21.65  102.51   1
  35  -8  -5  213.01  132.15   1
 -27  35  -5   79.01  137.61   1
   8  28  -5 1263.92  230.37   1
 -36   8  -5  338.96  233.12   1
 -28  36   5  140.87  227.84   1
   8  28  -2 2234.71  408.64   1
 -36   8  -2 1306.19  397.82   1
  36  -8   2 1221.80  417.08   1
 -28  36   2  677.76  393.96   1
  36  -8  -1  773.23  385.74   1
   8  28   1 1142.00  236.96   1
 -36   8   1  223.16  242.65   1
 -28  36  -1  329.76  268.15   1
 -36   8   4 -131.11   68.45   1
  36  -8  -4  -15.70   90.44   1
 -28  36  -4  -17.94  118.95   1
   8  29  -3  891.69  208.67   1
 -37   8  -3  269.08  218.88   1
  37  -8   3  568.25  255.84   1
 -29  37   3  243.02  236.24   1
 -37   8   0  636.22  365.10   1
   8  29   0 2286.79  311.31   1
  37  -8   0  695.30  289.50   1
 -29  37   0  256.53  259.10   1
   8  29   3  403.18  179.91   1
 -37   8   3  284.57  180.12   1
  37  -8  -3  330.97  201.20   1
 -29  37  -3  549.56  220.01   1
   8  30  -1  213.82  115.70   1
 -38   8  -1  165.96  135.44   1
  38  -8   1   98.19  157.43   1
 -30  38   1   88.58  124.49   1
   8  30   2  801.93  175.10   1
 -38   8   2  114.12  163.63   1
  38  -8  -2   25.96  182.13   1
 -30  38  -2  212.15  188.86   1
   9   1 -13    4.86  104.94   1
   1 -10 -13   58.59   74.47   1
   9   1 -10  144.47  109.55   1
   1 -10 -10   18.26   84.08   1
   9   1  -7   33.07   91.10   1
   9   1  -4 3058.79  765.18   1
   9   1  -1 2916.45  677.41   1
  -9  -1   1 2754.56  687.89   1
 -10   9  -1 2686.60  689.12   1
   9   1   211927.69 2198.32   1
  -9  -1  -2 6734.59 2202.58   1
 -10   9   2 9082.37 2191.16   1
  10  -9  -211153.44 2187.99   1
  -9  -1  -5 2560.57  630.67   1
 -10   9   5 1816.76  615.79   1
  10  -9  -5 2732.27  607.53   1
  -9  -1  -8 1629.68  515.19   1
  10  -9  -8 1859.28  498.05   1
  -9  -1 -11 1097.93  444.28   1
  10  -9 -11 1519.36  412.18   1
  -9  -1 -14   17.31  149.99   1
  10  -9 -14  -32.93   91.42   1
  -1  10 -14  -19.19   90.01   1
   9   2 -14   84.43  109.46   1
   9   2 -11   50.34   99.57   1
   9   2  -8  681.40  238.72   1
   9   2  -5 4258.17 1015.86   1
   9   2  -2  135.15   95.09   1
  -9  -2   2  101.86   90.37   1
 -11   9  -2   74.31  118.54   1
   9   2   1  719.65  198.23   1
  -9  -2  -1  586.61  208.39   1
 -11   9   1  319.35  199.57   1
  11  -9  -1  780.28  219.49   1
  -9  -2  -420286.90 4457.49   1
 -11   9   417943.79 4449.50   1
  11  -9  -423619.74 4469.35   1
  11  -9  -7 2485.14  635.52   1
  -9  -2 -10 4634.60 1150.34   1
  11  -9 -10 4672.73 1127.53   1
  -9  -2 -13  391.62  357.66   1
  11  -9 -13 1213.36  311.01   1
  -2  11 -13 1510.75  361.96   1
   9   3 -12 1049.45  341.62   1
   9   3  -9 4102.32  991.26   1
   9   3  -629397.17 6373.48   1
   9   3  -321075.04 4345.87   1
  -9  -3   319036.20 4345.34   1
 -12   9  -319660.81 4354.29   1
   9   3   0 3155.65  738.87   1
  -9  -3   0 2613.65  748.27   1
 -12   9   0 3204.66  760.55   1
  12  -9   0 3218.19  748.22   1
   9   3   3  -35.19   89.39   1
  -9  -3  -3  -74.59   81.82   1
 -12   9   3   64.29   73.48   1
  12  -9  -3   98.86   77.18   1
 -12   9   6  329.57  140.61   1
  12  -9  -6  205.25  156.68   1
  -9  -3  -9  124.34  181.77   1
  12  -9  -9  411.38  161.88   1
  -9  -3 -12   74.65  184.04   1
  12  -9 -12  344.04  145.00   1
   9   4 -13   20.94  122.92   1
 -13   9 -13  219.72  182.34   1
   9   4 -10  209.51  141.76   1
   9   4  -7 2309.62  604.47   1
   9   4  -4   45.65  110.31   1
 -13   9  -4  202.96  135.60   1
   9   4  -1 6288.04 1333.01   1
  -9  -4   1 5401.01 1334.26   1
 -13   9  -1 5230.74 1353.27   1
  13  -9   1 6233.48 1344.65   1
   9   4   2 -164.78  104.28   1
  -9  -4  -2   92.10   78.01   1
 -13   9   2  177.34   87.90   1
  -9  -4  -5  599.64  242.18   1
 -13   9   5  790.51  248.46   1
  13  -9  -5  819.04  260.59   1
  13  -9  -8  624.63  244.30   1
  13  -9 -11  536.92  215.35   1
  -9  -4 -14  204.96  163.81   1
  -9  -4 -14   92.89  129.58   1
   9   5 -14  739.82  204.72   1
 -14   9 -14  131.89  243.51   1
   9   5 -11 3275.33  750.96   1
 -14   9 -11 2592.02  795.44   1
   9   5  -817188.76 3741.03   1
 -14   9  -816807.08 3770.40   1
   9   5  -512851.41 2738.68   1
 -14   9  -511726.84 2753.02   1
   9   5  -2 6966.74 1635.17   1
  -9  -5   2 7400.57 1644.33   1
 -14   9  -2 7565.25 1666.12   1
  -5  14   2 7159.97 1656.01   1
   9   5   1  703.25  211.26   1
  -9  -5  -1  270.52  206.77   1
 -14   9   1  471.33  225.02   1
  14  -9  -1  789.32  231.09   1
   9   5   4  679.95  234.45   1
  -9  -5  -4  499.49  225.07   1
 -14   9   4  585.20  226.53   1
  14  -9  -4  645.58  237.66   1
  -9  -5  -7  182.83  183.22   1
  14  -9  -7  425.15  167.74   1
  -9  -5 -10  -61.66  143.85   1
  14  -9 -10  324.47  158.32   1
  -9  -5 -13   97.24  149.41   1
  14  -9 -13   59.74  127.87   1
   9   6 -12 1148.92  301.08   1
 -15   9 -12  621.10  348.56   1
   9   6  -9 3896.77  881.47   1
 -15   9  -9 3220.49  911.67   1
   9   6  -6 7272.64 1504.69   1
 -15   9  -6 5613.98 1522.78   1
   9   6  -3 2097.57  427.85   1
 -15   9  -3 1905.70  448.62   1
  -6  15   3  751.23  413.24   1
   9   6   0  821.85  236.29   1
  -9  -6   0  559.34  238.07   1
 -15   9   0  492.07  233.35   1
  15  -9   0  938.54  257.07   1
   9   6   3  169.79  113.47   1
  -9  -6  -3   83.89   82.12   1
 -15   9   3  -24.92   96.10   1
  15  -9  -3   29.52   96.85   1
 -15   9   6  419.00  193.33   1
  15  -9  -6  492.30  202.35   1
  15  -9  -9   66.28  141.33   1
  15  -9 -12  239.27  164.35   1
 -16   9 -13 -189.99  117.17   1
   9   7 -10  498.38  159.42   1
 -16   9 -10  114.37  184.29   1
   9   7  -7 9365.84 1975.86   1
 -16   9  -7 7943.13 2000.03   1
   9   7  -4 8682.11 1823.52   1
 -16   9  -4 7289.30 1835.98   1
   9   7  -1 6948.28 1821.80   1
  -9  -7   1 8532.53 1832.96   1
  16  -9   1 9153.47 1840.92   1
   9   7   214339.09 3324.85   1
  -9  -7  -215548.23 3348.80   1
 -16   9   212063.24 3339.38   1
  16  -9  -219164.45 3348.16   1
  -9  -7  -5 1948.05  807.59   1
 -16   9   5 3584.44  811.68   1
  16  -9  -5 4307.79  824.89   1
  -9  -7  -8  203.75  165.33   1
  16  -9  -8  376.13  171.30   1
  -9  -7 -11   -0.41   60.56   1
  16  -9 -11  -42.81  126.45   1
   9   8 -11 1467.06  376.47   1
 -17   9 -11 1014.84  422.34   1
   9   8  -8  765.88  271.39   1
 -17   9  -8  826.03  313.85   1
   9   8  -5  880.23  283.02   1
 -17   9  -5  775.57  305.93   1
   9   8  -2  831.93  244.61   1
 -17   9  -2  525.81  275.57   1
  17  -9   2  678.31  260.93   1
  -8  17   2  643.38  252.27   1
  -9  -8  -113505.62 2903.75   1
 -17   9   112268.15 2904.91   1
  17  -9  -113575.45 2909.29   1
   9   8   4 2348.94  618.49   1
 -17   9   4 2295.16  616.71   1
  17  -9  -4 2308.45  599.92   1
  -9  -8  -7  250.85  135.44   1
 -17   9   7  232.95  149.20   1
  17  -9  -7  111.54  147.67   1
  -9  -8 -10  786.11  471.06   1
  17  -9 -10 2443.81  484.56   1
  17  -9 -13  528.98  223.29   1
   9   9 -12   55.19  110.69   1
 -18   9 -12  175.47  211.99   1
   9   9  -9  625.52  216.28   1
 -18   9  -9  462.83  267.59   1
   9   9  -6 1110.07  322.42   1
 -18   9  -6  897.22  353.53   1
   9   9  -3 5553.06 1067.75   1
 -18   9  -3 4785.64 1084.63   1
  -9  18   3 3149.23 1065.02   1
   9   9   018000.81 3761.32   1
  -9  -9   015183.40 3749.45   1
 -18   9   018786.65 3788.61   1
  18  -9   017353.38 3768.09   1
   9   9   3 5589.62 1141.58   1
  -9  -9  -3 4395.47 1130.53   1
 -18   9   3 4058.21 1134.90   1
  18  -9  -3 4948.27 1113.80   1
  -9  -9  -6  475.24  311.45   1
 -18   9   6  994.69  319.05   1
  18  -9  -6 1437.94  328.96   1
  -9  -9  -9  154.54  183.72   1
  18  -9  -9  846.74  234.92   1
  18  -9 -12   71.50  145.81   1
   9  10 -13   19.94  103.93   1
 -19   9 -13  169.88  150.87   1
   9  10 -10  651.26  251.42   1
 -19   9 -10  811.05  335.51   1
   9  10  -7  530.45  201.46   1
 -19   9  -7  406.35  246.16   1
   9  10  -4  963.18  255.63   1
 -19   9  -4  887.06  282.47   1
 -10  19   4  221.54  250.59   1
   9  10  -1 2469.90  538.90   1
 -19   9  -1 1766.98  545.29   1
  19  -9   1 2203.28  550.93   1
 -10  19   1 1566.10  545.39   1
   9  10   2 3703.50  805.14   1
  -9 -10  -2 2520.21  765.08   1
 -19   9   2 3036.17  803.63   1
  19  -9  -2 3447.06  790.15   1
  -9 -10  -5 1606.22  660.69   1
 -19   9   5 2960.03  673.33   1
  19  -9  -5 3191.38  676.73   1
  19  -9  -8 2164.49  580.83   1
  19  -9 -11 1447.49  413.42   1
   9  11 -11  144.69   99.45   1
 -20   9 -11   15.97  160.30   1
   9  11  -8   36.11   90.33   1
 -20   9  -8   24.65  153.13   1
   9  11  -5 1192.73  351.13   1
 -20   9  -5 1060.80  376.68   1
   9  11  -2  230.66  128.29   1
 -20   9  -2  150.43  122.22   1
  20  -9   2  208.32  151.66   1
 -11  20   2   51.64  151.58   1
   9  11   1 6421.83 1328.68   1
 -20   9   1 4136.62 1342.87   1
  20  -9  -1 6743.41 1369.74   1
   9  11   412952.67 2380.75   1
  -9 -11  -4 7141.92 2367.84   1
 -20   9   411023.21 2377.53   1
  20  -9  -411147.92 2344.13   1
 -20   9   7 7493.02 1938.52   1
  20  -9  -7 9648.01 1945.41   1
  20  -9 -1010722.10 2410.19   1
  20  -9 -13  773.57  290.21   1
   9  12 -12   91.58  102.26   1
 -21   9 -12   93.20  150.72   1
   9  12  -9  129.55  102.27   1
 -21   9  -9  -30.40  153.76   1
   9  12  -6  557.43  225.70   1
 -21   9  -6  599.33  260.63   1
   9  12  -3  281.94  176.30   1
 -21   9  -3  660.70  186.76   1
 -12  21   3   97.47  164.69   1
   9  12   0 2637.69  627.54   1
 -21   9   0 2542.74  650.56   1
  21  -9   0 2872.58  658.12   1
 -12  21   0 1837.01  640.45   1
   9  12   3 2659.11  609.88   1
  -9 -12  -3 1775.07  596.27   1
 -21   9   3 2553.18  612.96   1
  21  -9  -3 2165.21  585.57   1
  -9 -12  -6   98.16   85.75   1
 -21   9   6  113.77  130.65   1
  21  -9  -6   82.67  146.71   1
  21  -9  -9  185.02  156.27   1
  21  -9 -12  -23.90  118.08   1
   9  13 -10 1498.50  359.85   1
 -22   9 -10  788.00  404.13   1
   9  13  -7  402.66  168.91   1
 -22   9  -7  234.58  206.51   1
   9  13  -4  661.33  211.81   1
 -22   9  -4  338.23  223.41   1
   9  13  -1 2630.49  615.05   1
 -22   9  -1 2505.96  645.78   1
  22  -9   1 2693.05  645.13   1
 -13  22   1 1796.84  632.66   1
   9  13   210961.53 2371.27   1
 -22   9   2 9057.63 2372.49   1
  22  -9  -211661.83 2378.14   1
 -22   9   5 4683.99  893.62   1
  22  -9  -5 3011.17  847.92   1
  22  -9  -8 8346.21 1912.49   1
  22  -9 -11  647.18  260.59   1
   9  14 -11  703.44  207.74   1
 -23   9 -11  377.84  266.22   1
   9  14  -8 1819.11  442.55   1
 -23   9  -8 1245.32  479.05   1
   9  14  -5   89.09   98.02   1
 -23   9  -5  -74.87  134.37   1
 -14  23   5   63.76   70.45   1
   9  14  -2 2156.82  483.11   1
 -23   9  -2 1476.35  509.61   1
  23  -9   2 1906.34  498.96   1
 -14  23   2 1273.27  490.70   1
   9  14   1 5295.04 1075.84   1
 -23   9   1 3692.11 1088.03   1
  23  -9  -1 5531.62 1095.00   1
 -14  23  -1 3634.93 1079.84   1
 -23   9   4  580.63  246.93   1
  23  -9  -4  626.57  237.87   1
 -23   9   7 2867.98  756.87   1
  23  -9  -7 3183.20  776.36   1
  23  -9 -10  248.28  175.33   1
   9  15 -12   73.15   84.00   1
 -24   9 -12   -5.60  154.49   1
   9  15  -9  298.58  138.94   1
 -24   9  -9  118.52  237.35   1
   9  15  -6  355.45  143.95   1
 -24   9  -6  212.82  173.97   1
 -15  24   6  123.78  120.45   1
   9  15  -3  774.56  236.77   1
 -24   9  -3  684.16  288.00   1
  24  -9   3  781.38  288.31   1
 -15  24   3  468.36  240.78   1
   9  15   0 6269.04 1204.89   1
 -24   9   0 5157.09 1206.26   1
  24  -9   0 5768.91 1208.55   1
 -15  24   0 3389.95 1191.08   1
   9  15   3 2535.03  671.55   1
 -24   9   3 2582.82  691.31   1
  24  -9  -3 2794.46  697.62   1
 -24   9   6  402.22  199.16   1
  24  -9  -6  431.82  191.09   1
  24  -9  -9  845.18  312.48   1
  24  -9 -12  260.68  189.98   1
   9  16 -10  299.91  139.60   1
 -25   9 -10   97.10  219.01   1
   9  16  -7 3344.15  643.85   1
 -25   9  -7 1578.81  655.56   1
   9  16  -4  459.77  481.17   1
 -25   9  -4 3190.03  501.84   1
 -16  25   4 1733.89  492.11   1
   9  16  -147059.40 9060.09   1
 -25   9  -140301.33 9058.34   1
  25  -9   143111.69 9051.50   1
 -16  25   135156.59 9095.22   1
   9  16   233290.30 5597.52   1
 -25   9   220715.27 5576.55   1
  25  -9  -226183.38 5572.58   1
 -16  25  -223500.68 5587.44   1
 -25   9   5 7331.61 1613.35   1
  25  -9  -5 6753.87 1582.96   1
  25  -9  -8 3961.65  975.25   1
  25  -9 -11  294.99  193.67   1
   9  17 -11  261.07  149.77   1
 -26   9 -11  326.72  203.20   1
   9  17  -8  194.24  129.66   1
 -26   9  -8  205.21  171.45   1
   9  17  -5  873.01  224.08   1
 -26   9  -5  201.44  241.25   1
   9  17  -2  995.17  259.45   1
 -26   9  -2  609.11  295.15   1
  26  -9   2 1009.47  299.59   1
 -17  26   2  354.50  295.83   1
   9  17   1  587.82  212.29   1
 -26   9   1  653.94  232.04   1
  26  -9  -1  532.26  259.52   1
 -17  26  -1  252.12  243.90   1
 -26   9   4  365.40  196.88   1
  26  -9  -4  272.79  196.35   1
 -26   9   7  453.33  233.24   1
  26  -9  -7  718.94  226.05   1
  26  -9 -10  227.13  157.22   1
   9  18  -9  562.48  178.37   1
 -27   9  -9  212.87  195.77   1
   9  18  -6  381.35  149.26   1
 -27   9  -6  231.98  169.11   1
 -18  27   6  133.63  136.21   1
   9  18  -3    5.38   83.67   1
 -27   9  -3 -115.91  140.83   1
  27  -9   3  142.73  142.74   1
   9  18   0  131.25  145.67   1
 -27   9   0   85.18  148.48   1
  27  -9   0  250.32  166.89   1
  27  -9  -3 1610.13  447.28   1
   9  18   3  846.11  270.54   1
 -27   9   3  610.10  308.51   1
 -18  27  -3  665.78  318.82   1
 -27   9   6  240.61  133.92   1
  27  -9  -6   98.33  126.64   1
  27  -9  -9  317.73  178.96   1
   9  19 -10 1796.10  355.55   1
 -28   9 -10  586.79  367.37   1
   9  19  -7 4125.05  535.68   1
 -28   9  -7 1897.96  552.41   1
 -19  28   7  478.55  511.42   1
   9  19  -4 3139.05  694.35   1
 -28   9  -4 3043.60  728.98   1
 -19  28   4 1776.72  752.82   1
   9  19  -1 5182.99 1168.01   1
 -28   9  -1 4231.49 1184.81   1
  28  -9   1 5617.40 1189.60   1
 -19  28   1 4812.48 1219.78   1
   9  19   2   33.31  105.43   1
 -28   9   2  140.41  138.93   1
  28  -9  -2 -221.59  161.44   1
 -19  28  -2   95.51  139.42   1
 -28   9   5   10.87  102.10   1
  28  -9  -5   -2.04  115.26   1
 -19  28  -5 -108.36  127.92   1
 -28   9   8  526.72  212.52   1
  28  -9  -8  503.57  201.27   1
   9  20  -8  518.42  193.45   1
 -29   9  -8  390.02  215.39   1
   9  20  -5  841.57  243.82   1
 -29   9  -5  517.90  249.10   1
   9  20  -2  153.99  162.01   1
 -29   9  -2  143.55  169.80   1
  29  -9   2  293.65  172.88   1
 -20  29   2  184.47  147.51   1
   9  20   1 1861.47  395.12   1
 -29   9   1 1108.32  408.22   1
  29  -9  -1 1658.07  422.73   1
 -20  29  -1  838.33  402.23   1
 -29   9   4 2131.53  651.03   1
  29  -9  -4 3000.60  658.44   1
 -20  29  -4 2298.57  656.99   1
 -29   9   7 1071.85  381.77   1
  29  -9  -7 1194.30  370.15   1
 -20  29  -7 1800.00  411.45   1
  29  -9 -10  633.30  245.73   1
   9  21  -9  837.50  222.40   1
 -30   9  -9  130.48  249.66   1
   9  21  -6 1326.44  236.05   1
 -30   9  -6  285.49  240.74   1
 -21  30   6  341.02  238.69   1
   9  21  -3  637.27  193.56   1
 -30   9  -3  355.15  206.75   1
  30  -9   3  340.32  217.04   1
 -21  30   3  130.84  199.04   1
   9  21   0  794.59  210.71   1
 -30   9   0  354.59  211.15   1
  30  -9   0  253.45  226.78   1
 -21  30   0  434.10  270.26   1
   9  21   3  113.03  115.80   1
 -30   9   3   57.74  119.85   1
  30  -9  -3   14.73  149.53   1
 -21  30  -3  269.26  150.30   1
 -30   9   6    0.21   69.79   1
  30  -9  -6  -56.42  101.83   1
 -21  30  -6  -90.00  112.19   1
  30  -9  -9   80.77  108.85   1
 -21  30  -9   -6.22  147.50   1
   9  22  -7  450.12  138.64   1
 -31   9  -7   79.70  172.12   1
 -22  31   7   79.66  114.02   1
   9  22  -4  873.56  253.51   1
 -31   9  -4  464.01  270.39   1
   9  22  -1  744.57  205.88   1
 -31   9  -1  315.86  211.13   1
  31  -9   1  323.48  241.91   1
 -22  31   1  384.52  250.75   1
   9  22   2  566.92  185.05   1
 -31   9   2  372.98  181.93   1
  31  -9  -2  328.41  232.61   1
 -22  31  -2   31.37  196.46   1
 -31   9   5 1068.55  409.21   1
  31  -9  -5 1778.99  427.52   1
 -22  31  -5 1443.66  428.56   1
  31  -9  -8   78.03  131.21   1
 -22  31  -8  237.75  164.29   1
   9  23  -8   23.92   74.69   1
 -32   9  -8  -73.77  117.16   1
   9  23  -5  182.46  137.23   1
 -32   9  -5  236.82  164.24   1
   9  23  -2   15.86  132.05   1
 -32   9  -2  104.96  121.93   1
  32  -9   2   36.19  142.50   1
 -23  32   2  163.78  108.53   1
   9  23   1   49.82  106.15   1
 -32   9   1  104.32  134.16   1
  32  -9  -1  127.80  143.71   1
 -23  32  -1   28.70  185.56   1
 -32   9   4  129.28  125.15   1
  32  -9  -4    4.63  135.21   1
 -23  32  -4  164.30  154.97   1
 -32   9   7  188.57  163.81   1
  32  -9  -7  359.90  190.70   1
 -23  32  -7  477.60  191.05   1
   9  24  -6  113.45  118.45   1
 -33   9  -6  221.52  149.34   1
 -24  33   6  -10.57   95.51   1
   9  24  -3 1625.87  300.47   1
 -33   9  -3  561.82  311.99   1
  33  -9   3 1003.58  334.92   1
 -24  33   3  374.26  311.94   1
   9  24   0  419.09  155.14   1
 -33   9   0  194.57  158.82   1
  33  -9   0  303.97  188.57   1
 -24  33   0  -51.01  183.00   1
   9  24   3  872.29  236.48   1
 -33   9   3  527.04  285.58   1
  33  -9  -3  640.10  260.19   1
 -24  33  -3  360.67  262.73   1
 -33   9   6   15.09   79.21   1
  33  -9  -6   54.61  120.99   1
 -24  33  -6  -70.71  119.84   1
   9  25  -7  907.48  165.77   1
 -34   9  -7  127.56  196.33   1
 -25  34   7   59.32  133.59   1
   9  25  -4 3965.81  534.38   1
 -34   9  -4 1277.61  534.68   1
 -25  34   4  754.03  521.15   1
   9  25  -1 5791.32  705.44   1
 -34   9  -1 1420.83  689.79   1
  34  -9   1 3073.18  699.14   1
 -25  34   1 1399.19  673.82   1
 -34   9   2  951.09  395.23   1
  34  -9  -2 1739.69  411.28   1
 -25  34  -2 1272.42  428.80   1
 -34   9   5 1037.33  412.27   1
  34  -9  -5 1966.52  433.00   1
 -25  34  -5 1450.74  434.27   1
   9  26  -5  156.90  111.86   1
 -35   9  -5   63.24  136.99   1
 -26  35   5   -4.59  136.55   1
   9  26  -2   16.50  100.58   1
 -35   9  -2   37.30  103.83   1
  35  -9   2  -53.79  148.65   1
 -26  35   2   56.24  110.31   1
   9  26   1   90.98  102.19   1
 -35   9   1  -10.50  119.05   1
  35  -9  -1  105.69  135.44   1
 -26  35  -1   44.60  150.90   1
 -35   9   4  160.22  120.51   1
  35  -9  -4  125.63  137.63   1
 -26  35  -4   23.95  151.99   1
   9  27  -3  -85.30   75.05   1
 -36   9  -3 -105.14   74.24   1
  36  -9   3  -16.31  137.15   1
 -27  36   3  -81.39   78.17   1
   9  27   0  149.96   92.76   1
 -36   9   0  -39.80  133.74   1
  36  -9   0  -53.64  126.94   1
 -27  36   0  125.22  117.32   1
   9  27   3   78.97  130.81   1
 -36   9   3  -70.85  103.55   1
  36  -9  -3  127.80  128.36   1
 -27  36  -3   -1.26  155.94   1
   9  28  -4  808.18  180.22   1
 -37   9  -4  230.07  182.60   1
 -28  37   4  -11.06  160.19   1
   9  28  -1  781.27  189.29   1
 -37   9  -1  333.14  216.78   1
  37  -9   1  429.35  228.91   1
 -28  37   1  191.32  199.45   1
   9  28   2  638.14  163.54   1
 -37   9   2  180.22  149.20   1
  37  -9  -2   53.45  164.74   1
 -28  37  -2  -41.78  186.97   1
   9  29  -2   93.98   77.85   1
 -38   9  -2   18.71  108.45   1
  38  -9   2 -164.42  134.80   1
 -29  38   2  -43.67   96.26   1
   9  29   1  -27.83   70.46   1
 -38   9   1 -176.78   59.79   1
  38  -9  -1 -118.85   85.37   1
  10   1 -12 1369.32  409.79   1
  10   1  -6 8057.57 1831.60   1
  10   1  -3 5431.10 1211.31   1
 -10  -1   3 5033.94 1208.60   1
  10   1   0   52.04  101.07   1
 -10  -1   0  186.00   93.92   1
 -11  10   0   -2.60  120.37   1
  11 -10   0  127.64  103.32   1
  10   1   3 7678.42 1548.80   1
 -10  -1  -3 5297.24 1528.35   1
 -11  10   3 5451.10 1544.06   1
  11 -10  -3 9380.36 1558.32   1
 -10  -1  -6  311.36  166.01   1
 -11  10   6  305.09  135.54   1
  11 -10  -6  108.36  139.72   1
 -10  -1  -9  488.52  210.06   1
  11 -10  -9  195.41  167.58   1
 -10  -1 -12  -24.65  186.79   1
  11 -10 -12   55.50  105.75   1
  10   2 -13   37.89  102.54   1
  10   2 -10  410.06  218.43   1
  10   2  -7 1859.53  509.89   1
  10   2  -4 1037.51  320.32   1
  10   2  -1  602.50  197.11   1
 -10  -2   1  461.20  207.18   1
 -12  10  -1  557.96  219.53   1
  10   2   2 2999.76  718.98   1
 -10  -2  -2 2753.88  721.30   1
 -12  10   2 2477.17  713.36   1
  12 -10  -2 3390.13  724.80   1
 -12  10   5   88.95   69.79   1
  12 -10  -5  -72.11   90.43   1
 -10  -2  -8 1443.18  507.80   1
  12 -10  -8 1814.85  480.57   1
 -10  -2 -11  350.07  235.52   1
  12 -10 -11  408.74  211.68   1
 -10  -2 -14  224.59  195.06   1
  12 -10 -14  107.07  140.35   1
  -2  12 -14  150.90  134.93   1
  10   3 -14  534.07  178.06   1
 -13  10 -14  124.09  225.36   1
  10   3 -11 1424.45  414.13   1
  10   3  -8 3095.38  776.29   1
  10   3  -5  -40.08   70.24   1
 -13  10  -5  -25.32   99.12   1
  10   3  -2    0.44   82.01   1
 -10  -3   2   19.24   73.54   1
 -13  10  -2   99.94  121.12   1
  10   3   1 5355.38 1104.53   1
 -10  -3  -1 4267.15 1111.08   1
 -13  10   1 3455.44 1096.66   1
  13 -10  -1 6004.51 1109.71   1
 -10  -3  -4 3909.03  951.70   1
 -13  10   4 4104.17  954.02   1
  13 -10  -4 3789.74  919.87   1
  13 -10  -7  405.10  194.81   1
 -10  -3 -10  461.75  291.02   1
  13 -10 -10  990.57  293.50   1
 -10  -3 -13  193.92  176.61   1
  10   4 -12   97.79  108.41   1
 -14  10 -12  -38.34  176.81   1
  10   4  -9  868.50  293.73   1
  10   4  -6 8069.86 1612.13   1
 -14  10  -6 5728.78 1630.45   1
  10   4  -326700.86 5738.28   1
 -10  -4   326505.03 5739.55   1
 -14  10  -326129.59 5744.97   1
  10   4   019007.01 4272.79   1
 -10  -4   019946.68 4278.94   1
 -14  10   019149.13 4282.19   1
  14 -10   020214.92 4275.99   1
  10   4   3 5073.52 1069.61   1
 -10  -4  -3 3881.76 1054.40   1
 -14  10   3 3297.42 1061.15   1
  14 -10  -3 5453.52 1054.32   1
 -10  -4  -6 1163.02  477.54   1
 -14  10   6 3096.58  541.91   1
  14 -10  -6 4094.60  549.30   1
 -10  -4  -9  407.58  187.15   1
  14 -10  -9  227.28  187.38   1
 -10  -4 -12  285.29  177.38   1
  14 -10 -12  199.14  166.76   1
  10   5 -13  388.79  162.81   1
 -15  10 -13  215.14  194.48   1
  10   5 -10 1938.69  516.72   1
 -15  10 -10 1847.02  547.32   1
  10   5  -7 1378.40  354.11   1
 -15  10  -7  845.60  382.55   1
  10   5  -4 3474.27  736.84   1
 -15  10  -4 2488.84  735.49   1
  10   5  -113930.45 3100.59   1
 -10  -5   114619.22 3100.17   1
 -15  10  -113562.54 3117.54   1
  15 -10   114118.38 3112.76   1
  10   5   2  471.09  177.59   1
 -10  -5  -2  310.42  165.57   1
 -15  10   2  385.51  176.04   1
  15 -10  -2  288.08  185.99   1
 -10  -5  -5 8180.26 2117.34   1
 -15  10   510596.99 2122.30   1
 -10  -5  -8 3274.76 1011.74   1
  15 -10  -8 5034.28 1013.56   1
 -10  -5 -11  788.12  530.51   1
  15 -10 -11 2884.21  534.37   1
 -10  -5 -14  -39.74  129.46   1
 -10  -5 -14  -65.03  101.98   1
  15 -10 -14  275.85  110.66   1
  10   6 -11 -138.31   24.86   1
 -16  10 -11 -161.77  140.14   1
  10   6  -8 -105.05   83.39   1
 -16  10  -8   95.58  134.23   1
  10   6  -5   47.54  101.73   1
  10   6  -2  262.28  116.84   1
 -10  -6   2  167.83  109.14   1
 -16  10  -2  -33.12  153.94   1
  -6  16   2  191.17  116.50   1
  10   6   1 2025.85  534.36   1
 -10  -6  -1 1930.07  546.44   1
 -16  10   1 1979.15  555.16   1
  16 -10  -1 2218.40  558.12   1
  10   6   4 4342.39  977.26   1
 -10  -6  -4 2896.89  964.87   1
 -16  10   4 4571.34  978.83   1
  16 -10  -4 4253.96  949.06   1
 -10  -6  -7 3421.26 1195.01   1
 -16  10   7 4645.87 1172.56   1
  16 -10  -7 6287.81 1171.78   1
 -10  -6 -10 1519.30  700.32   1
  16 -10 -10 4315.47  728.07   1
 -10  -6 -13   34.29  145.53   1
  16 -10 -13  650.32  181.28   1
  10   7 -12   67.07   99.39   1
 -17  10 -12  136.79  173.56   1
  10   7  -9 3221.07  720.47   1
 -17  10  -9 2380.11  747.69   1
  10   7  -6  319.16  193.94   1
 -17  10  -6  558.44  245.99   1
  10   7  -3 2124.63  500.89   1
 -17  10  -3 2017.46  526.29   1
  -7  17   3 1319.55  513.95   1
  10   7   0  115.99  112.07   1
 -10  -7   0  184.13  108.06   1
 -17  10   0   99.28  124.86   1
  17 -10   0  217.82  150.88   1
  10   7   3 3501.97  828.24   1
 -10  -7  -3 2919.61  832.51   1
 -17  10   3 2839.16  825.65   1
  17 -10  -3 3917.12  827.88   1
 -10  -7  -6  291.83  162.61   1
 -17  10   6  239.53  149.30   1
  17 -10  -6  293.65  170.15   1
 -10  -7  -9  -75.24   68.37   1
  17 -10  -9  -15.52  130.32   1
  17 -10 -12  347.56  188.74   1
  10   8 -13  -67.59   57.46   1
 -18  10 -13  -82.99  148.28   1
  10   8 -10  158.13  132.17   1
 -18  10 -10  237.54  184.86   1
  10   8  -7  452.82  206.49   1
 -18  10  -7  532.21  256.71   1
  10   8  -4  183.07  136.85   1
 -18  10  -4  232.39  181.78   1
  10   8  -1  964.34  288.03   1
 -10  -8   1 1107.58  295.95   1
 -18  10  -1  628.82  294.89   1
  18 -10   1 1055.76  315.32   1
  10   8   2 7466.25 1630.16   1
 -10  -8  -2 7759.34 1647.49   1
 -18  10   2 5224.22 1638.63   1
  18 -10  -2 8105.18 1640.78   1
 -10  -8  -5 2812.54 1054.31   1
 -18  10   5 4916.53 1056.68   1
  18 -10  -5 5216.72 1048.24   1
 -10  -8  -8  522.63  282.23   1
  18 -10  -8 1129.23  291.18   1
 -10  -8 -11  466.22  382.05   1
  18 -10 -11 2025.41  388.80   1
  10   9 -11 1699.11  408.40   1
 -19  10 -11 1064.96  466.79   1
  10   9  -8 2281.66  602.73   1
 -19  10  -8 2363.80  635.49   1
  10   9  -5 3384.97  805.20   1
 -19  10  -5 3058.57  839.97   1
  10   9  -2 3847.12  854.56   1
 -19  10  -2 3294.09  867.67   1
  19 -10   2 3454.87  869.45   1
  -9  19   2 3293.02  867.02   1
  10   9   1 2247.61  530.06   1
 -10  -9  -1 1637.10  536.96   1
 -19  10   1 1746.80  546.57   1
  19 -10  -1 2411.78  560.12   1
  10   9   4  899.48  251.34   1
 -10  -9  -4  220.24  243.92   1
 -19  10   4  697.08  252.41   1
  19 -10  -4  723.05  234.80   1
 -10  -9  -7  146.83  156.36   1
 -19  10   7  413.84  163.70   1
  19 -10  -7  356.21  195.26   1
 -10  -9 -10   88.74  106.61   1
  19 -10 -10  256.88  159.20   1
  19 -10 -13   28.51  114.47   1
  10  10 -12  339.86  135.38   1
 -20  10 -12   71.38  176.82   1
  10  10  -9 3035.98  633.70   1
 -20  10  -9 1672.91  664.54   1
  10  10  -6 5788.31 1248.44   1
 -20  10  -6 4652.03 1284.03   1
  10  10  -3 8727.38 1675.98   1
 -20  10  -3 9050.39 1701.92   1
 -10  20   3 4614.44 1673.51   1
  10  10   0 1107.18  327.82   1
 -10 -10   0 1118.26  330.28   1
 -20  10   0  946.66  344.54   1
  20 -10   0 1008.60  344.19   1
  10  10   3 8788.24 1638.64   1
 -10 -10  -3 5505.43 1619.26   1
 -20  10   3 5258.89 1632.60   1
  20 -10  -3 9094.19 1637.23   1
 -10 -10  -6 2226.08  954.91   1
 -20  10   6 3835.20  934.95   1
  20 -10  -6 6025.87  972.59   1
  20 -10  -9 2958.39  760.35   1
  10  11 -10  222.09  131.33   1
 -21  10 -10  176.61  193.55   1
  10  11  -7 2083.37  523.91   1
 -21  10  -7 1801.62  537.96   1
  10  11  -4 9645.14 1819.05   1
 -21  10  -4 9625.38 1844.37   1
 -11  21   4 4576.93 1828.88   1
  10  11  -110332.89 2193.99   1
 -21  10  -110372.03 2216.68   1
  21 -10   1 9836.12 2200.06   1
 -11  21   1 8166.16 2216.13   1
  10  11   210474.03 2233.81   1
 -10 -11  -2 7805.25 2213.59   1
 -21  10   2 9809.09 2225.26   1
  21 -10  -211733.19 2227.05   1
 -10 -11  -5 4084.86 1186.86   1
 -21  10   5 6858.14 1206.73   1
  21 -10  -5 4713.57 1157.06   1
  21 -10  -8 5567.93 1330.05   1
  10  12 -11   10.84   85.61   1
 -22  10 -11   23.75  150.36   1
  10  12  -8  -43.80   70.99   1
  10  12  -5  165.62  128.08   1
 -22  10  -5   53.93  188.11   1
 -12  22   5  190.00  103.86   1
  10  12  -2 3398.78  703.55   1
 -22  10  -2 2422.48  702.71   1
  22 -10   2 2992.22  719.49   1
 -12  22   2 2092.47  726.06   1
  10  12   1 1049.91  357.87   1
 -22  10   1 1137.32  383.71   1
  22 -10  -1 1418.24  395.70   1
  10  12   4   -1.98  123.45   1
 -10 -12  -4   75.18   96.54   1
 -22  10   4   58.35  118.37   1
  22 -10  -4  131.70  141.57   1
 -22  10   7   85.52  109.15   1
  22 -10  -7    2.89  130.02   1
  22 -10 -10 1823.49  498.60   1
  10  13 -12  124.79  124.68   1
 -23  10 -12  292.38  188.02   1
  10  13  -9  -33.71   66.75   1
 -23  10  -9  -41.09  143.64   1
  10  13  -6 1006.21  327.55   1
 -23  10  -6 1058.81  374.13   1
  10  13  -3  589.47  183.81   1
 -23  10  -3  362.78  183.71   1
 -13  23   3  160.51  189.30   1
  10  13   0 7359.79 1542.82   1
 -23  10   0 6653.71 1550.06   1
  23 -10   0 6917.10 1547.17   1
 -13  23   0 5531.80 1561.04   1
  10  13   3  370.41  236.02   1
 -23  10   3  415.44  250.60   1
  23 -10  -3  864.25  257.39   1
 -23  10   6  639.61  245.74   1
  23 -10  -6  593.06  235.69   1
  23 -10  -9  606.82  267.05   1
  23 -10 -12  214.38  169.45   1
  10  14 -10  115.79  122.41   1
 -24  10 -10  186.21  181.71   1
  10  14  -7 1787.02  448.51   1
 -24  10  -7 1327.19  486.92   1
  10  14  -4 1302.47  268.42   1
 -24  10  -4  665.52  263.78   1
 -14  24   4  315.37  262.39   1
  10  14  -1 1768.07  469.23   1
 -24  10  -1 1813.68  481.02   1
  24 -10   1 1871.72  492.35   1
 -14  24   1 1165.26  469.88   1
  10  14   2  232.85  162.73   1
 -24  10   2  227.95  171.28   1
  24 -10  -2  224.09  191.06   1
  10  14   5  901.91  292.07   1
 -24  10   5  673.76  283.74   1
  24 -10  -5  917.00  281.03   1
 -24  10   8  665.24  280.80   1
  24 -10  -8  965.83  295.86   1
  24 -10 -11  615.06  242.22   1
  10  15 -11   48.75  101.00   1
 -25  10 -11  134.86  184.96   1
  10  15  -8 1043.10  280.11   1
 -25  10  -8  516.46  324.58   1
  10  15  -5  156.71  118.12   1
 -25  10  -5   34.65  136.63   1
 -15  25   5  195.17  102.99   1
  10  15  -2 5125.20 1097.84   1
 -25  10  -2 4240.45 1109.81   1
  25 -10   2 4386.42 1108.70   1
 -15  25   2 4510.31 1132.86   1
  10  15   1 6121.79 1552.23   1
 -25  10   1 6728.38 1561.09   1
  25 -10  -1 7936.38 1577.74   1
 -15  25  -1 6395.85 1579.83   1
  10  15   4 8955.33 1756.10   1
 -25  10   4 5597.88 1736.02   1
  25 -10  -4 8283.35 1734.95   1
 -25  10   7 3310.99  866.46   1
  25 -10  -7 3736.17  862.61   1
  25 -10 -10 2314.86  631.36   1
  10  16  -9 1830.44  408.54   1
 -26  10  -9  814.62  458.54   1
  10  16  -6 2160.69  321.57   1
 -26  10  -6  817.25  285.63   1
 -16  26   6  248.92  264.26   1
  10  16  -3  973.74  271.17   1
 -26  10  -3  706.66  322.75   1
  26 -10   3 1307.07  323.78   1
 -16  26   3  431.64  277.52   1
  10  16   0 1799.54  441.45   1
 -26  10   0 1200.49  450.59   1
  26 -10   0 1850.97  455.45   1
 -16  26   0 1180.19  459.49   1
  10  16   3  328.45  172.52   1
 -26  10   3  343.78  201.26   1
  26 -10  -3  290.72  204.62   1
 -26  10   6  708.34  271.85   1
  26 -10  -6  775.24  256.01   1
  26 -10  -9  -47.97   96.37   1
  10  17 -10  362.84  148.68   1
 -27  10 -10  144.60  185.16   1
  10  17  -7  297.50  106.32   1
 -27  10  -7  -96.83  116.51   1
  10  17  -4  228.59  154.52   1
 -27  10  -4  566.48  207.15   1
 -17  27   4  113.56  150.51   1
  10  17  -1  113.42  165.80   1
 -27  10  -1  429.55  198.63   1
  27 -10   1  481.72  222.79   1
 -17  27   1  107.44  216.76   1
 -27  10   2 1717.24  571.53   1
  27 -10  -2 2748.87  579.87   1
 -17  27  -2 1871.82  558.54   1
  10  17   5  605.24  238.82   1
 -27  10   5  805.61  260.35   1
  27 -10  -5  564.30  260.19   1
 -27  10   8 1166.71  331.27   1
  27 -10  -8  940.53  319.86   1
  27 -10 -11  284.79  167.51   1
  10  18  -8  -15.86   83.69   1
 -28  10  -8   77.96  110.16   1
  10  18  -5  500.70  197.11   1
 -28  10  -5  395.09  242.61   1
  10  18  -2  257.10  126.14   1
 -28  10  -2   26.69  182.05   1
  28 -10   2  348.89  175.30   1
 -18  28   2  113.73  169.73   1
  10  18   1 1936.21  389.92   1
 -28  10   1 1002.55  381.07   1
  28 -10  -1 1144.03  397.02   1
 -18  28  -1  973.72  379.90   1
  10  18   4 1226.92  402.38   1
 -28  10   4  981.25  398.75   1
  28 -10  -4 1572.87  412.47   1
 -18  28  -4 1466.53  416.71   1
 -28  10   7  752.38  254.40   1
  28 -10  -7  674.50  246.69   1
  28 -10 -10  181.43  152.22   1
  10  19  -9   85.56   99.16   1
 -29  10  -9   47.87  120.45   1
  10  19  -6  128.05  133.55   1
 -29  10  -6  498.34  187.26   1
 -19  29   6  114.82  125.84   1
  10  19  -3  739.94  203.63   1
 -29  10  -3  193.37  227.73   1
  29 -10   3  720.44  241.66   1
 -19  29   3  257.45  214.43   1
  10  19   0 4678.29  769.19   1
 -29  10   0 2124.88  758.12   1
  29 -10   0 3432.99  769.63   1
 -19  29   0 2010.84  768.45   1
  10  19   3 3049.89  614.52   1
 -29  10   3 1572.37  624.02   1
  29 -10  -3 2605.12  625.73   1
 -19  29  -3 2044.20  635.85   1
 -29  10   6  601.04  266.38   1
  29 -10  -6  888.64  272.20   1
  29 -10  -9  307.96  167.70   1
  10  20 -10   66.54   88.95   1
 -30  10 -10   12.18  143.70   1
  10  20  -7 2182.99  431.51   1
 -30  10  -7  582.32  474.36   1
  10  20  -4 3660.13  711.87   1
 -30  10  -4 3122.63  744.59   1
 -20  30   4 1489.57  740.87   1
  10  20  -114959.40 2256.58   1
 -30  10  -1 6371.15 2239.84   1
  30 -10   110160.58 2248.65   1
 -20  30   1 8885.05 2276.60   1
  10  20   2 7934.37 1272.04   1
 -30  10   2 4123.28 1264.09   1
  30 -10  -2 5854.14 1270.29   1
 -20  30  -2 4146.98 1247.38   1
 -30  10   5 4130.17 1223.10   1
  30 -10  -5 5996.38 1235.42   1
 -20  30  -5 5582.17 1236.84   1
 -30  10   8  154.77  167.59   1
  30 -10  -8  480.90  176.72   1
  10  21  -8  464.35  166.41   1
 -31  10  -8  117.73  224.41   1
  10  21  -5  802.24  222.80   1
 -31  10  -5  322.67  247.87   1
  10  21  -2 1891.36  388.10   1
 -31  10  -2 1400.96  406.46   1
  31 -10   2 1478.48  417.88   1
 -21  31   2  632.42  386.97   1
  10  21   1  867.77  217.48   1
 -31  10   1  358.41  230.83   1
  31 -10  -1  496.32  240.73   1
 -21  31  -1  309.92  256.46   1
  10  21   4  455.91  225.00   1
 -31  10   4  514.97  229.27   1
  31 -10  -4  630.49  232.79   1
 -21  31  -4  493.58  240.33   1
 -31  10   7  191.87  152.28   1
  31 -10  -7  343.27  182.00   1
 -21  31  -7  262.16  196.02   1
  10  22  -9   70.50   95.43   1
  10  22  -6  297.84  127.54   1
 -32  10  -6  191.96  164.70   1
 -22  32   6  126.64  119.57   1
  10  22  -3 1493.86  305.99   1
 -32  10  -3  568.76  306.81   1
  32 -10   3 1019.18  321.54   1
 -22  32   3  409.03  305.78   1
  10  22   0  117.66  112.38   1
 -32  10   0  147.66  126.26   1
  32 -10   0 -141.97  163.36   1
 -22  32   0  222.45  178.90   1
  10  22   3    3.54   77.33   1
 -32  10   3 -116.13   58.35   1
  32 -10  -3 -189.41  122.31   1
 -22  32  -3  -38.02  135.11   1
 -32  10   6  -44.90  110.34   1
  32 -10  -6  257.70  148.72   1
 -22  32  -6  118.58  150.67   1
 -22  32  -9    2.12  125.42   1
  10  23  -7  394.27  132.17   1
 -33  10  -7  296.97  159.83   1
 -23  33   7  -17.95  105.41   1
  10  23  -4 1083.99  240.41   1
 -33  10  -4  391.28  242.89   1
 -23  33   4  284.76  228.63   1
  10  23  -1  325.77  147.42   1
 -33  10  -1  182.84  146.71   1
  33 -10   1  255.53  161.05   1
 -23  33   1   29.65  168.72   1
  10  23   2  184.71  134.76   1
 -33  10   2  170.17  124.35   1
  33 -10  -2 -177.39  142.87   1
 -23  33  -2  188.75  153.48   1
 -33  10   5   41.50  100.95   1
  33 -10  -5  -39.73  127.72   1
 -23  33  -5   50.36  117.26   1
 -33  10   8  -21.95  109.25   1
  33 -10  -8   54.69  138.18   1
 -23  33  -8  128.06  128.47   1
  10  24  -5  361.31  150.27   1
 -34  10  -5  220.19  180.53   1
 -24  34   5  117.89  156.91   1
  10  24  -2  706.10  186.38   1
 -34  10  -2  121.06  174.08   1
  34 -10   2  410.11  193.26   1
 -24  34   2  169.48  162.38   1
  10  24   1  544.73  196.09   1
 -34  10   1  345.79  207.36   1
  34 -10  -1  420.91  217.28   1
  10  24   4   86.36  120.19   1
 -34  10   4  136.60  130.77   1
  34 -10  -4   76.20  145.12   1
 -24  34  -4  185.34  137.07   1
 -34  10   7   33.41   73.98   1
  34 -10  -7  -74.70  114.81   1
 -24  34  -7   16.14  111.42   1
  10  25  -6  638.63  153.22   1
 -35  10  -6  207.86  186.26   1
 -25  35   6  -49.74  160.82   1
  10  25  -3  763.58  185.29   1
 -35  10  -3  340.48  193.89   1
 -25  35   3  -15.77  174.58   1
  10  25   0  790.28  220.51   1
 -35  10   0  515.78  249.11   1
  35 -10   0  413.95  248.65   1
  10  25   3  -18.35  139.14   1
 -35  10   3  -25.21  102.15   1
  35 -10  -3   37.60  125.89   1
 -25  35  -3   33.89  126.92   1
 -35  10   6   50.22   66.97   1
  35 -10  -6   24.77  103.87   1
 -25  35  -6 -165.06  112.51   1
  10  26  -4  746.77  170.12   1
 -36  10  -4  185.97  189.75   1
 -26  36   4  -39.67  167.88   1
  10  26  -1  305.68  147.77   1
 -36  10  -1  185.45  167.02   1
  36 -10   1  364.94  199.69   1
 -26  36   1  262.54  161.41   1
  10  26   2  233.70  161.54   1
 -36  10   2  263.27  156.35   1
  36 -10  -2  251.06  167.61   1
 -26  36  -2  139.19  201.17   1
 -36  10   5  -45.42   93.22   1
  36 -10  -5   21.41  118.20   1
 -26  36  -5  352.43  148.21   1
  10  27  -5  103.95  119.72   1
 -37  10  -5   55.37  124.26   1
  10  27  -2   46.30  103.25   1
 -37  10  -2  -30.47  108.69   1
  37 -10   2   79.51  152.62   1
 -27  37   2  206.71  122.72   1
  10  27   1  108.68  123.54   1
 -37  10   1  -68.11  125.12   1
  37 -10  -1  213.24  137.03   1
 -27  37  -1  194.41  142.82   1
 -37  10   4  -73.08   79.49   1
  37 -10  -4   -0.98  107.60   1
 -27  37  -4   38.83  122.44   1
  10  28  -3  440.08  147.39   1
 -38  10  -3  148.93  139.54   1
 -28  38   3   28.61  139.90   1
  10  28   0  498.82  147.50   1
 -38  10   0  227.14  153.34   1
  38 -10   0  132.92  168.28   1
 -28  38   0  -66.03  150.54   1
  10  28   3   39.59   99.11   1
 -38  10   3   37.25   95.45   1
  38 -10  -3    5.29  116.23   1
 -28  38  -3   37.57  148.57   1
 -39  10  -1  137.23  126.78   1
  39 -10   1   78.21  140.70   1
 -29  39   1  -22.45   93.94   1
  11   1 -14   76.62  110.10   1
  11   1 -11  695.43  254.05   1
  11   1  -8 3746.16  917.48   1
  11   1  -5 4482.80 1064.88   1
  11   1  -2  246.38  108.70   1
 -11  -1   2  137.62  117.41   1
 -12  11  -2   94.25  134.83   1
  -1  12   2  120.77   91.77   1
  11   1   1  872.98  268.61   1
 -11  -1  -1  648.60  269.64   1
 -12  11   1  740.28  274.58   1
  12 -11  -1 1091.04  276.67   1
 -12  11   421098.71 4763.11   1
  12 -11  -422567.84 4762.19   1
  12 -11  -7 5354.17 1253.21   1
  12 -11 -10 2267.61  627.82   1
 -11  -1 -13  -61.29  130.38   1
  12 -11 -13   50.68  122.20   1
  -1  12 -13   51.61   87.35   1
  11   2 -12  144.68  134.13   1
  11   2  -9   65.78  101.10   1
  11   2  -6 5242.44 1232.03   1
  11   2  -3  366.07  176.08   1
 -11  -2   3  398.30  171.80   1
 -13  11  -3  460.20  194.24   1
  11   2   0 7241.64 1440.50   1
 -11  -2   0 6001.59 1447.03   1
 -13  11   0 5752.69 1451.64   1
  13 -11   0 6064.61 1448.85   1
  11   2   326645.71 5968.20   1
 -11  -2  -325073.03 5974.10   1
  13 -11  -330797.30 5974.38   1
 -11  -2  -6  898.71  342.50   1
 -13  11   6  723.81  308.31   1
  13 -11  -6 1238.90  328.44   1
 -11  -2  -9  565.96  276.91   1
  13 -11  -9  711.79  253.58   1
 -11  -2 -12  164.62  250.21   1
  13 -11 -12  812.66  234.35   1
  11   3 -13  353.98  172.69   1
 -14  11 -13  309.78  227.91   1
  11   3 -10  431.26  191.48   1
  11   3  -7  956.08  311.48   1
  11   3  -410132.69 2240.46   1
 -14  11  -4 9867.33 2252.42   1
  11   3  -1 8147.74 1868.45   1
 -11  -3   1 8400.77 1879.91   1
 -14  11  -1 8448.43 1893.43   1
  11   3   250600.08 9822.08   1
 -11  -3  -229904.26 9819.36   1
 -14  11   245026.74 9822.43   1
  14 -11  -258970.74 9833.43   1
 -11  -3  -5 5748.51 1676.43   1
 -14  11   5 8397.81 1687.61   1
  14 -11  -5 8304.51 1688.10   1
 -11  -3  -8  -71.92  135.39   1
  14 -11  -8  217.66  134.15   1
 -11  -3 -11  284.34  223.01   1
  14 -11 -11  608.43  220.53   1
 -11  -3 -14  -40.53  161.83   1
  14 -11 -14  120.05  116.34   1
  -3  14 -14  138.81  117.00   1
  11   4 -14   33.29   80.60   1
 -15  11 -14  -64.01  121.91   1
  11   4 -11  661.50  222.83   1
 -15  11 -11  457.81  285.79   1
  11   4  -8  361.17  170.63   1
 -15  11  -8  287.41  214.19   1
  11   4  -5  281.71  153.64   1
 -15  11  -5  269.40  176.13   1
  11   4  -230100.98 6124.62   1
 -11  -4   227148.59 6122.78   1
 -15  11  -227409.17 6145.09   1
  11   4   112091.79 2616.33   1
 -11  -4  -111282.17 2623.84   1
 -15  11   1 9867.60 2629.45   1
  15 -11  -113548.71 2618.72   1
  11   4   4 9343.56 1915.72   1
 -11  -4  -4 7243.18 1904.09   1
 -15  11   4 7380.73 1904.79   1
  15 -11  -4 9814.75 1903.24   1
 -11  -4  -7 6550.04 1653.04   1
 -15  11   7 6059.46 1647.06   1
  15 -11  -7 8830.00 1654.77   1
 -11  -4 -10 1160.48  536.86   1
  15 -11 -10 2304.35  510.50   1
 -11  -4 -13  194.84  216.90   1
  15 -11 -13  621.30  215.44   1
  11   5 -12  218.82  106.99   1
 -16  11 -12   42.17  167.83   1
  11   5  -9  909.38  279.76   1
 -16  11  -9  691.10  312.93   1
  11   5  -6 1569.59  432.98   1
 -16  11  -6 1459.01  458.10   1
  11   5  -3  486.46  174.35   1
 -11  -5   3  498.20  170.71   1
 -16  11  -3  126.41  201.12   1
  11   5   0 7608.74 1587.59   1
 -11  -5   0 7564.74 1592.37   1
 -16  11   0 4907.67 1577.09   1
  16 -11   0 8137.03 1591.84   1
  11   5   316956.10 2896.20   1
 -11  -5  -311260.76 2876.06   1
 -16  11   310162.87 2855.92   1
  16 -11  -314580.18 2863.25   1
 -11  -5  -619292.22 4727.02   1
 -16  11   619226.11 4709.49   1
  16 -11  -625548.16 4707.92   1
  16 -11  -9 9935.04 2252.93   1
 -11  -5 -12 1051.72  830.55   1
  16 -11 -12 5967.29  850.13   1
  11   6 -13  -25.20   69.63   1
 -17  11 -13  -74.58  124.61   1
  11   6 -10 1931.29  484.13   1
 -17  11 -10 1546.30  512.68   1
  11   6  -7 8729.61 2036.90   1
 -17  11  -7 9375.45 2055.71   1
  11   6  -4 9184.86 1994.73   1
 -17  11  -4 8450.63 2005.80   1
  11   6  -1 3149.88  683.56   1
 -11  -6   1 2300.05  671.46   1
 -17  11  -1 2717.42  713.96   1
  17 -11   1 2853.90  699.15   1
  11   6   2  770.00  262.78   1
 -11  -6  -2  620.49  268.26   1
 -17  11   2  667.24  270.94   1
  17 -11  -2  929.54  277.62   1
 -11  -6  -5  131.18   85.74   1
 -17  11   5   95.82   99.83   1
  17 -11  -5  -16.06   86.25   1
 -11  -6  -8  389.27  291.16   1
  17 -11  -8  971.54  267.57   1
 -11  -6 -11  436.12  448.91   1
  17 -11 -11 2640.96  455.75   1
  11   7 -11  539.39  143.51   1
 -18  11 -11 -131.71  210.93   1
  11   7  -8   56.35  111.68   1
 -18  11  -8  135.48  156.09   1
  11   7  -5  992.00  302.00   1
 -18  11  -5  832.04  333.64   1
  11   7  -2  350.79  149.65   1
 -11  -7   2  295.35  144.15   1
 -18  11  -2  226.38  187.67   1
  -7  18   2  190.18  154.58   1
  11   7   1 6254.69 1519.94   1
 -11  -7  -1 6629.59 1535.73   1
 -18  11   1 6004.65 1534.84   1
  18 -11  -1 7795.18 1539.97   1
 -11  -7  -4 1617.97  614.54   1
 -18  11   4 2438.31  623.02   1
  18 -11  -4 2859.37  607.10   1
 -11  -7  -7  293.53  182.97   1
 -18  11   7  388.36  167.93   1
  18 -11  -7  280.05  201.09   1
 -11  -7 -10  153.96   91.20   1
  18 -11 -10  -56.68  130.47   1
 -11  -7 -13   48.51   79.63   1
  18 -11 -13   14.84  115.89   1
  11   8 -12  593.42  221.57   1
 -19  11 -12  514.30  288.54   1
  11   8  -9 1471.27  431.44   1
 -19  11  -9 1581.96  469.38   1
  11   8  -6  -62.28  118.45   1
 -19  11  -6  340.55  178.28   1
  11   8  -3  313.44  157.42   1
 -19  11  -3  212.79  190.45   1
  -8  19   3  369.02  168.84   1
  11   8   0 9960.96 2203.28   1
 -11  -8   0 8539.22 2199.68   1
 -19  11   010198.26 2238.24   1
  19 -11   011232.78 2219.85   1
  11   8   322688.12 4231.41   1
 -11  -8  -316283.12 4229.68   1
 -19  11   315980.06 4235.61   1
  19 -11  -322345.39 4240.55   1
 -11  -8  -6 5296.20 1864.85   1
 -19  11   6 9534.31 1860.76   1
  19 -11  -6 9410.00 1862.37   1
 -11  -8  -9 2845.82 1521.79   1
  19 -11  -911343.52 1547.32   1
 -11  -8 -12    7.04  152.85   1
  19 -11 -12  732.85  186.53   1
  11   9 -13  752.10  237.33   1
 -20  11 -13  503.80  280.35   1
  11   9 -10 7997.60 2025.33   1
 -20  11 -1010288.52 2058.68   1
  11   9  -7 8120.03 1785.67   1
 -20  11  -7 7496.80 1806.72   1
  11   9  -412227.68 2240.89   1
 -20  11  -412852.21 2259.35   1
  -9  20   4 4943.98 2244.50   1
  11   9  -1 6484.85 1262.83   1
 -11  -9   1 6251.91 1282.91   1
 -20  11  -1 3713.70 1267.93   1
  20 -11   1 6305.93 1290.09   1
  -9  20   1 4609.07 1292.23   1
  11   9   2  184.77  119.31   1
 -11  -9  -2  134.75  118.98   1
 -20  11   2  118.53  132.34   1
  20 -11  -2  235.95  158.12   1
 -11  -9  -5  504.49  273.73   1
 -20  11   5  890.89  310.88   1
  20 -11  -5  852.98  260.22   1
 -11  -9  -8   16.59   90.12   1
  20 -11  -8  186.91  142.16   1
  20 -11 -11  401.47  215.89   1
  11  10 -11  109.67  136.66   1
 -21  11 -11  306.57  176.22   1
  11  10  -8 5551.46 1159.36   1
 -21  11  -8 3995.00 1194.21   1
  11  10  -5 7188.91 1606.82   1
 -21  11  -5 6764.40 1629.91   1
  11  10  -2 9765.50 2064.15   1
 -21  11  -2 8203.51 2073.15   1
  21 -11   211167.44 2101.35   1
 -10  21   2 7906.17 2098.78   1
  11  10   110812.99 2176.85   1
 -11 -10  -1 8647.91 2174.07   1
 -21  11   1 7128.45 2177.91   1
  21 -11  -112059.69 2184.53   1
  11  10   4 9737.98 2070.95   1
 -11 -10  -4 6843.06 2067.86   1
 -21  11   4 9194.99 2075.18   1
  21 -11  -410595.82 2066.64   1
 -11 -10  -7  791.70  399.25   1
 -21  11   7 1368.42  406.05   1
  21 -11  -7 2015.36  418.98   1
  21 -11 -10  505.76  253.19   1
  11  11 -12   -1.39   77.85   1
 -22  11 -12  -36.12  147.36   1
  11  11  -9  245.50  126.69   1
 -22  11  -9   51.69  177.78   1
  11  11  -6 2096.55  575.43   1
 -22  11  -6 2292.88  604.89   1
  11  11  -317943.83 3543.43   1
 -22  11  -314207.83 3545.30   1
  11  11   050422.0610273.10   1
 -22  11   046967.3410275.58   1
  22 -11   045691.7510272.41   1
  11  11   316990.37 3248.32   1
 -11 -11  -310171.03 3222.12   1
 -22  11   313216.81 3241.47   1
  22 -11  -319551.08 3247.64   1
 -22  11   6 1689.86  471.81   1
  22 -11  -6 1613.09  453.08   1
  22 -11  -9  341.21  212.87   1
  11  12 -10  416.29  169.68   1
 -23  11 -10  314.26  233.29   1
  11  12  -7  134.56  109.30   1
 -23  11  -7   42.62  159.03   1
  11  12  -4  565.38  174.67   1
 -23  11  -4  370.61  214.94   1
 -12  23   4   93.57  168.76   1
  11  12  -1 3331.06  753.96   1
 -23  11  -1 3197.99  777.39   1
  23 -11   1 3399.42  765.90   1
 -12  23   1 2045.03  757.41   1
 -11 -12  -2  641.30  239.62   1
 -23  11   2  477.22  264.70   1
  23 -11  -2  927.10  287.07   1
  11  12   5   80.85  161.44   1
 -11 -12  -5  275.34  149.57   1
 -23  11   5  343.95  180.24   1
  23 -11  -5  342.63  174.35   1
 -23  11   8  -61.00   95.56   1
  23 -11  -8   76.62  104.07   1
  23 -11 -11  185.12  171.02   1
  11  13 -11  490.45  169.68   1
 -24  11 -11  147.36  213.39   1
  11  13  -8 3989.00  900.03   1
 -24  11  -8 3332.16  929.51   1
  11  13  -5 1903.39  387.86   1
 -24  11  -5 1664.38  423.09   1
 -13  24   5  468.66  378.53   1
  11  13  -2 1578.70  437.25   1
 -24  11  -2 1876.05  484.67   1
  24 -11   2 1404.65  478.20   1
  11  13   1  700.39  215.21   1
 -24  11   1  339.79  232.60   1
  24 -11  -1  426.65  241.87   1
  11  13   4  -10.83  158.89   1
 -11 -13  -4   -5.47  129.75   1
 -24  11   4  102.11  145.71   1
  24 -11  -4  619.74  186.91   1
 -24  11   7  525.12  208.28   1
  24 -11  -7  443.29  200.23   1
  24 -11 -10  714.41  283.36   1
  11  14  -9  144.21  123.81   1
 -25  11  -9  255.56  210.45   1
  11  14  -6  955.58  300.35   1
 -25  11  -6  878.55  340.39   1
  11  14  -3  110.25  126.15   1
 -25  11  -3  200.08  152.74   1
  11  14   0  565.33  212.13   1
 -25  11   0  413.53  245.32   1
  25 -11   0  759.49  257.54   1
 -14  25   0  215.23  234.91   1
  11  14   3 5675.66 1201.65   1
 -25  11   3 4369.91 1198.36   1
  25 -11  -3 5040.40 1195.77   1
 -25  11   6 5028.52 1211.93   1
  25 -11  -6 5198.32 1193.02   1
  25 -11  -9 6118.79 1424.23   1
  11  15 -10  329.89  152.43   1
 -26  11 -10  180.65  222.23   1
  11  15  -7  347.06  160.48   1
 -26  11  -7  270.81  203.76   1
  11  15  -4  661.12  202.16   1
 -26  11  -4  284.02  213.13   1
  11  15  -1  636.39  264.02   1
 -26  11  -1  719.75  285.87   1
  26 -11   1  753.84  285.67   1
 -15  26   1  811.57  297.68   1
  11  15   2   44.53  145.66   1
 -26  11   2  273.33  136.23   1
  26 -11  -2 -108.89  172.10   1
  11  15   5  328.07  181.84   1
 -26  11   5  278.79  199.91   1
  26 -11  -5  485.36  212.22   1
 -26  11   8  600.90  242.20   1
  26 -11  -8  677.41  232.53   1
  26 -11 -11  196.29  163.57   1
  11  16 -11 1707.24  366.94   1
 -27  11 -11  515.40  413.94   1
  11  16  -8 3595.60  673.68   1
 -27  11  -8 1883.43  666.81   1
  11  16  -5 2974.11  445.15   1
 -27  11  -5  962.97  444.55   1
 -16  27   5  808.26  439.96   1
  11  16  -2 1853.69  401.74   1
 -27  11  -2 1149.29  417.84   1
  27 -11   2 1351.90  422.81   1
 -16  27   2  865.62  438.40   1
  11  16   1  494.32  211.59   1
 -27  11   1  258.43  209.49   1
  27 -11  -1  642.09  229.54   1
 -16  27  -1  355.87  226.44   1
  11  16   4  137.44  176.56   1
 -27  11   4  152.90  179.82   1
  27 -11  -4  383.23  185.96   1
 -27  11   7 1196.81  428.35   1
  27 -11  -7 1761.11  422.49   1
  27 -11 -10  209.13  140.00   1
  11  17  -9  329.30  156.53   1
 -28  11  -9  245.24  183.49   1
  11  17  -6  -11.08   75.99   1
 -28  11  -6   10.27   96.07   1
  11  17  -3  547.76  159.94   1
 -28  11  -3  250.53  205.89   1
 -17  28   3  161.82  167.39   1
  11  17   0 5853.74 1207.80   1
 -28  11   0 4687.28 1226.58   1
  28 -11   0 4856.42 1231.65   1
  11  17   313058.51 2438.44   1
 -28  11   3 8737.52 2439.39   1
  28 -11  -310715.40 2432.85   1
 -17  28  -310913.57 2451.22   1
 -28  11   6 4844.14 1370.12   1
  28 -11  -6 6961.68 1374.51   1
  28 -11  -9 1425.95  381.68   1
  11  18 -10  416.21  148.57   1
 -29  11 -10  133.62  173.01   1
  11  18  -7 1182.42  279.43   1
 -29  11  -7  492.10  288.53   1
  11  18  -4  837.69  210.93   1
 -29  11  -4  642.65  248.56   1
 -18  29   4  130.73  203.45   1
  11  18  -1 4550.91  857.31   1
 -29  11  -1 3159.62  859.07   1
  29 -11   1 3120.06  857.10   1
 -18  29   1 2908.89  866.21   1
  11  18   2  843.82  231.52   1
 -29  11   2  241.00  214.34   1
  29 -11  -2  397.62  232.86   1
 -18  29  -2  361.67  224.50   1
  11  18   5   63.87  123.25   1
 -29  11   5  304.99  147.06   1
  29 -11  -5   90.72  164.05   1
 -29  11   8   26.74   98.06   1
  29 -11  -8   -8.08  102.77   1
  11  19  -8  101.10  138.06   1
 -30  11  -8  322.39  158.81   1
  11  19  -5 1741.29  440.76   1
 -30  11  -5 1296.50  474.30   1
  11  19  -210754.83 1577.60   1
 -30  11  -2 5574.62 1574.57   1
  30 -11   2 6640.09 1581.41   1
 -19  30   2 4173.27 1579.08   1
  11  19   1 7984.66 1492.88   1
 -30  11   1 5099.43 1506.66   1
  30 -11  -1 6998.29 1510.23   1
 -19  30  -1 5493.78 1518.27   1
  11  19   4 3903.67  946.62   1
 -30  11   4 3341.76  979.33   1
  30 -11  -4 3779.53  926.66   1
 -19  30  -4 3859.35  935.49   1
 -30  11   7  495.43  247.05   1
  30 -11  -7  904.40  267.61   1
  30 -11 -10  -42.50  104.17   1
  11  20  -9  299.83  138.56   1
 -31  11  -9  131.46  189.65   1
  11  20  -6 3150.43  466.80   1
 -31  11  -6 1584.66  502.75   1
 -20  31   6  370.14  458.50   1
  11  20  -312809.56 1902.50   1
 -31  11  -3 7671.96 1906.62   1
 -20  31   3 3757.29 1914.80   1
  11  20   0 7538.79 1230.88   1
 -31  11   0 3646.21 1217.10   1
  31 -11   0 5443.19 1222.52   1
 -20  31   0 3999.32 1259.84   1
  11  20   3 4100.86  702.91   1
 -31  11   3 1828.09  690.70   1
  31 -11  -3 2508.81  696.56   1
 -20  31  -3 2442.24  705.99   1
 -31  11   6 2766.55  847.05   1
  31 -11  -6 3839.03  869.53   1
 -20  31  -6 4051.29  875.19   1
  31 -11  -9  546.98  236.69   1
  11  21  -7   42.59  101.34   1
 -32  11  -7   68.03  167.81   1
  11  21  -4  206.57  159.46   1
 -32  11  -4  426.86  186.98   1
  11  21  -1  662.15  184.00   1
 -32  11  -1  339.41  182.32   1
  32 -11   1  148.22  198.77   1
 -21  32   1  254.95  199.87   1
  11  21   2  115.07  149.79   1
 -32  11   2   16.31  151.46   1
  32 -11  -2  277.90  162.56   1
 -21  32  -2  220.28  155.01   1
 -32  11   5  488.47  229.74   1
  32 -11  -5  309.46  240.79   1
 -21  32  -5  954.68  248.36   1
 -32  11   8  235.88  160.71   1
  32 -11  -8  332.40  201.06   1
 -21  32  -8  336.14  198.06   1
  11  22  -8  524.33  190.78   1
 -33  11  -8  362.28  230.88   1
  11  22  -5 3310.46  506.26   1
 -33  11  -5 1634.52  537.76   1
 -22  33   5  523.53  509.65   1
  11  22  -2 3183.40  511.26   1
 -33  11  -2 1456.60  524.92   1
  33 -11   2 2091.84  539.95   1
 -22  33   2  967.85  504.79   1
  11  22   1 1516.79  301.02   1
 -33  11   1  683.56  290.47   1
  33 -11  -1  504.74  296.78   1
 -22  33  -1  695.26  321.89   1
  11  22   4  362.04  135.94   1
 -33  11   4  -17.27  141.06   1
  33 -11  -4   -0.27  160.29   1
 -22  33  -4  330.23  156.80   1
 -33  11   7  152.39  132.42   1
  33 -11  -7  219.26  169.79   1
 -22  33  -7  251.97  174.16   1
  11  23  -6  -41.36  107.48   1
 -34  11  -6   -8.27  114.77   1
 -23  34   6   85.95   65.00   1
  11  23  -3 1363.70  248.18   1
 -34  11  -3  432.90  240.21   1
 -23  34   3   21.54  242.35   1
  11  23   0    5.33  100.41   1
 -34  11   0   51.69  113.24   1
  34 -11   0   35.93  151.61   1
 -23  34   0  147.43  170.08   1
  11  23   3  274.34  149.15   1
 -34  11   3   48.06  127.75   1
  34 -11  -3  201.50  163.32   1
 -23  34  -3  197.02  155.03   1
 -34  11   6  103.82  129.83   1
  34 -11  -6  394.91  160.04   1
 -23  34  -6  114.48  160.38   1
  11  24  -7  -19.72   99.40   1
 -35  11  -7   50.54  118.36   1
  11  24  -4   60.69  111.14   1
 -35  11  -4  -16.72  141.55   1
 -24  35   4  109.59   94.88   1
  11  24  -1  203.47   94.60   1
 -35  11  -1   68.07  110.71   1
  35 -11   1 -157.32  152.93   1
 -24  35   1  -66.93  120.82   1
  11  24   2  341.81  129.36   1
 -35  11   2  121.00  141.75   1
  35 -11  -2  225.35  158.40   1
 -24  35  -2  -57.48  157.12   1
 -35  11   5   53.55  129.45   1
  35 -11  -5  172.48  150.25   1
 -24  35  -5  285.98  165.63   1
  11  25  -5 1945.22  326.84   1
 -36  11  -5  765.93  335.14   1
 -25  36   5  290.50  326.76   1
  11  25  -2  883.15  196.56   1
 -36  11  -2  319.55  202.83   1
  36 -11   2  398.34  230.51   1
 -25  36   2  142.42  190.49   1
  11  25   1  147.31  108.18   1
 -36  11   1 -104.99  133.33   1
  36 -11  -1   33.82  124.73   1
 -25  36  -1   38.53  158.47   1
  11  25   4  132.05  112.64   1
 -36  11   4  136.51  117.61   1
  36 -11  -4   78.92  137.43   1
 -25  36  -4   16.65  141.84   1
  11  26  -3  103.37  100.31   1
 -37  11  -3  -28.05  119.95   1
 -26  37   3  -18.54  105.30   1
  11  26   0   20.09   82.56   1
 -37  11   0  121.73  118.66   1
  37 -11   0 -229.29  135.64   1
 -26  37   0   35.29  118.93   1
  11  26   3   55.17  144.81   1
 -37  11   3   21.08  108.38   1
  37 -11  -3   92.78  124.97   1
 -26  37  -3    6.76  142.00   1
  11  27  -4  871.36  179.44   1
 -38  11  -4  275.37  201.35   1
 -27  38   4  -33.54  183.01   1
  11  27  -1 1709.27  254.99   1
 -38  11  -1  491.81  257.75   1
  38 -11   1  740.91  273.46   1
 -27  38   1  169.68  222.53   1
  11  27   2  453.05  154.25   1
 -38  11   2   28.50  151.12   1
  38 -11  -2  195.03  164.26   1
 -27  38  -2  201.02  192.35   1
  11  28  -2  373.50  132.11   1
 -39  11  -2    9.10  143.66   1
  39 -11   2  211.47  174.15   1
 -28  39   2   96.58  165.17   1
 -39  11   1  110.01   97.72   1
  39 -11  -1  -31.63  112.74   1
 -28  39  -1  -25.19  136.52   1
  12   1 -13  428.56  201.23   1
  12   1 -10  913.95  302.97   1
  12   1  -7 3221.03  801.67   1
  12   1  -4 5535.41 1302.51   1
 -12  -1   4 5699.92 1303.72   1
  12   1  -117906.19 3782.37   1
 -12  -1   116491.83 3792.21   1
 -13  12  -117368.31 3789.04   1
  12   1   2 5445.46 1253.03   1
 -12  -1  -2 4666.50 1247.97   1
 -13  12   2 4513.39 1259.15   1
  13 -12  -2 6556.82 1246.23   1
 -12  -1  -519796.54 4379.12   1
 -13  12   520242.61 4375.73   1
  13 -12  -519951.39 4352.91   1
 -12  -1  -8  500.74  274.00   1
  13 -12  -8  767.39  250.60   1
 -12  -1 -11  202.78  235.18   1
  13 -12 -11  670.46  219.99   1
 -12  -1 -14  -38.47  136.63   1
  13 -12 -14  -62.94   94.89   1
  -1  13 -14  -10.92   78.09   1
  12   2 -14  208.83  129.56   1
 -14  12 -14   89.19  175.86   1
  12   2 -11  924.28  302.48   1
  12   2  -8  712.59  257.54   1
  12   2  -5  -85.52   84.52   1
 -14  12  -5  186.75  104.36   1
  12   2  -2 2215.58  553.76   1
 -12  -2   2 2205.61  561.44   1
 -14  12  -2 2019.96  569.74   1
  12   2   1 1078.34  308.42   1
 -12  -2  -1  887.47  325.78   1
 -14  12   1  850.03  315.32   1
  14 -12  -1 1425.07  330.44   1
  12   2   4 2135.63  480.94   1
 -12  -2  -4 1349.71  473.47   1
 -14  12   4 1533.37  471.19   1
 -12  -2  -7  387.49  236.59   1
  14 -12  -7  482.05  208.55   1
  14 -12 -10  172.55  160.24   1
 -12  -2 -13  251.18  228.62   1
  -2  14 -13  578.41  187.40   1
  12   3 -12  393.90  168.47   1
 -15  12 -12  303.08  236.58   1
  12   3  -9  977.53  317.36   1
  12   3  -6 2924.08  734.04   1
 -15  12  -6 2915.60  759.52   1
  12   3  -3 2348.85  586.08   1
 -12  -3   3 2097.62  585.09   1
 -15  12  -3 2363.16  601.28   1
  12   3   0 1793.63  473.04   1
 -12  -3   0 1496.53  480.65   1
 -15  12   0 1900.16  499.47   1
  15 -12   0 1801.05  482.33   1
  12   3   3  142.58  126.20   1
 -12  -3  -3   -1.94   99.48   1
 -15  12   3  136.78  100.71   1
  15 -12  -3   68.06  127.75   1
 -12  -3  -6  359.30  199.49   1
 -15  12   6  658.43  212.15   1
  15 -12  -6  620.78  214.12   1
 -12  -3  -9   -4.45  132.82   1
  15 -12 -12  758.35  276.59   1
  12   4 -13   49.07   99.20   1
 -16  12 -13   37.20  147.79   1
  12   4 -10  399.00  204.26   1
 -16  12 -10  608.00  242.93   1
 -16  12  -7 2033.51  570.39   1
  12   4  -4 1897.03  491.01   1
 -16  12  -4 1703.09  508.88   1
  12   4  -1   -8.09   89.25   1
 -12  -4   1  121.29   92.24   1
 -16  12  -1   85.03  130.02   1
  12   4   2 2102.93  523.99   1
 -12  -4  -2 1739.50  518.25   1
 -16  12   2 1583.79  509.08   1
  16 -12  -2 2257.82  531.63   1
 -12  -4  -5  -64.37  104.41   1
 -16  12   5  161.25  104.54   1
  16 -12  -5  127.88  104.85   1
 -12  -4  -8  626.61  305.69   1
  16 -12  -8 1327.62  323.35   1
 -12  -4 -11  -32.42  169.78   1
  16 -12 -11  440.96  175.61   1
  12   5 -11 1334.17  366.84   1
 -17  12 -11 1094.67  410.49   1
  12   5  -8 5230.28 1131.92   1
 -17  12  -8 4215.46 1152.59   1
  12   5  -515949.30 3536.94   1
 -17  12  -516215.96 3550.83   1
  12   5  -210704.35 2304.26   1
 -12  -5   2 9782.50 2303.80   1
 -17  12  -210490.35 2325.73   1
  12   5   1 3603.40  785.03   1
 -12  -5  -1 2923.30  777.92   1
 -17  12   1 2611.81  793.84   1
  17 -12  -1 3189.09  774.62   1
  12   5   4  472.39  215.25   1
 -12  -5  -4  445.74  201.79   1
 -17  12   4  402.44  205.76   1
  17 -12  -4  521.11  219.38   1
 -12  -5  -7  136.35  120.10   1
 -17  12   7   87.64   88.79   1
  17 -12  -7  -19.23  118.07   1
 -12  -5 -10  367.09  278.20   1
  17 -12 -10 1612.55  320.65   1
 -12  -5 -13    5.29   94.30   1
  17 -12 -13  -34.20  124.38   1
  12   6 -12  401.48  177.63   1
 -18  12 -12  291.25  222.28   1
  12   6  -9 2188.05  506.91   1
 -18  12  -9 1443.82  534.36   1
  12   6  -6 2384.47  611.95   1
 -18  12  -6 2312.08  642.50   1
  12   6  -3 3723.20  833.11   1
 -18  12  -3 3691.72  863.61   1
  -6  18   3 2650.83  854.23   1
  12   6   0 4762.08 1091.36   1
 -12  -6   0 5549.62 1107.20   1
 -18  12   0 3277.25 1089.76   1
  18 -12   0 5433.67 1111.76   1
 -12  -6  -3  -27.68   85.58   1
 -18  12   3  161.10   95.33   1
  18 -12  -3   -4.70  123.29   1
 -12  -6  -6  563.38  237.16   1
 -18  12   6  517.16  224.94   1
  18 -12  -6  607.57  218.15   1
 -12  -6  -9  215.49  279.10   1
  18 -12  -9 1063.23  275.81   1
  18 -12 -12   -3.95  126.65   1
  12   7 -13  130.41  109.30   1
 -19  12 -13  180.55  183.34   1
  12   7 -10  433.43  162.56   1
 -19  12 -10  182.36  214.22   1
  12   7  -7  141.23  134.23   1
 -19  12  -7  250.13  204.95   1
  12   7  -4  520.17  220.01   1
 -19  12  -4  618.72  265.63   1
  12   7  -1 6572.88 1245.81   1
 -12  -7   1 4086.33 1247.92   1
 -19  12  -1 4509.62 1251.10   1
  19 -12   1 6643.00 1289.17   1
  12   7   2 8214.94 1895.33   1
 -12  -7  -2 8933.53 1933.04   1
 -19  12   2 6313.58 1928.50   1
  19 -12  -210627.44 1935.57   1
 -12  -7  -5 3706.15 1328.99   1
 -19  12   5 5768.31 1340.69   1
  19 -12  -5 7205.61 1317.77   1
 -12  -7  -8 2764.44  913.54   1
  19 -12  -8 4424.31  904.98   1
 -12  -7 -11   22.03  229.70   1
  19 -12 -11 1378.63  262.65   1
  12   8 -11  207.57  125.65   1
 -20  12 -11  187.27  228.35   1
  12   8  -8  -20.06   96.60   1
 -20  12  -8  161.47  176.04   1
  12   8  -5 3624.35  882.76   1
 -20  12  -5 3604.47  914.99   1
  12   8  -2 5235.20 1205.44   1
 -20  12  -2 5134.84 1251.05   1
  -8  20   2 5252.25 1242.95   1
  12   8   116441.21 2908.64   1
 -12  -8  -110903.67 2881.21   1
 -20  12   111880.72 2899.76   1
  20 -12  -113866.96 2900.72   1
  12   8   4 5983.40 1310.02   1
 -12  -8  -4 4351.52 1311.09   1
 -20  12   4 4705.31 1318.58   1
  20 -12  -4 7469.70 1328.98   1
 -12  -8  -7  816.12  451.26   1
 -20  12   7 1806.84  451.43   1
  20 -12  -7 2007.37  449.60   1
 -12  -8 -10  187.01  216.96   1
  20 -12 -10 1156.73  268.66   1
  20 -12 -13   62.12  134.02   1
  12   9 -12  -64.01   83.03   1
 -21  12 -12   97.41  148.61   1
  12   9  -9  -51.01   84.38   1
 -21  12  -9  139.27  153.04   1
  12   9  -6   10.90   81.79   1
 -21  12  -6  -27.13  151.40   1
  12   9  -3 2156.53  553.48   1
 -21  12  -3 2425.27  613.90   1
  -9  21   3 1928.78  591.35   1
  12   9   0 2756.29  686.57   1
 -12  -9   0 2579.27  682.60   1
 -21  12   0 2164.78  706.64   1
  21 -12   0 3090.23  700.55   1
  12   9   3  145.65  202.21   1
 -12  -9  -3  391.75  195.92   1
 -21  12   3  541.95  212.09   1
  21 -12  -3  585.97  221.86   1
 -12  -9  -6  275.42  192.37   1
 -21  12   6  684.81  213.95   1
  21 -12  -6  420.07  195.81   1
 -12  -9  -9  -14.39   49.70   1
  21 -12 -12  162.55  167.05   1
  12  10 -10 1933.32  444.45   1
 -22  12 -10 1109.55  482.59   1
  12  10  -7   -3.07   99.91   1
 -22  12  -7  158.88  164.17   1
  12  10  -4  -57.69  100.13   1
 -22  12  -4  208.77  160.16   1
  12  10  -1 1157.42  284.38   1
 -22  12  -1  712.22  303.72   1
  22 -12   1  898.91  311.45   1
 -10  22   1  562.34  294.36   1
  12  10   2 2653.26  649.93   1
 -12 -10  -2 1654.50  637.15   1
 -22  12   2 2525.23  662.06   1
  22 -12  -2 3573.59  677.68   1
  12  10   5  303.53  155.38   1
 -12 -10  -5   82.74  137.77   1
 -22  12   5  184.49  159.49   1
  22 -12  -5  237.52  171.71   1
 -12 -10  -8  -38.81   86.71   1
 -22  12   8  -22.34  120.31   1
  22 -12  -8  317.66  129.20   1
  22 -12 -11    0.56  124.24   1
  12  11 -11  319.53  153.81   1
 -23  12 -11  202.07  201.18   1
  12  11  -8  -29.75   79.90   1
 -23  12  -8   73.44  147.06   1
  12  11  -5   78.70  115.40   1
 -23  12  -5  164.46  167.98   1
  12  11  -2  594.75  218.63   1
 -23  12  -2  217.88  218.72   1
  23 -12   2  967.58  258.86   1
 -11  23   2  533.11  241.46   1
  12  11   1 3407.83  703.48   1
 -12 -11  -1 2135.08  682.53   1
 -23  12   1 2485.47  712.83   1
  23 -12  -1 3029.22  708.69   1
  12  11   4  509.85  242.59   1
 -12 -11  -4  311.00  217.57   1
 -23  12   4  807.70  252.94   1
  23 -12  -4  635.75  255.69   1
 -12 -11  -7   34.05   79.07   1
 -23  12   7    4.86  106.11   1
  23 -12  -7  100.46   95.20   1
  23 -12 -10  349.44  197.17   1
  12  12 -12  242.46  110.79   1
 -24  12 -12  -62.82  170.45   1
  12  12  -9 2202.43  505.38   1
 -24  12  -9 1429.45  535.30   1
  12  12  -6  593.71  191.67   1
 -24  12  -6  222.66  233.83   1
  12  12  -3 5906.52 1060.36   1
 -24  12  -3 4144.88 1049.97   1
 -12  24   3 3215.52 1065.18   1
  12  12   0  944.36  284.50   1
 -24  12   0  934.29  322.88   1
  24 -12   0  969.76  329.44   1
 -12  24   0  574.42  319.88   1
  12  12   3 5436.13 1178.34   1
 -12 -12  -3 4198.96 1156.39   1
 -24  12   3 3934.13 1174.15   1
  24 -12  -3 6092.55 1171.45   1
 -12 -12  -6  152.05  193.56   1
 -24  12   6  610.06  222.80   1
  24 -12  -6  737.29  220.95   1
  24 -12  -9 1822.37  501.58   1
  24 -12 -12  188.58  147.19   1
  12  13 -10  656.84  221.24   1
 -25  12 -10  460.07  260.87   1
  12  13  -7 2372.14  545.71   1
 -25  12  -7 1593.63  585.85   1
  12  13  -4 2942.22  499.38   1
 -25  12  -4 1690.91  500.66   1
 -13  25   4  828.51  495.60   1
  12  13  -1 2618.05  536.57   1
 -25  12  -1 1781.33  553.86   1
  25 -12   1 1792.78  552.87   1
 -13  25   1 1672.63  546.03   1
  12  13   2  254.55  132.54   1
 -25  12   2   55.61  157.00   1
  25 -12  -2  204.40  187.96   1
  12  13   5   -0.51  137.10   1
 -12 -13  -5  186.70  120.27   1
 -25  12   5  163.90  152.68   1
  25 -12  -5  377.93  179.98   1
 -25  12   8  164.59  148.36   1
  25 -12  -8  327.59  147.59   1
  25 -12 -11  215.51  131.21   1
  12  14 -11  209.36  114.12   1
 -26  12 -11   20.06  165.93   1
  12  14  -8 1276.45  329.81   1
 -26  12  -8  774.89  372.52   1
  12  14  -5  695.07  177.00   1
 -26  12  -5  407.54  195.23   1
 -14  26   5   78.33  152.84   1
  12  14  -2 7016.83 1324.66   1
 -26  12  -2 4767.42 1345.48   1
  26 -12   2 5889.64 1339.04   1
 -14  26   2 4670.56 1338.35   1
  12  14   1  191.01  157.67   1
 -26  12   1  384.88  176.56   1
  26 -12  -1  114.66  183.50   1
 -14  26  -1  279.25  179.51   1
  12  14   4  180.03  116.33   1
 -26  12   4  -19.69  101.09   1
  26 -12  -4 -119.24  139.79   1
 -26  12   7  209.09  142.07   1
  26 -12  -7  208.57  143.39   1
  26 -12 -10   92.57  102.46   1
  12  15  -9  297.49  149.03   1
 -27  12  -9  162.29  222.89   1
  12  15  -6 1232.34  290.02   1
 -27  12  -6  441.07  268.21   1
  12  15  -3   79.99  110.65   1
 -27  12  -3  143.07  174.47   1
 -15  27   3  108.55  110.69   1
  12  15   0  285.40  173.76   1
 -27  12   0  561.58  214.22   1
  27 -12   0  249.39  229.90   1
 -15  27   0  470.77  208.35   1
  12  15   3  102.31  141.99   1
 -27  12   3  115.68  154.98   1
  27 -12  -3  119.36  169.69   1
 -27  12   6  463.04  215.77   1
  27 -12  -6  709.98  251.64   1
  27 -12  -9  381.43  179.50   1
  12  16 -10  102.88  109.59   1
 -28  12 -10  128.88  158.67   1
  12  16  -7  321.56  114.10   1
 -28  12  -7  -32.27  137.83   1
  12  16  -4  500.72  152.40   1
 -28  12  -4  286.59  193.37   1
 -16  28   4   48.04  147.24   1
  12  16  -1 4673.24 1030.97   1
 -28  12  -1 4767.23 1065.06   1
  28 -12   1 4761.00 1063.44   1
 -16  28   1 3129.51 1067.02   1
  12  16   2 6165.32 1287.51   1
 -28  12   2 4451.65 1290.30   1
  28 -12  -2 5931.32 1302.08   1
 -16  28  -2 5342.24 1307.27   1
 -28  12   5 2748.06  784.06   1
  28 -12  -5 3436.76  790.25   1
 -28  12   8 2304.12  674.46   1
  28 -12  -8 2937.56  670.21   1
  12  17  -8   48.56  107.90   1
 -29  12  -8  105.76  131.38   1
  12  17  -5 1605.55  284.26   1
 -29  12  -5  732.77  304.75   1
 -17  29   5  308.96  264.85   1
  12  17  -2 3942.70  862.56   1
 -29  12  -2 3015.87  871.90   1
  29 -12   2 3496.87  876.71   1
  12  17   1 4529.98  830.51   1
 -29  12   1 2439.83  817.20   1
  29 -12  -1 3218.16  824.67   1
 -17  29  -1 3070.69  841.69   1
  12  17   4 3408.53  782.43   1
 -29  12   4 2267.92  765.11   1
  29 -12  -4 3364.80  763.95   1
 -29  12   7  622.47  269.38   1
  29 -12  -7  983.05  293.80   1
  29 -12 -10  155.49  147.05   1
  12  18  -9   56.42  238.53   1
 -30  12  -9  300.24  160.65   1
  12  18  -6  160.58  114.47   1
 -30  12  -6  123.31  146.40   1
  12  18  -3  276.39  129.62   1
 -30  12  -3  237.86  168.84   1
 -18  30   3   24.21  126.16   1
  30 -12   0  386.68  462.60   1
  12  18   0  525.47  191.26   1
 -30  12   0  321.29  195.41   1
 -18  30   0  303.01  219.78   1
  12  18   3  613.74  233.33   1
 -30  12   3  223.43  234.93   1
  30 -12  -3  939.61  279.43   1
 -18  30  -3  467.92  240.93   1
 -30  12   6 -133.74   89.64   1
  30 -12  -6  107.67  121.56   1
  30 -12  -9   -1.16  127.87   1
  12  19  -7  -11.76  103.99   1
 -31  12  -7  101.72  125.42   1
  12  19  -4  532.52  156.63   1
 -31  12  -4  164.02  201.14   1
 -19  31   4  257.79  179.20   1
  12  19  -1  -20.49   79.28   1
 -31  12  -1   17.43  108.07   1
  31 -12   1 -195.38  118.52   1
 -19  31   1  -38.97  163.25   1
  12  19   2  964.79  292.16   1
 -31  12   2  730.09  299.33   1
  31 -12  -2  908.63  306.02   1
 -19  31  -2  682.38  322.05   1
  12  19   5  149.37  108.16   1
 -31  12   5  -42.82  130.02   1
  31 -12  -5  224.09  140.08   1
 -19  31  -5   69.12  149.40   1
 -31  12   8   96.09  132.94   1
  31 -12  -8  227.67  168.21   1
  12  20  -8  317.12  137.21   1
 -32  12  -8   17.97  197.86   1
  12  20  -5   33.47   62.96   1
 -32  12  -5  -90.62  115.17   1
 -20  32   5  -11.33   54.44   1
  12  20  -2  258.66  137.63   1
 -32  12  -2   23.18  146.93   1
  32 -12   2  337.04  166.98   1
 -20  32   2  150.89  148.02   1
  12  20   1   40.41  128.19   1
 -32  12   1   61.10  132.43   1
  32 -12  -1  125.43  166.81   1
 -20  32  -1  160.56  144.72   1
  12  20   4   47.53  141.81   1
 -32  12   4   99.70  127.54   1
  32 -12  -4  314.04  159.27   1
 -20  32  -4   18.10  150.84   1
 -32  12   7 -152.77  111.63   1
  32 -12  -7  272.85  157.22   1
 -20  32  -7  361.53  175.34   1
  12  21  -6 1997.90  307.47   1
 -33  12  -6  771.74  317.53   1
 -21  33   6  245.48  276.83   1
  12  21  -3 2988.39  486.32   1
 -33  12  -3 1120.96  488.74   1
 -21  33   3  877.82  494.70   1
  12  21   0 1696.67  378.65   1
 -33  12   0  649.18  368.20   1
  33 -12   0 1330.61  383.32   1
  12  21   3 1160.16  299.37   1
 -33  12   3  467.04  282.17   1
  33 -12  -3  809.89  305.96   1
 -21  33  -3  862.38  311.58   1
 -33  12   6  -62.54  122.29   1
  33 -12  -6  151.64  147.60   1
 -21  33  -6  352.65  167.17   1
  12  22  -7  438.42  156.81   1
 -34  12  -7   84.87  184.77   1
  12  22  -4 1914.89  320.45   1
 -34  12  -4  707.83  348.31   1
 -22  34   4  318.21  320.71   1
  12  22  -1  969.97  230.38   1
 -34  12  -1  518.29  248.90   1
  34 -12   1  541.66  241.54   1
 -22  34   1  390.47  285.72   1
  12  22   2  416.43  156.55   1
 -34  12   2  146.30  172.83   1
  34 -12  -2  124.85  173.44   1
 -22  34  -2  373.76  179.54   1
 -34  12   5   99.05   99.57   1
  34 -12  -5   15.08  118.53   1
 -22  34  -5  -96.61  112.94   1
 -34  12   8  158.20  109.99   1
  34 -12  -8   43.90  165.62   1
 -22  34  -8  114.73  151.66   1
  12  23  -5  458.88  161.86   1
 -35  12  -5  501.27  194.12   1
 -23  35   5   24.65  150.30   1
  12  23  -2 1206.39  267.09   1
 -35  12  -2  664.37  296.52   1
  35 -12   2  972.03  323.52   1
 -23  35   2  295.17  284.62   1
  12  23   1  614.93  173.65   1
 -35  12   1   49.95  178.43   1
  35 -12  -1  426.94  170.32   1
 -23  35  -1 -106.77  183.60   1
  12  23   4  252.76  125.39   1
 -35  12   4  -37.06  127.55   1
  35 -12  -4  -52.19  149.75   1
 -23  35  -4  270.87  148.38   1
 -35  12   7  103.43   81.18   1
  35 -12  -7  -70.20  115.33   1
 -23  35  -7   15.38  114.75   1
  12  24  -6   48.02  108.27   1
 -36  12  -6  179.45  134.77   1
 -24  36   6  -38.20   71.70   1
  12  24  -3  -25.35   74.11   1
 -36  12  -3 -129.81  108.07   1
  12  24   0  596.45  184.53   1
 -36  12   0  113.10  177.83   1
  36 -12   0  409.71  203.89   1
 -24  36   0  202.29  199.02   1
  12  24   3   64.78  151.57   1
 -36  12   3  100.31  120.09   1
  36 -12  -3  103.68  140.12   1
 -24  36  -3   49.42  119.66   1
 -36  12   6  103.63  131.36   1
  36 -12  -6  272.99  160.58   1
 -24  36  -6  345.01  180.28   1
  12  25  -4  141.29  125.92   1
 -37  12  -4  224.63  140.51   1
 -25  37   4  -10.59  112.33   1
  12  25  -1  525.66  169.82   1
 -37  12  -1  171.68  172.36   1
  37 -12   1  443.92  203.36   1
 -25  37   1  149.61  178.94   1
  12  25   2  506.62  173.66   1
 -37  12   2  194.85  175.24   1
  37 -12  -2  381.51  186.29   1
 -25  37  -2  186.55  196.43   1
 -37  12   5  183.70  119.72   1
  37 -12  -5   82.12  142.07   1
 -25  37  -5  137.93  144.42   1
  12  26  -2   35.51   94.86   1
 -38  12  -2  -74.17  103.68   1
  38 -12   2  168.43  152.35   1
 -26  38   2   63.25  106.31   1
  12  26   1 -208.56   95.62   1
 -38  12   1 -138.60   88.85   1
  38 -12  -1   32.44   94.81   1
 -26  38  -1   12.29  107.26   1
  12  26   4   41.46   80.66   1
 -38  12   4  -75.81   73.49   1
  38 -12  -4  -47.59  100.60   1
 -26  38  -4 -106.81  111.28   1
  12  27   0  230.83  102.28   1
 -39  12   0   -7.23  117.62   1
  39 -12   0  -99.59  136.00   1
 -27  39   0    0.91  114.04   1
  13   1 -12  585.09  238.23   1
  13   1  -9 1558.11  422.82   1
  13   1  -618380.11 4027.99   1
  13   1  -3 1791.43  515.61   1
 -13  -1   3 2007.89  518.01   1
 -14  13  -3 2098.21  533.31   1
  13   1   0 5771.09 1157.75   1
 -13  -1   0 4210.30 1150.04   1
 -14  13   0 4716.19 1158.00   1
  13   1   3 2028.90  533.88   1
 -13  -1  -3 2078.78  533.43   1
 -14  13   3 1574.64  535.75   1
  14 -13  -3 2093.44  534.20   1
 -13  -1  -6  182.47  160.31   1
 -14  13   6  109.30  111.19   1
  14 -13  -6  211.75  125.51   1
 -13  -1  -9   31.35  151.59   1
  14 -13  -9  199.73  137.16   1
  14 -13 -12  607.71  255.77   1
  -1  14 -12  584.64  258.51   1
  13   2 -13  145.93  135.39   1
 -15  13 -13  222.00  181.93   1
  13   2 -10  212.63  137.13   1
  13   2  -7  124.98  117.43   1
  13   2  -4 2052.78  645.88   1
 -13  -2   4 2132.54  528.95   1
 -15  13  -4 1761.90  544.27   1
  13   2  -1 6542.84 1419.81   1
 -13  -2   1 5533.67 1429.59   1
 -15  13  -1 6398.45 1442.63   1
  13   2   2 2993.59  612.75   1
 -13  -2  -2 2089.77  603.05   1
 -15  13   2 1844.07  607.72   1
  15 -13  -2 2368.88  607.74   1
 -13  -2  -5 1030.77  353.23   1
 -15  13   5  940.81  358.62   1
  15 -13  -5 1386.52  370.42   1
 -13  -2  -8  678.52  332.11   1
  15 -13  -8  961.30  317.17   1
 -13  -2 -11  121.05  148.90   1
  15 -13 -11 -124.18  126.97   1
  13   3 -11  128.87  122.34   1
 -16  13 -11  227.08  169.47   1
  13   3  -8  445.12  185.03   1
 -16  13  -8  331.69  227.25   1
  13   3  -5  454.20  206.86   1
 -16  13  -5  580.54  241.45   1
  13   3  -2 9490.80 2563.89   1
 -13  -3   213050.22 2569.55   1
 -16  13  -212424.03 2583.49   1
  13   3   1 7537.05 1691.41   1
 -13  -3  -1 8369.65 1716.15   1
 -16  13   1 5922.81 1700.91   1
  16 -13  -1 8504.50 1715.59   1
  13   3   412137.19 2999.11   1
 -13  -3  -411203.47 2987.73   1
 -16  13   412632.62 3011.53   1
  16 -13  -419235.12 3014.12   1
 -13  -3  -7 3610.04  927.57   1
 -16  13   7 3517.26  911.97   1
  16 -13  -7 4164.29  907.66   1
 -13  -3 -10 1664.60  740.98   1
  16 -13 -10 4267.31  761.87   1
 -13  -3 -13  198.73  212.28   1
  16 -13 -13  462.92  198.97   1
  13   4 -12   23.13   33.83   1
 -17  13 -12 -199.91  142.10   1
  13   4  -9  228.59  121.34   1
 -17  13  -9   54.59  169.50   1
  13   4  -6 1561.24  451.99   1
 -17  13  -6 1671.76  476.89   1
  13   4  -3 7506.60 1750.74   1
 -13  -4   3 8227.78 1753.27   1
 -17  13  -3 7377.22 1763.59   1
  13   4   0 6593.40 1355.08   1
 -13  -4   0 5257.51 1350.47   1
 -17  13   0 4979.10 1365.49   1
  17 -13   0 6585.60 1364.85   1
  13   4   321981.94 3733.34   1
 -17  13   310996.46 3695.49   1
  17 -13  -320475.60 3723.47   1
 -13  -4  -6 9341.55 2149.43   1
 -17  13   6 8163.14 2112.48   1
  17 -13  -610185.51 2093.87   1
 -13  -4  -9 1312.45  590.48   1
  17 -13  -9 3588.53  617.14   1
 -13  -4 -12  -40.26  136.21   1
  17 -13 -12  395.41  156.77   1
  13   5 -13  152.27  122.10   1
 -18  13 -13  104.94  162.96   1
  13   5 -10  154.57  111.05   1
 -18  13 -10   91.05  158.33   1
  13   5  -7 1951.33  530.79   1
 -18  13  -7 2004.91  558.14   1
  13   5  -4   11.84  118.75   1
 -18  13  -4  292.05  189.92   1
  13   5  -1  463.75  194.88   1
 -13  -5   1  517.73  192.23   1
 -18  13  -1  386.26  239.98   1
  13   5   2 3748.83  862.65   1
 -13  -5  -2 3005.47  849.15   1
 -18  13   2 2833.78  846.81   1
  18 -13  -2 4104.69  853.72   1
 -13  -5  -5  591.41  322.44   1
 -18  13   5  953.37  319.99   1
  18 -13  -5 1151.40  314.82   1
 -13  -5  -8  155.70  126.45   1
  18 -13  -8   49.91  130.29   1
  18 -13 -11  142.42  168.90   1
  13   6 -11 1517.39  379.76   1
 -19  13 -11 1005.01  423.84   1
  13   6  -8  105.14   87.56   1
 -19  13  -8  -79.85  140.66   1
  13   6  -5  581.23  295.70   1
 -19  13  -5 1259.49  337.80   1
  13   6  -2 3705.75  816.55   1
 -13  -6   2 3148.71  818.89   1
 -19  13  -2 3188.71  836.85   1
  -6  19   2 3201.42  846.44   1
  13   6   110320.89 2221.47   1
 -13  -6  -1 9934.00 2213.91   1
 -19  13   1 9230.67 2223.08   1
  19 -13  -1 9699.65 2203.38   1
  13   6   4 1510.08  427.19   1
 -13  -6  -4 1107.46  433.55   1
 -19  13   4 1435.41  429.90   1
  19 -13  -4 1704.84  443.85   1
 -13  -6  -7  576.12  303.36   1
 -19  13   7  945.69  297.96   1
  19 -13  -7 1017.81  286.19   1
 -13  -6 -10  156.51  179.75   1
  19 -13 -10  537.77  210.94   1
 -13  -6 -13  -50.36  114.86   1
  19 -13 -13  369.81  155.43   1
  13   7 -12   -1.82   92.94   1
 -20  13 -12   46.59  167.99   1
  13   7  -9  119.75   85.85   1
 -20  13  -9  -76.64  170.06   1
  13   7  -6   51.05  111.98   1
 -20  13  -6  167.04  191.50   1
  13   7  -3   63.71  114.27   1
 -20  13  -3  119.35  162.29   1
  -7  20   3  150.80  115.45   1
  13   7   0 5565.39 1116.12   1
 -13  -7   0 4740.78 1114.23   1
 -20  13   0 3532.81 1114.36   1
  20 -13   0 4989.26 1123.83   1
  13   7   3 -113.89  120.18   1
 -13  -7  -3   95.48   89.11   1
 -20  13   3  163.24   97.41   1
  20 -13  -3   36.87  126.80   1
 -13  -7  -6  150.51  129.43   1
 -20  13   6   69.95  154.22   1
  20 -13  -6  304.00  156.93   1
 -13  -7  -9  262.35  153.14   1
 -13  -7 -12   50.43  112.48   1
  20 -13 -12  229.15  140.30   1
  13   8 -10 1902.29  439.40   1
 -21  13 -10 1157.57  471.62   1
  13   8  -7 9947.75 2131.36   1
 -21  13  -7 8892.05 2151.86   1
  13   8  -425259.86 5125.28   1
 -21  13  -421395.20 5143.97   1
  13   8  -122167.49 4957.27   1
 -13  -8   125693.88 4961.67   1
 -21  13  -118446.38 4946.07   1
  21 -13   126141.18 4973.02   1
  13   8   2 8400.37 1705.29   1
 -13  -8  -2 7611.62 1727.67   1
 -21  13   2 4796.50 1722.08   1
  21 -13  -2 8976.13 1729.76   1
  13   8   5 2397.33  574.03   1
 -13  -8  -5 1453.89  558.49   1
 -21  13   5 1800.54  567.75   1
  21 -13  -5 2704.31  581.64   1
 -13  -8  -8   19.79   82.64   1
  21 -13  -8   93.58  115.05   1
 -13  -8 -11  -38.56   84.39   1
  21 -13 -11  237.08  131.44   1
  13   9 -11  945.76  248.41   1
 -22  13 -11  337.13  300.35   1
  13   9  -8 7824.31 1449.38   1
 -22  13  -8 4845.54 1447.93   1
  13   9  -5 4778.24 1098.95   1
 -22  13  -5 4445.92 1124.96   1
  13   9  -210756.34 2222.32   1
 -22  13  -2 8832.35 2222.31   1
  -9  22   210156.27 2240.76   1
  13   9   1 3279.92  698.76   1
 -13  -9  -1 1763.18  657.68   1
 -22  13   1 2414.97  687.55   1
  22 -13  -1 3482.14  690.56   1
  13   9   4  446.30  203.43   1
 -13  -9  -4  343.88  170.59   1
 -22  13   4  428.42  202.66   1
  22 -13  -4   92.78  204.09   1
 -13  -9  -7  139.81  118.58   1
 -22  13   7  130.30  118.03   1
  22 -13  -7  130.20  123.53   1
 -13  -9 -10   93.36  210.21   1
  22 -13 -10 1362.31  248.20   1
  13  10 -12  117.27   96.39   1
 -23  13 -12  -40.36  152.37   1
  13  10  -9  306.10  135.92   1
 -23  13  -9  119.53  189.59   1
  13  10  -6  992.78  300.02   1
 -23  13  -6  810.88  332.86   1
  13  10  -3  506.23  213.86   1
 -23  13  -3  556.39  256.22   1
  13  10   0 6052.04 1416.96   1
 -13 -10   0 5787.61 1412.65   1
 -23  13   0 6381.83 1429.29   1
  13  10   3  485.12  208.95   1
 -13 -10  -3  358.69  182.44   1
 -23  13   3  403.75  205.90   1
  23 -13  -3  306.68  223.15   1
 -13 -10  -6  430.07  228.95   1
 -23  13   6  803.04  240.97   1
  23 -13  -6  460.83  246.69   1
 -13 -10  -9  -43.15   62.24   1
  23 -13  -9   73.89   96.36   1
  23 -13 -12   -6.68   92.99   1
  13  11 -10  905.04  258.81   1
 -24  13 -10  305.60  270.34   1
  13  11  -7  765.95  261.87   1
 -24  13  -7  745.60  303.74   1
  13  11  -4   91.11   97.46   1
 -24  13  -4   59.55  167.50   1
 -11  24   4   25.68   81.46   1
  13  11  -1  203.03  184.09   1
 -24  13  -1  244.07  235.74   1
  24 -13   1  677.45  219.58   1
 -11  24   1  454.84  206.31   1
  13  11   2 1309.04  437.74   1
 -13 -11  -2 1348.99  447.33   1
 -24  13   2 1193.64  452.09   1
  24 -13  -2 2480.16  471.19   1
  13  11   5 1700.72  479.65   1
 -24  13   5 1283.04  473.49   1
  24 -13  -5 1958.91  490.62   1
 -24  13   8 3531.14  913.61   1
  24 -13  -8 3884.56  898.99   1
  24 -13 -11  324.37  171.26   1
  13  12 -11  149.77   98.73   1
 -25  13 -11  -52.18  156.62   1
  13  12  -8  413.24  201.57   1
 -25  13  -8  610.23  240.37   1
  13  12  -5  168.84  135.22   1
 -25  13  -5  256.79  193.66   1
  13  12  -2  293.28  128.50   1
 -25  13  -2   -5.23  157.02   1
  25 -13   2  148.21  183.53   1
 -12  25   2  233.28  161.69   1
  13  12   1 2507.48  590.84   1
 -25  13   1 1586.99  593.89   1
  25 -13  -1 2422.49  597.11   1
  13  12   4 2578.99  532.96   1
 -13 -12  -4 1521.19  510.90   1
 -25  13   4 1489.63  512.14   1
  25 -13  -4 2206.09  533.71   1
 -13 -12  -7  621.97  360.32   1
 -25  13   7 1425.24  375.35   1
  25 -13  -7 1599.67  363.68   1
  25 -13 -10  520.45  210.63   1
  13  13  -9  533.22  174.16   1
 -26  13  -9  201.44  209.54   1
  13  13  -6  380.64  137.24   1
 -26  13  -6  -16.16  193.41   1
  13  13  -3 2676.76  513.76   1
 -26  13  -3 1511.25  511.59   1
 -13  26   3 1404.56  530.33   1
  13  13   0  481.88  192.77   1
 -26  13   0  500.53  236.02   1
  26 -13   0  395.22  238.63   1
 -13  26   0  410.65  218.84   1
  13  13   3 3000.98  616.16   1
 -13 -13  -3 2067.76  571.58   1
 -26  13   3 1484.11  588.54   1
  26 -13  -3 2357.92  594.46   1
 -13 -13  -6   44.82  118.23   1
 -26  13   6  290.57  152.57   1
  26 -13  -6  260.18  178.44   1
  26 -13  -9  518.55  218.16   1
  13  14 -10  -72.03   85.15   1
 -27  13 -10  156.82  151.60   1
  13  14  -7    7.48   85.77   1
 -27  13  -7   75.09  140.31   1
  13  14  -4  223.07  102.29   1
 -27  13  -4  -37.88  121.53   1
 -27  13  -1 3077.59  637.43   1
  27 -13   1 2214.14  639.88   1
 -14  27   1 1669.23  658.40   1
  13  14   2 3653.13  858.41   1
 -27  13   2 2551.36  855.01   1
  27 -13  -2 4916.85  889.26   1
  13  14   5   68.02  114.20   1
 -27  13   5   38.98  128.02   1
  27 -13  -5  185.54  156.14   1
 -27  13   8  155.47  126.41   1
  27 -13  -8  158.12  143.54   1
  27 -13 -11  255.50  169.12   1
  13  15  -8  117.14  104.84   1
 -28  13  -8  131.06  157.06   1
  13  15  -5  194.48   99.81   1
 -28  13  -5   19.70  117.48   1
 -15  28   5   28.52   77.05   1
  13  15  -2  373.52  151.90   1
 -28  13  -2  407.76  201.09   1
  28 -13   2  272.93  206.27   1
 -15  28   2  132.16  192.96   1
  13  15   1  260.00  138.12   1
 -28  13   1 -120.72  138.96   1
  28 -13  -1  177.98  180.07   1
 -15  28  -1  159.56  147.50   1
  13  15   4  679.87  252.56   1
 -28  13   4  251.39  237.77   1
  28 -13  -4  799.89  257.48   1
 -28  13   7  217.50  119.36   1
  28 -13  -7   17.09  160.66   1
  28 -13 -10  237.60  171.39   1
  13  16  -9  249.39  151.48   1
 -29  13  -9  271.67  194.09   1
  13  16  -6  198.41  111.48   1
 -29  13  -6   76.73  127.14   1
  13  16  -3  741.82  231.37   1
 -29  13  -3  972.12  278.37   1
 -16  29   3  232.73  221.28   1
  13  16   0  250.75  162.88   1
 -29  13   0  235.66  187.70   1
  29 -13   0  500.18  201.06   1
 -16  29   0   49.63  191.25   1
  13  16   3  175.05  149.16   1
 -29  13   3   86.00  163.94   1
  29 -13  -3  215.94  184.46   1
 -29  13   6   43.75  120.30   1
  29 -13  -6  117.17  142.91   1
  29 -13  -9   63.02  130.11   1
  13  17 -10  989.78  240.71   1
 -30  13 -10  332.49  260.43   1
  13  17  -7 3530.27  605.62   1
 -30  13  -7 1258.45  599.88   1
  13  17  -4 6737.21 1091.29   1
 -30  13  -4 4912.63 1118.64   1
 -17  30   4 1748.65 1101.08   1
  13  17  -1 5889.08 1062.95   1
 -30  13  -1 3707.32 1067.82   1
  30 -13   1 3999.00 1069.28   1
 -17  30   1 3796.33 1111.46   1
  13  17   2  529.85  200.01   1
 -30  13   2  418.20  219.91   1
  30 -13  -2  486.07  230.94   1
 -17  30  -2  425.84  244.52   1
  13  17   5  114.21  121.98   1
 -30  13   5   83.77  140.60   1
  30 -13  -5  215.25  155.34   1
 -30  13   8  -12.25  100.22   1
  30 -13  -8  204.50  150.86   1
  13  18  -8  316.90  149.55   1
 -31  13  -8  150.79  171.57   1
  13  18  -5  361.85  132.10   1
 -31  13  -5  380.55  183.56   1
 -18  31   5  -62.46  120.87   1
  13  18  -2 4322.81  738.60   1
 -31  13  -2 2391.57  745.10   1
  31 -13   2 2891.76  752.21   1
 -18  31   2 1799.83  755.37   1
  13  18   1  417.12  168.63   1
 -31  13   1  121.81  174.19   1
  31 -13  -1  250.87  205.27   1
 -18  31  -1  339.66  201.69   1
  13  18   4  158.00  147.90   1
 -31  13   4  -28.48  124.24   1
  31 -13  -4  267.27  160.81   1
 -18  31  -4  134.67  160.09   1
 -31  13   7   94.99   97.51   1
  31 -13  -7   39.10  132.19   1
  13  19  -9   67.36  113.29   1
 -32  13  -9  196.27  147.56   1
  13  19  -6   77.57   75.56   1
 -32  13  -6  -22.22  141.45   1
  13  19  -3 1503.30  306.20   1
 -32  13  -3  917.73  310.88   1
 -19  32   3  147.90  302.35   1
  13  19   0 2276.00  493.35   1
 -32  13   0 1605.06  525.78   1
  32 -13   0 1455.37  493.78   1
 -19  32   0 1462.28  517.04   1
  13  19   3 1595.84  374.83   1
 -32  13   3  979.16  370.88   1
  32 -13  -3 1108.02  376.90   1
 -19  32  -3  971.71  385.32   1
 -32  13   6 1375.92  497.40   1
  32 -13  -6 2316.31  510.96   1
  32 -13  -9  611.22  277.87   1
  13  20  -7  140.55  118.64   1
 -33  13  -7   84.14  179.55   1
  13  20  -4   18.22   93.28   1
 -33  13  -4  -79.32  114.21   1
 -20  33   4  -84.73   59.82   1
  13  20  -1  777.61  201.88   1
 -33  13  -1  426.57  221.53   1
  33 -13   1  459.51  236.81   1
 -20  33   1  334.14  243.56   1
  13  20   2 1751.72  408.64   1
 -33  13   2 1177.19  431.27   1
  33 -13  -2 1656.77  431.31   1
 -20  33  -2 1069.60  447.74   1
  13  20   5 1029.56  402.97   1
 -33  13   5 1039.75  417.39   1
  33 -13  -5 2186.38  428.05   1
 -20  33  -5 1526.68  432.06   1
 -33  13   8  328.25  189.54   1
  33 -13  -8  539.96  217.55   1
  13  21  -8  -19.75   63.15   1
 -34  13  -8 -152.36  140.73   1
  13  21  -5   94.80  118.73   1
 -34  13  -5   64.08  133.97   1
 -21  34   5  115.81   93.39   1
  13  21  -2   86.25  112.77   1
 -34  13  -2  213.02  129.04   1
  34 -13   2   -7.71  143.65   1
 -21  34   2   23.96  114.04   1
 -34  13   1   23.89   98.91   1
  34 -13  -1 -168.48  137.85   1
 -21  34  -1  160.09  132.53   1
  13  21   4   32.25  111.36   1
 -34  13   4    3.13  100.03   1
  34 -13  -4   56.76  139.40   1
 -21  34  -4   80.64  149.89   1
 -34  13   7   69.75   77.53   1
  34 -13  -7 -132.82  107.56   1
 -21  34  -7  179.33  139.14   1
  13  22  -6  136.99  127.11   1
 -35  13  -6   72.35  129.58   1
  13  22  -3  -32.94  122.74   1
 -35  13  -3  233.48  160.48   1
 -22  35   3  146.37  131.15   1
  13  22   0  -53.02  102.07   1
 -35  13   0  105.18  109.27   1
  35 -13   0   34.28  125.24   1
 -22  35   0  101.25  158.10   1
  13  22   3   79.12  164.99   1
 -35  13   3  140.79  131.18   1
  35 -13  -3  112.45  148.95   1
 -22  35  -3   97.84  138.34   1
 -35  13   6  -79.61   71.64   1
  35 -13  -6    2.57  100.47   1
 -22  35  -6  -59.25  109.74   1
  13  23  -4  298.52  138.67   1
 -36  13  -4  183.86  152.73   1
 -23  36   4   23.27  126.45   1
  13  23  -1   21.21   82.58   1
 -36  13  -1  101.06  122.86   1
  36 -13   1   58.06  153.23   1
 -23  36   1  -52.14  125.94   1
  13  23   2  203.08  124.87   1
 -36  13   2   40.75  143.17   1
  36 -13  -2   87.64  141.92   1
 -23  36  -2   84.19  150.78   1
 -36  13   5   25.06  108.14   1
  36 -13  -5   -9.98  131.90   1
 -23  36  -5  165.69  139.29   1
  13  24  -5 1358.47  228.22   1
 -37  13  -5  425.08  243.44   1
 -24  37   5   57.40  210.79   1
  13  24  -2 1139.57  229.03   1
 -37  13  -2  613.18  260.10   1
  37 -13   2  722.02  285.15   1
 -24  37   2  115.66  234.35   1
 -37  13   1  547.73  216.90   1
 -24  37  -1  325.97  224.84   1
  13  24   4   98.62  119.73   1
 -37  13   4  142.09  114.61   1
  37 -13  -4   23.30  134.02   1
 -24  37  -4   67.41  137.88   1
  13  25  -3  504.25  144.17   1
 -38  13  -3  -75.28  144.91   1
 -25  38   3   68.12  134.63   1
  13  25   0  543.27  160.71   1
 -38  13   0   44.27  170.08   1
  38 -13   0  178.33  179.78   1
  13  25   3  186.48  162.38   1
 -38  13   3   50.51  107.86   1
  38 -13  -3   26.54  120.94   1
 -25  38  -3   29.74  129.66   1
  13  26  -1  268.16  117.53   1
 -39  13  -1   19.66  114.75   1
  39 -13   1   46.52  157.00   1
 -26  39   1  102.21  100.29   1
  13  26   2  180.34  139.16   1
 -39  13   2  -43.46  107.61   1
  39 -13  -2   75.37  120.55   1
  14   1 -11   46.81   86.49   1
  14   1  -8 1493.47  427.61   1
  14   1  -5  263.58  133.50   1
 -15  14  -5  114.63  183.28   1
  14   1  -2 2851.84  658.68   1
 -14  -1   2 2750.37  667.93   1
 -15  14  -2 2563.78  672.29   1
  -1  15   2 2273.20  652.23   1
  14   1   1  336.34  170.78   1
 -14  -1  -1  200.81  156.91   1
 -15  14   1  323.73  167.37   1
  15 -14  -1  347.48  166.90   1
  14   1   4 2998.67  768.16   1
 -14  -1  -4 3212.14  777.80   1
 -15  14   4 2076.02  746.59   1
  15 -14  -4 3977.17  773.08   1
 -14  -1  -7  818.77  360.61   1
 -15  14   7 1061.89  336.98   1
  15 -14  -7 1048.63  313.01   1
 -14  -1 -10  489.63  264.10   1
  15 -14 -13  273.86  166.01   1
  -1  15 -13  162.16  130.92   1
  14   2 -12 1524.71  362.01   1
 -16  14 -12  682.08  398.49   1
  14   2  -9 1815.74  496.46   1
  14   2  -612032.93 2632.43   1
 -16  14  -611575.89 2655.04   1
  14   2  -3   20.97   68.26   1
 -14  -2   3   -1.12   62.42   1
 -16  14  -3  -93.44  118.52   1
  14   2   0  233.89  136.17   1
 -14  -2   0  127.11  121.28   1
 -16  14   0   61.07  154.77   1
  14   2   3 4514.98  976.40   1
 -14  -2  -3 3529.99  975.76   1
 -16  14   3 2903.52  978.57   1
  16 -14  -3 4978.28  981.51   1
 -14  -2  -6 1821.03  602.59   1
 -16  14   6 1941.66  606.58   1
  16 -14  -6 2942.44  602.78   1
 -14  -2  -9  646.86  331.70   1
  16 -14  -9 1177.95  318.30   1
 -14  -2 -12  155.00  184.66   1
  16 -14 -12   86.68  131.22   1
  14   3 -13  107.74  126.05   1
 -17  14 -13  222.81  167.67   1
  14   3 -10  284.82  117.16   1
 -17  14 -10   -3.52  173.81   1
  14   3  -7  337.78  136.86   1
 -17  14  -7   38.14  183.47   1
  14   3  -4 3589.21  892.71   1
 -14  -3   4 3715.96  899.53   1
 -17  14  -4 3766.51  912.72   1
  14   3  -118435.18 3740.07   1
 -14  -3   115728.40 3751.67   1
 -17  14  -116728.51 3758.34   1
  14   3   245590.54 7800.50   1
 -14  -3  -227434.69 7792.21   1
 -17  14   235763.36 7795.37   1
 -14  -3  -525983.00 6918.42   1
 -17  14   527512.59 6919.21   1
  17 -14  -543390.09 6932.63   1
 -14  -3  -8 5143.90 1898.67   1
  17 -14  -812644.85 1917.12   1
 -14  -3 -11  708.09  422.71   1
  17 -14 -11 2234.55  424.72   1
  14   4 -11  580.17  210.89   1
 -18  14 -11  480.99  243.58   1
  14   4  -8 1114.20  333.25   1
 -18  14  -8 1019.40  363.33   1
  14   4  -5 4959.97 1218.00   1
 -18  14  -5 5494.55 1240.65   1
  14   4  -2  275.98  166.98   1
 -14  -4   2  372.27  165.97   1
 -18  14  -2  453.99  212.40   1
  14   4   1   26.46   61.26   1
 -14  -4  -1  -41.94   77.27   1
 -18  14   1  -36.92   84.10   1
  18 -14  -1  -38.38  100.18   1
  14   4   4   71.10  107.14   1
 -14  -4  -4 -107.72   83.64   1
 -18  14   4   83.91   92.74   1
  18 -14  -4   81.83  119.87   1
 -14  -4  -7  208.12  185.88   1
 -18  14   7  312.57  165.78   1
  18 -14  -7  402.73  161.73   1
 -14  -4 -10  293.06  186.96   1
  18 -14 -10  579.89  208.90   1
 -14  -4 -13   53.18  121.33   1
  18 -14 -13   87.04  129.65   1
  14   5 -12   98.03  123.41   1
 -19  14 -12  178.35  166.07   1
  14   5  -9  193.72  145.84   1
 -19  14  -9  327.04  187.21   1
  14   5  -611877.74 3542.74   1
 -19  14  -6 9807.78 2406.93   1
  14   5  -323654.08 5537.48   1
 -14  -5   328784.46 5542.60   1
 -19  14  -327805.41 5566.67   1
  -5  19   321598.09 5558.87   1
  14   5   025986.20 4805.59   1
 -14  -5   022985.15 4814.54   1
 -19  14   016860.21 4792.66   1
  19 -14   023522.84 4814.75   1
  14   5   322717.61 4454.73   1
 -14  -5  -317831.06 4461.41   1
 -19  14   314571.28 4452.37   1
  19 -14  -326845.38 4468.03   1
 -19  14   6 5058.31 1545.37   1
  19 -14  -6 8298.15 1553.53   1
 -14  -5  -9 -122.43  106.64   1
  19 -14  -9   81.16   97.74   1
  19 -14 -12    0.85   91.97   1
  14   6 -13  -77.95   76.52   1
 -20  14 -13   52.34  151.60   1
  14   6 -10   10.70   89.22   1
 -20  14 -10  225.42  145.16   1
  14   6  -7 2535.20  631.94   1
 -20  14  -7 2360.21  662.76   1
  14   6  -416787.21 3690.90   1
 -20  14  -416832.30 3716.90   1
  14   6  -142762.04 8076.19   1
 -14  -6   134705.88 8072.54   1
 -20  14  -134195.60 8094.20   1
  14   6   241961.21 8047.17   1
 -14  -6  -231092.15 8043.68   1
 -20  14   232565.27 8060.60   1
  20 -14  -243378.25 8054.64   1
 -14  -6  -5 2448.25  866.61   1
 -20  14   5 3810.61  886.14   1
  20 -14  -5 4467.44  878.51   1
 -14  -6  -8  736.73  393.65   1
 -20  14   8 1407.12  398.25   1
  20 -14  -8 1610.75  383.01   1
 -14  -6 -11  -31.37  101.46   1
  20 -14 -11   72.36  100.38   1
  14   7 -11  125.33  131.84   1
 -21  14 -11  197.91  219.17   1
  14   7  -8   11.47   94.07   1
 -21  14  -8  113.85  177.50   1
  14   7  -5 1584.41  435.09   1
 -21  14  -5 1475.55  471.11   1
  14   7  -2 1163.69  309.07   1
 -14  -7   2  741.59  298.41   1
 -21  14  -2  994.11  330.61   1
  -7  21   2  649.35  306.08   1
  14   7   1 3106.94  685.10   1
 -14  -7  -1 2468.88  675.35   1
 -21  14   1 2018.54  681.35   1
  21 -14  -1 2787.64  676.52   1
  14   7   4   96.22  160.71   1
 -14  -7  -4   63.75  131.70   1
 -21  14   4  426.30  167.48   1
  21 -14  -4  220.96  181.95   1
 -14  -7  -7  534.84  371.80   1
 -21  14   7 1338.42  376.47   1
  21 -14  -7 1792.11  386.18   1
 -14  -7 -10   12.24   97.16   1
  21 -14 -10  110.22  105.57   1
  14   8 -12  403.51  144.82   1
 -22  14 -12  -13.77  203.07   1
  14   8  -9 6507.46 1383.60   1
 -22  14  -9 5318.26 1409.86   1
  14   8  -615728.51 3456.72   1
 -22  14  -615676.93 3486.54   1
  14   8  -318493.60 3763.50   1
 -22  14  -318382.06 3786.76   1
  -8  22   314049.51 3785.50   1
  14   8   014759.12 3182.28   1
 -14  -8   012638.08 3182.64   1
 -22  14   014527.93 3207.83   1
  22 -14   015845.17 3194.43   1
  14   8   3 5202.84 1139.63   1
 -14  -8  -3 3327.59 1133.92   1
 -22  14   3 4122.94 1146.41   1
  22 -14  -3 6846.22 1160.78   1
 -14  -8  -6   65.46  115.79   1
 -22  14   6  268.68  139.24   1
  22 -14  -6    3.21  168.75   1
 -14  -8  -9  194.27  222.25   1
  22 -14  -9  869.01  229.63   1
 -14  -8 -12   53.42   97.49   1
  22 -14 -12  259.44  124.69   1
  14   9 -10   40.98   75.37   1
 -23  14 -10    4.06  129.17   1
  14   9  -7 3672.75  831.07   1
 -23  14  -7 2966.94  869.04   1
  14   9  -4  651.82  257.06   1
 -23  14  -4  813.80  292.99   1
  14   9  -1 5536.12 1327.38   1
 -14  -9   1 6159.90 1331.49   1
 -23  14  -1 4328.17 1321.82   1
  23 -14   1 7841.51 1385.86   1
  14   9   2 1315.61  405.73   1
 -14  -9  -2 1327.16  429.10   1
 -23  14   2 1513.63  444.30   1
  23 -14  -2 1762.96  442.12   1
 -23  14   5   56.85   76.01   1
  23 -14  -5 -244.55  126.16   1
 -14  -9  -8  498.91  409.82   1
 -23  14   8 1466.03  413.03   1
  23 -14  -8 1794.88  388.85   1
  23 -14 -11  423.64  177.55   1
  14  10 -11  829.30  219.33   1
 -24  14 -11  267.95  244.21   1
  14  10  -8  684.37  227.71   1
 -24  14  -8  516.91  276.96   1
  14  10  -5  931.45  305.49   1
 -24  14  -5  971.21  338.52   1
  14  10  -2  -26.21  122.92   1
 -24  14  -2  259.20  136.39   1
 -10  24   2  186.75  151.51   1
  14  10   1 1678.25  444.56   1
 -14 -10  -1  982.80  403.71   1
 -24  14   1 1543.07  444.43   1
  24 -14  -1 1800.20  444.61   1
  14  10   4 1136.08  322.30   1
 -14 -10  -4  539.22  288.11   1
 -24  14   4  695.44  314.52   1
  24 -14  -4 1101.74  319.50   1
 -14 -10  -7  369.14  375.42   1
 -24  14   7 1220.48  371.29   1
  24 -14  -7 1996.04  392.59   1
  24 -14 -10  126.87  120.27   1
  14  11  -9 6860.84 1380.05   1
 -25  14  -9 4636.08 1416.62   1
  14  11  -6 5943.05 1263.55   1
 -25  14  -6 4729.65 1287.57   1
  14  11  -3 5575.71  997.35   1
 -25  14  -3 3584.52  996.18   1
 -11  25   3 3064.29 1016.70   1
  14  11   0  530.75  216.29   1
 -14 -11   0  451.98  218.23   1
 -25  14   0  252.75  239.87   1
  25 -14   0  708.20  236.59   1
  14  11   3  236.32  199.99   1
 -14 -11  -3  227.31  180.12   1
 -25  14   3  246.66  197.48   1
  25 -14  -3  646.62  220.94   1
 -14 -11  -6  453.53  264.72   1
 -25  14   6  809.14  278.63   1
  25 -14  -6  979.34  297.78   1
  25 -14  -9  324.57  185.52   1
  14  12 -10   94.49  126.57   1
 -26  14 -10  225.17  168.48   1
  14  12  -7  418.57  187.07   1
 -26  14  -7  472.59  230.16   1
  14  12  -4    8.60   87.20   1
 -26  14  -4   76.67  127.35   1
 -12  26   4  -18.20   70.38   1
  14  12  -1  330.80  153.00   1
 -26  14  -1  326.67  221.32   1
  26 -14   1  239.41  200.33   1
  14  12   2 3941.14 1123.03   1
 -14 -12  -2 5775.98 1163.71   1
 -26  14   2 4617.35 1154.89   1
  26 -14  -2 5704.66 1162.73   1
  14  12   5  391.98  236.44   1
 -26  14   5  662.42  245.94   1
  26 -14  -5  816.07  260.79   1
 -14 -12  -8  204.30  204.39   1
 -26  14   8  703.41  231.66   1
  26 -14  -8  789.24  232.13   1
  26 -14 -11  114.15  121.36   1
  14  13 -11   68.47   81.72   1
 -27  14 -11  -95.09  132.88   1
  14  13  -8   55.54   89.08   1
 -27  14  -8   66.50  147.42   1
  14  13  -5   57.67   96.42   1
 -27  14  -5   70.45  139.78   1
  14  13  -2 3661.48  858.55   1
 -27  14  -2 4007.74  913.83   1
 -13  27   2 3037.86  913.12   1
  14  13   1 4091.39  797.65   1
 -27  14   1 2434.32  778.19   1
  27 -14  -1 2856.38  779.77   1
  14  13   4  285.67  173.19   1
 -14 -13  -4  144.55  143.14   1
 -27  14   4  187.16  181.70   1
  27 -14  -4  332.93  195.09   1
 -14 -13  -7   45.26   52.66   1
 -27  14   7  -16.96   88.12   1
  27 -14  -7  -91.02  132.33   1
  27 -14 -10   17.45  107.02   1
  14  14  -9  145.19  112.23   1
 -28  14  -9  -16.02  184.06   1
  14  14  -6  255.48  111.74   1
 -28  14  -6  -20.03  147.26   1
  14  14  -3 1009.18  245.00   1
 -28  14  -3  561.55  269.41   1
 -14  28   3  366.12  253.54   1
 -28  14   0 2576.60  737.82   1
  28 -14   0 2907.05  734.80   1
 -14  28   0 3103.03  759.21   1
  14  14   3  717.29  285.37   1
 -28  14   3  620.63  279.96   1
  28 -14  -3  874.00  296.69   1
 -28  14   6   44.04   99.66   1
  28 -14  -6  -88.28  126.60   1
  28 -14  -9  353.53  204.26   1
  14  15 -10  100.40   90.64   1
 -29  14 -10  -93.03  157.94   1
  14  15  -7   77.14  102.47   1
 -29  14  -7  148.64  133.82   1
  14  15  -4 1425.31  282.01   1
 -29  14  -4  772.22  296.88   1
 -15  29   4  334.02  275.13   1
  14  15  -1 2611.70  585.72   1
 -29  14  -1 1856.75  591.65   1
  29 -14   1 2349.28  599.05   1
 -15  29   1 1906.60  617.93   1
  14  15   2 2138.05  479.80   1
 -29  14   2 1253.09  488.52   1
  29 -14  -2 1703.56  489.50   1
  14  15   5  728.51  316.47   1
 -29  14   5  772.45  311.10   1
  29 -14  -5 1182.34  323.97   1
 -29  14   8  812.59  293.30   1
  29 -14  -8  951.50  330.82   1
  14  16  -8  703.01  215.26   1
 -30  14  -8  344.91  217.03   1
  14  16  -5 1134.62  285.09   1
 -30  14  -5  666.08  313.38   1
  14  16  -2  -25.66   58.82   1
 -30  14  -2  -68.63  124.26   1
  30 -14   2 -156.01  127.72   1
 -16  30   2  -20.75   97.09   1
  14  16   1  972.13  295.65   1
 -30  14   1  310.94  267.83   1
  30 -14  -1  773.33  288.82   1
 -16  30  -1  921.63  303.18   1
  14  16   4 2024.81  509.59   1
 -30  14   4 1250.67  493.06   1
  30 -14  -4 2045.28  510.94   1
 -30  14   7 1330.28  471.79   1
  30 -14  -7 2246.60  503.56   1
  30 -14 -10  975.82  355.01   1
  14  17  -9  494.40  175.19   1
 -31  14  -9  270.29  191.47   1
  14  17  -6 2181.87  418.00   1
 -31  14  -6  725.18  424.33   1
  14  17  -3 4064.03  576.88   1
 -31  14  -3 2010.39  588.98   1
 -17  31   3  617.99  565.25   1
  14  17   0 2418.93  453.97   1
 -31  14   0  864.82  446.00   1
  31 -14   0 1929.50  500.04   1
 -17  31   0 1146.03  465.89   1
  14  17   3  322.31  134.90   1
 -31  14   3  -26.23  139.47   1
  31 -14  -3   18.44  148.43   1
 -17  31  -3   37.80  149.24   1
 -31  14   6  613.38  229.36   1
  31 -14  -6  528.65  244.04   1
  31 -14  -9  574.63  273.76   1
  14  18  -7   15.91  113.83   1
 -32  14  -7  180.12  135.82   1
  14  18  -4  694.12  190.44   1
 -32  14  -4  471.08  218.03   1
 -18  32   4   94.44  196.59   1
 -32  14  -1  371.39  207.54   1
  32 -14   1  443.17  211.30   1
 -18  32   1  302.43  254.43   1
  14  18   2  846.04  291.81   1
 -32  14   2  653.58  313.24   1
  32 -14  -2 1173.07  321.78   1
 -18  32  -2 1047.40  341.89   1
 -32  14   5  168.61  181.98   1
  32 -14  -5  660.14  230.21   1
 -32  14   8  190.41  142.53   1
  32 -14  -8  287.14  206.17   1
  14  19  -8   72.10   94.95   1
 -33  14  -8    2.84  149.94   1
  14  19  -5  -42.53   71.78   1
 -33  14  -5  128.26  124.86   1
 -19  33   5  -17.71   58.72   1
  14  19  -2 1890.37  312.45   1
 -33  14  -2  589.65  320.87   1
  33 -14   2  717.16  334.83   1
 -19  33   2  407.92  329.43   1
  14  19   1 3766.06  632.54   1
 -33  14   1 1636.16  628.56   1
  33 -14  -1 2375.70  639.00   1
 -19  33  -1 1692.54  644.56   1
  14  19   4 3783.62  798.49   1
 -33  14   4 1921.34  785.56   1
  33 -14  -4 3580.21  801.48   1
 -19  33  -4 3370.53  803.57   1
 -33  14   7 1014.69  389.85   1
  33 -14  -7 1726.44  419.74   1
  14  20  -6 2092.99  442.64   1
 -34  14  -6  907.70  466.83   1
  14  20  -3 1722.68  330.80   1
 -34  14  -3  953.11  342.71   1
 -20  34   3  254.38  345.29   1
  14  20   0  550.54  165.60   1
 -34  14   0   76.05  176.72   1
  34 -14   0  282.19  190.65   1
 -20  34   0  368.91  223.06   1
  14  20   3   56.54  152.10   1
 -34  14   3  -15.30  107.19   1
  34 -14  -3   67.09  124.65   1
 -20  34  -3   37.33  152.29   1
 -34  14   6   44.63  107.88   1
  34 -14  -6  160.64  130.36   1
 -20  34  -6  -26.19  154.99   1
  14  21  -7   95.29   83.09   1
 -35  14  -7  -87.99  135.90   1
  14  21  -4 1695.95  280.69   1
 -35  14  -4  495.56  289.97   1
 -21  35   4  274.94  259.55   1
  14  21  -1 1763.84  345.37   1
 -35  14  -1 1054.62  334.78   1
  35 -14   1  938.07  350.16   1
 -21  35   1  553.19  349.42   1
  14  21   2 1243.27  300.42   1
 -35  14   2  491.43  317.93   1
  35 -14  -2 1557.08  372.54   1
 -21  35  -2  609.68  328.90   1
  14  21   5  245.10  179.69   1
 -35  14   5  229.78  165.02   1
  35 -14  -5  313.13  171.73   1
 -21  35  -5  373.57  197.42   1
  14  22  -5 1954.53  297.14   1
 -36  14  -5  677.54  302.56   1
 -22  36   5  145.26  275.32   1
  14  22  -2 4035.82  722.53   1
 -36  14  -2 1762.14  720.66   1
  14  22   1 1771.77  390.62   1
 -36  14   1  959.64  384.21   1
  36 -14  -1 1095.76  390.77   1
 -22  36  -1 1202.23  414.96   1
  14  22   4  622.66  234.08   1
 -36  14   4  513.23  237.54   1
  36 -14  -4  534.49  251.76   1
 -22  36  -4  721.22  260.51   1
  14  23  -6   91.14   93.40   1
 -37  14  -6  -63.78  118.53   1
  14  23  -3  151.72   97.51   1
 -37  14  -3  -20.09  131.44   1
 -23  37   3   30.88  114.61   1
  14  23   0 -112.46   91.86   1
 -37  14   0   64.40   97.80   1
  37 -14   0  -43.96  141.64   1
 -23  37   0   76.51  127.86   1
  14  23   3  -99.48  137.29   1
 -37  14   3   -9.16   81.62   1
  37 -14  -3  -31.85   98.54   1
 -23  37  -3 -104.12   89.92   1
 -37  14   6  -75.59   72.99   1
  37 -14  -6   20.90  111.78   1
 -23  37  -6   22.98  127.86   1
  14  24  -4  670.68  183.18   1
 -38  14  -4  386.55  193.29   1
 -24  38   4    7.18  168.54   1
  14  24  -1  153.94  129.67   1
 -38  14  -1  206.85  140.93   1
  38 -14   1  430.47  176.30   1
 -24  38   1   12.58  140.93   1
  14  24   2  -31.53  114.73   1
 -38  14   2  -17.61   82.99   1
  38 -14  -2  -52.81  100.66   1
 -24  38  -2 -110.54  113.00   1
 -38  14   5   52.02   75.95   1
 -24  38  -5  -97.60  107.82   1
  14  25  -2  308.92  114.34   1
 -39  14  -2   96.05  140.93   1
 -25  39   2   72.15  144.78   1
  14  25   1  112.06  138.84   1
 -39  14   1   88.28  130.58   1
  39 -14  -1  -17.96  144.83   1
 -25  39  -1   95.91  143.32   1
  14  26   0  -82.85  108.41   1
 -40  14   0  -32.97  100.47   1
  40 -14   0  -47.68  117.96   1
 -26  40   0   15.38  113.77   1
  15   1 -13   61.69   99.91   1
 -16  15 -13   74.46  154.50   1
  15   1 -10  322.88  162.96   1
  15   1  -7 4187.98 1005.61   1
  15   1  -415782.34 3474.31   1
 -15  -1   416108.32 3479.51   1
 -16  15  -415515.16 3493.08   1
  15   1  -114360.07 2831.07   1
 -15  -1   112047.98 2842.34   1
 -16  15  -113109.73 2852.93   1
  -1  16   111420.20 2837.96   1
  15   1   211994.73 2652.89   1
 -15  -1  -2 9696.09 2642.93   1
 -16  15   213404.55 2686.10   1
  16 -15  -213328.50 2650.17   1
 -15  -1  -5 1764.97  678.68   1
 -16  15   5 2268.41  651.59   1
  16 -15  -5 3586.60  678.09   1
 -15  -1  -8  578.33  289.07   1
  16 -15  -8  893.32  270.20   1
 -15  -1 -11  118.40  186.79   1
  16 -15 -11   21.22  101.34   1
  15   2 -11  138.26  104.83   1
 -17  15 -11   76.47  156.26   1
  15   2  -8  310.30  170.69   1
 -17  15  -8  414.74  217.99   1
  15   2  -5  400.03  194.28   1
 -17  15  -5  526.17  232.02   1
  15   2  -2 1155.62  336.74   1
 -15  -2   2 1139.21  340.78   1
 -17  15  -2 1142.80  355.66   1
  -2  17   2  929.97  330.73   1
  15   2   1 6877.61 1534.79   1
 -15  -2  -1 7667.92 1550.11   1
 -17  15   1 5202.98 1546.13   1
  17 -15  -1 7620.06 1569.67   1
  15   2   412492.37 3062.11   1
 -15  -2  -410969.60 3050.32   1
  17 -15  -418453.54 3070.87   1
 -15  -2  -7 2696.59  828.59   1
 -17  15   7 3042.28  808.45   1
  17 -15  -7 4178.18  830.38   1
 -15  -2 -10  163.05  181.62   1
  17 -15 -10  343.86  150.17   1
 -15  -2 -13  168.99  142.81   1
  17 -15 -13  202.31  129.90   1
  -2  17 -13  -71.78  100.64   1
  15   3 -12  167.52  114.06   1
 -18  15 -12   95.19  171.51   1
  15   3  -9  -22.98   77.45   1
 -18  15  -9   41.40  136.34   1
  15   3  -6 1681.59  473.20   1
 -18  15  -6 1752.27  498.22   1
  15   3  -3 4874.86 1125.61   1
 -15  -3   3 4622.81 1129.68   1
 -18  15  -3 4883.69 1144.17   1
  15   3   019175.87 3606.92   1
 -15  -3   015463.14 3600.43   1
 -18  15   014229.38 3614.28   1
  15   3   3 7891.90 1277.13   1
 -15  -3  -3 2847.78 1241.61   1
 -18  15   3 4886.40 1268.36   1
  18 -15  -3 6814.82 1265.90   1
 -15  -3  -6  553.51  256.82   1
 -18  15   6  606.01  228.30   1
  18 -15  -6  657.23  256.94   1
 -15  -3  -9   75.76  106.78   1
 -15  -3 -12   55.78  108.14   1
  15   4 -13    1.69   76.65   1
 -19  15 -13  -16.74  119.10   1
  15   4 -10   76.57   94.21   1
 -19  15 -10   70.83  143.05   1
  15   4  -7   67.07  108.92   1
 -19  15  -7  153.51  161.79   1
  15   4  -4 3890.60 1077.16   1
 -15  -4   4 4948.80 1084.94   1
 -19  15  -4 4874.55 1099.37   1
  15   4  -1 1235.87  336.79   1
 -15  -4   1 1084.75  353.21   1
 -19  15  -1 1040.22  376.46   1
  15   4   2  468.63  217.80   1
 -15  -4  -2  294.72  187.65   1
 -19  15   2  343.47  194.87   1
  19 -15  -2  477.39  206.66   1
 -15  -4  -5 3862.28 1204.96   1
 -19  15   5 4860.02 1224.61   1
  19 -15  -5 6397.65 1200.81   1
 -15  -4  -8    3.80  134.41   1
  19 -15  -8  155.34  137.80   1
 -15  -4 -11  -78.49  103.17   1
  15   5 -11  789.43  227.79   1
 -20  15 -11  412.78  260.89   1
  15   5  -8 3035.15  694.32   1
 -20  15  -8 2392.16  718.56   1
 -20  15  -526518.14 7981.87   1
  15   5  -522517.19 5202.39   1
  15   5  -231886.34 5958.72   1
 -15  -5   222075.59 5959.06   1
 -20  15  -228575.33 5977.35   1
  15   5   117720.18 4157.43   1
 -15  -5  -121626.26 4200.60   1
 -20  15   117840.08 4215.80   1
  20 -15  -119879.04 4174.49   1
  15   5   420580.31 4074.75   1
 -15  -5  -414887.23 4068.06   1
 -20  15   414209.91 4066.01   1
  20 -15  -424525.25 4072.73   1
 -15  -5  -7 6613.78 2144.56   1
 -20  15   7 9043.22 2146.69   1
  20 -15  -713869.63 2173.38   1
 -15  -5 -10   -1.63  162.31   1
  20 -15 -10  424.74  154.03   1
 -15  -5 -13   88.70   98.71   1
  20 -15 -13   21.83  128.65   1
  15   6 -12  -21.34   89.19   1
 -21  15 -12   30.86  155.96   1
  15   6  -9 1355.02  388.58   1
 -21  15  -9 1329.60  428.00   1
  15   6  -6 2294.83  604.87   1
 -21  15  -6 2380.31  634.74   1
  15   6  -3 2842.92  708.50   1
 -15  -6   3 3294.16  718.49   1
 -21  15  -3 2731.70  733.84   1
  -6  21   3 2301.22  727.87   1
  15   6   0 3961.02 1010.80   1
 -15  -6   0 4730.54 1029.89   1
 -21  15   0 3195.91 1016.68   1
  21 -15   0 5639.77 1041.52   1
  15   6   3 5103.78  915.29   1
 -15  -6  -3 3123.15  899.18   1
 -21  15   3 2141.50  889.51   1
  21 -15  -3 4407.07  905.40   1
 -21  15   6  356.42  220.31   1
  21 -15  -6  540.68  221.34   1
 -15  -6  -9  131.26  130.49   1
  21 -15  -9  127.34  138.82   1
 -15  -6 -12  -49.56   87.61   1
  21 -15 -12   94.14  112.03   1
  15   7 -10  -31.32  111.25   1
 -22  15 -10  387.76  179.55   1
  15   7  -7  160.04  137.21   1
 -22  15  -7  305.35  196.26   1
  15   7  -4 1007.23  311.31   1
 -22  15  -4  933.60  351.98   1
  15   7  -1 1941.57  427.90   1
 -15  -7   1  958.41  420.84   1
 -22  15  -1 1549.39  427.55   1
  15   7   2 1682.82  492.21   1
 -15  -7  -2 1157.87  465.83   1
 -22  15   2 2076.96  497.45   1
  22 -15  -2 1935.83  494.85   1
  15   7   5  305.04  152.87   1
 -15  -7  -5   84.21  126.63   1
 -22  15   5   51.19  133.31   1
  22 -15  -5  177.81  165.09   1
 -15  -7  -8  -52.01   53.50   1
 -22  15   8   37.83   95.42   1
  22 -15  -8 -110.49  122.99   1
 -15  -7 -11   -6.91   75.13   1
  22 -15 -11   23.56  112.80   1
  15   8 -11  203.08  115.70   1
 -23  15 -11   36.51  177.53   1
  15   8  -8 1550.87  423.09   1
 -23  15  -8 1445.09  454.50   1
  15   8  -5 4579.54 1094.31   1
 -23  15  -5 4653.15 1124.23   1
  15   8  -2 5822.86 1354.33   1
 -15  -8   2 6784.32 1363.64   1
 -23  15  -2 5545.73 1377.33   1
  -8  23   2 4970.95 1382.40   1
  15   8   1 5532.79 1225.90   1
 -15  -8  -1 3824.32 1215.52   1
 -23  15   1 5758.55 1244.42   1
  23 -15  -1 6267.56 1245.43   1
  15   8   4 1095.29  296.55   1
  23 -15  -4  547.30  298.61   1
 -15  -8  -7  114.24  134.66   1
 -23  15   7  114.73  158.38   1
  23 -15  -7  335.29  188.15   1
 -15  -8 -10  -34.48   87.62   1
  23 -15 -10  225.82  137.57   1
  15   9 -12  122.48   86.87   1
 -24  15 -12  -93.65  133.48   1
  15   9  -9  382.91  167.84   1
 -24  15  -9  352.90  216.03   1
  15   9  -6  435.51  182.75   1
 -24  15  -6  381.45  233.33   1
  15   9  -3 2581.38  596.30   1
 -24  15  -3 2566.36  633.48   1
  -9  24   3 1645.06  611.31   1
  15   9   0 5716.72 1255.51   1
 -15  -9   0 5457.27 1253.86   1
 -24  15   0 5067.61 1279.19   1
  24 -15   0 4984.38 1264.90   1
 -15  -9  -3  646.53  248.21   1
 -24  15   3  485.28  255.44   1
  24 -15  -3  748.25  271.02   1
 -15  -9  -6   75.65  171.97   1
 -24  15   6  408.42  189.59   1
  24 -15  -6  543.15  211.18   1
  24 -15  -9  425.28  218.50   1
  24 -15 -12  -10.07  121.88   1
  15  10 -10 2843.67  510.67   1
 -25  15 -10  883.41  524.42   1
  15  10  -7 4628.72 1025.81   1
 -25  15  -7 3881.53 1054.65   1
  15  10  -4 7908.78 1769.33   1
 -25  15  -4 7571.73 1800.24   1
  15  10  -1 7206.16 1546.70   1
 -25  15  -1 5953.01 1559.61   1
  25 -15   1 7113.33 1561.79   1
 -10  25   1 6424.75 1557.37   1
  15  10   2 4243.77  910.57   1
 -15 -10  -2 2216.62  890.20   1
 -25  15   2 3688.39  920.83   1
  25 -15  -2 5187.78  923.60   1
  15  10   5   79.21  160.50   1
 -15 -10  -5  168.25  144.31   1
 -25  15   5  286.91  154.40   1
  25 -15  -5  356.71  188.86   1
 -15 -10  -8  218.11  200.91   1
 -25  15   8  500.84  205.59   1
  25 -15  -8  980.24  260.51   1
  25 -15 -11   24.62  123.66   1
  15  11 -11  433.13  188.36   1
  15  11  -8  791.55  227.00   1
 -26  15  -8  382.88  265.31   1
  15  11  -5  265.43  135.79   1
 -26  15  -5  128.72  190.30   1
  15  11  -2 -182.56  105.08   1
 -26  15  -2   80.33  123.93   1
 -11  26   2  375.81  134.63   1
  15  11   1  369.26  261.40   1
 -15 -11  -1  549.49  224.39   1
 -26  15   1  586.63  266.61   1
  26 -15  -1  802.79  274.75   1
  15  11   4  206.63  201.42   1
 -15 -11  -4  223.76  171.64   1
 -26  15   4  331.25  209.07   1
  26 -15  -4  770.40  227.13   1
 -15 -11  -7   68.32  158.70   1
 -26  15   7  478.20  189.05   1
  26 -15  -7  588.40  227.03   1
  26 -15 -10  238.22  165.85   1
  15  12  -9  238.15  171.03   1
 -27  15  -9  472.05  196.01   1
  15  12  -6  790.47  268.22   1
 -27  15  -6  811.91  312.81   1
  15  12  -3   29.80   87.77   1
 -27  15  -3   12.12  104.29   1
  15  12   0  452.95  205.82   1
 -27  15   0  586.64  231.11   1
  27 -15   0  345.34  227.63   1
 -12  27   0  337.59  230.02   1
 -15 -12  -3  -63.09   93.98   1
 -27  15   3  125.99  123.91   1
  27 -15  -3   49.48  142.86   1
 -15 -12  -6  251.74  181.29   1
 -27  15   6  681.91  216.43   1
  27 -15  -6  549.25  226.81   1
  27 -15  -9   33.80  150.69   1
  15  13 -10  458.37  259.81   1
 -28  15 -10   46.60  183.44   1
  15  13  -7  304.85  151.38   1
 -28  15  -7  296.75  205.70   1
  15  13  -4  559.41  169.63   1
 -28  15  -4  349.15  176.45   1
 -13  28   4  107.93  163.49   1
  15  13  -1  126.80  113.18   1
 -28  15  -1  328.08  167.78   1
  28 -15   1    1.93  163.72   1
 -13  28   1   27.13  151.65   1
  15  13   2  318.96  176.16   1
 -28  15   2  228.14  187.54   1
  28 -15  -2  473.88  222.63   1
  15  13   5  -59.35  129.09   1
 -15 -13  -5  216.84  109.25   1
 -28  15   5   40.21  122.81   1
  28 -15  -5  213.76  164.42   1
 -15 -13  -8   89.20   95.82   1
 -28  15   8  216.95  135.94   1
  28 -15  -8  182.23  168.47   1
  15  14  -8 1230.98  282.68   1
 -29  15  -8  433.31  294.35   1
  15  14  -5 1732.74  392.32   1
 -29  15  -5 1007.40  393.59   1
  15  14  -2 1109.85  433.57   1
 -29  15  -2 2251.70  473.60   1
 -14  29   2 1353.10  463.28   1
  15  14   1 3485.39  621.24   1
 -29  15   1 1830.15  621.56   1
  29 -15  -1 1644.95  629.21   1
 -14  29  -1 2361.94  650.97   1
  15  14   4 1139.37  337.08   1
 -29  15   4  866.89  338.09   1
  29 -15  -4  960.76  350.89   1
 -29  15   7  130.19  117.72   1
  29 -15  -7   -9.86  147.68   1
  29 -15 -10  195.84  203.20   1
  15  15  -9  311.90  118.21   1
 -30  15  -9 -139.20  176.00   1
  15  15  -6  349.77  128.14   1
 -30  15  -6   65.12  145.15   1
  15  15  -3 2715.26  553.61   1
 -30  15  -3 2904.45  642.52   1
 -15  30   3 1131.76  551.27   1
  15  15   0 2695.99  496.63   1
 -30  15   0 1439.57  499.13   1
  30 -15   0 1477.30  499.89   1
 -15  30   0 1419.56  497.25   1
  15  15   3 2742.57  604.69   1
 -30  15   3 1957.87  594.55   1
  30 -15  -3 1917.62  600.34   1
 -30  15   6  131.02  131.00   1
  30 -15  -6  113.15  157.20   1
  30 -15  -9  111.99  183.64   1
  15  16  -7  172.37  134.94   1
  15  16  -4  140.65  103.81   1
 -31  15  -4   71.48  169.59   1
 -16  31   4  167.65  109.73   1
  15  16  -1 1050.83  336.58   1
 -31  15  -1 1250.61  352.07   1
  31 -15   1  839.37  353.74   1
 -16  31   1  977.06  379.65   1
  15  16   2 1869.82  494.13   1
 -31  15   2 1374.48  521.02   1
  31 -15  -2 2255.98  526.84   1
 -16  31  -2 1954.71  544.79   1
  15  16   5 1948.92  573.94   1
 -31  15   5 1201.55  564.99   1
  31 -15  -5 3112.46  577.92   1
 -31  15   8  668.65  260.15   1
  31 -15  -8  788.65  270.10   1
  15  17  -8   55.98   96.16   1
 -32  15  -8   15.34  122.84   1
  15  17  -5  456.63  178.20   1
 -32  15  -5  330.23  217.78   1
  15  17  -2  236.81  137.48   1
 -32  15  -2  203.09  176.85   1
 -17  32   2  290.32  180.21   1
  15  17   1  213.22  140.80   1
 -32  15   1 -144.22  117.63   1
  32 -15  -1   30.76  148.72   1
 -17  32  -1  143.70  159.14   1
  15  17   4  180.86  147.20   1
 -32  15   4   24.12  126.88   1
  32 -15  -4  211.77  157.74   1
 -32  15   7   13.07  129.50   1
  32 -15  -7  248.40  162.72   1
  15  18  -6  -26.75   71.72   1
 -33  15  -6  -55.20  126.51   1
  15  18  -3  188.12  111.71   1
 -33  15  -3    1.35  142.65   1
 -18  33   3   51.78   98.48   1
  15  18   0   85.07  105.27   1
 -33  15   0  -42.60  113.89   1
  33 -15   0  -69.99  134.07   1
 -18  33   0  273.08  141.07   1
  15  18   3 1184.09  286.72   1
 -33  15   3  345.84  264.10   1
  33 -15  -3  656.40  264.07   1
 -18  33  -3  539.79  285.57   1
 -33  15   6  -35.02   88.47   1
  33 -15  -6   35.95  123.33   1
  15  19  -7  168.32  139.36   1
 -34  15  -7  329.09  179.56   1
  15  19  -4    7.07  111.62   1
 -34  15  -4   63.34  134.08   1
 -19  34   4  146.05   90.86   1
  15  19  -1   83.08  121.48   1
 -34  15  -1   84.65  141.62   1
  34 -15   1  114.76  151.33   1
 -19  34   1  285.98  191.69   1
  15  19   2  162.97  127.71   1
 -34  15   2  -83.07  120.58   1
  34 -15  -2  -44.45  152.96   1
 -19  34  -2  136.04  144.96   1
  15  19   5  -60.85   81.80   1
 -34  15   5  133.08   99.38   1
  34 -15  -5 -150.49  125.78   1
 -19  34  -5  -19.49  130.12   1
 -34  15   8  -87.55   68.34   1
  34 -15  -8   28.61  147.06   1
  15  20  -5  683.68  149.38   1
 -35  15  -5   62.06  155.79   1
 -20  35   5  -48.74  110.06   1
  15  20  -2  906.36  211.73   1
 -35  15  -2  531.97  225.72   1
 -20  35   2  138.70  217.51   1
  15  20   1 1841.38  365.69   1
 -35  15   1  614.55  331.67   1
  35 -15  -1 1004.31  339.81   1
 -20  35  -1  871.92  350.42   1
  15  20   4  558.16  215.40   1
 -35  15   4  350.11  205.21   1
  35 -15  -4  324.42  220.62   1
 -20  35  -4  509.01  227.45   1
 -35  15   7  188.40  139.55   1
  35 -15  -7  114.09  192.84   1
 -20  35  -7  326.28  175.46   1
  15  21  -6  948.89  244.50   1
 -36  15  -6  347.00  251.38   1
  15  21  -3 1393.39  353.52   1
 -36  15  -3 1465.77  371.63   1
 -21  36   3  434.75  366.54   1
  15  21   0 3746.08  582.11   1
 -36  15   0 1085.31  568.03   1
  36 -15   0 2013.78  580.50   1
 -21  36   0 1803.50  614.51   1
  15  21   3 2921.08  493.93   1
 -36  15   3 1158.17  473.56   1
  36 -15  -3 1647.21  477.41   1
 -21  36  -3 1194.70  465.41   1
 -36  15   6  440.54  231.84   1
  36 -15  -6  748.12  261.43   1
 -21  36  -6  778.97  265.33   1
  15  22  -4  210.50  127.55   1
 -37  15  -4   44.28  151.21   1
 -22  37   4   77.85  102.27   1
  15  22  -1  183.54  160.53   1
 -37  15  -1  309.53  175.36   1
  37 -15   1  269.10  197.85   1
 -22  37   1  216.24  173.09   1
  15  22   2  -46.85  145.35   1
 -37  15   2   14.96  135.74   1
  37 -15  -2   60.84  129.44   1
 -22  37  -2  167.98  123.92   1
 -37  15   5   42.41   94.70   1
  37 -15  -5 -115.42  118.04   1
 -22  37  -5  120.07  135.98   1
  15  23  -5  179.10  120.96   1
 -38  15  -5   34.77  142.29   1
 -23  38   5   63.63   82.18   1
  15  23  -2   15.72   22.96   1
 -38  15  -2 -152.07   97.20   1
 -23  38   2 -148.93   55.69   1
  15  23   1  188.16  126.20   1
 -38  15   1   81.38  137.59   1
  38 -15  -1   78.01  148.05   1
 -23  38  -1    0.69  166.24   1
  15  23   4  190.68  160.73   1
 -38  15   4  101.18  128.18   1
  38 -15  -4  109.55  136.61   1
 -23  38  -4  121.55  148.46   1
  15  24  -3   22.63   97.54   1
 -39  15  -3    7.49  116.20   1
 -24  39   3   34.28  105.17   1
  15  24   0   72.09  147.58   1
 -39  15   0   33.98  115.23   1
  39 -15   0   28.91  150.00   1
 -24  39   0  246.92  130.48   1
  15  24   3   85.99  174.79   1
 -39  15   3   14.85  109.02   1
  39 -15  -3  143.98  144.18   1
 -24  39  -3  107.28  135.25   1
  15  25  -1  275.33  125.51   1
 -40  15  -1  232.52  131.03   1
  40 -15   1  211.63  171.91   1
 -25  40   1   -3.29  122.04   1
  16   1 -12  241.22  146.93   1
 -17  16 -12  252.97  198.69   1
  16   1  -9  141.36  117.32   1
  16   1  -6  904.90  317.53   1
 -17  16  -6 1133.46  351.92   1
  16   1  -3 5689.19 1256.20   1
 -16  -1   3 5278.82 1258.15   1
 -17  16  -3 5138.27 1270.85   1
  16   1   0 7133.90 1634.29   1
 -16  -1   0 6878.09 1652.23   1
 -17  16   0 7603.21 1661.71   1
  16   1   3 6261.40 1253.61   1
 -16  -1  -3 4535.56 1254.18   1
 -17  16   3 4368.64 1260.25   1
  17 -16  -3 5718.32 1236.99   1
 -16  -1  -6    9.76  137.05   1
 -17  16   6  289.65  120.24   1
  17 -16  -6  144.30  146.32   1
 -16  -1  -9  363.23  164.12   1
  17 -16  -9  -46.44  160.70   1
 -16  -1 -12   55.92  162.42   1
  17 -16 -12  143.71  147.23   1
  -1  17 -12  229.25  118.82   1
  16   2 -13  -14.97   56.30   1
 -18  16 -13 -119.48  122.83   1
  16   2 -10  122.73  106.01   1
 -18  16 -10  207.74  164.75   1
  16   2  -7  525.65  211.55   1
  16   2  -4 4375.13 1079.34   1
 -16  -2   4 4776.16 1088.26   1
 -18  16  -4 4581.47 1102.37   1
  16   2  -1 3154.94  612.95   1
 -16  -2   1 1341.34  620.13   1
 -18  16  -1 2448.35  631.19   1
  16   2   2  189.24  145.55   1
 -16  -2  -2   74.58  120.03   1
 -18  16   2  105.76  149.63   1
  18 -16  -2  176.22  139.79   1
 -16  -2  -5   18.43  118.55   1
 -18  16   5   72.70  107.28   1
  18 -16  -5  190.93  140.59   1
 -16  -2  -8   87.77  117.15   1
 -16  -2 -11  149.38  198.04   1
  18 -16 -11  809.93  210.11   1
  16   3 -11  823.66  249.94   1
 -19  16 -11  568.57  277.97   1
  16   3  -8 2661.73  677.28   1
 -19  16  -8 2667.45  700.90   1
 -19  16  -518732.41 6239.82   1
  16   3  -211338.40 2097.18   1
 -16  -3   2 8567.94 2078.82   1
 -19  16  -210616.77 2124.92   1
  -3  19   2 7140.94 2099.70   1
  16   3   1 8146.21 1718.12   1
 -16  -3  -1 7484.52 1737.54   1
 -19  16   1 6005.76 1723.94   1
  19 -16  -1 8763.84 1740.89   1
  16   3   4  100.57  168.11   1
 -16  -3  -4   99.29  149.52   1
 -19  16   4  262.91  152.80   1
  19 -16  -4  510.39  178.73   1
 -16  -3  -7  -41.83  100.19   1
 -19  16   7   48.56   84.05   1
  19 -16  -7 -104.44  138.52   1
 -16  -3 -10  473.31  247.24   1
  19 -16 -10  695.72  243.56   1
 -16  -3 -13    5.94  142.72   1
  19 -16 -13  -19.57  164.03   1
  -3  19 -13  187.86   92.81   1
  16   4 -12  267.64  128.82   1
 -20  16 -12   80.78  173.47   1
  16   4  -9  411.79  184.10   1
 -20  16  -9  441.56  222.17   1
  16   4  -6 1080.04  383.84   1
 -20  16  -6 1590.36  418.68   1
  16   4  -3 2164.80  624.82   1
 -16  -4   3 2637.23  632.81   1
 -20  16  -3 3022.77  660.28   1
  -4  20   3 2011.83  639.23   1
  16   4   0 3268.40  828.08   1
 -20  16   0 3266.62  814.13   1
  16   4   3 5606.33  955.50   1
 -16  -4  -3 2731.12  917.18   1
 -20  16   3 2291.00  916.72   1
  20 -16  -3 5502.95  936.47   1
 -16  -4  -6 3079.08  923.83   1
 -20  16   6 3219.31  912.06   1
  20 -16  -6 5428.09  943.40   1
 -16  -4  -9  953.94  323.82   1
  20 -16 -12  649.66  254.36   1
  16   5 -10 3403.78  732.98   1
 -21  16 -10 2338.91  757.88   1
  16   5  -7 7125.84 1662.89   1
 -21  16  -7 7477.87 1683.41   1
  16   5  -4 5956.52 1359.04   1
 -21  16  -4 5748.98 1391.59   1
  16   5  -1 3796.90  861.08   1
 -16  -5   1 2821.26  846.75   1
 -21  16  -1 4388.17  897.56   1
  16   5   2 2591.49  487.91   1
 -16  -5  -2  989.11  453.95   1
 -21  16   2 1373.36  473.14   1
  21 -16  -2 1875.54  475.30   1
  16   5   5 1198.77  353.96   1
 -16  -5  -5  760.47  311.85   1
 -21  16   5  839.31  337.20   1
  21 -16  -5 1223.86  350.64   1
 -16  -5  -8  -51.74  118.65   1
 -21  16   8    9.92  113.02   1
  21 -16  -8  278.14  170.77   1
 -16  -5 -11  152.61  119.92   1
  21 -16 -11  -66.00  130.74   1
  16   6 -11 1412.74  371.35   1
 -22  16 -11 1046.03  408.90   1
  16   6  -8 3255.73  928.29   1
 -22  16  -8 5211.16 1012.43   1
  16   6  -5  351.13  183.88   1
 -22  16  -5  502.39  233.04   1
  16   6  -2  887.22  326.53   1
 -16  -6   2 1184.92  330.00   1
 -22  16  -2  999.52  366.30   1
  16   6   1 1033.68  369.12   1
 -16  -6  -1 1081.04  390.28   1
 -22  16   1 1318.08  415.48   1
  22 -16  -1 1703.41  401.77   1
  16   6   4  540.60  203.13   1
 -16  -6  -4  278.51  195.35   1
 -22  16   4  117.40  211.05   1
  22 -16  -4  659.40  228.34   1
 -16  -6  -7 2819.52 1199.92   1
 -22  16   7 4434.23 1156.24   1
  22 -16  -7 8354.25 1218.47   1
 -16  -6 -10   47.45  130.99   1
  22 -16 -10  434.52  182.94   1
  16   7 -12   99.80  107.43   1
 -23  16 -12  129.13  170.53   1
  16   7  -9  670.62  229.89   1
 -23  16  -9  598.51  277.04   1
  16   7  -6  707.37  259.36   1
 -23  16  -6  855.18  336.63   1
  16   7  -3   70.77   95.59   1
 -23  16  -3    4.68  152.12   1
  16   7   0  635.17  280.18   1
 -16  -7   0  862.11  284.16   1
 -23  16   0  672.70  295.90   1
  23 -16   0 1053.71  305.09   1
  16   7   3   -2.76  128.95   1
 -16  -7  -3   72.15   94.90   1
  23 -16  -3   88.11  157.99   1
 -16  -7  -6  571.05  379.09   1
 -23  16   6 1142.07  375.04   1
  23 -16  -6 1648.85  383.22   1
 -16  -7  -9  273.14  183.15   1
  23 -16  -9  612.88  242.23   1
 -16  -7 -12  -48.29   53.57   1
  16   8 -10  277.24  148.73   1
 -24  16 -10  185.13  172.68   1
  16   8  -7  322.89  134.12   1
 -24  16  -7   60.71  190.30   1
  16   8  -4  160.27  107.21   1
 -24  16  -4    2.68  160.43   1
  16   8  -1 7690.89 1452.75   1
 -16  -8   1 6963.17 1449.25   1
 -24  16  -1 4503.26 1436.07   1
  16   8   2 1365.32  361.49   1
 -16  -8  -2  859.29  346.03   1
 -24  16   2 1061.36  344.35   1
  24 -16  -2  999.30  365.17   1
  16   8   5  -92.02  105.41   1
 -16  -8  -5  118.50   88.57   1
 -24  16   5  110.08   90.07   1
  24 -16  -5 -144.91  144.08   1
 -16  -8  -8  271.39  157.40   1
 -24  16   8  317.92  159.48   1
  24 -16  -8  262.41  201.06   1
 -16  -8 -11   66.32   94.80   1
  24 -16 -11   67.92  144.40   1
  16   9 -11  388.05  165.76   1
 -25  16 -11  258.23  214.38   1
  16   9  -8 3880.70  873.94   1
 -25  16  -8 3186.70  917.01   1
  16   9  -5 8005.64 1819.11   1
 -25  16  -5 8017.17 1839.21   1
  16   9  -225151.93 4538.66   1
 -25  16  -218752.76 4532.48   1
  -9  25   218434.36 4543.19   1
  16   9   135331.96 7649.55   1
 -16  -9  -130272.63 7644.02   1
 -25  16   137936.36 7675.24   1
  25 -16  -140852.37 7676.11   1
  16   9   4 5292.77 1016.34   1
 -16  -9  -4 2878.13  984.18   1
 -25  16   4 3656.97 1000.96   1
  25 -16  -4 4964.45 1011.78   1
 -16  -9  -7  654.34  454.82   1
 -25  16   7 2089.56  475.40   1
  25 -16  -7 2380.92  477.92   1
 -16  -9 -10  -38.25   75.48   1
  25 -16 -10  201.69  156.89   1
  16  10  -9  -64.91   68.33   1
 -26  16  -9 -191.39  103.10   1
  16  10  -6  742.51  249.27   1
 -26  16  -6  667.59  287.36   1
  16  10  -3  146.02  141.86   1
 -26  16  -3  431.76  171.18   1
 -10  26   3   91.64  151.33   1
  16  10   0 1766.55  429.90   1
 -16 -10   0 1333.58  408.25   1
 -26  16   0  997.85  445.89   1
  26 -16   0 1738.38  443.47   1
 -16 -10  -3  643.81  287.94   1
 -26  16   3  998.10  314.17   1
  26 -16  -3 1082.42  317.79   1
 -16 -10  -6  589.15  278.69   1
 -26  16   6  812.02  273.66   1
  26 -16  -6  991.15  306.02   1
 -16 -10  -9  290.03  260.80   1
  26 -16  -9 1639.39  324.93   1
  16  11 -10   26.15   87.18   1
 -27  16 -10  -23.87  149.55   1
  16  11  -7 2071.00  508.64   1
 -27  16  -7 1691.34  538.31   1
  16  11  -4  191.46  106.38   1
 -27  16  -4  -38.06  152.41   1
  16  11  -1  382.72  201.34   1
 -27  16  -1  530.93  243.12   1
  27 -16   1  470.68  233.59   1
 -11  27   1  307.30  221.77   1
  16  11   2  696.26  265.40   1
 -16 -11  -2 1371.18  332.01   1
 -27  16   2  809.11  334.57   1
  27 -16  -2 1750.64  350.94   1
  16  11   5 1546.18  484.06   1
 -16 -11  -5  993.04  465.91   1
 -27  16   5 1678.99  481.83   1
  27 -16  -5 2706.42  499.71   1
 -16 -11  -8  679.19  522.27   1
 -27  16   8 2264.18  541.92   1
  27 -16  -8 3862.33  580.33   1
  27 -16 -11 1158.12  398.69   1
  16  12  -8 3582.19  774.95   1
 -28  16  -8 2540.19  805.56   1
  16  12  -5 4125.75  881.16   1
 -28  16  -5 2980.47  904.13   1
  16  12  -2 4816.54 1089.60   1
 -28  16  -2 4567.05 1136.14   1
 -12  28   2 4562.19 1139.00   1
 -16 -12  -1 5881.74 1170.04   1
 -28  16   1 3984.17 1170.12   1
  28 -16  -1 4789.81 1166.88   1
  16  12   4  392.55  182.10   1
 -16 -12  -4  120.83  164.00   1
 -28  16   4   13.15  185.37   1
  28 -16  -4  581.58  197.57   1
 -16 -12  -7  124.62  117.11   1
 -28  16   7  458.49  152.45   1
  28 -16  -7    4.00  197.98   1
  28 -16 -10 -103.56  118.66   1
  16  13  -9  322.55  148.43   1
 -29  16  -9  127.68  192.89   1
  16  13  -6  332.28  153.74   1
 -29  16  -6  265.36  191.86   1
  16  13  -3   13.89  104.85   1
 -29  16  -3  259.78  128.86   1
 -13  29   3  -58.56  125.37   1
  16  13   0   54.70  139.40   1
 -29  16   0  473.35  182.61   1
  29 -16   0   49.16  177.55   1
 -13  29   0  289.29  188.73   1
  16  13   3 1305.88  350.32   1
 -16 -13  -3  977.16  319.41   1
 -29  16   3  410.16  312.72   1
  29 -16  -3  967.38  316.54   1
 -16 -13  -6   96.90  138.09   1
 -29  16   6  381.19  154.51   1
  29 -16  -6  362.93  194.04   1
  29 -16  -9  103.64  165.85   1
  16  14 -10 1236.94  303.53   1
 -30  16 -10  528.48  347.84   1
  16  14  -7 1955.74  473.28   1
 -30  16  -7 1466.25  495.35   1
  16  14  -4 2176.49  467.48   1
 -30  16  -4 1200.57  473.34   1
  16  14  -1  710.68  253.63   1
 -30  16  -1  636.89  271.13   1
  30 -16   1  597.94  275.67   1
 -14  30   1  656.32  266.70   1
  16  14   2  180.67  160.29   1
 -30  16   2   84.38  138.63   1
  30 -16  -2  103.84  195.63   1
  16  14   5  638.93  318.83   1
 -30  16   5  736.24  312.21   1
  30 -16  -5 1445.02  342.73   1
 -30  16   8  246.36  144.24   1
  30 -16  -8  303.11  183.54   1
  16  15  -8 1459.57  327.74   1
 -31  16  -8  623.04  339.58   1
  16  15  -5 3511.30  678.40   1
 -31  16  -5 1868.71  678.51   1
  16  15  -2 2416.69  523.99   1
 -31  16  -2 2054.56  537.67   1
 -15  31   2 1182.98  544.22   1
  16  15   1 1049.72  309.05   1
 -31  16   1  635.56  281.73   1
  31 -16  -1  767.88  292.81   1
 -15  31  -1  755.17  314.50   1
 -31  16   4  163.56  107.53   1
  31 -16  -4 -170.54  127.98   1
 -31  16   7   55.50  109.24   1
  31 -16  -7  154.26  183.67   1
  16  16  -9  216.46  117.88   1
 -32  16  -9   97.02  149.70   1
  16  16  -6  634.58  190.62   1
 -32  16  -6  295.65  198.72   1
  16  16  -3 5034.39  745.38   1
 -32  16  -3 3012.43  769.19   1
 -16  32   3 1027.39  737.87   1
  16  16   0 4326.58  763.68   1
 -32  16   0 2388.23  759.92   1
  32 -16   0 2515.86  764.40   1
 -16  32   0 2686.74  779.60   1
  16  16   3 5525.93  930.17   1
 -32  16   3 2231.80  892.92   1
  32 -16  -3 3641.41  891.99   1
 -32  16   6  339.23  193.47   1
  32 -16  -6  468.84  202.94   1
  32 -16  -9  180.04  185.82   1
  16  17  -7   23.76  106.96   1
 -33  16  -7  178.69  130.34   1
  16  17  -4  446.53  186.39   1
 -33  16  -4  418.99  228.12   1
 -33  16  -1  353.63  220.37   1
  33 -16   1  549.87  227.16   1
 -17  33   1  456.10  240.47   1
 -33  16   2   68.88  117.42   1
  33 -16  -2    9.42  152.40   1
  16  17   5  163.00  142.81   1
 -33  16   5   47.52  152.61   1
  33 -16  -5  465.22  170.98   1
 -33  16   8  102.71  108.22   1
  33 -16  -8   58.42  177.69   1
  16  18  -8   29.69  104.07   1
 -34  16  -8  212.86  148.49   1
  16  18  -5  230.58  116.00   1
 -34  16  -5  162.87  181.70   1
  16  18  -2  392.68  171.18   1
 -34  16  -2  349.86  194.55   1
 -18  34   2  252.66  200.89   1
  34 -16  -1   66.41  344.68   1
  16  18   1  333.32  157.58   1
 -34  16   1  130.30  139.55   1
 -18  34  -1  114.92  152.31   1
  16  18   4  137.45  165.82   1
 -34  16   4   91.76  111.25   1
  34 -16  -4   60.61  139.65   1
 -18  34  -4  155.04  161.75   1
 -34  16   7  166.12  171.11   1
  34 -16  -7  527.47  222.62   1
  16  19  -6  445.46  165.54   1
 -35  16  -6  169.12  206.74   1
  16  19  -3  692.80  170.98   1
 -35  16  -3  123.94  189.57   1
 -19  35   3  125.23  182.22   1
  16  19   0  159.22  135.94   1
 -35  16   0   81.22  116.87   1
  35 -16   0   20.39  135.20   1
  16  19   3 -103.44  165.16   1
 -35  16   3  -43.15  121.75   1
  35 -16  -3  196.89  138.77   1
 -19  35  -3  201.93  154.23   1
 -35  16   6   86.27  120.47   1
  35 -16  -6  146.54  150.42   1
  16  20  -7  200.34  113.77   1
 -36  16  -7   75.92  172.82   1
  16  20  -4  518.98  173.18   1
 -36  16  -4   98.36  161.92   1
  16  20  -1  458.02  177.03   1
 -36  16  -1  351.38  191.81   1
  36 -16   1  207.04  222.20   1
 -20  36   1  243.08  214.20   1
  16  20   2  982.21  306.15   1
 -36  16   2  910.66  309.66   1
  36 -16  -2  944.87  309.26   1
 -20  36  -2  588.63  314.50   1
  16  20   5 1055.87  320.29   1
 -36  16   5  720.84  307.56   1
  36 -16  -5 1115.63  327.29   1
 -20  36  -5  861.55  308.37   1
  16  21  -5  188.26  121.04   1
 -37  16  -5   96.92  122.77   1
 -21  37   5   30.85   80.41   1
  16  21  -2   35.94   86.17   1
 -37  16  -2  173.35  138.16   1
 -21  37   2  -51.90  108.14   1
  16  21   1  109.41  114.16   1
 -37  16   1  168.18  127.99   1
  37 -16  -1  236.48  164.59   1
 -21  37  -1  -69.86  141.71   1
  16  21   4  157.56  180.55   1
 -37  16   4   80.87  138.31   1
  37 -16  -4  201.66  148.58   1
 -21  37  -4  256.01  176.16   1
  16  22  -3  245.16  122.89   1
 -38  16  -3    7.76  147.70   1
 -22  38   3  107.29  123.00   1
  16  22   0  313.24  147.93   1
 -38  16   0   43.30  138.91   1
  38 -16   0  230.35  171.03   1
 -22  38   0   60.20  186.60   1
  16  22   3   36.45  186.03   1
 -38  16   3  226.53  135.36   1
  38 -16  -3  235.18  146.21   1
 -22  38  -3  136.22  159.13   1
  16  23  -4  -63.16   84.46   1
 -39  16  -4  -24.68  113.84   1
 -23  39   4   31.31   71.47   1
  16  23  -1  220.58  111.53   1
 -39  16  -1  -18.76  120.12   1
  39 -16   1   61.89  156.17   1
 -23  39   1   30.68  126.11   1
  16  23   2  126.42  173.06   1
 -39  16   2 -111.49  142.53   1
  39 -16  -2  233.75  147.87   1
 -23  39  -2  180.25  133.95   1
  16  24  -2  513.15  199.39   1
 -40  16  -2  282.58  191.71   1
  16  24   1  117.00  120.51   1
 -40  16   1  190.69  130.84   1
  40 -16  -1  102.54  141.04   1
 -24  40  -1 -186.04  159.63   1
  17   1 -11  799.19  269.05   1
 -18  17 -11  805.63  302.53   1
  17   1  -8 1584.05  410.28   1
 -18  17  -8 1220.08  441.68   1
  17   1  -5 2900.74  803.83   1
 -17  -1   5 3689.79  815.32   1
 -18  17  -5 3296.11  830.21   1
  17   1  -2  989.31  309.28   1
 -17  -1   2  938.70  318.02   1
 -18  17  -2  952.00  332.00   1
  17   1   1 1210.19  284.94   1
 -17  -1  -1  668.10  252.27   1
 -18  17   1  386.05  260.74   1
  17   1   4  700.38  282.50   1
 -17  -1  -4  574.27  258.05   1
 -18  17   4  634.22  269.78   1
  18 -17  -4 1050.85  281.51   1
 -17  -1  -7  219.49  188.13   1
 -18  17   7  385.82  172.07   1
  18 -17  -7  476.38  200.09   1
  18 -17 -10  128.24  168.15   1
 -17  -1 -13   94.58  140.03   1
  -1  18 -13  108.10   99.69   1
  17   2 -12 1499.85  359.02   1
 -19  17 -12  798.79  391.45   1
  17   2  -9 3552.34  812.33   1
 -19  17  -9 2974.94  836.20   1
  17   2  -613032.50 2956.63   1
 -19  17  -613801.99 2978.57   1
  17   2  -328690.98 6428.72   1
 -17  -2   327348.30 6429.20   1
 -19  17  -333396.97 6440.61   1
  17   2   014005.08 3300.64   1
 -17  -2   014227.00 3320.41   1
 -19  17   018797.45 3359.84   1
  17   2   3 4057.00  936.62   1
 -17  -2  -3 3081.39  946.12   1
 -19  17   3 3337.90  957.87   1
  19 -17  -3 4945.14  955.91   1
 -17  -2  -6 1620.81  620.46   1
  19 -17  -6 3035.70  639.29   1
 -17  -2  -9  -28.02  122.48   1
  19 -17  -9   37.81  147.41   1
 -17  -2 -12 -102.47  117.77   1
  19 -17 -12  121.41  167.53   1
  -2  19 -12   23.39   77.16   1
  17   3 -10 2339.41  562.71   1
 -20  17 -10 1899.84  587.01   1
  17   3  -7 3627.22  865.71   1
 -20  17  -7 3466.99  891.27   1
  17   3  -413470.55 3660.60   1
 -17  -3   419795.02 3671.57   1
 -20  17  -417315.74 3681.54   1
  17   3  -117942.31 3830.80   1
 -17  -3   116738.70 3837.30   1
 -20  17  -117582.67 3845.36   1
  17   3   2 2554.87  538.88   1
 -17  -3  -2 1591.67  531.48   1
 -20  17   2 1650.90  539.98   1
  20 -17  -2 1880.28  519.52   1
 -17  -3  -5   66.38  141.03   1
 -20  17   5  231.44  132.84   1
  20 -17  -5  251.62  163.30   1
 -17  -3  -8  605.72  349.41   1
 -20  17   8 1009.36  354.59   1
  20 -17  -8 1773.15  383.34   1
 -17  -3 -11   26.84  172.73   1
  20 -17 -11  323.32  179.74   1
  17   4 -11  -54.20   87.16   1
 -21  17 -11  102.28  128.78   1
  17   4  -8  -51.13   44.20   1
 -21  17  -8 -125.00  112.73   1
  17   4  -5  672.36  199.44   1
 -21  17  -5  233.29  257.29   1
  17   4  -2 3835.17  921.13   1
 -17  -4   2 3875.99  920.90   1
 -21  17  -2 3621.59  941.82   1
  17   4   1 1243.70  305.56   1
 -17  -4  -1  525.80  302.23   1
 -21  17   1  808.10  325.05   1
  21 -17  -1 1207.49  333.90   1
 -17  -4  -4 1507.83  499.08   1
 -21  17   4 1677.23  501.24   1
  21 -17  -4 1991.05  486.38   1
 -17  -4  -7  244.38  174.60   1
 -21  17   7  249.69  153.59   1
  21 -17  -7  194.77  201.16   1
 -17  -4 -10  128.98  148.87   1
  21 -17 -10  143.80  171.01   1
  17   5 -12  236.74  125.59   1
 -22  17 -12  122.40  186.37   1
  17   5  -9  659.93  219.14   1
 -22  17  -9  489.08  268.82   1
  17   5  -6  398.37  176.09   1
 -22  17  -6  355.99  237.06   1
  17   5  -3   34.95   97.21   1
 -17  -5   3   37.25  113.70   1
 -22  17  -3  178.26  155.62   1
  -5  22   3   18.34   87.36   1
  -5  22   3  -19.95   67.41   1
 -17  -5   0 2616.23  602.68   1
 -22  17   0 2035.43  600.96   1
  17   5   3 9048.87 1595.42   1
 -17  -5  -3 4562.29 1551.84   1
 -22  17   3 6223.88 1575.26   1
  22 -17  -3 8248.50 1572.75   1
 -17  -5  -6 1346.28  683.31   1
  22 -17  -6 4592.95  719.55   1
 -17  -5  -9  412.99  296.68   1
  22 -17  -9 1238.54  309.52   1
 -17  -5 -12  -56.04  106.92   1
  22 -17 -12  106.23  173.12   1
  17   6 -10   12.26   94.70   1
 -23  17 -10  209.13  164.35   1
  17   6  -7  163.65  121.03   1
 -23  17  -7  163.01  181.30   1
  17   6  -4 1914.10  540.04   1
 -23  17  -4 2237.30  579.34   1
  17   6  -1 8516.07 1897.80   1
 -17  -6   1 9216.14 1897.69   1
 -23  17  -1 7357.32 1899.74   1
  17   6   2 8446.31 1571.77   1
 -17  -6  -2 4808.44 1534.88   1
 -23  17   2 6523.87 1558.73   1
  23 -17  -2 7762.60 1556.04   1
  17   6   5 4530.83 1037.96   1
 -17  -6  -5 2797.12 1052.12   1
 -23  17   5 4303.31 1049.40   1
  23 -17  -5 5092.11 1032.94   1
 -17  -6  -8  846.33  598.32   1
 -23  17   8 2479.12  587.44   1
  23 -17  -8 4046.56  642.29   1
 -17  -6 -11   76.01  118.40   1
  23 -17 -11  109.37  160.38   1
  17   7 -11  607.20  209.18   1
 -24  17 -11  462.37  253.86   1
  17   7  -8  620.64  214.97   1
 -24  17  -8  501.22  251.14   1
  17   7  -5  153.62  134.02   1
 -24  17  -5  277.59  193.20   1
  17   7  -2  -91.05  106.68   1
 -17  -7   2   52.76  117.73   1
 -24  17  -2   46.73  162.60   1
  -7  24   2  308.41  112.14   1
  17   7   1 1042.99  330.54   1
 -17  -7  -1 1075.04  354.19   1
 -24  17   1 1052.01  367.77   1
  24 -17  -1 1165.34  364.18   1
  17   7   4  506.44  252.48   1
 -17  -7  -4  456.94  249.43   1
 -24  17   4  512.96  252.53   1
  24 -17  -4  902.72  261.71   1
 -17  -7  -7  650.73  429.03   1
 -24  17   7 1611.88  440.29   1
  24 -17  -7 2400.49  474.84   1
 -17  -7 -10  164.57  172.70   1
  24 -17 -10  682.55  233.03   1
  17   8  -9  420.60  177.10   1
 -25  17  -9  403.20  224.19   1
  17   8  -6  435.06  173.53   1
 -25  17  -6  296.24  223.12   1
  17   8  -3  617.58  228.93   1
 -25  17  -3  928.33  296.56   1
  -8  25   3  536.50  266.32   1
  17   8   0 6325.70 1407.45   1
 -17  -8   0 6363.34 1407.71   1
 -25  17   0 4821.25 1438.13   1
  25 -17   0 6430.83 1425.64   1
  17   8   3  902.49  286.10   1
 -17  -8  -3  358.35  242.19   1
 -25  17   3  415.83  264.33   1
  25 -17  -3 1082.33  287.86   1
 -17  -8  -6  -20.58  110.22   1
 -25  17   6   25.87  143.68   1
  25 -17  -6  254.50  159.14   1
 -17  -8  -9  118.00  183.48   1
  25 -17  -9  801.70  242.09   1
  17   9 -10  261.35  127.28   1
 -26  17 -10   63.74  173.78   1
  17   9  -7  771.34  269.64   1
 -26  17  -7  901.48  351.64   1
  17   9  -4  170.82  145.50   1
 -26  17  -4  351.78  199.28   1
  17   9  -1  501.90  192.31   1
 -17  -9   1  486.73  196.18   1
 -26  17  -1  215.32  203.27   1
  17   9   2 1190.44  332.82   1
 -17  -9  -2  796.71  306.61   1
 -26  17   2  522.82  322.25   1
  26 -17  -2 1048.51  326.86   1
  17   9   5  135.63  181.80   1
 -17  -9  -5  254.81  180.65   1
 -26  17   5  278.73  169.44   1
  26 -17  -5  642.76  215.19   1
 -26  17   8  201.31  171.51   1
  26 -17  -8  363.75  197.16   1
 -17  -9 -11  -61.46   98.17   1
  26 -17 -11  379.31  158.80   1
  17  10 -11  403.15  138.36   1
 -27  17 -11   16.07  195.32   1
  17  10  -8 1654.68  403.18   1
 -27  17  -8 1107.81  438.26   1
  17  10  -5  576.54  211.25   1
 -27  17  -5  467.48  266.79   1
  17  10  -2 2764.17  533.28   1
 -27  17  -2 1333.43  522.63   1
 -10  27   2 1911.57  549.92   1
  17  10   1  122.06  125.31   1
 -17 -10  -1  233.19  130.07   1
 -27  17   1  128.85  180.87   1
  27 -17  -1  215.85  170.64   1
  17  10   4   85.97  158.80   1
 -27  17   4  279.04  155.32   1
  27 -17  -4   95.85  165.72   1
 -17 -10  -7   92.72  125.98   1
 -27  17   7  252.73  154.81   1
  27 -17  -7  306.44  213.19   1
 -17 -10 -10  101.55  113.31   1
  27 -17 -10  282.90  182.86   1
  17  11  -9 2413.16  517.62   1
 -28  17  -9 1308.22  546.37   1
  17  11  -6 7198.85 1588.71   1
 -28  17  -6 6558.46 1634.70   1
  17  11  -310866.12 1871.52   1
 -28  17  -3 7041.68 1864.19   1
 -11  28   3 6524.78 1897.42   1
  17  11   0 6158.68 1413.70   1
 -17 -11   0 6178.29 1428.39   1
 -28  17   0 4691.10 1430.40   1
  28 -17   0 8699.38 1492.99   1
  17  11   3  568.86  255.80   1
 -17 -11  -3  255.69  199.58   1
 -28  17   3  241.39  222.14   1
  28 -17  -3  841.07  243.89   1
 -17 -11  -6   72.06   75.04   1
 -28  17   6   17.07  134.39   1
  28 -17  -6  -57.29  137.67   1
 -17 -11  -9    8.78   87.78   1
  28 -17  -9  190.56  155.61   1
  17  12 -10   96.41  121.59   1
 -29  17 -10  331.46  176.02   1
  17  12  -7 1008.41  311.76   1
 -29  17  -7 1010.07  352.18   1
  17  12  -4 3642.49  553.90   1
 -29  17  -4 1866.25  552.84   1
 -12  29   4  857.24  544.95   1
  17  12  -1 3452.99  796.09   1
 -29  17  -1 3002.44  841.95   1
  17  12   2 3341.97  790.92   1
 -17 -12  -2 3701.62  805.84   1
 -29  17   2 2389.49  846.75   1
  29 -17  -2 2917.89  806.97   1
  17  12   5  740.87  288.22   1
 -17 -12  -5  552.71  267.82   1
 -29  17   5  777.88  284.31   1
  29 -17  -5 1227.12  307.57   1
 -17 -12  -8   33.44   77.61   1
 -29  17   8   42.66  114.62   1
  29 -17  -8  213.37  179.14   1
  17  13  -8  366.93  169.94   1
 -30  17  -8  338.76  214.32   1
  17  13  -5  -11.39   77.11   1
 -30  17  -5   30.71  109.30   1
  17  13  -2  877.72  276.40   1
 -30  17  -2  870.74  331.90   1
  30 -17  -1 5967.11 1619.42   1
  17  13   1 5697.20 1159.54   1
 -30  17   1 3404.06 1159.64   1
  17  13   4 5552.05 1138.12   1
 -17 -13  -4 4338.54 1121.02   1
 -30  17   4 4042.82 1140.81   1
  30 -17  -4 5110.79 1142.93   1
 -17 -13  -7  804.20  435.15   1
 -30  17   7 1600.78  435.00   1
  30 -17  -7 2972.18  494.60   1
  30 -17 -10  573.54  274.66   1
  17  14  -9  575.63  196.35   1
 -31  17  -9  365.52  245.39   1
  17  14  -6  574.10  167.74   1
 -31  17  -6  223.44  195.61   1
  17  14  -3  182.15  106.42   1
 -31  17  -3   83.63  166.20   1
 -14  31   3   99.31  124.30   1
  17  14   0 2341.23  482.57   1
 -31  17   0 1505.91  477.05   1
  31 -17   0 1473.71  475.62   1
 -14  31   0 1292.31  473.53   1
  17  14   3 4399.13  734.15   1
 -31  17   3 1232.20  698.35   1
  31 -17  -3 2823.70  702.85   1
 -31  17   6  864.80  342.13   1
  31 -17  -6 1450.53  373.10   1
 -31  17   9  196.20  168.46   1
  31 -17  -9  508.62  226.40   1
  17  15  -7   -5.00   84.44   1
 -32  17  -7   33.04  100.20   1
  17  15  -4  315.51  136.31   1
 -32  17  -4  227.40  175.12   1
 -15  32   4  126.51  129.51   1
  17  15  -1   16.58   96.07   1
 -32  17  -1  -22.59  123.30   1
  32 -17   1 -108.11  135.17   1
 -15  32   1   48.36  120.75   1
  17  15   2  471.90  197.76   1
 -32  17   2   58.65  181.43   1
  32 -17  -2  407.58  215.70   1
  17  15   5  174.34  152.74   1
 -32  17   5  184.51  138.46   1
  32 -17  -5  240.92  168.31   1
 -32  17   8  147.26  124.62   1
  32 -17  -8   76.39  191.90   1
  17  16  -8   62.00   85.05   1
 -33  17  -8   21.70   98.36   1
  17  16  -5  241.60  111.45   1
 -33  17  -5   -6.57  142.21   1
  17  16  -2   58.98   92.07   1
 -33  17  -2   22.86  135.19   1
 -16  33   2   31.57  115.48   1
  17  16   1  836.90  241.29   1
 -33  17   1  349.92  234.56   1
  33 -17  -1  509.46  248.91   1
 -16  33  -1  660.08  273.56   1
 -33  17   4  199.30  167.55   1
  33 -17  -4  357.99  188.90   1
 -33  17   7  112.26  115.13   1
  33 -17  -7  -39.56  181.83   1
  17  17  -6   38.45   84.71   1
 -34  17  -6  -11.15  117.67   1
  17  17  -3  194.31  109.08   1
 -34  17  -3   29.35  141.19   1
 -17  34   3   65.39   91.04   1
  17  17   0  219.56  142.17   1
 -34  17   0  189.38  120.28   1
  34 -17   0  -26.29  134.83   1
 -17  34   0  -90.07  125.40   1
  17  17   3  219.79  162.29   1
 -34  17   3 -204.99  108.85   1
  34 -17  -3 -122.72  136.27   1
 -17  34  -3   30.76  134.09   1
 -34  17   6   11.39  121.11   1
  34 -17  -6  145.81  155.62   1
  17  18  -7 1091.40  265.73   1
 -35  17  -7  376.58  297.95   1
 -35  17  -4  518.80  187.33   1
 -18  35   4  160.24  153.08   1
  17  18  -1 2154.87  387.87   1
 -35  17  -1  817.43  386.05   1
  35 -17   1 1127.69  405.30   1
 -18  35   1  935.38  406.39   1
  17  18   2  338.88  194.63   1
 -35  17   2  163.49  145.17   1
  35 -17  -2   71.08  165.95   1
 -18  35  -2  228.25  183.23   1
  17  18   5  402.10  186.06   1
 -35  17   5  136.36  169.84   1
  35 -17  -5  327.67  187.83   1
  17  19  -5 1115.22  271.29   1
 -36  17  -5  372.39  281.56   1
  17  19  -2 1785.29  346.23   1
 -36  17  -2  942.74  359.82   1
 -19  36   2  528.81  352.07   1
  17  19   1   31.70  126.13   1
 -36  17   1  156.65  129.19   1
  36 -17  -1  183.77  168.79   1
 -19  36  -1   49.39  140.39   1
  17  19   4   -8.06  147.83   1
 -36  17   4 -117.62   90.42   1
  36 -17  -4  -43.15  107.35   1
 -19  36  -4  -10.27  116.43   1
 -36  17   7  131.72  117.31   1
  36 -17  -7   94.06  156.11   1
  17  20  -6  380.75  155.24   1
 -37  17  -6  127.97  163.95   1
  17  20  -3  891.75  237.33   1
 -37  17  -3  605.94  263.79   1
 -20  37   3  352.10  260.14   1
  17  20   0  402.43  162.25   1
 -37  17   0  192.55  153.94   1
  37 -17   0  168.00  175.44   1
 -20  37   0 -117.27  168.84   1
  17  20   3  286.09  178.99   1
 -37  17   3  263.61  136.06   1
  37 -17  -3  -16.86  141.20   1
 -20  37  -3 -161.47  154.56   1
 -37  17   6 -138.32   93.74   1
  37 -17  -6   48.19  118.19   1
 -20  37  -6   80.77  125.98   1
  17  21  -4   -3.94   97.95   1
 -38  17  -4   62.74  120.31   1
 -21  38   4   13.94   65.98   1
  17  21  -1  285.41  129.84   1
 -38  17  -1  153.32  168.86   1
 -21  38   1  -57.55  151.23   1
  17  21   2  218.62  184.02   1
 -38  17   2  195.14  154.60   1
  38 -17  -2  180.44  168.69   1
 -21  38  -2   29.01  146.45   1
 -38  17   5   57.15  102.86   1
  38 -17  -5   82.22  126.87   1
 -21  38  -5  173.30  152.52   1
  17  22  -2  767.96  142.28   1
 -39  17  -2 -113.59  154.52   1
 -22  39   2   10.43  124.69   1
  17  22   1  987.41  256.14   1
 -39  17   1  537.98  253.65   1
  39 -17  -1  518.30  275.15   1
 -22  39  -1  602.21  289.28   1
 -39  17   4  599.74  267.68   1
  39 -17  -4  668.03  275.48   1
 -22  39  -4  496.07  255.83   1
  17  23   0  315.23  117.05   1
 -40  17   0 -123.03   90.53   1
  40 -17   0  -46.51  133.98   1
 -23  40   0  -65.16  120.07   1
  18   1 -10   71.28   72.40   1
 -19  18 -10  -85.40  128.50   1
  18   1  -7  167.86  151.79   1
 -19  18  -7  419.96  195.69   1
  18   1  -4 4737.49 1135.38   1
 -18  -1   4 4840.63 1136.85   1
 -19  18  -4 4849.44 1156.53   1
  18   1  -1 1487.01  399.99   1
 -18  -1   1 1278.56  391.02   1
 -19  18  -1 1030.21  407.46   1
  -1  19   1 1263.11  375.14   1
  18   1   2 8080.02 1529.65   1
 -18  -1  -2 5396.18 1519.37   1
 -19  18   2 5959.44 1548.28   1
  19 -18  -2 6775.91 1533.54   1
 -18  -1  -5 2573.97  705.27   1
 -19  18   5 1820.77  687.76   1
  19 -18  -5 3995.42  713.64   1
 -18  -1  -8 1202.01  399.93   1
  19 -18  -8 1347.12  395.16   1
 -18  -1 -11   77.19  119.62   1
  19 -18 -11  101.62  163.87   1
  -1  19 -11   84.68  104.69   1
  18   2 -11  -93.72   52.69   1
 -20  18 -11  -89.24  117.51   1
  18   2  -8   -3.50   96.07   1
 -20  18  -8  145.79  147.60   1
  18   2  -5 1496.72  493.21   1
 -18  -2   5 2332.83  507.47   1
 -20  18  -5 1709.59  527.22   1
  18   2  -2 3559.58  853.66   1
 -18  -2   2 4131.65  866.48   1
 -20  18  -2 3054.10  887.10   1
  -2  20   2 3072.36  865.68   1
  18   2   1 -144.62  131.25   1
 -18  -2  -1   58.98   92.63   1
 -20  18   1  120.04   84.92   1
  18   2   4  627.77  186.31   1
 -18  -2  -4  261.02  166.38   1
 -20  18   4  188.27  166.84   1
  20 -18  -4  182.65  179.54   1
 -18  -2  -7  405.85  232.04   1
 -20  18   7  588.94  214.63   1
 -18  -2 -10  139.54  204.79   1
  20 -18 -10  579.48  228.68   1
  18   3 -12  115.30  120.88   1
 -21  18 -12  232.43  163.41   1
  18   3  -9  581.33  242.47   1
 -21  18  -9  817.38  278.32   1
  18   3  -6 1321.57  403.49   1
 -21  18  -6 1519.84  438.72   1
  18   3  -3 4195.69  943.19   1
 -18  -3   3 3976.22  942.36   1
 -21  18  -3 4548.23  970.35   1
  -3  21   3 2894.56  947.80   1
  18   3   0  143.71  158.94   1
 -18  -3   0  148.13  165.27   1
 -21  18   0  551.35  186.99   1
  18   3   3  493.88  194.22   1
 -18  -3  -3  246.16  167.48   1
 -21  18   3  196.57  172.42   1
  21 -18  -3  278.73  183.99   1
 -18  -3  -6   88.17  178.85   1
  21 -18  -6  449.70  232.71   1
 -18  -3  -9 -121.57  137.78   1
  21 -18  -9  102.82  155.81   1
 -18  -3 -12  158.63  136.49   1
  21 -18 -12  213.40  188.04   1
  -3  21 -12   97.84  114.91   1
  18   4 -10  210.53  126.73   1
  18   4  -7  142.08   96.97   1
 -22  18  -7  -34.77  176.81   1
  18   4  -4  -11.01   68.29   1
 -18  -4   4   12.90   92.79   1
 -22  18  -4 -193.43  138.59   1
  18   4  -1 3144.16  781.88   1
 -18  -4   1 3068.29  781.11   1
 -22  18  -1 3024.35  805.24   1
  18   4   2  -82.02  116.95   1
 -22  18   2  195.05  139.87   1
  22 -18  -2 -119.60  129.12   1
  18   4   5  283.37  185.65   1
 -18  -4  -5  257.72  160.19   1
 -22  18   5  300.38  192.91   1
  22 -18  -5  349.05  184.47   1
 -18  -4  -8   -1.34  387.49   1
 -22  18   8  225.60  390.41   1
  22 -18 -11   52.71  150.82   1
  18   5 -11  184.18  140.83   1
 -23  18 -11  333.76  184.70   1
  18   5  -8   24.07   95.46   1
 -23  18  -8  195.11  189.51   1
  18   5  -5  215.91  142.54   1
 -23  18  -5  277.38  193.61   1
  18   5  -2 1242.13  362.45   1
 -18  -5   2 1157.31  361.96   1
 -23  18  -2 1136.14  394.92   1
  18   5   1  932.67  248.16   1
 -18  -5  -1  321.67  251.74   1
 -23  18   1  180.79  284.32   1
  23 -18  -1  881.06  271.14   1
  18   5   4  479.92  194.56   1
 -18  -5  -4   57.30  168.82   1
 -23  18   4  340.23  184.61   1
  23 -18  -4  314.30  212.30   1
 -18  -5  -7   97.92  144.54   1
 -23  18   7  -14.58  157.73   1
  23 -18  -7  559.07  221.99   1
 -18  -5 -10  -50.21   80.83   1
  23 -18 -10  -67.73  134.77   1
  18   6  -9  934.68  285.97   1
 -24  18  -9  837.88  326.32   1
  18   6  -6 3545.52  848.62   1
 -24  18  -6 3402.73  885.45   1
  18   6  -3 1828.81  450.57   1
 -18  -6   3 1984.47  456.54   1
 -24  18  -3 2333.54  476.16   1
  -6  24   3 1267.88  451.03   1
  -6  24   3  776.22  439.48   1
  18   6   0 3305.48  642.68   1
 -18  -6   0 2310.01  611.00   1
 -24  18   0 1758.06  625.57   1
  18   6   3  127.67  174.74   1
 -18  -6  -3  144.11  140.19   1
 -24  18   3  192.17  161.66   1
  24 -18  -3  261.91  194.14   1
 -18  -6  -6  139.65   93.18   1
 -24  18   6   15.28  140.08   1
  24 -18  -6 -127.56  197.19   1
 -18  -6  -9  229.20  203.09   1
  24 -18  -9  630.95  232.51   1
  18   7 -10   55.75   94.82   1
 -25  18 -10  165.15  144.00   1
  18   7  -7  953.13  306.52   1
 -25  18  -7 1010.20  347.99   1
  18   7  -4 1432.03  385.88   1
 -25  18  -4 1199.83  417.71   1
  18   7  -1  -29.96  112.31   1
 -18  -7   1  117.70  114.87   1
 -25  18  -1  131.55  119.63   1
  18   7   2 2058.13  486.17   1
 -18  -7  -2 1241.22  471.68   1
 -25  18   2 1359.89  478.80   1
  25 -18  -2 1780.52  472.76   1
  18   7   5  480.99  222.98   1
 -18  -7  -5  310.85  211.14   1
 -25  18   5  647.69  236.20   1
  25 -18  -5  586.30  245.38   1
 -18  -7  -8  308.16  279.34   1
 -25  18   8  869.96  289.86   1
  25 -18  -8 1214.04  313.10   1
 -18  -7 -11  -14.89   88.06   1
  25 -18 -11   67.04  141.50   1
  18   8 -11  156.14  112.18   1
 -26  18 -11  126.03  165.26   1
  18   8  -8  263.08  132.51   1
 -26  18  -8  180.87  185.24   1
  18   8  -5 1007.94  310.48   1
 -26  18  -5  949.98  342.93   1
  18   8  -2  655.09  261.11   1
 -18  -8   2  900.40  264.57   1
 -26  18  -2  607.30  270.23   1
  -8  26   2  671.53  274.26   1
  18   8   1 2855.69  739.80   1
 -18  -8  -1 2853.27  756.12   1
 -26  18   1 3150.34  765.48   1
  26 -18  -1 3069.54  743.90   1
  18   8   4  -49.16  158.96   1
 -18  -8  -4 -134.11  126.79   1
 -26  18   4   16.60  114.22   1
  26 -18  -4  150.09  141.15   1
 -18  -8  -7  845.10  389.27   1
 -26  18   7 1143.33  376.03   1
  26 -18  -7 2192.59  440.08   1
  26 -18 -10  805.72  321.33   1
  18   9  -9  353.95  182.30   1
 -27  18  -9  493.85  228.27   1
  18   9  -6  199.58  140.46   1
 -27  18  -6  311.43  183.09   1
  18   9  -3 1043.17  256.82   1
 -27  18  -3  504.83  284.26   1
  -9  27   3  528.80  270.59   1
 -18  -9   0  112.32  126.34   1
 -27  18   0  191.92  178.24   1
  27 -18   0   60.19  169.17   1
 -18  -9  -3  201.77  137.47   1
 -27  18   3  266.54  145.76   1
  27 -18  -3  -55.90  182.35   1
 -18  -9  -6  128.49  206.75   1
 -27  18   6  514.83  222.33   1
  27 -18  -6  580.19  268.57   1
 -18  -9  -9    5.64  118.10   1
  27 -18  -9  334.35  198.53   1
  18  10 -10  176.53  112.18   1
 -28  18 -10   83.00  149.11   1
  18  10  -7  800.46  277.09   1
 -28  18  -7  916.36  312.17   1
  18  10  -4 1481.75  406.95   1
 -28  18  -4 1068.99  406.13   1
  18  10  -1 1004.02  326.41   1
 -18 -10   1 1413.58  350.15   1
 -28  18  -1  956.50  379.01   1
 -10  28   1  995.85  358.59   1
  18  10   2  503.61  208.37   1
 -18 -10  -2  -12.86  163.09   1
 -28  18   2  436.43  179.75   1
  28 -18  -2    7.99  180.00   1
  18  10   5  357.54  176.56   1
 -18 -10  -5   10.05  144.16   1
 -28  18   5  112.00  135.23   1
  28 -18  -5  266.13  171.27   1
 -18 -10  -8  144.42   99.47   1
 -28  18   8  -37.06  109.56   1
  28 -18  -8  271.89  194.69   1
  18  11  -8  109.33  116.39   1
 -29  18  -8  172.22  147.06   1
  18  11  -5   81.14  104.55   1
 -29  18  -5  120.19  157.68   1
  18  11  -2  680.76  206.17   1
 -29  18  -2  371.93  222.23   1
 -11  29   2  327.21  224.17   1
  18  11   1 3365.31  747.84   1
 -18 -11  -1 2833.92  737.13   1
 -29  18   1 2722.68  769.63   1
  29 -18  -1 3001.25  768.41   1
  18  11   4  519.57  222.62   1
 -18 -11  -4  418.61  194.89   1
 -29  18   4  373.27  208.77   1
  29 -18  -4  216.47  216.94   1
 -18 -11  -7  313.29  237.82   1
 -29  18   7  515.09  254.76   1
  29 -18  -7 1315.56  307.44   1
  29 -18 -10  344.57  226.65   1
  18  12  -9   69.99  103.23   1
 -30  18  -9  165.11  151.51   1
  18  12  -6    3.04   59.69   1
 -30  18  -6  -79.56  125.36   1
  18  12  -3  493.60  168.37   1
 -30  18  -3  358.64  180.25   1
 -12  30   3  112.86  181.66   1
  18  12   0  249.35  235.54   1
 -30  18   0  623.44  230.04   1
  30 -18   0  321.49  235.20   1
 -12  30   0  615.35  234.45   1
  18  12   3  392.06  220.40   1
 -18 -12  -3   10.87  150.47   1
 -30  18   3  272.50  152.55   1
  30 -18  -3   65.95  182.21   1
 -18 -12  -6  114.36  144.33   1
 -30  18   6  303.84  182.28   1
  30 -18  -6  446.09  221.17   1
 -18 -12  -9  -21.69   64.49   1
 -30  18   9  -41.78   84.94   1
  30 -18  -9  112.09  160.11   1
  18  13  -7   23.88   89.04   1
 -31  18  -7   41.97  133.71   1
 -31  18  -4   71.06  271.35   1
  18  13  -4   80.51   97.79   1
  18  13  -1  303.05  187.41   1
 -31  18  -1  453.26  213.46   1
 -13  31   1  361.74  202.73   1
  18  13   2 4824.19  787.85   1
 -31  18   2 2071.87  748.45   1
  31 -18  -2 2490.65  755.09   1
  18  13   5  186.68  153.72   1
 -18 -13  -5  210.22  132.03   1
 -31  18   5  -66.74  128.66   1
  31 -18  -5  243.90  158.08   1
 -18 -13  -8  105.21  164.35   1
 -31  18   8  144.27  158.70   1
  31 -18  -8  921.14  215.99   1
  18  14  -8  433.18  148.42   1
 -32  18  -8   82.57  172.19   1
  18  14  -5  380.63  135.50   1
 -32  18  -5   97.78  143.38   1
  18  14  -2 1302.24  327.58   1
 -32  18  -2  958.21  342.32   1
 -14  32   2  673.15  346.21   1
  18  14   1  436.82  157.01   1
 -32  18   1  225.64  179.41   1
  32 -18  -1  164.14  190.10   1
 -14  32  -1  282.83  211.40   1
  18  14   4  233.77  205.48   1
 -32  18   4  359.28  187.84   1
  32 -18  -4  349.10  205.71   1
  32 -18  -7  -73.52  157.08   1
  18  15  -6   23.03   99.20   1
 -33  18  -6  117.24  116.45   1
  18  15  -3  967.83  248.96   1
 -33  18  -3  854.53  285.96   1
 -15  33   3  298.79  241.06   1
  18  15   0   21.47  120.29   1
 -33  18   0  -61.96  113.23   1
  33 -18   0  -74.82  123.35   1
 -15  33   0   -3.55  140.46   1
  18  15   3  -86.92  204.94   1
 -33  18   3  355.69  139.07   1
  33 -18  -3   26.75  169.09   1
 -33  18   6  259.41  186.48   1
  33 -18  -6  412.51  222.85   1
  18  16  -7  427.66  163.09   1
 -34  18  -7  264.73  176.03   1
  18  16  -4  108.82   74.43   1
 -34  18  -4  -37.67  130.53   1
 -16  34   4  -38.20   68.83   1
  18  16  -1  155.64  137.55   1
 -34  18  -1  139.36  160.71   1
 -16  34   1  181.01  165.91   1
  18  16   2  521.06  219.46   1
 -34  18   2  263.58  164.92   1
  34 -18  -2  192.03  176.56   1
 -16  34  -2  105.71  196.07   1
  18  16   5   26.82  136.53   1
 -34  18   5   80.29  105.19   1
  34 -18  -5   79.38  125.14   1
 -34  18   8  -94.89   64.61   1
  34 -18  -8 -113.37  134.47   1
  18  17  -5  314.01  176.62   1
 -35  18  -5  520.39  219.13   1
  18  17  -2  203.10  132.30   1
 -35  18  -2  161.48  163.74   1
 -17  35   2  256.95  163.98   1
  18  17   1 1685.10  364.08   1
 -35  18   1  945.01  366.73   1
  35 -18  -1  816.38  380.93   1
 -17  35  -1 1276.97  401.06   1
  18  17   4  870.86  275.25   1
 -35  18   4  383.83  233.66   1
  35 -18  -4  536.07  241.81   1
 -35  18   7  580.16  232.56   1
  35 -18  -7  642.14  265.73   1
  18  18  -6   65.63   98.01   1
 -36  18  -6  135.28  141.93   1
  18  18  -3  165.24   82.61   1
 -36  18  -3  -22.96  115.09   1
 -18  36   3  -81.88   90.72   1
  18  18   0   14.15  165.55   1
 -36  18   0  170.11  163.73   1
  36 -18   0  307.11  185.85   1
 -18  36   0  128.47  168.57   1
 -36  18   3   -4.12  130.11   1
  36 -18  -3  -15.31  124.57   1
 -18  36  -3   -3.81  126.03   1
 -36  18   6  -66.53   95.47   1
  36 -18  -6  161.38  128.05   1
  18  19  -4 1219.71  227.43   1
 -37  18  -4  513.88  235.30   1
 -19  37   4   67.84  206.11   1
  18  19  -1  392.69  161.26   1
 -37  18  -1   63.52  174.16   1
 -19  37   1  327.77  206.20   1
  18  19   2  122.23  190.66   1
 -37  18   2  171.77  139.63   1
  37 -18  -2  192.07  162.84   1
 -19  37  -2   18.57  142.59   1
  18  19   5    6.89  161.98   1
 -37  18   5   35.43  110.81   1
  37 -18  -5   96.63  128.51   1
 -19  37  -5  161.27  145.72   1
  18  20  -5  107.49  126.31   1
 -38  18  -5  153.59  129.86   1
  18  20  -2  490.76  167.63   1
 -38  18  -2  351.02  190.00   1
 -20  38   2  130.72  159.60   1
  18  20   1  306.40  147.02   1
 -38  18   1  120.81  154.55   1
  38 -18  -1  237.09  184.47   1
 -20  38  -1  213.89  174.56   1
  18  20   4   65.14  172.61   1
 -38  18   4   48.68  119.44   1
  38 -18  -4  199.85  131.91   1
 -20  38  -4   93.71  156.90   1
  18  21  -3   47.93  102.57   1
 -39  18  -3   41.97  131.59   1
  18  21   0  126.43  114.56   1
 -39  18   0   32.84  105.11   1
  39 -18   0   49.52  148.97   1
 -21  39   0  -77.25  159.86   1
  18  21   3  -31.42  164.12   1
 -39  18   3  106.56   92.55   1
  39 -18  -3  116.97  128.28   1
 -21  39  -3 -135.51  117.22   1
  18  22  -1  516.85  196.69   1
 -40  18  -1  229.60  180.44   1
 -22  40   1  285.28  192.05   1
  18  22   2  233.44  212.81   1
 -40  18   2  141.19  156.58   1
  40 -18  -2  262.79  169.15   1
 -22  40  -2  154.93  151.70   1
  19   1 -12  713.72  218.56   1
 -20  19 -12  367.17  247.31   1
  19   1  -9 1309.10  363.80   1
 -20  19  -9 1128.18  391.95   1
  19   1  -6  936.30  312.13   1
 -20  19  -6 1071.91  345.22   1
  19   1  -3 2103.98  577.66   1
 -19  -1   3 2804.30  588.08   1
 -20  19  -3 2448.23  607.32   1
  -1  20   3 1492.87  580.26   1
  19   1   0  591.84  234.04   1
 -19  -1   0  680.15  259.98   1
 -20  19   0  511.16  268.12   1
  19   1   3  -95.83  127.68   1
 -19  -1  -3   76.33   83.75   1
 -20  19   3   63.72   99.60   1
  20 -19  -3  -14.48  100.15   1
 -19  -1  -6 1569.26  490.48   1
 -20  19   6 1305.82  459.51   1
  20 -19  -6 2008.28  469.12   1
 -19  -1  -9  201.19  202.20   1
  20 -19  -9  410.97  224.55   1
 -19  -1 -12   33.95  140.14   1
  20 -19 -12  123.20  192.57   1
  -1  20 -12   24.11   88.72   1
  19   2 -10   56.20   51.16   1
 -21  19 -10 -226.49  107.85   1
  19   2  -7  131.83  115.48   1
 -21  19  -7  141.54  161.01   1
  19   2  -4 2215.25  631.53   1
 -19  -2   4 2376.97  636.58   1
 -21  19  -4 3038.33  696.84   1
  19   2  -1  614.35  236.21   1
 -19  -2   1  493.35  232.41   1
 -21  19  -1  368.41  242.70   1
  -2  21   1  547.85  210.86   1
  19   2   2 2702.17  510.59   1
 -19  -2  -2 1094.85  494.90   1
 -21  19   2 1355.53  511.79   1
  21 -19  -2 1720.30  501.52   1
 -19  -2  -5  108.57  153.01   1
 -21  19   5  129.52  141.65   1
  21 -19  -5  248.94  151.79   1
 -19  -2  -8   50.71  162.59   1
 -21  19   8  120.37  130.36   1
  21 -19  -8  141.75  191.62   1
  -2  21 -11  872.97  273.62   1
 -19  -2 -11   47.01  233.22   1
  21 -19 -11  570.43  246.22   1
  19   3 -11  871.86  251.93   1
 -22  19 -11  517.69  279.26   1
  19   3  -8 1603.63  420.86   1
 -22  19  -8 1367.66  449.14   1
  19   3  -5  470.64  198.51   1
 -22  19  -5  510.54  278.71   1
  19   3  -2 3602.16  988.65   1
 -19  -3   2 4774.77  995.35   1
 -22  19  -2 4695.41 1016.58   1
  -3  22   2 3600.18  985.77   1
  19   3   1  495.57  181.04   1
 -19  -3  -1  135.61  157.62   1
 -22  19   1  -45.45  154.76   1
  19   3   4  214.97  160.42   1
 -19  -3  -4  158.01  143.05   1
 -22  19   4   78.41  145.91   1
  22 -19  -4  133.31  172.65   1
 -19  -3  -7  263.56  182.59   1
 -22  19   7  237.28  179.29   1
  22 -19  -7  364.06  220.40   1
 -19  -3 -10  560.73  284.49   1
  22 -19 -10 1012.32  308.14   1
  19   4 -12   13.63  102.82   1
 -23  19 -12  226.57  167.35   1
  19   4  -9  608.99  221.10   1
 -23  19  -9  597.28  268.58   1
  19   4  -6  235.36  148.81   1
 -23  19  -6  319.31  213.44   1
  19   4  -3  323.88  166.85   1
 -19  -4   3  369.32  170.66   1
 -23  19  -3  319.01  210.15   1
  -4  23   3  164.19  154.37   1
  19   4   0  297.93  155.61   1
 -19  -4   0  338.08  177.95   1
 -23  19   0  176.37  166.47   1
  19   4   3  244.32  175.30   1
 -19  -4  -3  306.27  162.40   1
 -23  19   3  101.43  181.76   1
  23 -19  -3  210.34  170.35   1
 -19  -4  -6  353.12  248.79   1
 -23  19   6  601.56  270.75   1
  23 -19  -6  954.47  277.98   1
 -19  -4  -9   14.34  144.52   1
  23 -19  -9  329.52  197.64   1
 -19  -4 -12   15.18  104.45   1
  23 -19 -12  -68.26  175.18   1
  19   5 -10  517.31  214.84   1
 -24  19 -10  606.62  250.54   1
  19   5  -7 1222.94  404.33   1
 -24  19  -7 1705.06  438.78   1
  19   5  -4 1626.13  471.54   1
 -24  19  -4 1832.97  510.00   1
  19   5  -1 1233.45  377.20   1
 -19  -5   1 1219.76  360.14   1
 -24  19  -1  982.38  376.10   1
  19   5   2  197.65  151.76   1
 -19  -5  -2  112.79  121.72   1
 -24  19   2  107.23  158.94   1
  24 -19  -2  -45.94  155.76   1
  19   5   5  353.79  237.56   1
 -19  -5  -5  495.80  219.60   1
 -24  19   5  462.92  227.91   1
  24 -19  -5  500.57  223.36   1
 -19  -5  -8  624.71  412.61   1
 -24  19   8 1391.73  398.27   1
  24 -19  -8 2784.19  475.72   1
 -19  -5 -11   -0.58  130.21   1
  24 -19 -11  573.23  213.08   1
  19   6 -11  137.10   87.78   1
 -25  19 -11  -66.18  148.22   1
  19   6  -8 1411.87  370.13   1
 -25  19  -8 1096.47  400.79   1
  19   6  -5  851.97  296.11   1
 -25  19  -5 1007.57  321.22   1
  19   6  -2 1813.80  494.89   1
 -19  -6   2 1939.45  499.05   1
 -25  19  -2 1628.12  534.99   1
  19   6   1  671.37  272.24   1
 -19  -6  -1  749.53  277.08   1
 -25  19   1  702.17  300.65   1
  25 -19  -1  741.10  292.30   1
  19   6   4  486.52  234.58   1
 -19  -6  -4  349.13  230.91   1
  25 -19  -4  447.53  239.26   1
 -19  -6  -7 1306.74  678.87   1
 -25  19   7 2896.34  688.32   1
  25 -19  -7 4375.89  728.61   1
 -19  -6 -10  321.74  273.15   1
  25 -19 -10 1576.22  324.34   1
  19   7  -9   -1.89   59.29   1
 -26  19  -9 -192.94  106.24   1
  19   7  -6 1163.30  329.71   1
 -26  19  -6  977.13  375.09   1
  19   7  -3 1909.61  487.09   1
 -19  -7   3 3114.09  532.36   1
 -26  19  -3 2005.56  519.09   1
  -7  26   3  814.94  471.13   1
  19   7   0 4374.98  902.51   1
 -19  -7   0 3448.30  894.08   1
 -26  19   0 3039.86  919.11   1
  19   7   3 1394.65  334.44   1
 -19  -7  -3  436.16  291.07   1
 -26  19   3  503.97  273.11   1
  26 -19  -3  664.90  284.41   1
 -19  -7  -6  584.41  291.20   1
 -26  19   6  725.99  307.30   1
  26 -19  -6 1112.52  316.07   1
 -19  -7  -9    3.66  118.42   1
  26 -19  -9  115.08  188.45   1
  19   8 -10  288.42  136.39   1
 -27  19 -10  160.62  181.88   1
  19   8  -7  -67.77   80.63   1
 -27  19  -7  140.35  137.19   1
  19   8  -4  -47.05   98.47   1
 -27  19  -4  215.68  164.77   1
  19   8  -1 2766.82  583.79   1
 -19  -8   1 2166.21  575.81   1
 -27  19  -1 1608.81  577.10   1
  19   8   2 9714.87 2092.77   1
 -19  -8  -2 9705.13 2106.70   1
 -27  19   2 7865.80 2111.63   1
  27 -19  -2 9683.21 2109.76   1
  19   8   5 5010.69 1158.68   1
 -27  19   5 4416.84 1166.77   1
  27 -19  -5 5090.03 1166.32   1
 -19  -8  -8 1768.87  840.94   1
 -27  19   8 3388.32  840.03   1
  27 -19  -8 5743.42  886.88   1
 -19  -8 -11    6.78  101.63   1
  27 -19 -11  198.41  195.45   1
  19   9  -8  665.87  203.32   1
 -28  19  -8  278.99  232.67   1
  19   9  -5   70.89  112.17   1
 -28  19  -5  224.76  171.10   1
  19   9  -2  107.08  116.73   1
 -28  19  -2  139.34  128.42   1
  -9  28   2   93.34  125.34   1
  19   9   1 5523.92 1104.52   1
 -19  -9  -1 3557.04 1088.90   1
 -28  19   1 5012.47 1121.69   1
  28 -19  -1 5002.92 1130.56   1
  19   9   4 2415.01  711.71   1
 -19  -9  -4 2852.72  702.07   1
 -28  19   4 2466.99  690.47   1
  28 -19  -4 2800.86  696.42   1
 -19  -9  -7 1115.30  581.79   1
 -28  19   7 2092.81  583.38   1
  28 -19  -7 3753.27  623.31   1
 -19  -9 -10  245.08  174.91   1
  28 -19 -10  632.51  244.40   1
  19  10  -9  312.37  126.04   1
 -29  19  -9   15.20  166.91   1
  19  10  -6  929.94  286.76   1
 -29  19  -6  846.81  332.47   1
  19  10  -3 2834.73  542.53   1
 -29  19  -3 1699.16  536.06   1
 -10  29   3 1517.17  550.73   1
  19  10   0 3566.09  802.10   1
 -19 -10   0 3091.89  783.62   1
 -29  19   0 2759.00  792.74   1
  19  10   3  525.82  269.98   1
 -19 -10  -3  510.36  221.45   1
 -29  19   3  448.63  228.01   1
  29 -19  -3  566.99  246.58   1
 -29  19   6  250.18  165.56   1
  29 -19  -6  104.53  207.69   1
 -29  19   9   44.57  121.82   1
  29 -19  -9  253.04  198.34   1
  19  11 -10   -0.43   85.45   1
 -30  19 -10  136.20  138.49   1
  19  11  -7 1006.67  299.37   1
 -30  19  -7  835.13  336.39   1
  19  11  -4 4019.66  817.88   1
 -30  19  -4 2657.93  819.82   1
  19  11  -1 8781.73 1598.07   1
 -30  19  -1 6791.21 1627.65   1
 -11  30   1 4995.59 1604.57   1
  19  11   2 7878.82 1322.77   1
 -19 -11  -2 4455.17 1293.41   1
 -30  19   2 4653.65 1320.35   1
  30 -19  -2 5870.53 1325.88   1
  19  11   5  904.35  317.91   1
 -19 -11  -5  564.97  290.42   1
 -30  19   5  876.17  306.23   1
  30 -19  -5 1360.46  323.87   1
 -30  19   8  149.04  126.59   1
  30 -19  -8  130.86  199.27   1
  19  12  -8   -6.10   80.38   1
 -31  19  -8   60.27  137.54   1
 -31  19  -5   22.05  110.26   1
  19  12  -2 1073.24  285.93   1
 -31  19  -2  494.25  317.71   1
  19  12   1   52.70  137.79   1
 -19 -12  -1  142.40  148.48   1
 -31  19   1  206.31  155.80   1
  31 -19  -1  154.11  156.81   1
  19  12   4  359.67  253.71   1
 -19 -12  -4  432.93  217.08   1
 -31  19   4  438.56  225.88   1
  31 -19  -4  628.85  241.21   1
 -19 -12  -7   89.80   91.91   1
 -31  19   7  -93.45  105.17   1
  31 -19  -7  234.79  166.61   1
  19  13  -9  251.41  131.83   1
 -32  19  -9  194.26  176.70   1
  19  13  -6 2638.10  517.77   1
 -32  19  -6 1237.93  528.57   1
  19  13  -3 1312.83  299.52   1
 -32  19  -3  931.82  324.90   1
 -13  32   3  470.53  298.72   1
  19  13   0 2957.97  496.91   1
 -32  19   0 1163.17  480.53   1
  32 -19   0 1435.36  486.64   1
 -13  32   0 1301.91  476.92   1
  19  13   3 1263.49  308.76   1
 -19 -13  -3  643.73  241.66   1
 -32  19   3  392.02  235.28   1
  32 -19  -3  559.21  268.78   1
 -19 -13  -6  129.35   84.43   1
 -32  19   6   63.41  112.57   1
  32 -19  -6 -242.69  145.55   1
 -32  19   9    1.20   92.96   1
  32 -19  -9  271.02  176.11   1
  19  14  -7 1920.60  382.44   1
 -33  19  -7  706.83  390.57   1
  19  14  -4 4521.92  835.05   1
 -33  19  -4 2054.45  851.08   1
  19  14  -1 3564.02  615.84   1
 -33  19  -1 2069.64  613.31   1
 -14  33   1 1353.06  610.81   1
  19  14   2 1356.34  351.68   1
 -33  19   2  624.49  298.67   1
  33 -19  -2  783.73  310.80   1
  19  14   5  -60.06  127.86   1
 -33  19   5  -96.68  111.22   1
  33 -19  -5  345.87  151.75   1
 -33  19   8  103.28  120.97   1
  33 -19  -8  136.34  163.52   1
  19  15  -8    0.21   66.95   1
 -34  19  -8  -15.46   86.15   1
  19  15  -5   12.18   89.93   1
 -34  19  -5   67.92  129.59   1
  19  15  -2   78.10  113.43   1
 -34  19  -2  119.26  137.47   1
 -15  34   2   10.00  118.57   1
  19  15   1   87.28  109.70   1
 -34  19   1   99.35  100.04   1
  34 -19  -1  -40.88  122.17   1
 -15  34  -1 -143.61  131.50   1
  19  15   4 -145.02  131.67   1
 -34  19   4   28.63   89.72   1
  34 -19  -4 -107.52  122.76   1
 -34  19   7  186.95  126.08   1
  34 -19  -7  120.45  171.98   1
  19  16  -6  216.84  124.93   1
 -35  19  -6  159.51  156.63   1
  19  16  -3   81.97   87.62   1
 -35  19  -3   12.79  125.25   1
 -16  35   3   20.62   69.60   1
  19  16   0  203.57  168.07   1
 -35  19   0  159.35  151.49   1
  35 -19   0  262.38  166.07   1
 -16  35   0  126.88  163.45   1
  19  16   3  468.17  226.95   1
 -35  19   3  273.64  183.48   1
  35 -19  -3  249.76  175.34   1
 -35  19   6   85.78  121.07   1
  35 -19  -6  149.37  175.05   1
  19  17  -7  235.59  119.35   1
 -36  19  -7  110.42  154.13   1
  19  17  -4   87.09   97.77   1
 -36  19  -4  -72.33  119.20   1
 -17  36   4    6.61   51.94   1
  19  17  -1  202.05  172.27   1
 -36  19  -1  304.99  191.66   1
 -17  36   1  256.96  200.25   1
  19  17   2 1735.55  371.53   1
 -36  19   2  828.30  350.59   1
  36 -19  -2  992.54  369.66   1
 -17  36  -2  878.97  350.80   1
  19  17   5  608.22  216.55   1
 -36  19   5   69.29  183.24   1
  36 -19  -5  368.88  232.48   1
  19  18  -5   52.20  104.27   1
 -37  19  -5   50.37  119.44   1
  19  18  -2  101.44  100.41   1
 -37  19  -2  -18.33  141.98   1
 -18  37   2   -5.11  121.25   1
  19  18   1  256.34  157.73   1
 -37  19   1  176.72  152.96   1
  37 -19  -1  187.89  179.68   1
 -18  37  -1   99.03  142.56   1
  19  18   4  572.30  243.84   1
 -37  19   4  233.77  206.25   1
  37 -19  -4  481.63  217.24   1
 -18  37  -4  592.64  234.26   1
  19  19  -3  181.63   97.76   1
 -38  19  -3 -230.57  114.41   1
 -19  38   3  -23.85   93.37   1
  19  19   0  583.54  190.30   1
 -38  19   0  151.20  187.75   1
  38 -19   0  437.53  215.36   1
 -19  38   0  221.64  196.55   1
  19  19   3  146.94  181.73   1
 -38  19   3   44.65  140.08   1
  38 -19  -3  168.06  155.61   1
 -19  38  -3   43.01  153.69   1
  19  20  -4  381.80  159.38   1
 -39  19  -4  149.60  167.16   1
  19  20  -1 1139.35  251.35   1
 -39  19  -1  353.20  257.09   1
 -20  39   1  430.64  268.14   1
 -39  19   2  174.36  175.69   1
  39 -19  -2  490.45  189.94   1
 -20  39  -2  177.09  174.57   1
  19  21  -2   42.61  103.39   1
 -40  19  -2   81.48  120.05   1
 -21  40   2    6.20   89.97   1
  19  21   1   42.90  122.52   1
 -40  19   1   76.94   97.37   1
  40 -19  -1  -46.47  138.60   1
 -21  40  -1   56.72  135.00   1
  20   1 -11  250.52  132.88   1
 -21  20 -11  156.95  167.53   1
  20   1  -8 1171.61  357.39   1
 -21  20  -8  942.96  349.93   1
  20   1  -5 1637.44  454.59   1
 -20  -1   5 1690.59  463.57   1
 -21  20  -5 1555.89  483.53   1
  20   1  -2 7844.37 1601.04   1
 -20  -1   2 6606.14 1591.24   1
 -21  20  -2 6260.10 1611.43   1
  -1  21   2 6789.66 1603.29   1
  20   1   1 9327.92 1622.09   1
 -20  -1  -1 7248.64 1604.55   1
 -21  20   1 5096.62 1584.04   1
  20   1   4 1803.38  485.52   1
 -20  -1  -4 1708.91  476.08   1
 -21  20   4 1193.05  470.18   1
  21 -20  -4 1788.93  481.82   1
 -20  -1  -7  146.99  152.29   1
 -21  20   7   17.27  110.00   1
  21 -20  -7  -33.64  166.46   1
 -20  -1 -10  192.75  219.59   1
  21 -20 -10  395.74  219.61   1
  -1  21 -10  337.35  163.20   1
  20   2 -12  201.35  108.11   1
 -22  20 -12  -36.29  148.76   1
  20   2  -9   -2.45   83.68   1
 -22  20  -9   86.36  127.28   1
  20   2  -6 1321.47  396.40   1
 -22  20  -6 1459.42  436.66   1
  20   2  -313581.29 2640.24   1
 -20  -2   312656.52 2644.11   1
 -22  20  -312858.16 2669.28   1
  -2  22   3 8396.43 2644.50   1
  20   2   0 4373.02  883.80   1
 -20  -2   0 3836.54  910.15   1
 -22  20   0 3393.15  918.33   1
  -2  22   0 2848.34  893.35   1
  20   2   3 2032.48  436.11   1
 -20  -2  -3 1392.63  424.14   1
 -22  20   3 1020.13  438.47   1
  22 -20  -3 1154.28  414.67   1
 -20  -2  -6  523.07  227.69   1
 -22  20   6  501.42  247.34   1
  22 -20  -6  577.88  278.02   1
 -20  -2  -9  101.46  165.72   1
  22 -20  -9  307.89  196.80   1
 -20  -2 -12  -57.43  106.14   1
  22 -20 -12   63.07  164.72   1
  -2  22 -12  100.18   79.67   1
  20   3 -10   69.36  115.08   1
 -23  20 -10  244.56  161.83   1
  20   3  -7  183.13  164.81   1
 -23  20  -7  312.60  208.38   1
  20   3  -4 2445.73  619.92   1
 -20  -3   4 2582.90  625.23   1
 -23  20  -4 2078.41  650.02   1
  20   3  -1 1918.27  488.10   1
 -20  -3   1 1736.15  484.22   1
 -23  20  -1 1276.56  506.61   1
  -3  23   1 1756.31  474.58   1
  20   3   2  871.80  257.89   1
 -20  -3  -2  390.89  243.81   1
 -23  20   2  148.18  251.71   1
  23 -20  -2  743.74  254.91   1
  20   3   5 1684.39  363.13   1
 -20  -3  -5  654.33  314.67   1
 -23  20   5  471.30  309.60   1
  23 -20  -5 1447.49  362.00   1
 -20  -3  -8  488.85  206.39   1
 -23  20   8  307.53  191.53   1
  23 -20  -8  325.50  230.53   1
  23 -20 -11  -79.43  158.61   1
  20   4 -11  142.65  105.34   1
 -24  20 -11   88.64  149.67   1
  20   4  -8  476.88  175.87   1
 -24  20  -8  320.73  230.19   1
  20   4  -5  267.54  169.89   1
 -24  20  -5  471.66  216.41   1
  20   4  -2 1296.05  343.53   1
 -20  -4   2 1246.50  343.21   1
 -24  20  -2 1216.15  372.46   1
  -4  24   2  641.22  330.79   1
  20   4   1 -289.63  105.12   1
 -20  -4  -1   -0.39   29.75   1
 -24  20   1 -368.84   98.97   1
  20   4   4 1953.88  470.55   1
 -20  -4  -4 1445.63  431.96   1
 -24  20   4 1107.64  430.13   1
  24 -20  -4 1795.56  459.54   1
 -20  -4  -7  428.81  286.13   1
 -24  20   7  692.30  257.02   1
  24 -20  -7 1079.57  312.85   1
  24 -20 -10  133.76  189.89   1
  20   5  -9  130.66   90.26   1
 -25  20  -9  -97.00  151.25   1
  20   5  -6 1575.46  416.72   1
 -25  20  -6 1363.58  459.95   1
  20   5  -3  474.55  184.85   1
 -20  -5   3  411.67  188.14   1
 -25  20  -3  266.22  217.44   1
  -5  25   3  317.79  175.35   1
  20   5   0 3359.16  861.52   1
 -20  -5   0 4738.01  903.97   1
 -25  20   0 3186.27  891.87   1
  20   5   3 6508.63 1290.03   1
 -20  -5  -3 5408.41 1276.93   1
 -25  20   3 4195.25 1274.62   1
  25 -20  -3 5500.67 1278.20   1
 -20  -5  -6 6212.06 1926.30   1
 -25  20   6 8962.55 1952.69   1
  25 -20  -610346.75 1925.69   1
 -20  -5  -9 1837.12  905.62   1
  25 -20  -9 7154.93  968.21   1
  20   6 -10   -1.27   66.62   1
 -26  20 -10  -40.64  112.55   1
  20   6  -7   65.53   97.26   1
 -26  20  -7   28.59  145.46   1
  20   6  -4  732.18  206.88   1
 -26  20  -4  210.30  240.67   1
  20   6  -1  366.48  163.01   1
 -20  -6   1   57.76  138.50   1
 -26  20  -1  141.95  147.03   1
  20   6   2 3778.73  840.75   1
 -20  -6  -2 3207.41  861.10   1
 -26  20   2 3020.31  863.49   1
  26 -20  -2 3538.84  865.71   1
  20   6   5 2310.47  513.31   1
 -20  -6  -5 1501.31  498.73   1
 -26  20   5 1602.85  513.67   1
 -20  -6  -8  510.47  376.94   1
 -26  20   8 1247.33  377.85   1
  26 -20  -8 2350.34  430.57   1
  26 -20 -11  360.79  260.49   1
 -27  20 -11  256.87  188.50   1
  20   7  -8  813.61  245.01   1
 -27  20  -8  557.02  288.56   1
  20   7  -5  948.90  273.06   1
 -27  20  -5  645.03  308.93   1
  20   7  -2  277.62  148.65   1
 -20  -7   2  185.68  150.85   1
 -27  20  -2  181.60  166.53   1
  20   7   1  263.25  144.48   1
 -20  -7  -1  -14.59  120.97   1
 -27  20   1   22.88  155.87   1
  27 -20  -1  110.03  162.28   1
  20   7   4  465.34  230.76   1
 -20  -7  -4  400.40  211.01   1
 -27  20   4  196.63  193.61   1
  27 -20  -4  344.79  215.41   1
 -20  -7  -7  181.01  152.94   1
 -27  20   7   63.91  152.95   1
  27 -20  -7  340.72  205.16   1
 -20  -7 -10  -28.25   95.35   1
  27 -20 -10  171.11  185.21   1
  20   8  -9  333.45  138.93   1
 -28  20  -9  163.10  171.58   1
  20   8  -6    2.95   25.13   1
 -28  20  -6 -166.86  108.23   1
  20   8  -3  951.15  272.30   1
 -28  20  -3  717.82  297.79   1
  -8  28   3  624.02  274.91   1
  20   8   0 7099.64 1240.33   1
 -20  -8   0 3778.95 1239.12   1
 -28  20   0 4844.46 1269.12   1
  20   8   3 9051.72 1405.78   1
 -20  -8  -3 5772.08 1377.64   1
 -28  20   3 4307.48 1365.77   1
  28 -20  -3 5015.85 1372.64   1
 -20  -8  -6 1310.82  560.72   1
 -28  20   6 1848.08  575.25   1
  28 -20  -6 3290.49  590.20   1
 -20  -8  -9  244.76  247.97   1
 -28  20   9  699.12  264.96   1
  28 -20  -9 1772.29  326.05   1
  20   9 -10  681.24  194.37   1
 -29  20 -10  233.23  227.51   1
  20   9  -7 1636.18  416.43   1
 -29  20  -7 1310.25  449.51   1
  20   9  -4 2681.76  652.33   1
 -29  20  -4 2364.64  681.06   1
  20   9  -1 2077.24  456.61   1
 -20  -9   1 1511.38  437.63   1
 -29  20  -1  939.49  460.84   1
  20   9   2  246.05  209.62   1
 -20  -9  -2  200.67  138.28   1
 -29  20   2   59.19  163.22   1
  29 -20  -2  162.62  165.56   1
  20   9   5  143.39  220.55   1
 -20  -9  -5  672.04  207.50   1
 -29  20   5  319.17  193.95   1
  29 -20  -5  565.56  250.15   1
 -20  -9  -8  100.22  147.96   1
 -29  20   8  180.76  125.90   1
  29 -20  -8  306.12  204.55   1
  20  10  -8  580.15  206.26   1
 -30  20  -8  458.25  240.00   1
  20  10  -5 5873.89 1265.55   1
 -30  20  -5 4818.35 1301.20   1
  20  10  -2 6986.69 1219.75   1
 -30  20  -2 3856.57 1220.50   1
 -10  30   2 4577.15 1237.10   1
  20  10   112547.19 2326.55   1
 -20 -10  -1 9802.93 2332.74   1
 -30  20   1 8593.71 2341.24   1
  30 -20  -110149.84 2345.63   1
  20  10   4 3302.24  835.57   1
 -20 -10  -4 2617.59  812.84   1
  30 -20  -4 3739.46  820.33   1
 -20 -10  -7  572.74  343.95   1
 -30  20   7  931.96  328.52   1
  30 -20  -7 2163.12  389.41   1
 -20 -10 -10   55.04   81.81   1
  20  11  -9  764.34  200.08   1
 -31  20  -9  266.47  219.94   1
  20  11  -6 4082.05  884.67   1
 -31  20  -6 2935.71  869.26   1
  20  11  -3 3110.90  560.65   1
 -31  20  -3 1770.66  554.31   1
 -11  31   3 1318.28  569.19   1
  20  11   0 6503.45 1353.67   1
 -20 -11   0 6196.66 1348.86   1
 -31  20   0 4612.69 1349.58   1
  20  11   314054.59 1880.75   1
 -20 -11  -3 7135.91 1839.55   1
 -31  20   3 5041.69 1841.06   1
  31 -20  -3 7672.78 1844.91   1
 -20 -11  -6  853.79  472.36   1
 -31  20   6 1870.31  499.43   1
  31 -20  -6 2840.60  513.84   1
 -20 -11  -9   39.07   81.91   1
 -31  20   9  100.87   96.95   1
  31 -20  -9   12.90  157.19   1
  20  12  -7  106.07  141.26   1
 -32  20  -7  218.74  165.94   1
  20  12  -4  160.30  115.64   1
 -32  20  -4  106.57  118.22   1
  20  12  -1   57.52  118.53   1
 -32  20  -1 -149.40  124.69   1
 -12  32   1   19.03  119.37   1
  20  12   2  405.41  201.65   1
 -20 -12  -2  596.87  158.56   1
 -32  20   2   31.72  163.32   1
  32 -20  -2  -50.14  165.52   1
  20  12   5  114.83  155.65   1
 -20 -12  -5   85.66  118.58   1
 -32  20   5   53.23  132.06   1
  32 -20  -5  279.12  187.92   1
 -20 -12  -8  -78.88   68.79   1
 -32  20   8  -39.47   65.15   1
  32 -20  -8  -89.48  136.15   1
  20  13  -8  808.34  216.50   1
 -33  20  -8  307.21  245.13   1
  20  13  -5 2126.21  453.68   1
 -33  20  -5 1207.99  454.44   1
  20  13  -2 2338.49  462.40   1
 -33  20  -2 1418.85  487.03   1
 -13  33   2 1075.20  471.53   1
  20  13   1  297.32  202.03   1
 -33  20   1  712.40  216.16   1
  33 -20  -1  442.17  226.48   1
  20  13   4  106.27  145.82   1
 -33  20   4    9.78  110.02   1
  33 -20  -4 -153.04  144.67   1
 -20 -13  -7  -31.46   94.23   1
 -33  20   7   17.73   82.48   1
  33 -20  -7  -57.94  145.24   1
  20  14  -6  172.02  108.96   1
 -34  20  -6   79.60  123.11   1
  20  14  -3  120.68  105.73   1
 -34  20  -3   22.11  143.69   1
 -14  34   3   82.66   89.73   1
  20  14   0  377.05  168.20   1
 -34  20   0  226.12  187.72   1
 -14  34   0  284.21  195.09   1
  20  14   3 2211.57  415.49   1
 -34  20   3  616.33  356.85   1
  34 -20  -3  867.14  360.85   1
 -34  20   6  716.93  341.28   1
  34 -20  -6 1390.82  373.29   1
  20  15  -7  405.54  134.17   1
 -35  20  -7   71.15  144.26   1
  20  15  -4  667.56  229.43   1
 -35  20  -4  548.98  271.13   1
  20  15  -1 2055.93  374.52   1
 -35  20  -1  683.64  357.50   1
 -15  35   1  729.81  360.50   1
  20  15   2  837.28  257.27   1
 -35  20   2  268.97  219.07   1
  35 -20  -2  371.04  231.03   1
 -15  35  -2  552.49  232.10   1
  20  15   5   21.06  168.14   1
 -35  20   5   95.55  162.22   1
  35 -20  -5  436.59  205.22   1
  20  16  -5 1861.50  424.46   1
 -36  20  -5  928.08  448.06   1
  20  16  -2 1590.96  322.20   1
 -36  20  -2  719.67  325.60   1
 -16  36   2  563.74  342.04   1
  20  16   1  252.39  170.24   1
 -36  20   1  427.41  168.08   1
  36 -20  -1   97.47  194.41   1
 -16  36  -1   -0.44  169.47   1
  20  16   4  165.66  162.66   1
 -36  20   4 -120.38  138.09   1
  36 -20  -4  279.57  154.11   1
 -36  20   7  140.05  125.86   1
  20  17  -6   68.58  109.87   1
 -37  20  -6  168.73  144.29   1
  20  17  -3    9.66  101.13   1
 -37  20  -3    3.81  100.91   1
 -17  37   3 -114.16   68.74   1
  20  17   0  248.95  131.79   1
 -37  20   0   82.88  150.08   1
 -17  37   0   63.17  138.48   1
  20  17   3  546.93  267.05   1
 -37  20   3  380.41  230.56   1
  37 -20  -3  530.03  246.00   1
 -17  37  -3  607.32  243.77   1
 -37  20   6  138.32  144.39   1
  37 -20  -6  267.55  196.40   1
  20  18  -4  241.17  130.17   1
 -38  20  -4   50.64  137.88   1
  20  18  -1  306.76  187.19   1
 -38  20  -1  274.84  182.53   1
 -18  38   1  244.91  216.91   1
  20  18   2  126.57  194.95   1
 -38  20   2  195.59  156.55   1
  38 -20  -2  413.17  189.03   1
 -18  38  -2  306.13  190.70   1
  20  18   5   -0.96  160.07   1
 -38  20   5   78.11   95.94   1
  38 -20  -5   28.34  170.34   1
 -18  38  -5   28.12  135.79   1
  20  19  -2  557.45  182.57   1
 -39  20  -2  231.02  192.04   1
 -19  39   2  221.35  168.10   1
  20  19   1  862.20  232.00   1
 -39  20   1  206.06  199.99   1
  39 -20  -1  384.38  230.63   1
 -19  39  -1  371.83  220.87   1
 -39  20   4  181.99  122.19   1
  39 -20  -4  198.48  151.92   1
 -19  39  -4  -39.10  157.29   1
  20  20   0  855.20  228.98   1
 -40  20   0  392.18  251.56   1
  21   1 -10  643.86  245.31   1
 -22  21 -10  778.93  275.91   1
  21   1  -7  456.40  210.87   1
 -22  21  -7  653.01  246.73   1
  21   1  -4 1383.87  387.80   1
 -21  -1   4 1304.95  393.69   1
 -22  21  -4 1290.46  424.14   1
  21   1  -1  392.09  147.73   1
 -21  -1   1  276.75  167.40   1
 -22  21  -1  211.81  189.37   1
  -1  22   1   50.84  143.22   1
  21   1   2  545.65  239.33   1
 -21  -1  -2  276.45  206.67   1
 -22  21   2  380.30  232.73   1
 -21  -1  -5  203.62  162.46   1
  22 -21  -5  123.30  195.87   1
 -21  -1  -8  366.07  171.06   1
 -22  21   8   50.78  151.19   1
  22 -21  -8  118.83  194.71   1
 -21  -1 -11  -61.96  128.46   1
  22 -21 -11  -42.67  159.50   1
  -1  22 -11  199.67   85.54   1
  21   2 -11  -14.98   76.05   1
 -23  21 -11   55.51  115.50   1
  21   2  -8 -110.83   61.31   1
 -23  21  -8   39.12  133.28   1
  21   2  -5 -169.90   96.76   1
 -21  -2   5    8.30  111.76   1
 -23  21  -5  319.16  173.37   1
  21   2  -2  622.75  278.71   1
 -21  -2   2  805.02  273.55   1
 -23  21  -2  945.30  295.39   1
  -2  23   2  498.04  267.04   1
  21   2   1  369.69  229.40   1
 -21  -2  -1  495.08  202.68   1
 -23  21   1  380.49  207.25   1
  21   2   4  848.16  309.18   1
 -21  -2  -4  544.25  294.59   1
 -23  21   4  859.42  296.32   1
  23 -21  -4 1009.25  310.08   1
 -21  -2  -7  694.14  282.50   1
 -23  21   7  834.43  274.73   1
  23 -21  -7  848.63  310.08   1
 -21  -2 -10  -69.39  135.43   1
  23 -21 -10   12.46  154.97   1
  -2  23 -10  118.45   97.78   1
  21   3  -9  271.92  149.81   1
 -24  21  -9  334.88  204.73   1
  21   3  -6  177.77  226.68   1
 -24  21  -6   49.51  178.62   1
  21   3  -3  640.19  199.23   1
 -21  -3   3  419.75  201.75   1
 -24  21  -3  590.64  240.44   1
  -3  24   3  145.13  181.49   1
  21   3   0 2996.20  803.51   1
 -21  -3   0 4148.48  830.21   1
 -24  21   0 2489.40  811.60   1
  -3  24   0 3969.29  838.60   1
  21   3   3 4739.61 1091.28   1
 -21  -3  -3 4852.21 1086.59   1
 -24  21   3 3640.37 1094.73   1
  24 -21  -3 4637.12 1096.43   1
 -24  21   6 6199.16 1637.04   1
  24 -21  -6 7838.31 1643.61   1
 -21  -3  -9  695.41  377.27   1
  24 -21  -9 1452.58  376.25   1
  21   4 -10  819.91  202.65   1
 -25  21 -10  132.77  238.69   1
  21   4  -7 2484.95  619.70   1
 -25  21  -7 2373.09  647.98   1
  21   4  -4  825.65  310.20   1
 -21  -4   4 1100.70  315.00   1
 -25  21  -4  938.28  348.19   1
  21   4  -1 2712.08  627.54   1
 -21  -4   1 2347.67  623.57   1
 -25  21  -1 2324.99  637.86   1
  -4  25   1 2068.61  620.18   1
  21   4   2   24.39  155.12   1
 -21  -4  -2   18.36  102.15   1
 -25  21   2   19.92  151.21   1
  25 -21  -2  107.91  152.63   1
  21   4   5 -132.20  178.65   1
 -21  -4  -5  186.95  142.54   1
 -25  21   5   96.26  120.48   1
  25 -21  -5   91.53  176.45   1
 -21  -4  -8   -7.44  128.26   1
 -25  21   8  133.92  110.28   1
  25 -21  -8   97.14  182.02   1
 -21  -4 -11  -41.12   92.61   1
  25 -21 -11   -3.77  149.93   1
  21   5 -11 -145.23   48.45   1
 -26  21 -11   57.07  101.98   1
  21   5  -8  360.39  165.51   1
 -26  21  -8  369.01  200.41   1
  21   5  -5  144.62  133.94   1
 -26  21  -5  246.28  172.99   1
  21   5  -2 2542.84  560.37   1
 -21  -5   2 2182.80  552.86   1
 -26  21  -2 1963.13  587.20   1
  -5  26   2 1491.82  557.18   1
  21   5   1 2620.35  651.07   1
 -21  -5  -1 2371.03  638.38   1
 -26  21   1 2165.57  657.11   1
 -21  -5  -4 2149.54  552.59   1
 -26  21   4 1414.69  543.73   1
  26 -21  -4 2297.33  553.34   1
 -21  -5  -7  962.70  404.98   1
 -26  21   7 1291.64  416.39   1
  26 -21  -7 2017.95  447.13   1
 -21  -5 -10   37.04   95.64   1
  26 -21 -10  -89.14  164.54   1
  21   6  -9  -90.61   23.90   1
 -27  21  -9 -248.24  101.55   1
  21   6  -6  602.24  223.69   1
 -27  21  -6  600.21  267.41   1
  21   6  -3 1051.79  283.19   1
 -21  -6   3  813.89  289.89   1
 -27  21  -3  773.16  321.99   1
  -6  27   3  684.84  280.42   1
  21   6   0 5821.19 1353.36   1
 -21  -6   0 6629.44 1371.91   1
 -27  21   0 5050.50 1389.49   1
  21   6   3 3921.69  678.03   1
 -21  -6  -3 2289.00  654.39   1
 -27  21   3 1773.52  643.02   1
  27 -21  -3 1965.37  650.98   1
 -27  21   6  752.45  281.03   1
  27 -21  -6  687.85  288.89   1
 -21  -6  -9  134.98  149.02   1
  27 -21  -9  237.28  184.65   1
  21   7 -10  189.33  112.06   1
 -28  21 -10    5.97  142.12   1
  21   7  -7 -121.96   44.48   1
 -28  21  -7   10.86  114.52   1
  21   7  -4  526.54  211.07   1
 -28  21  -4  503.24  254.61   1
  21   7  -1 1377.98  370.76   1
 -21  -7   1 1170.74  348.33   1
 -28  21  -1  867.97  347.30   1
  21   7   2  -48.70  178.14   1
 -21  -7  -2   58.94  110.52   1
 -28  21   2   66.60  133.90   1
  28 -21  -2  -50.15  140.14   1
 -21  -7  -5  987.92  382.20   1
 -28  21   5 1018.36  367.74   1
  28 -21  -5 1406.56  399.24   1
 -21  -7  -8  133.49  177.19   1
 -28  21   8  334.33  154.55   1
  28 -21  -8  496.60  222.92   1
  21   8  -8  186.44  123.03   1
 -29  21  -8  179.80  166.59   1
  21   8  -5 1088.14  311.63   1
 -29  21  -5  845.98  350.87   1
  21   8  -2 2995.83  552.63   1
 -21  -8   2 2095.58  554.26   1
 -29  21  -2 1422.79  540.26   1
  -8  29   2 1752.28  571.81   1
  21   8   1 2671.47  566.93   1
 -21  -8  -1 1876.85  550.35   1
 -29  21   1 1613.77  564.97   1
  21   8   4  875.10  275.78   1
 -21  -8  -4  458.94  239.11   1
 -29  21   4  519.33  243.61   1
  29 -21  -4  536.44  233.28   1
 -21  -8  -7 -153.73  107.79   1
 -29  21   7  -40.07   99.05   1
  29 -21  -7   89.91  151.32   1
 -21  -8 -10   89.27  119.77   1
  21   9  -9   55.24   77.14   1
 -30  21  -9  -30.15  122.81   1
  21   9  -6  274.59  135.64   1
 -30  21  -6  193.45  186.66   1
  21   9  -3 -138.94  115.88   1
 -30  21  -3  314.01  127.50   1
  -9  30   3  109.99  106.34   1
  -9  30   3   94.61   86.12   1
  21   9   0  601.75  205.87   1
 -21  -9   0  304.77  212.94   1
 -30  21   0  589.87  237.69   1
  21   9   3  527.22  237.92   1
 -21  -9  -3  218.05  164.71   1
  30 -21  -3  282.87  199.19   1
 -21  -9  -6  397.77  232.53   1
 -30  21   6  436.74  243.19   1
  30 -21  -6  879.50  274.93   1
 -21  -9  -9   -5.03  115.90   1
 -30  21   9  156.81  106.44   1
  21  10  -7  361.74  145.68   1
 -31  21  -7  129.83  200.98   1
  21  10  -4  581.56  159.30   1
 -31  21  -4   35.30  174.39   1
  21  10  -1  928.00  235.46   1
 -31  21  -1  420.18  243.90   1
 -10  31   1  142.49  222.02   1
  21  10   2 2369.72  451.54   1
 -21 -10  -2  979.99  391.35   1
 -31  21   2 1069.37  419.79   1
  31 -21  -2 1605.12  432.20   1
  21  10   5  500.89  261.68   1
 -31  21   5  365.20  254.25   1
  31 -21  -5 1048.75  289.65   1
 -21 -10  -8  131.64  130.52   1
 -31  21   8   93.39  122.07   1
  31 -21  -8  204.80  178.97   1
  21  11  -8  301.15  129.98   1
 -32  21  -8   95.62  175.75   1
  21  11  -5 1002.46  252.19   1
 -32  21  -5  426.25  265.58   1
  21  11  -2   89.37  110.27   1
 -32  21  -2  156.04  144.67   1
 -11  32   2  -73.06  124.54   1
  21  11   1  543.31  207.27   1
 -21 -11  -1  372.05  190.41   1
 -32  21   1  -17.58  199.25   1
  32 -21  -1  438.96  206.98   1
  21  11   4  338.78  194.89   1
 -21 -11  -4   87.98  162.47   1
 -32  21   4  322.30  156.09   1
  32 -21  -4  240.96  176.97   1
 -21 -11  -7    9.17   91.90   1
 -32  21   7   64.85  101.96   1
  32 -21  -7  103.14  170.76   1
  21  12  -6  306.62  160.21   1
 -33  21  -6  263.33  169.45   1
  21  12  -3 1014.73  280.47   1
 -33  21  -3  592.46  298.15   1
  21  12   0 1473.05  380.07   1
 -33  21   0 1091.59  393.40   1
 -12  33   0 1146.73  422.48   1
  21  12   3 2682.67  467.55   1
 -21 -12  -3 1239.20  390.11   1
 -33  21   3  898.07  386.82   1
  33 -21  -3 1342.45  394.18   1
 -21 -12  -6  527.47  298.98   1
 -33  21   6  755.96  301.87   1
  33 -21  -6 1853.58  348.47   1
  21  13  -7  139.97   86.00   1
 -34  21  -7  -55.53  106.07   1
 -34  21  -4   26.59  355.29   1
  21  13  -4  133.44  104.77   1
 -34  21  -1  112.66  154.84   1
 -13  34   1  198.96  153.87   1
  21  13   2   90.19  153.39   1
 -34  21   2  -32.36   94.40   1
  34 -21  -2  -97.69  119.50   1
  21  13   5  -71.18  138.14   1
 -21 -13  -5   64.39  108.23   1
 -34  21   5   18.46  119.20   1
  34 -21  -5  191.72  170.53   1
 -34  21   8   96.63  105.23   1
  34 -21  -8   17.21  161.30   1
  21  14  -5  262.01  144.00   1
 -35  21  -5  156.23  158.04   1
  21  14  -2 1458.56  311.64   1
 -35  21  -2  665.61  318.20   1
 -14  35   2  662.05  308.98   1
  21  14   1 1696.12  353.71   1
 -35  21   1  538.11  335.50   1
  35 -21  -1 1297.53  354.60   1
 -14  35  -1  730.88  344.49   1
  21  14   4  676.16  270.07   1
 -35  21   4  584.12  256.70   1
  35 -21  -4  730.87  263.95   1
 -35  21   7   53.75  112.84   1
  35 -21  -7   87.93  184.79   1
  21  15  -6 1208.52  295.92   1
 -36  21  -6  530.33  305.14   1
  21  15  -3 2796.72  413.45   1
 -36  21  -3 1544.27  429.78   1
 -15  36   3  282.78  391.01   1
  21  15   0 2546.14  510.35   1
 -36  21   0 1556.26  527.25   1
 -15  36   0 1463.06  516.55   1
  21  15   3 1506.76  418.05   1
 -36  21   3  997.89  393.38   1
  36 -21  -3 1356.39  407.60   1
 -36  21   6  239.05  158.60   1
  36 -21  -6  308.16  215.28   1
  21  16  -4   19.41   98.16   1
 -37  21  -4  -26.95  114.95   1
  21  16  -1   71.13  158.06   1
 -37  21  -1  116.62  173.80   1
 -16  37   1  294.94  173.81   1
  21  16   2   58.45  189.72   1
 -37  21   2  177.56  138.69   1
  37 -21  -2  285.17  179.63   1
 -16  37  -2   99.26  166.67   1
  21  16   5    5.31  162.57   1
 -37  21   5  183.85  125.50   1
  37 -21  -5  -19.96  179.35   1
  21  17  -5  152.65  116.37   1
 -38  21  -5   65.51  124.65   1
  21  17  -2  625.35  183.24   1
 -38  21  -2  250.42  191.07   1
 -17  38   2   65.81  195.03   1
  21  17   1  494.83  207.71   1
 -38  21   1  204.72  185.91   1
  38 -21  -1  477.28  207.06   1
 -17  38  -1  118.29  175.71   1
  21  17   4 -123.68  157.11   1
 -38  21   4  100.70  100.56   1
  38 -21  -4 -152.35  164.54   1
 -17  38  -4   65.68  125.40   1
  21  18  -3   42.62  100.61   1
 -39  21  -3  128.16  112.34   1
 -18  39   3  -95.67   98.02   1
  21  18   0   85.36  104.52   1
 -39  21   0   46.63  150.54   1
 -18  39   0   75.77  138.18   1
  21  18   3  117.58  167.64   1
 -39  21   3   93.25  135.64   1
  39 -21  -3  298.52  153.66   1
 -18  39  -3 -113.86  159.87   1
  21  19  -1  -46.48  103.15   1
 -40  21  -1  -37.86  103.75   1
 -19  40   1    1.89  120.31   1
  21  19   2  -11.18  146.63   1
 -40  21   2  -34.60   93.92   1
  40 -21  -2  -35.93  122.78   1
 -19  40  -2  -98.18   93.21   1
  22   1  -9 1468.10  377.27   1
 -23  22  -9 1091.68  405.62   1
  22   1  -6 2348.99  636.06   1
 -23  22  -6 2626.69  661.43   1
  22   1  -310440.20 1985.25   1
 -22  -1   3 9344.66 1974.79   1
 -23  22  -3 8949.00 2001.70   1
  -1  23   3 6571.50 1967.27   1
  22   1   0 5028.96 1045.43   1
 -22  -1   0 3591.97 1046.01   1
 -23  22   0 3516.27 1061.81   1
  -1  23   0 5016.11 1051.45   1
  22   1   3 1756.16  392.73   1
 -22  -1  -3  968.60  374.90   1
 -23  22   3  859.27  368.69   1
 -22  -1  -6  129.85  154.68   1
 -23  22   6  129.58  169.68   1
  23 -22  -6  404.98  202.94   1
 -22  -1  -9   78.49  130.08   1
  23 -22  -9  -33.08  163.64   1
  -1  23  -9   30.43   85.19   1
  22   2 -10  338.69  140.52   1
 -24  22 -10   48.31  171.59   1
  22   2  -7  132.18  119.25   1
 -24  22  -7  172.46  179.73   1
  22   2  -4  649.01  164.86   1
 -22  -2   4   50.64  165.29   1
 -24  22  -4   57.85  206.90   1
  22   2  -1 6966.51 1732.56   1
 -22  -2   1 8898.69 1757.29   1
 -24  22  -1 7225.32 1776.54   1
  -2  24   1 7705.89 1747.13   1
  22   2   2 3924.24  822.94   1
 -22  -2  -2 2897.59  808.19   1
 -24  22   2 2746.38  820.29   1
  22   2   517008.59 2879.42   1
 -22  -2  -511144.75 2854.38   1
 -24  22   511552.94 2862.80   1
  24 -22  -512322.79 2840.35   1
 -22  -2  -8 1137.83  451.62   1
 -24  22   8 1385.97  437.73   1
  24 -22  -8 1806.35  447.86   1
 -22  -2 -11   93.82  148.44   1
  24 -22 -11  132.34  208.76   1
  -2  24 -11  285.46  119.70   1
  22   3 -11  513.45  198.07   1
 -25  22 -11  456.53  226.88   1
  22   3  -8 1096.94  282.25   1
 -25  22  -8  598.59  319.02   1
  22   3  -5 1359.63  379.29   1
 -25  22  -5 1176.06  414.30   1
  22   3  -2 1011.53  282.91   1
 -22  -3   2  622.49  265.89   1
 -25  22  -2  731.48  293.06   1
  -3  25   2  527.73  265.68   1
  22   3   1 2398.56  601.94   1
 -22  -3  -1 2105.59  613.77   1
 -25  22   1 2348.21  635.10   1
  22   3   410015.02 1989.51   1
 -22  -3  -4 7758.60 1954.49   1
 -25  22   4 6087.70 1951.90   1
  25 -22  -412856.44 1994.54   1
 -25  22   7 2491.47  765.67   1
  25 -22  -7 3810.35  785.83   1
 -22  -3 -10   66.87  137.94   1
  25 -22 -10  302.89  187.43   1
  22   4  -9  388.09  188.65   1
 -26  22  -9  553.37  259.93   1
  22   4  -6  318.00  141.34   1
 -26  22  -6  132.18  188.96   1
  22   4  -3  712.67  229.05   1
 -22  -4   3  619.01  230.43   1
 -26  22  -3  646.81  258.71   1
  -4  26   3  534.79  218.91   1
  -4  26   3  350.14  210.98   1
  22   4   0   -4.51  127.01   1
 -22  -4   0   52.39  121.14   1
 -26  22   0   43.04  108.16   1
  22   4   3 1440.91  423.45   1
 -22  -4  -3 1471.96  419.08   1
 -26  22   3  971.03  421.49   1
  26 -22  -3 1497.80  428.65   1
 -22  -4  -6  -10.79  105.53   1
  26 -22  -6 -189.72  147.34   1
 -22  -4  -9  130.01  155.35   1
  26 -22  -9  328.40  194.93   1
  22   5 -10    7.13   87.96   1
 -27  22 -10  140.57  128.70   1
  22   5  -7  422.48  167.19   1
 -27  22  -7  281.10  212.60   1
  22   5  -4 4361.30  951.18   1
 -27  22  -4 3500.40  997.29   1
  22   5  -1 7995.31 1859.63   1
 -22  -5   110376.02 1884.06   1
 -27  22  -1 6403.04 1876.08   1
  -5  27   1 8799.23 1887.66   1
  22   5   2 2097.11  479.47   1
 -22  -5  -2 1450.97  463.00   1
 -27  22   2 1236.16  470.92   1
  22   5   5 3257.34  678.24   1
 -22  -5  -5 2201.23  659.49   1
 -27  22   5 1769.42  651.86   1
  27 -22  -5 2717.02  669.00   1
 -22  -5  -8   -7.82  174.97   1
 -27  22   8  275.57  137.71   1
  27 -22  -8  348.54  213.17   1
  22   6  -8  111.00  102.03   1
 -28  22  -8  -66.20  147.04   1
  22   6  -5   17.97  105.93   1
 -28  22  -5  191.68  151.44   1
  22   6  -2  304.33  171.13   1
 -22  -6   2  197.19  147.83   1
 -28  22  -2  197.74  166.18   1
  -6  28   2  172.89  137.09   1
  22   6   1 1139.52  316.45   1
 -22  -6  -1  511.32  292.86   1
 -28  22   1  835.65  288.62   1
  22   6   4  709.35  239.73   1
 -28  22   4  193.45  235.61   1
  28 -22  -4  554.21  263.41   1
 -28  22   7    3.08  127.85   1
  28 -22  -7  321.81  190.60   1
 -22  -6 -10   87.39   99.10   1
  28 -22 -10   18.16  175.25   1
  22   7  -9  112.80   92.49   1
 -29  22  -9   13.55  144.46   1
  22   7  -6  145.15  140.24   1
 -29  22  -6  381.35  177.87   1
  22   7  -3 1521.90  346.34   1
 -29  22  -3 1079.76  375.00   1
  -7  29   3  694.24  349.24   1
  22   7   0  941.58  294.74   1
 -22  -7   0  749.69  303.67   1
 -29  22   0 1252.33  384.59   1
  22   7   3  118.62  199.10   1
 -22  -7  -3  -83.79  138.47   1
 -29  22   3   57.08  125.00   1
  29 -22  -3  302.17  147.93   1
 -22  -7  -6  220.17  151.51   1
 -29  22   6  162.20  155.05   1
  29 -22  -6  131.23  185.10   1
 -22  -7  -9   23.52   97.13   1
 -29  22   9    7.23   87.25   1
  29 -22  -9   87.42  172.23   1
  22   8  -7 3234.57  724.14   1
 -30  22  -7 2444.62  748.42   1
  22   8  -4 5512.61 1138.81   1
 -30  22  -4 3882.77 1167.00   1
  22   8  -1 5199.83  934.95   1
 -22  -8   1 3719.40  918.62   1
 -30  22  -1 2384.92  936.10   1
  22   8   2 2516.87  557.63   1
 -22  -8  -2 1709.77  552.72   1
 -30  22   2 1558.52  564.64   1
  30 -22  -2 2247.03  574.56   1
  22   8   5  -80.17  150.70   1
 -22  -8  -5 -101.13  118.67   1
 -30  22   5   29.80  101.55   1
  30 -22  -5  185.96  157.21   1
 -22  -8  -8   40.43  119.20   1
 -30  22   8   60.53  103.97   1
  30 -22  -8   62.41  160.04   1
  22   9  -8    8.92  115.12   1
 -31  22  -8  300.91  146.81   1
  22   9  -5 1680.38  434.22   1
 -31  22  -5 1350.58  468.42   1
 -31  22  -2  205.12  282.56   1
  22   9  -2  411.02  176.15   1
  -9  31   2  315.54  177.14   1
  -9  31   2  141.90  152.89   1
  22   9   1  436.20  227.97   1
 -22  -9  -1  423.64  198.72   1
 -31  22   1  362.48  219.94   1
  22   9   4  793.15  264.58   1
 -22  -9  -4  241.05  204.89   1
 -31  22   4  582.70  234.96   1
  31 -22  -4  613.57  260.01   1
 -22  -9  -7   18.12  147.73   1
 -31  22   7  219.64  145.12   1
  31 -22  -7  373.20  200.17   1
  22  10  -9   30.59   73.80   1
 -32  22  -9   11.16  123.42   1
  22  10  -6  152.38  118.58   1
 -32  22  -6 -123.28  143.38   1
  22  10  -3   -9.59   95.88   1
 -32  22  -3  187.04   97.93   1
 -10  32   3 -102.61   64.69   1
  22  10   0  142.17  126.66   1
 -22 -10   0  135.42  137.49   1
 -32  22   0  216.48  164.37   1
 -22 -10  -3  493.94  193.35   1
 -32  22   3  292.82  179.19   1
  32 -22  -3  406.83  193.74   1
 -22 -10  -6  116.26  119.01   1
  32 -22  -6   92.49  185.24   1
 -22 -10  -9   16.27  102.13   1
 -32  22   9   59.15   89.40   1
  22  11  -7  570.46  212.13   1
 -33  22  -7  442.08  238.47   1
  22  11  -4  470.77  169.62   1
 -33  22  -4  220.91  165.31   1
  22  11  -1 1039.55  290.22   1
 -33  22  -1  569.80  286.05   1
 -11  33   1  663.88  293.75   1
  22  11   2 3511.32  632.14   1
 -22 -11  -2 2392.06  602.97   1
 -33  22   2 1347.35  597.62   1
  33 -22  -2 2023.92  614.77   1
  22  11   5 1912.20  510.14   1
 -22 -11  -5 1198.28  478.85   1
 -33  22   5 1716.62  508.78   1
  33 -22  -5 2729.62  522.58   1
 -22 -11  -8  105.40  127.69   1
 -33  22   8  329.18  139.06   1
  33 -22  -8  218.75  211.82   1
  22  12  -8   48.41   91.43   1
 -34  22  -8   51.00  118.03   1
  22  12  -5   42.49  104.22   1
 -34  22  -5 -112.68   88.18   1
  22  12  -2  417.27  184.10   1
 -34  22  -2  461.27  218.25   1
 -12  34   2  203.11  208.91   1
  22  12   1 1497.44  354.06   1
 -34  22   1  511.73  326.53   1
  22  12   4 1358.08  361.79   1
 -22 -12  -4  697.45  306.94   1
 -34  22   4  693.38  302.77   1
  34 -22  -4 1578.15  350.02   1
 -22 -12  -7  178.51  139.64   1
 -34  22   7  215.38  147.56   1
  34 -22  -7  208.21  208.28   1
  22  13  -6  150.14  118.13   1
 -35  22  -6  -27.55  105.05   1
  22  13  -3   14.59  107.54   1
 -35  22  -3  -25.33  151.83   1
 -13  35   3   64.01   82.94   1
 -13  35   3  147.14   90.28   1
  22  13   0 -101.11   57.36   1
 -35  22   0  164.99  117.30   1
 -13  35   0  262.71  137.56   1
  22  13   3  129.02  186.41   1
 -35  22   3 -179.65  104.46   1
  35 -22  -3  179.55  121.96   1
 -22 -13  -6   20.10  107.88   1
 -35  22   6  122.13   95.33   1
  35 -22  -6  -62.11  168.35   1
  22  14  -4 1442.90  313.05   1
 -36  22  -4  274.41  334.26   1
 -36  22  -1  739.28  308.86   1
 -14  36   1 1052.98  312.63   1
  22  14   2 2933.51  634.32   1
 -36  22   2 1392.01  602.95   1
  36 -22  -2 2675.09  621.68   1
  22  14   5  732.82  303.73   1
 -36  22   5  435.75  283.31   1
  36 -22  -5 1193.26  324.96   1
  22  15  -5   85.26  116.50   1
 -37  22  -5   76.85  139.74   1
  22  15  -2    7.87  107.14   1
 -37  22  -2  -88.87  102.66   1
 -15  37   2   12.35  112.10   1
  22  15   1  213.05  169.46   1
 -37  22   1  -24.83  134.21   1
 -15  37  -1   20.96  140.91   1
  22  15   4   47.44  148.27   1
 -37  22   4  193.03  118.75   1
  37 -22  -4  -93.07  174.63   1
  22  16  -3  253.95  129.53   1
 -38  22  -3  208.42  146.53   1
 -16  38   3   17.05  125.99   1
  22  16   0  186.52  127.77   1
 -38  22   0  126.75  147.07   1
 -16  38   0   35.91  131.12   1
  22  16   3   43.17  181.02   1
 -38  22   3   18.19  126.79   1
  38 -22  -3   24.45  143.80   1
 -16  38  -3   71.91  132.71   1
  22  17  -4 1206.90  261.47   1
 -39  22  -4  213.11  261.79   1
  22  17  -1 1306.19  267.73   1
 -39  22  -1  373.04  271.73   1
 -17  39   1  438.42  279.47   1
  22  17   2  618.68  233.78   1
 -39  22   2  167.59  172.97   1
  39 -22  -2  275.61  204.17   1
 -17  39  -2  286.23  206.01   1
  22  18  -2  147.14  133.33   1
 -40  22  -2  150.59  139.52   1
 -18  40   2   12.87  104.97   1
  22  18   1  468.35  201.88   1
 -40  22   1  109.27  138.53   1
 -18  40  -1  113.28  150.10   1
  23   1 -11  -16.15   97.67   1
 -24  23 -11   -2.43  113.72   1
  23   1  -8  457.69  168.32   1
 -24  23  -8  236.20  208.96   1
  23   1  -5  838.31  295.35   1
 -23  -1   5  856.91  302.20   1
 -24  23  -5 1009.58  333.51   1
  23   1  -2 1707.96  427.24   1
 -23  -1   2 1613.32  436.00   1
 -24  23  -2 1272.71  453.33   1
  -1  24   2 1257.16  422.28   1
  23   1   1  697.43  256.39   1
 -23  -1  -1  593.41  252.41   1
 -24  23   1  414.32  234.46   1
  -1  24  -1  602.80  237.15   1
  23   1   4  160.42  153.61   1
 -23  -1  -4   89.93  132.58   1
 -24  23   4   45.20  139.65   1
 -23  -1  -7   45.39  118.77   1
  24 -23  -7   50.40  157.23   1
 -23  -1 -10  162.21  151.36   1
  24 -23 -10  121.08  190.75   1
  -1  24 -10  210.58  120.36   1
  23   2  -9  548.39  233.14   1
 -25  23  -9  622.42  252.30   1
  23   2  -6  504.93  229.40   1
 -25  23  -6  728.73  264.57   1
  23   2  -3  292.05  161.12   1
 -23  -2   3  -15.36  136.47   1
 -25  23  -3  420.91  178.19   1
  -2  25   3   70.21  106.46   1
  23   2   0  941.78  252.41   1
 -23  -2   0  569.84  233.02   1
 -25  23   0  277.73  213.91   1
  -2  25   0  543.09  215.73   1
  23   2   3  161.08  219.37   1
 -23  -2  -3  602.74  189.93   1
 -25  23   3  151.06  199.42   1
  25 -23  -6 2647.67  689.18   1
 -23  -2  -9  114.63  157.20   1
  25 -23  -9  156.13  183.67   1
  -2  25  -9  266.17  130.22   1
  23   3 -10    6.33   95.28   1
 -26  23 -10   39.51  145.01   1
  23   3  -7  773.84  266.37   1
 -26  23  -7  790.01  299.35   1
  23   3  -4 2300.27  592.41   1
 -23  -3   4 2356.61  601.02   1
 -26  23  -4 2170.73  626.90   1
  23   3  -1 4550.25 1055.04   1
 -23  -3   1 4808.89 1080.66   1
 -26  23  -1 4049.73 1093.95   1
  -3  26   1 4496.64 1070.84   1
  23   3   2 4071.63  747.37   1
 -23  -3  -2 2112.75  728.05   1
 -26  23   2 2400.78  735.20   1
  23   3   5 4631.09  854.16   1
 -23  -3  -5 2678.69  804.53   1
 -26  23   5 2597.75  802.76   1
  26 -23  -5 3803.84  818.38   1
 -26  23   8  405.11  180.91   1
  26 -23  -8  421.86  227.77   1
  23   4  -8  199.48  168.04   1
 -27  23  -8  379.72  189.25   1
  23   4  -5  142.19  113.66   1
 -27  23  -5   27.85  158.78   1
  23   4  -2 2178.46  514.56   1
 -23  -4   2 1726.90  493.21   1
 -27  23  -2 1821.78  530.24   1
  -4  27   2 1499.53  505.69   1
  23   4   1  117.64  146.97   1
 -23  -4  -1  -82.83  117.88   1
 -27  23   1   41.60  149.29   1
  23   4   4  310.43  161.18   1
 -23  -4  -4    7.29  161.39   1
 -27  23   4   41.72  147.58   1
  27 -23  -4  161.83  193.99   1
 -23  -4  -7   30.28  121.79   1
 -27  23   7  -46.12  118.55   1
  27 -23  -7  111.92  162.82   1
 -23  -4 -10  115.39  113.56   1
  27 -23 -10   27.53  191.08   1
  23   5  -9   62.68  122.68   1
 -28  23  -9  171.35  147.81   1
  23   5  -6  378.48  182.24   1
 -28  23  -6  467.06  223.11   1
  23   5  -3 1263.63  358.02   1
 -23  -5   3 1008.86  355.97   1
 -28  23  -3 1170.77  385.63   1
  23   5   0  929.48  292.80   1
 -23  -5   0  974.78  292.28   1
 -28  23   0  477.41  301.97   1
  -5  28   0  855.95  300.06   1
  23   5   3 1079.95  346.27   1
 -23  -5  -3  695.02  321.09   1
  28 -23  -3  850.16  328.14   1
 -23  -5  -6  330.57  154.08   1
 -28  23   6   73.04  159.04   1
  28 -23  -6  106.84  179.73   1
 -23  -5  -9 -105.27   92.64   1
 -28  23   9  118.62   78.61   1
  28 -23  -9  -70.34  151.82   1
 -29  23 -10   43.86  132.10   1
  23   6  -7   32.05  144.26   1
 -29  23  -7  339.91  171.02   1
  23   6  -4   -0.20   92.07   1
 -29  23  -4   28.83  142.98   1
  23   6  -1   27.83   88.68   1
 -23  -6   1   73.70   96.59   1
 -29  23  -1  -11.92  103.97   1
  -6  29   1  -12.53   85.97   1
  23   6   2  978.75  312.75   1
 -23  -6  -2  526.07  273.53   1
 -29  23   2  484.85  273.72   1
  23   6   5   29.45  162.05   1
 -23  -6  -5   48.30  130.70   1
 -29  23   5   73.93  110.99   1
  29 -23  -5    9.36  169.39   1
 -23  -6  -8   81.86  119.78   1
 -29  23   8  -35.27   96.26   1
  29 -23  -8  193.96  180.29   1
  23   7  -8  626.82  201.46   1
 -30  23  -8  198.15  219.22   1
  23   7  -5  961.11  293.49   1
 -30  23  -5  774.84  325.67   1
  23   7  -2 1540.12  265.98   1
 -23  -7   2  684.77  210.04   1
 -30  23  -2  298.64  205.67   1
  -7  30   2  342.32  222.44   1
  -7  30   2  227.75  191.64   1
  23   7   1 1663.20  317.44   1
 -23  -7  -1  420.38  245.77   1
 -30  23   1  437.38  286.32   1
  23   7   4  594.80  240.47   1
 -23  -7  -4  506.12  225.56   1
 -30  23   4  394.04  236.99   1
  30 -23  -4  598.32  267.18   1
 -30  23   7  -21.84  133.75   1
  30 -23  -7  280.46  182.19   1
  23   8  -9  428.77  164.54   1
 -31  23  -9  154.99  188.57   1
  23   8  -6 4332.46  937.80   1
 -31  23  -6 3233.95  966.08   1
 -31  23  -3 1704.05  473.36   1
  23   8  -3 2224.62  361.71   1
  -8  31   3  806.18  352.61   1
  -8  31   3  359.29  341.21   1
  23   8   0 2228.46  461.59   1
 -23  -8   0 1258.10  442.82   1
 -31  23   0 1603.68  490.98   1
  23   8   3   88.21  205.04   1
 -23  -8  -3  160.58  148.76   1
 -31  23   3  155.40  152.39   1
  31 -23  -3  445.49  175.51   1
 -23  -8  -6   50.14  118.77   1
 -31  23   6  173.38  118.76   1
  31 -23  -6  -86.16  147.73   1
 -31  23   9  -15.90   79.11   1
  31 -23  -9    0.98  155.36   1
  23   9  -7  471.37  194.69   1
 -32  23  -7  294.26  224.24   1
  23   9  -4   13.07   96.75   1
 -32  23  -4   57.49  113.66   1
  23   9  -1  159.63  103.76   1
 -23  -9   1   17.34  104.77   1
 -32  23  -1  -19.04  163.55   1
  -9  32   1  -12.29  116.84   1
  23   9   2  -30.17  191.57   1
 -23  -9  -2   26.46  111.47   1
 -32  23   2  125.41  126.09   1
 -32  23   5 -178.59   56.04   1
  32 -23  -5  -66.35  131.59   1
 -23  -9  -8  -67.75  102.74   1
 -32  23   8  -54.76   81.63   1
  32 -23  -8  167.38  150.41   1
  23  10  -8   28.29   97.67   1
 -33  23  -8  -29.63  119.03   1
  23  10  -5   46.61  150.70   1
 -33  23  -5  308.67  147.62   1
  23  10  -2   51.43  133.07   1
 -33  23  -2  197.95  146.02   1
 -10  33   2  -27.26  134.04   1
 -10  33   2  158.51  102.17   1
  23  10   1  233.03  197.39   1
 -23 -10  -1  208.91  140.66   1
 -33  23   1  -25.70  149.91   1
  23  10   4  907.63  281.20   1
 -23 -10  -4  367.09  218.49   1
 -33  23   4  454.05  244.27   1
  33 -23  -4  867.15  272.39   1
 -23 -10  -7   80.84  118.67   1
 -33  23   7  -37.60  117.04   1
  33 -23  -7  268.50  170.15   1
  23  11  -6  192.02  167.34   1
 -34  23  -6  387.66  169.94   1
  23  11  -3  137.47  103.00   1
 -34  23  -3  112.43  116.67   1
 -11  34   3  -38.49   66.96   1
  23  11   0   26.89  120.90   1
 -34  23   0  -60.62  123.55   1
 -11  34   0  -14.23  130.22   1
  23  11   3 1155.02  308.57   1
 -23 -11  -3  537.26  233.00   1
 -34  23   3  365.21  251.44   1
  34 -23  -3  763.66  266.83   1
 -23 -11  -6  -43.21   79.59   1
 -34  23   6  -96.51  102.37   1
  34 -23  -6  106.01  137.73   1
  23  12  -7  193.32  136.05   1
 -35  23  -7  151.90  132.41   1
  23  12  -4  109.57  155.67   1
 -35  23  -4  344.66  160.37   1
  23  12  -1  202.07  159.45   1
 -35  23  -1  323.87  172.98   1
 -12  35   1  177.39  168.53   1
  23  12   2  765.42  306.09   1
 -23 -12  -2  791.15  261.54   1
 -35  23   2  526.65  255.54   1
  35 -23  -2  667.19  280.27   1
  23  12   5  611.38  212.98   1
 -23 -12  -5  208.02  176.33   1
 -35  23   5  230.72  184.65   1
  35 -23  -5  678.43  253.30   1
  23  13  -5   56.55  135.61   1
 -36  23  -5  255.80  136.01   1
  23  13  -2  247.34  145.58   1
 -36  23  -2    9.47  139.90   1
 -13  36   2   98.27  127.74   1
  23  13   1  134.30  180.27   1
 -36  23   1  116.72  149.18   1
 -13  36  -1   -0.33  157.19   1
  23  13   4  149.51  186.28   1
 -36  23   4  199.33  149.00   1
  36 -23  -4  110.13  206.63   1
  23  14  -6   46.60  105.02   1
 -37  23  -6  -20.82   99.03   1
  23  14  -3  -65.74   98.31   1
 -37  23  -3   50.23  119.67   1
 -14  37   3   98.72   57.86   1
 -14  37   3    5.68   67.57   1
  23  14   0  203.85  143.58   1
 -37  23   0  170.13  163.82   1
 -14  37   0    8.80  149.11   1
  23  14   3  232.17  179.07   1
 -37  23   3   14.59  123.46   1
  37 -23  -3   66.41  164.97   1
 -37  23   6   12.42   88.27   1
  23  15  -4  192.29  129.22   1
 -38  23  -4   38.06  145.27   1
  23  15  -1  135.50  110.30   1
 -38  23  -1  -78.11  145.27   1
 -15  38   1  159.10  142.45   1
  23  15   2  -42.30  173.78   1
 -38  23   2  143.85  113.58   1
  38 -23  -2  251.55  163.67   1
 -15  38  -2  -11.78  132.16   1
  23  15   5 -101.34  157.35   1
 -38  23   5  -69.74  105.97   1
  38 -23  -5  147.03  164.27   1
  23  16  -2  281.06  136.68   1
 -39  23  -2   36.78  139.23   1
 -16  39   2   16.64  145.99   1
  23  16   1  150.88  169.52   1
 -39  23   1  106.22  142.23   1
 -16  39  -1  138.74  143.35   1
 -39  23   4 -118.51  190.07   1
  39 -23  -4 1295.51  231.65   1
 -16  39  -4   60.94  238.27   1
  23  17   0  391.28  184.04   1
 -40  23   0  239.41  169.51   1
 -17  40   0  208.77  181.89   1
  24   1 -10  -27.80  103.34   1
 -25  24 -10   32.35  125.34   1
  24   1  -7  533.56  200.32   1
 -25  24  -7  412.58  244.50   1
  24   1  -4 2412.49  533.34   1
 -24  -1   4 1688.78  522.03   1
 -25  24  -4 1683.41  550.64   1
  24   1  -1 2969.12  789.42   1
 -24  -1   1 3524.30  833.07   1
 -25  24  -1 3171.40  852.90   1
  -1  25   1 3933.11  827.77   1
  24   1   2 3520.94  780.04   1
 -24  -1  -2 2782.48  765.34   1
 -25  24   2 1619.83  756.12   1
  -1  25  -2 4290.42  765.79   1
 -24  -1  -5 2273.15  621.77   1
 -25  24   5 1610.29  599.75   1
  -1  25  -5 3096.43  604.18   1
 -24  -1  -8   16.63  117.37   1
 -25  24   8   -1.34   94.45   1
  25 -24  -8  -23.21  150.45   1
  -1  25  -8   79.45   82.01   1
  24   2  -8  298.91  172.60   1
 -26  24  -8  239.11  192.39   1
  24   2  -5 1094.11  291.84   1
 -24  -2   5  807.15  297.36   1
 -26  24  -5  699.19  326.12   1
  24   2  -2 3230.72  768.52   1
 -24  -2   2 3266.69  777.75   1
 -26  24  -2 3006.67  802.01   1
  -2  26   2 2895.49  774.40   1
  24   2   1  -44.18  156.32   1
 -24  -2  -1   35.41  121.48   1
 -26  24   1   87.27  143.38   1
  -2  26  -1  267.24  139.60   1
  24   2   4  420.88  203.75   1
 -24  -2  -4  425.06  187.37   1
 -26  24   4   48.72  187.45   1
 -26  24   7   11.91  121.73   1
  26 -24  -7   85.31  167.20   1
 -24  -2 -10  -38.73   91.66   1
  26 -24 -10 -153.53  139.77   1
  -2  26 -10  -20.46   51.29   1
  24   3  -9 1485.19  387.71   1
 -27  24  -9 1093.82  401.13   1
  24   3  -6 2298.86  569.74   1
 -27  24  -6 2018.49  600.36   1
  24   3  -3 5278.81  894.18   1
 -24  -3   3 4563.73  877.68   1
 -27  24  -3 3878.44  898.82   1
  -3  27   3 2925.50  879.65   1
  -3  27   3 1737.72  867.63   1
  24   3   0 1398.29  374.59   1
 -24  -3   0 1398.54  383.73   1
 -27  24   0  661.98  367.84   1
  -3  27   0 1452.03  365.29   1
  24   3   3 1537.99  387.91   1
 -24  -3  -3 1066.97  367.24   1
 -27  24   3  732.15  365.44   1
 -24  -3  -6 -101.70  138.25   1
 -27  24   6    0.59  119.49   1
  27 -24  -6  321.24  172.46   1
 -24  -3  -9   15.63  104.00   1
  -3  27  -9  -31.31   75.18   1
  24   4 -10  182.24  122.82   1
 -28  24 -10   23.25  142.05   1
  24   4  -7 1796.15  457.58   1
 -28  24  -7 1375.22  485.84   1
  24   4  -4 2613.81  598.27   1
 -24  -4   4 2343.27  603.70   1
 -28  24  -4 1850.21  619.60   1
  24   4  -1   39.61  111.50   1
 -24  -4   1  208.93  118.98   1
 -28  24  -1    5.84  122.49   1
  -4  28   1   36.39   97.77   1
  24   4   2  455.63  207.61   1
 -24  -4  -2  301.57  161.08   1
 -28  24   2   73.49  187.73   1
  24   4   5  121.07  151.85   1
 -24  -4  -5  -39.64  121.39   1
 -28  24   5 -101.32   92.55   1
  28 -24  -5  -61.15  162.20   1
 -24  -4  -8   39.71  114.64   1
 -28  24   8  -19.98   96.61   1
  24   5  -8 1067.96  361.85   1
 -29  24  -8  223.92  261.84   1
  24   5  -5  261.93  132.02   1
 -29  24  -5   64.01  161.55   1
  24   5  -2  617.47  238.81   1
 -24  -5   2  751.95  247.30   1
 -29  24  -2  620.03  260.39   1
  24   5   1  524.09  205.20   1
 -24  -5  -1  238.70  181.76   1
 -29  24   1  200.61  199.75   1
 -24  -5  -4  212.46  193.70   1
 -29  24   4   73.51  184.09   1
  29 -24  -4  525.29  208.50   1
 -24  -5  -7   42.52  111.30   1
 -29  24   7   11.49   98.60   1
  29 -24  -7 -132.13  155.88   1
  24   6  -9  435.28  162.92   1
 -30  24  -9   85.55  184.68   1
  24   6  -6 1331.19  303.41   1
 -30  24  -6  455.41  323.66   1
  24   6  -3  105.06  109.93   1
 -24  -6   3  -68.50   91.16   1
 -30  24  -3  -63.90  127.57   1
  24   6   0   65.99  143.93   1
 -24  -6   0   41.21  110.17   1
 -30  24   0  184.97  164.65   1
  -6  30   0  148.56  136.52   1
  24   6   3 2063.89  454.37   1
 -24  -6  -3 1151.74  434.25   1
 -30  24   3 1092.43  424.35   1
 -24  -6  -6  440.14  266.85   1
 -30  24   6  606.09  236.92   1
  30 -24  -6  869.65  284.62   1
 -24  -6  -9   59.07  111.05   1
 -30  24   9  178.32  117.07   1
  30 -24  -9  111.62  162.96   1
 -31  24  -7   49.95  368.17   1
  24   7  -7 -130.77   90.16   1
  24   7  -4   35.12   96.20   1
 -31  24  -4   53.36  139.47   1
  24   7  -1   82.82   94.23   1
 -24  -7   1   57.35   94.88   1
 -31  24  -1  -93.23  124.10   1
  -7  31   1  113.11   93.82   1
  24   7   2  832.84  303.89   1
 -24  -7  -2  758.42  252.55   1
 -31  24   2  367.55  266.97   1
  24   7   5  213.95  157.47   1
 -24  -7  -5   58.48  132.14   1
 -31  24   5  -90.90  102.49   1
  31 -24  -5   -1.68  152.82   1
 -24  -7  -8   49.58  116.06   1
 -31  24   8  -57.44   90.69   1
  31 -24  -8  262.28  155.19   1
  24   8  -8  293.56  154.02   1
 -32  24  -8  186.47  171.92   1
  24   8  -5    5.14   83.85   1
 -32  24  -5   39.35  143.57   1
  24   8  -2   35.61   97.71   1
 -24  -8   2  -36.96   81.74   1
 -32  24  -2  -81.00   90.99   1
  -8  32   2   19.87   83.03   1
  -8  32   2  -60.23   57.00   1
  24   8   1  137.34  153.22   1
 -24  -8  -1 -193.70   79.06   1
 -32  24   1  -98.52  107.77   1
 -24  -8  -4  170.24  132.38   1
 -32  24   4   19.70  137.71   1
  32 -24  -4  116.00  178.74   1
 -24  -8  -7   27.52  122.36   1
 -32  24   7  128.82  115.53   1
  32 -24  -7   57.54  159.76   1
  24   9  -6  164.89  132.59   1
 -33  24  -6   57.31  154.62   1
  24   9  -3  750.39  206.65   1
 -33  24  -3  419.70  185.37   1
  -9  33   3  146.61  182.98   1
  24   9   0  536.40  209.56   1
 -24  -9   0  302.70  191.18   1
 -33  24   0  277.41  204.01   1
  24   9   3 1874.38  398.29   1
 -24  -9  -3  931.90  348.25   1
 -33  24   3  725.58  354.97   1
  33 -24  -3 1111.26  388.38   1
 -24  -9  -6  124.94  105.24   1
 -33  24   6   53.05  120.10   1
  33 -24  -6  -14.93  162.53   1
  24  10  -7  232.46  134.94   1
 -34  24  -7   60.64  153.78   1
  24  10  -4   61.85  121.27   1
 -34  24  -4   72.30  128.20   1
  24  10  -1  576.59  177.08   1
 -34  24  -1  231.06  200.18   1
 -10  34   1  193.78  209.80   1
  24  10   2  680.35  246.62   1
 -24 -10  -2  236.72  179.47   1
 -34  24   2  180.08  179.41   1
  24  10   5  286.52  177.73   1
 -24 -10  -5  135.18  145.54   1
 -34  24   5  176.47  152.30   1
  34 -24  -5  280.90  189.97   1
  24  11  -5  494.49  172.26   1
 -35  24  -5  181.15  164.74   1
  24  11  -2  449.66  148.28   1
 -35  24  -2   38.32  158.35   1
 -11  35   2   27.96  132.87   1
 -11  35   2   13.99  106.52   1
  24  11   1  266.53  202.53   1
 -24 -11  -1  218.07  155.19   1
 -35  24   1  154.63  161.19   1
  24  11   4  -64.40  131.81   1
 -24 -11  -4   -7.76   85.76   1
 -35  24   4  -45.23   79.37   1
  35 -24  -4   -2.06  144.39   1
 -24 -11  -7 -111.66   98.78   1
 -35  24   7  256.88  104.40   1
  35 -24  -7  -69.36  183.83   1
  24  12  -6  339.23  143.17   1
 -36  24  -6   79.12  132.82   1
  24  12  -3  225.98  126.64   1
 -36  24  -3 -114.91  149.33   1
 -12  36   3  122.67   77.61   1
 -12  36   3   43.33   76.90   1
  24  12   0  487.80  194.92   1
 -36  24   0  248.19  199.95   1
 -12  36   0  215.55  195.16   1
  24  12   3  -36.86  180.81   1
 -24 -12  -3   73.79  114.90   1
 -36  24   3    7.86  145.18   1
  36 -24  -3  160.84  203.23   1
 -24 -12  -6   55.99  108.10   1
 -36  24   6   28.97   86.65   1
  36 -24  -6  -31.15  187.51   1
  24  13  -4  281.11  129.93   1
 -37  24  -4  -61.39  153.53   1
  24  13  -1  536.76  185.11   1
 -37  24  -1  478.09  220.54   1
 -13  37   1  394.23  218.90   1
  24  13   2 1053.37  319.25   1
 -37  24   2  442.70  268.31   1
  24  13   5  580.89  273.39   1
 -37  24   5  430.33  251.15   1
  37 -24  -5  872.05  290.44   1
 -38  24  -5  103.71  145.05   1
  24  14  -2  -63.99  101.55   1
 -38  24  -2 -135.69   94.28   1
 -14  38   2 -129.22  103.96   1
 -14  38   2  117.67   87.80   1
  24  14   1  336.54  187.38   1
 -38  24   1   48.22  150.52   1
 -14  38  -1  126.48  154.72   1
 -38  24   4   80.61  153.88   1
  38 -24  -4  341.76  209.25   1
  24  15  -3    8.69   91.87   1
 -39  24  -3   89.36   92.38   1
 -15  39   3  -60.50   58.56   1
 -15  39   3  -95.19   41.64   1
  24  15   0   19.76  136.34   1
 -39  24   0   36.18  129.55   1
 -15  39   0  143.67  136.25   1
  24  15   3   49.01  163.37   1
 -39  24   3   17.23  117.03   1
  39 -24  -3  228.10  188.72   1
 -15  39  -3   66.18  143.33   1
  24  16  -1   72.14   77.59   1
 -40  24  -1 -219.92  107.42   1
 -16  40   1  -86.75  128.49   1
 -40  24   2  153.74  119.82   1
 -16  40  -2   75.03  147.54   1
  25   1  -9  110.86  121.38   1
 -26  25  -9    0.00  162.81   1
  25   1  -6  494.68  218.25   1
 -26  25  -6  664.62  253.86   1
  25   1  -3 1166.81  259.48   1
 -25  -1   3  612.21  252.00   1
 -26  25  -3  589.43  279.21   1
  -1  26   3  414.69  231.38   1
  25   1   0 4305.87  778.69   1
 -25  -1   0 2742.28  768.21   1
 -26  25   0 1897.98  733.38   1
  -1  26   0 4153.99  775.07   1
  25   1   3 4273.34  977.34   1
 -25  -1  -3 3327.47  968.60   1
 -26  25   3 2508.62  981.44   1
  -1  26  -3 5392.32  966.99   1
 -25  -1  -6  591.89  348.83   1
 -26  25   6  901.81  354.17   1
  -1  26  -6 1511.59  326.96   1
 -25  -1  -9   61.90  139.28   1
  26 -25  -9   67.82  172.69   1
  -1  26  -9  236.87  112.86   1
  25   2 -10  425.29  168.58   1
 -27  25 -10  188.25  186.57   1
  25   2  -7  -19.41   97.72   1
 -27  25  -7  189.97  131.73   1
 -25  -2   4  575.19  328.65   1
  25   2  -4  972.17  272.72   1
 -27  25  -4  503.05  289.19   1
  25   2  -1  104.86  146.87   1
 -25  -2   1  170.97  142.48   1
 -27  25  -1  208.20  163.30   1
  -2  27   1  113.17  121.52   1
  25   2   2 -149.06  154.64   1
 -25  -2  -2   31.82  114.05   1
 -27  25   2  247.06  139.71   1
  -2  27  -2  106.45  145.15   1
  25   2   5  551.08  255.35   1
 -25  -2  -5  344.56  229.72   1
 -27  25   5  391.67  220.05   1
  -2  27  -5  534.73  199.08   1
 -25  -2  -8  480.56  279.97   1
 -27  25   8  449.87  245.96   1
  27 -25  -8  933.47  316.45   1
  -2  27  -8 1115.93  252.53   1
  25   3  -8 2247.69  572.23   1
 -28  25  -8 1061.23  457.61   1
  25   3  -5 4620.69  978.02   1
 -28  25  -5 3336.51 1007.17   1
  25   3  -2 2875.97  655.82   1
 -25  -3   2 2507.04  663.32   1
 -28  25  -2 2397.94  699.01   1
  -3  28   2 2490.23  680.96   1
  25   3   1  934.64  307.14   1
 -25  -3  -1  862.47  297.57   1
 -28  25   1  566.40  323.12   1
  -3  28  -1  847.55  283.58   1
  25   3   4  -94.98  137.48   1
 -25  -3  -4  178.84  139.54   1
 -28  25   4   16.25  120.87   1
 -25  -3  -7  -41.94  143.12   1
 -28  25   7  126.91  121.34   1
  28 -25  -7  163.03  165.24   1
  25   4  -9  297.28  159.67   1
 -29  25  -9  220.46  179.94   1
  25   4  -6  154.13  135.01   1
 -29  25  -6  295.74  173.21   1
  25   4  -3  641.37  238.59   1
 -25  -4   3  334.32  221.32   1
 -29  25  -3  735.98  255.83   1
  25   4   0  422.90  211.61   1
 -25  -4   0  447.97  184.14   1
 -29  25   0  210.66  192.99   1
  -4  29   0  289.28  177.89   1
  25   4   3 1611.84  388.51   1
 -25  -4  -3 1165.91  373.92   1
 -29  25   3  610.18  361.27   1
 -25  -4  -6  248.04  173.70   1
  29 -25  -6  385.04  222.13   1
 -25  -4  -9  -24.90  128.22   1
 -29  25   9   70.44  114.53   1
  29 -25  -9  228.37  187.08   1
  -4  29  -9  300.38  109.43   1
  25   5  -7 3332.11  726.48   1
 -30  25  -7 2342.74  750.58   1
  25   5  -4 4509.13  907.96   1
 -30  25  -4 2646.43  932.65   1
  25   5  -1  891.93  243.75   1
 -25  -5   1  559.63  241.88   1
 -30  25  -1  570.12  243.43   1
  -5  30   1  563.69  238.86   1
 -25  -5  -2  510.84  195.00   1
 -30  25   2  189.91  213.67   1
  25   5   5  411.03  209.48   1
 -25  -5  -5  406.49  183.64   1
 -30  25   5   15.02  163.30   1
  30 -25  -5  232.80  217.06   1
 -25  -5  -8   50.89  118.09   1
 -30  25   8   32.69   93.22   1
  30 -25  -8  111.84  162.21   1
  25   6  -8 1488.14  377.02   1
 -31  25  -8  984.26  400.73   1
  25   6  -5 2055.88  486.15   1
 -31  25  -5 1426.53  521.67   1
  25   6  -2  187.35  128.38   1
 -25  -6   2  152.61  127.19   1
 -31  25  -2  177.37  129.96   1
  -6  31   2   97.64  128.69   1
  -6  31   2  142.32  119.04   1
  25   6   1  571.93  206.29   1
 -25  -6  -1   95.52  139.22   1
 -31  25   1  142.57  178.58   1
  25   6   4   41.28  159.05   1
 -25  -6  -4  229.08  158.79   1
 -25  -6  -7   24.40  124.22   1
 -31  25   7   56.43  109.42   1
  31 -25  -7  176.31  165.43   1
  25   7  -6 1229.74  352.27   1
 -32  25  -6 1092.22  387.68   1
 -32  25  -3  568.16  382.81   1
  25   7  -3 1291.23  354.06   1
  25   7   0  865.66  280.27   1
 -25  -7   0  678.96  252.17   1
 -32  25   0  547.65  285.96   1
  -7  32   0  686.48  260.21   1
  25   7   3  -86.21  159.45   1
 -25  -7  -3  121.41  117.36   1
 -32  25   3   91.56  114.41   1
 -25  -7  -6 -103.57  106.62   1
 -32  25   6   38.83   99.09   1
  32 -25  -6   44.77  147.67   1
 -33  25  -7 -226.61  354.92   1
  25   8  -7  192.76  116.42   1
  25   8  -4  780.07  235.01   1
 -33  25  -4  435.35  239.24   1
  25   8  -1  178.81  129.08   1
 -25  -8   1  236.83  131.79   1
 -33  25  -1  302.99  174.53   1
  -8  33   1  -14.96  169.19   1
  -8  33   1  165.11  139.87   1
  25   8   2 1982.67  414.18   1
 -25  -8  -2 1022.06  354.62   1
 -33  25   2  808.28  345.50   1
  25   8   5  106.35  162.25   1
 -25  -8  -5   33.84  119.89   1
 -33  25   5   16.78  108.15   1
  33 -25  -5  121.17  165.95   1
 -25  -8  -8   56.17  109.94   1
 -33  25   8   72.29   89.96   1
  33 -25  -8  -77.50  153.45   1
 -34  25  -5 1855.19  775.96   1
  25   9  -5 2465.52  589.46   1
  25   9  -2 1556.60  307.61   1
 -34  25  -2  842.61  326.25   1
  -9  34   2  514.74  282.55   1
  25   9   1 4668.54  796.38   1
 -25  -9  -1 2176.57  733.28   1
 -34  25   1 3288.54  832.74   1
 -25  -9  -4 1092.76  433.78   1
 -34  25   4 1143.01  443.96   1
  34 -25  -4 2500.01  473.43   1
 -25  -9  -7   67.22  149.48   1
 -34  25   7  293.51  138.86   1
  34 -25  -7  381.27  228.51   1
  25  10  -6   25.43   99.64   1
 -35  25  -6   39.02  106.73   1
  25  10  -3  131.92  136.80   1
 -35  25  -3   15.36  133.00   1
  25  10   0  467.23  226.78   1
 -25 -10   0  331.90  198.43   1
 -35  25   0  316.63  206.47   1
 -10  35   0  681.34  244.42   1
  25  10   3  765.80  255.91   1
 -25 -10  -3  441.78  186.76   1
 -35  25   3  240.00  211.96   1
 -25 -10  -6  146.16  141.39   1
  35 -25  -6  347.61  222.69   1
  25  11  -4   14.56  101.64   1
 -36  25  -4   -4.47  105.39   1
  25  11  -1 -140.99  108.90   1
 -36  25  -1  218.48  122.51   1
 -11  36   1   40.21  120.75   1
 -11  36   1  114.95  114.64   1
 -25 -11  -2  274.50  158.23   1
 -36  25   2  351.92  188.01   1
  25  11   5  806.57  281.62   1
 -25 -11  -5  482.79  262.07   1
 -36  25   5  385.67  270.20   1
  36 -25  -5 1271.71  317.22   1
  25  12  -5  309.97  139.35   1
 -37  25  -5   64.14  139.07   1
  25  12  -2  186.16  147.40   1
 -37  25  -2  212.81  143.59   1
 -12  37   2  202.06  122.20   1
 -12  37   2  -14.60  111.84   1
  25  12   1  245.27  176.44   1
 -37  25   1  177.27  164.10   1
 -12  37  -1   82.92  161.45   1
  25  12   4   23.62  125.45   1
 -25 -12  -4  -16.72  101.12   1
 -37  25   4  -19.63  108.10   1
  37 -25  -4   43.09  189.59   1
  25  13  -3   56.66  103.88   1
 -38  25  -3  -51.79  112.83   1
  25  13   0  262.63  177.57   1
 -38  25   0  248.03  169.61   1
 -13  38   0   53.55  173.31   1
  25  13   3  228.40  173.41   1
 -38  25   3   91.46  158.28   1
  25  14  -1   43.52  120.71   1
 -39  25  -1  105.12  143.85   1
 -14  39   1  126.44  137.36   1
  25  14   2  293.62  221.34   1
 -39  25   2  268.98  168.50   1
 -14  39  -2  148.02  165.04   1
  25  15   1  603.78  222.33   1
 -40  25   1   -0.77  165.45   1
 -15  40  -1  216.48  199.59   1
  26   1  -8 -145.78  108.43   1
 -27  26  -8  242.45  138.75   1
  26   1  -5   49.35  121.35   1
 -26  -1   5   93.35  104.61   1
 -27  26  -5    3.39  147.56   1
  26   1  -2   73.81  105.25   1
 -26  -1   2  144.89  116.61   1
 -27  26  -2  -19.20  151.53   1
  -1  27   2  -10.66   85.40   1
  26   1   1  102.64  156.37   1
 -26  -1  -1   14.34   98.43   1
 -27  26   1  -77.07  129.47   1
  -1  27  -1   54.45  116.36   1
  26   1   4 -208.40  156.09   1
 -26  -1  -4  183.05  165.76   1
  -1  27  -4  568.14  158.62   1
 -26  -1  -7   85.43  137.13   1
 -27  26   7   35.94  118.42   1
  -1  27  -7  129.35  101.61   1
  26   2  -9  714.95  242.14   1
 -28  26  -9  601.64  262.17   1
  26   2  -6 1550.86  403.55   1
 -28  26  -6 1205.10  438.86   1
  26   2  -3 3072.89  665.22   1
 -26  -2   3 1980.85  662.06   1
 -28  26  -3 2806.35  685.61   1
  26   2   0 1463.34  382.12   1
 -26  -2   0 1162.87  371.72   1
 -28  26   0  468.07  354.24   1
  -2  28   0 1632.40  359.75   1
  26   2   3 1676.81  430.03   1
 -26  -2  -3 1372.13  417.33   1
 -28  26   3  560.44  413.20   1
  -2  28  -3 1674.19  410.81   1
 -26  -2  -6  -55.87  140.42   1
 -28  26   6  257.47  144.55   1
  -2  28  -6  253.28  115.86   1
 -26  -2  -9    7.15  125.55   1
  28 -26  -9  206.97  199.21   1
  -2  28  -9   42.19   90.40   1
  26   3  -7  682.67  220.37   1
 -29  26  -7  338.65  250.65   1
  26   3  -4  638.64  233.07   1
 -26  -3   4  368.49  187.38   1
 -29  26  -4  300.09  213.16   1
  26   3  -1  -74.58  128.20   1
 -26  -3   1  -40.07  112.84   1
 -29  26  -1  120.86  115.65   1
  -3  29   1  221.23   94.60   1
  26   3   2  -41.10  124.52   1
 -26  -3  -2    2.54   72.26   1
 -29  26   2 -114.59  106.94   1
  -3  29  -2   26.43  115.95   1
  26   3   5  304.04  189.05   1
 -26  -3  -5  180.33  158.94   1
 -29  26   5    1.20  130.45   1
  -3  29  -5  231.69  152.92   1
 -26  -3  -8  -19.79  127.73   1
 -29  26   8  126.93   91.67   1
  29 -26  -8  -10.55  155.23   1
  -3  29  -8   20.78   88.09   1
  26   4  -8   19.87   96.95   1
 -30  26  -8   13.69  125.85   1
  26   4  -5  586.50  232.03   1
 -30  26  -5  615.29  250.69   1
  26   4  -2  405.37  157.58   1
 -26  -4   2  383.52  168.61   1
 -30  26  -2  171.23  184.08   1
  26   4   1  542.79  223.75   1
 -26  -4  -1  246.44  202.29   1
 -30  26   1  573.86  221.83   1
  -4  30  -1  345.00  213.00   1
  26   4   4   51.97  175.21   1
 -30  26   4   85.32  162.37   1
  -4  30  -4  469.28  171.15   1
 -26  -4  -7  -28.70  112.04   1
 -30  26   7  -16.21  100.23   1
  30 -26  -7  152.84  153.27   1
  -4  30  -7 -137.51   75.78   1
  26   5  -6  522.72  187.50   1
 -31  26  -6  217.55  209.36   1
  26   5  -3  157.37  141.62   1
 -26  -5   3  187.96  117.81   1
 -31  26  -3  100.78  157.51   1
  26   5   0  139.29  112.94   1
 -26  -5   0 -109.80   76.89   1
 -31  26   0 -206.09  123.11   1
  -5  31   0 -111.60   87.12   1
  26   5   3  128.65  178.42   1
 -26  -5  -3  199.39  151.37   1
 -31  26   3   19.09  130.79   1
 -26  -5  -6   38.76  110.18   1
 -31  26   6 -143.76   94.99   1
  31 -26  -6   -9.25  144.91   1
  26   6  -7  -56.77  292.92   1
 -32  26  -7 -169.21   83.18   1
  26   6  -4  381.92  166.62   1
 -32  26  -4  142.68  184.32   1
  26   6  -1   48.93  127.23   1
 -26  -6   1   49.10  108.16   1
 -32  26  -1  218.37  129.22   1
  -6  32   1   48.77   97.41   1
  26   6   2  814.47  250.62   1
 -26  -6  -2  238.51  176.71   1
 -32  26   2   64.26  167.74   1
  -6  32  -2  435.11  199.73   1
  26   6   5  144.71  154.17   1
 -32  26   5  -50.10   87.87   1
 -26  -6  -8  103.70  115.35   1
 -32  26   8  121.59   98.48   1
  32 -26  -8 -129.22  160.45   1
  26   7  -5  444.31  201.64   1
 -33  26  -5  430.31  225.37   1
  26   7  -2  -16.52   76.54   1
 -26  -7   2  -33.64   83.43   1
 -33  26  -2   -2.69   91.81   1
  -7  33   2   32.25   80.99   1
  -7  33   2  -10.06   61.82   1
  26   7   1  126.56  167.86   1
 -26  -7  -1  -33.54  104.91   1
 -33  26   1   36.52  129.93   1
  -7  33  -1    3.86  117.48   1
  26   7   4  176.34  130.54   1
 -26  -7  -4    6.02  108.53   1
 -33  26   4  -48.84  117.29   1
 -26  -7  -7  122.73  147.73   1
 -33  26   7  263.63  147.04   1
  33 -26  -7  244.29  175.04   1
  26   8  -6 -123.23   87.08   1
 -34  26  -6   60.82  107.27   1
  26   8  -3  172.78  124.54   1
 -34  26  -3   50.37  122.51   1
  26   8   0  -70.03  174.49   1
 -26  -8   0  149.15  120.61   1
 -34  26   0  -53.69  138.98   1
  -8  34   0  244.58  125.62   1
  26   8   3  100.99  178.63   1
 -26  -8  -3  134.13  116.85   1
 -34  26   3  120.02  118.40   1
 -26  -8  -6  109.11  114.99   1
 -34  26   6   11.34  104.80   1
  34 -26  -6   70.98  147.87   1
  26   9  -4   81.75  129.72   1
 -35  26  -4   17.98  104.99   1
  26   9  -1  196.33  132.29   1
 -26  -9   1  202.30  142.76   1
 -35  26  -1   33.09  145.04   1
  -9  35   1  -64.49  147.69   1
  -9  35   1   77.40  113.44   1
  26   9   2 -230.57  165.86   1
 -26  -9  -2   27.83   82.95   1
 -35  26   2   80.40   83.37   1
  26   9   5  -63.01  130.55   1
 -26  -9  -5  -29.64   74.43   1
 -35  26   5   18.72  105.98   1
  35 -26  -5   -9.81  189.45   1
  26  10  -5   58.27  115.20   1
 -36  26  -5   86.84  103.71   1
  26  10  -2  259.49  128.36   1
 -36  26  -2   57.42  152.71   1
 -10  36   2   30.66   98.34   1
  26  10   1  432.32  193.68   1
 -26 -10  -1  211.06  151.91   1
 -36  26   1  200.63  196.48   1
  26  10   4  413.75  182.71   1
 -26 -10  -4  185.39  153.03   1
 -36  26   4  224.29  157.07   1
  26  11  -3  157.44  142.30   1
 -37  26  -3  116.65  154.15   1
  26  11   0   71.67  156.77   1
 -37  26   0 -173.91  129.38   1
 -11  37   0  180.02  127.92   1
 -11  37   0   27.86  121.29   1
  26  11   3  299.51  195.76   1
 -26 -11  -3  201.72  150.48   1
 -37  26   3  163.21  169.42   1
  26  12  -4  -41.01   76.53   1
 -38  26  -4  -99.89  100.46   1
  26  12  -1   58.25  128.69   1
 -38  26  -1  129.25  118.37   1
 -12  38   1   37.11  127.03   1
 -12  38   1   -2.25  113.82   1
  26  12   2 -128.48  151.27   1
 -38  26   2  -80.01   89.77   1
  26  13  -2   21.51  108.75   1
 -39  26  -2   46.28  115.19   1
 -13  39   2   94.52  127.24   1
 -13  39   2  100.07   93.09   1
  26  13   1  171.99  189.82   1
 -39  26   1  141.42  155.02   1
 -13  39  -1  296.38  184.25   1
  26  14   0  -14.66  180.61   1
 -40  26   0 -166.56  118.68   1
 -14  40   0  140.68  111.40   1
  27   1  -7   51.51  114.36   1
 -28  27  -7   45.14  136.17   1
  27   1  -4 -116.96   94.34   1
 -27  -1   4   74.34   87.88   1
 -28  27  -4   32.91  127.05   1
  27   1  -1 2159.24  440.28   1
 -27  -1   1 1188.85  427.44   1
 -28  27  -1 1281.19  438.38   1
  -1  28   1 1235.49  406.63   1
  27   1   2 3047.40  579.11   1
 -27  -1  -2 1332.78  540.04   1
 -28  27   2 1583.68  547.63   1
  -1  28  -2 2650.67  539.85   1
 -27  -1  -5 1042.05  388.14   1
 -28  27   5 1074.43  362.66   1
  -1  28  -5 1500.93  372.40   1
 -27  -1  -8  206.83  231.91   1
 -28  27   8  322.68  217.10   1
  -1  28  -8  876.11  203.35   1
  27   2  -8  -11.11   91.54   1
 -29  27  -8  -17.19  118.07   1
  27   2  -5  335.42  152.88   1
 -27  -2   5  172.35  163.34   1
 -29  27  -5   92.19  170.59   1
  27   2  -2  102.12  136.38   1
 -27  -2   2  178.03  132.92   1
 -29  27  -2  246.05  176.55   1
  27   2   1  -80.01  138.84   1
 -29  27   1  -56.99  138.08   1
  -2  29  -1   69.80  106.22   1
  27   2   4 -150.65  120.91   1
 -27  -2  -4  223.48  128.21   1
 -29  27   4 -121.53  100.88   1
  -2  29  -4  137.11  120.02   1
 -27  -2  -7  112.21  162.72   1
 -29  27   7  201.54  153.40   1
  -2  29  -7  231.68  129.62   1
  27   3  -6  212.82  132.73   1
 -30  27  -6   24.74  153.06   1
  27   3  -3  636.49  229.62   1
 -27  -3   3  702.24  238.17   1
 -30  27  -3  533.52  273.42   1
  27   3   0 1466.71  352.71   1
 -27  -3   0  960.02  331.10   1
 -30  27   0  389.34  340.21   1
  -3  30   0 1301.84  347.58   1
  27   3   3  411.78  252.89   1
 -27  -3  -3  336.07  234.97   1
  -3  30  -3  692.03  225.36   1
 -27  -3  -6  153.32  131.09   1
 -30  27   6    8.72  109.65   1
  -3  30  -6   29.62  111.28   1
  27   4  -7   36.26   96.68   1
 -31  27  -7  -61.33  114.87   1
  27   4  -4  629.89  208.74   1
 -27  -4   4  398.48  194.81   1
 -31  27  -4  288.48  226.81   1
  27   4  -1  417.30  148.43   1
 -27  -4   1   77.47  116.44   1
 -31  27  -1   40.74  108.65   1
  -4  31   1  -52.01  109.69   1
  27   4   2 2113.76  451.03   1
 -27  -4  -2 1233.67  417.62   1
 -31  27   2  748.67  393.35   1
  -4  31  -2 1606.56  391.00   1
  27   4   5  814.46  261.64   1
 -27  -4  -5  495.47  232.19   1
 -31  27   5   94.52  198.65   1
  -4  31  -5  792.73  222.63   1
 -27  -4  -8   83.94  108.07   1
 -31  27   8   46.27  123.94   1
  31 -27  -8  125.63  208.28   1
  -4  31  -8  167.86   95.10   1
  27   5  -8  155.68  111.34   1
 -32  27  -8    3.78  131.70   1
  27   5  -5  383.99  182.32   1
 -32  27  -5  184.32  200.43   1
  27   5  -2   70.33   96.50   1
 -27  -5   2   40.42   96.23   1
 -32  27  -2  -38.67  100.66   1
  -5  32   2  201.36   99.58   1
  -5  32   2  -16.47   79.91   1
  27   5   1  -18.20  187.00   1
 -27  -5  -1  166.45  126.25   1
 -32  27   1  232.12  151.79   1
  -5  32  -1  182.32  131.64   1
  27   5   4  169.12  173.61   1
 -27  -5  -4  111.25  154.17   1
 -32  27   4  252.13  161.25   1
  -5  32  -4  354.26  162.71   1
 -27  -5  -7   26.02  142.36   1
 -32  27   7  125.91  129.16   1
  32 -27  -7  193.38  200.66   1
  -5  32  -7  366.18  136.37   1
  27   6  -6 1615.78  402.07   1
 -33  27  -6 1024.24  434.89   1
  27   6  -3 1597.46  373.04   1
 -33  27  -3  942.52  373.35   1
  27   6   0 1140.24  289.05   1
 -27  -6   0  552.77  244.29   1
 -33  27   0  518.30  273.00   1
  -6  33   0  502.17  239.66   1
  27   6   3  159.92  180.85   1
 -27  -6  -3  166.00  139.01   1
 -33  27   3  213.65  135.51   1
  -6  33  -3   29.79  146.69   1
 -27  -6  -6   94.44  122.14   1
 -33  27   6   56.45  121.26   1
  27   7  -7   39.36   90.89   1
 -34  27  -7  -42.83  116.18   1
  27   7  -4  117.76  159.94   1
 -34  27  -4  268.13  146.80   1
  27   7  -1  193.53  141.92   1
 -27  -7   1  -19.50  103.43   1
 -34  27  -1  145.67  147.64   1
  -7  34   1   27.46  118.88   1
  27   7   2  288.65  207.32   1
 -27  -7  -2  265.70  131.12   1
 -34  27   2  -21.76  139.04   1
  -7  34  -2  166.41  143.13   1
  27   7   5  -37.13  147.26   1
 -27  -7  -5  -61.19   97.03   1
 -34  27   5   74.62   78.34   1
  27   8  -5 -131.09  111.53   1
 -35  27  -5  159.68  104.87   1
  27   8  -2  207.52  130.87   1
 -35  27  -2   41.73  160.88   1
  -8  35   2  209.13  136.52   1
  -8  35   2  127.96  109.69   1
  27   8   1 2295.01  428.20   1
 -27  -8  -1 1066.27  389.08   1
 -35  27   1 1057.64  405.97   1
  -8  35  -1 1064.09  382.35   1
  27   8   4  717.75  249.49   1
 -27  -8  -4  493.46  200.31   1
 -35  27   4  487.61  230.45   1
  27   9  -3  119.80  137.48   1
 -36  27  -3  116.29  138.92   1
  27   9   0 -158.34  149.39   1
 -27  -9   0  -33.00  104.73   1
 -36  27   0  202.11  115.37   1
  -9  36   0  114.72  107.39   1
  27   9   3  138.58  154.49   1
 -27  -9  -3  -52.61   90.05   1
 -36  27   3   84.18  130.24   1
  27  10  -4   60.00  109.00   1
 -37  27  -4  -37.71  101.09   1
  27  10  -1   40.82  134.37   1
 -37  27  -1  102.20  117.77   1
 -10  37   1  149.55  141.71   1
 -10  37   1  -28.84  100.54   1
  27  10   2  -91.52  175.67   1
 -27 -10  -2   92.95   94.26   1
 -37  27   2   -7.19  118.28   1
  27  10   5  152.27  173.60   1
 -27 -10  -5   60.82  128.10   1
 -37  27   5  149.04  132.29   1
  27  11  -2  135.77  110.19   1
 -38  27  -2  122.64  126.22   1
 -11  38   2  -25.47  104.89   1
  27  11   1 1669.21  374.35   1
 -38  27   1  668.51  348.86   1
 -11  38  -1  867.41  383.11   1
  27  11   4  723.57  198.73   1
 -27 -11  -4  115.28  155.64   1
 -38  27   4  198.90  168.73   1
  27  12   0  144.20  196.14   1
 -39  27   0   12.62  146.96   1
 -12  39   0  111.62  158.24   1
 -12  39   0  177.06  126.94   1
  28   1  -6  122.98  144.95   1
 -29  28  -6  179.26  165.48   1
  28   1  -3  180.59  132.00   1
 -28  -1   3  266.77  135.63   1
 -29  28  -3  137.55  169.99   1
  28   1   0  511.74  211.77   1
 -28  -1   0  283.32  199.85   1
 -29  28   0  287.37  189.07   1
  -1  29   0  596.56  205.80   1
  28   1   3  809.34  236.45   1
 -28  -1  -3  346.30  211.93   1
 -29  28   3   34.88  200.36   1
  -1  29  -3  383.16  196.69   1
 -28  -1  -6  104.89  175.11   1
 -29  28   6  143.27  168.25   1
  -1  29  -6  432.17  155.61   1
  28   2  -7  133.80  127.17   1
 -30  28  -7   71.48  148.07   1
  28   2  -4   66.54   97.57   1
 -28  -2   4   33.31  100.63   1
 -30  28  -4   68.43  130.06   1
  28   2  -1 1140.80  309.19   1
 -28  -2   1  889.21  284.29   1
 -30  28  -1  553.08  280.02   1
  28   2   2  126.89  179.29   1
 -28  -2  -2  186.48  150.43   1
 -30  28   2   65.08  131.41   1
  -2  30  -2   82.79  122.72   1
 -28  -2  -5   -0.79  137.79   1
  -2  30  -5  141.72  122.59   1
 -28  -2  -8  -86.21  116.06   1
 -30  28   8   95.85  100.84   1
  -2  30  -8  139.24   90.45   1
  28   3  -8  116.97  130.78   1
 -31  28  -8  266.67  157.83   1
  28   3  -5  129.51  130.29   1
 -31  28  -5    2.30  137.75   1
  28   3  -2   69.42  102.54   1
 -28  -3   2 -139.19   77.59   1
 -31  28  -2   37.66  100.44   1
  -3  31   2  -38.77   57.74   1
  28   3   1  168.23  186.19   1
 -28  -3  -1  377.08  158.63   1
 -31  28   1  103.98  164.52   1
  -3  31  -1  254.71  165.13   1
  28   3   4  -35.48  110.62   1
 -28  -3  -4  -25.01  115.93   1
 -31  28   4  -60.93   99.29   1
  -3  31  -4  -12.74   98.28   1
 -28  -3  -7   24.45  139.67   1
 -31  28   7  164.39  129.70   1
  -3  31  -7  132.66  120.87   1
  28   4  -6  436.45  152.94   1
 -32  28  -6  -74.66  156.84   1
  28   4  -3  205.21  115.53   1
 -28  -4   3  211.65  125.05   1
 -32  28  -3   26.10  149.72   1
  28   4   0  415.90  203.89   1
 -28  -4   0  293.22  176.53   1
 -32  28   0  114.56  212.99   1
  -4  32   0  538.04  185.26   1
  28   4   3   57.70  144.57   1
 -28  -4  -3 -175.23  112.52   1
 -32  28   3   36.50   84.87   1
  -4  32  -3  -53.20   99.21   1
 -28  -4  -6   79.73  114.07   1
 -32  28   6    4.94   99.39   1
  -4  32  -6  -66.06  100.60   1
  28   5  -7 1018.77  301.14   1
 -33  28  -7  807.80  318.71   1
  28   5  -4 1707.59  411.88   1
 -33  28  -4  970.94  429.08   1
  28   5  -1 1165.01  287.29   1
 -28  -5   1  633.27  254.81   1
 -33  28  -1  610.15  277.26   1
  -5  33   1  594.08  261.87   1
  28   5   2  276.39  221.44   1
 -28  -5  -2  219.42  146.79   1
 -33  28   2   38.09  162.60   1
  -5  33  -2  499.61  170.09   1
  28   5   5  204.30  170.70   1
 -28  -5  -5  108.18  140.35   1
 -33  28   5   -5.33  117.43   1
  -5  33  -5  144.38  130.51   1
  28   6  -5  988.87  291.69   1
 -34  28  -5  596.71  298.25   1
  28   6  -2  533.72  189.08   1
 -28  -6   2  372.19  191.25   1
 -34  28  -2  457.22  208.32   1
  -6  34   2  336.61  204.84   1
  28   6   1  376.17  204.74   1
 -28  -6  -1   32.48  126.50   1
 -34  28   1  164.88  144.93   1
  -6  34  -1  113.44  129.17   1
  28   6   4  214.27  144.75   1
 -28  -6  -4  119.94  132.93   1
 -34  28   4  -18.09  115.64   1
  -6  34  -4  109.61  127.42   1
  28   7  -6  148.49  129.26   1
 -35  28  -6   99.73  143.66   1
  28   7  -3  282.95  129.57   1
 -35  28  -3   -6.90  130.37   1
  28   7   0  910.92  307.73   1
 -28  -7   0  724.05  263.39   1
 -35  28   0  526.33  276.54   1
  -7  35   0  860.73  277.45   1
  28   7   3  860.06  281.06   1
 -28  -7  -3  200.95  221.73   1
 -35  28   3  716.56  250.94   1
  -7  35  -3 1122.41  256.58   1
 -28  -7  -6   66.82  145.98   1
 -35  28   6  153.42  160.55   1
  -7  35  -6  470.57  148.71   1
  28   8  -4   16.42  110.79   1
 -36  28  -4   77.29   97.92   1
  28   8  -1 1092.57  282.53   1
 -28  -8   1  872.24  260.63   1
 -36  28  -1  222.78  271.73   1
  -8  36   1  487.54  279.60   1
  28   8   2 1606.19  335.29   1
 -28  -8  -2  454.43  256.67   1
 -36  28   2  645.81  294.07   1
  -8  36  -2  942.18  271.51   1
  28   8   5  588.36  201.03   1
 -28  -8  -5   91.70  127.63   1
 -36  28   5  192.23  144.93   1
  28   9  -2  388.61  149.96   1
 -37  28  -2  189.95  165.91   1
  -9  37   2    8.29  121.49   1
  28   9   1  868.16  272.26   1
 -28  -9  -1  432.63  221.76   1
 -37  28   1  402.46  242.32   1
  -9  37  -1  537.40  234.55   1
  28   9   4  347.51  162.45   1
 -28  -9  -4  146.02  147.24   1
 -37  28   4  221.67  167.87   1
  28  10  -3   80.92   89.55   1
 -38  28  -3 -138.50  118.16   1
  28  10   0  185.83  196.74   1
 -38  28   0   61.42  136.22   1
 -10  38   0  248.77  161.61   1
 -10  38   0  -25.33  108.71   1
  28  10   3  -81.80  147.82   1
 -28 -10  -3   95.43   93.82   1
 -38  28   3  -17.94  120.73   1
  28  11  -1   20.80  162.57   1
 -39  28  -1  110.86  125.73   1
 -11  39   1  222.79  137.59   1
 -11  39   1   71.92  115.88   1
  28  11   2   65.57  191.49   1
 -39  28   2   93.78  119.43   1
 -11  39  -2  -14.29  121.39   1
  29   1  -8  -36.52   94.88   1
 -30  29  -8   -7.52  109.84   1
  29   1  -5  145.79  116.38   1
 -29  -1   5  -60.55   89.38   1
 -30  29  -5  -51.50  127.07   1
  29   1  -2  -18.76  104.44   1
 -29  -1   2 -116.31   66.17   1
 -30  29  -2 -175.54  106.16   1
  29   1   1  311.98  158.18   1
 -29  -1  -1   -2.38  119.73   1
 -30  29   1    2.75  140.02   1
  -1  30  -1   90.89  127.44   1
  29   1   4  254.64  213.42   1
 -29  -1  -4  394.65  200.27   1
 -30  29   4  288.70  174.11   1
  -1  30  -4  496.86  182.69   1
 -29  -1  -7  204.10  156.08   1
 -30  29   7  235.05  165.21   1
  -1  30  -7  298.86  148.83   1
  29   2  -6 -175.11   88.61   1
 -31  29  -6  106.99   99.64   1
  29   2  -3  -24.94  113.64   1
 -29  -2   3   19.44   99.84   1
 -31  29  -3  334.67  143.88   1
  29   2   0 1228.96  287.29   1
 -29  -2   0  375.84  264.01   1
 -31  29   0  621.08  277.72   1
  -2  31   0  726.57  259.64   1
  29   2   3   17.26  163.82   1
 -29  -2  -3   -7.88  131.29   1
 -31  29   3  100.68   95.52   1
  -2  31  -3   23.43  112.95   1
 -29  -2  -6 -241.43  124.34   1
 -31  29   6   61.26  110.07   1
  -2  31  -6  216.68  106.37   1
  29   3  -7  135.11  131.37   1
 -32  29  -7  132.72  141.00   1
  29   3  -4   96.44  119.96   1
 -29  -3   4   48.22  108.57   1
 -32  29  -4  125.22  149.34   1
  29   3  -1   36.74  145.89   1
 -29  -3   1   97.46  110.78   1
 -32  29  -1  137.46  115.84   1
  -3  32   1  133.32  107.78   1
  29   3   2  256.15  198.29   1
 -29  -3  -2  295.53  160.05   1
 -32  29   2  156.57  141.20   1
  -3  32  -2   58.17  148.54   1
 -29  -3  -5   10.64  158.47   1
 -32  29   5   74.31  138.49   1
  -3  32  -5  401.07  144.62   1
  29   4  -5   46.24  117.74   1
 -33  29  -5   17.60  128.43   1
  29   4  -2  326.29  151.44   1
 -29  -4   2  217.16  136.45   1
 -33  29  -2  117.61  135.25   1
  -4  33   2  470.90  155.47   1
  -4  33   2   48.41  124.34   1
  29   4   1  186.06  193.68   1
 -29  -4  -1   53.56  110.69   1
 -33  29   1   64.76  128.86   1
  -4  33  -1   34.79  119.29   1
  29   4   4   44.38  144.76   1
 -29  -4  -4   31.58  125.62   1
 -33  29   4  128.06  126.14   1
  -4  33  -4  182.65  123.52   1
 -29  -4  -7   90.23  117.17   1
 -33  29   7  144.60  116.62   1
  -4  33  -7  -16.29  111.18   1
  29   5  -6  231.96  164.73   1
 -34  29  -6  108.45  150.92   1
  29   5  -3   27.89  113.71   1
 -29  -5   3  -52.42  102.86   1
 -34  29  -3  252.23  112.47   1
  29   5   0  480.94  220.53   1
 -29  -5   0  526.70  195.53   1
 -34  29   0  187.93  202.05   1
  -5  34   0  602.78  203.42   1
  29   5   3  825.95  258.43   1
 -29  -5  -3  612.85  231.85   1
 -34  29   3  388.71  227.77   1
  -5  34  -3  460.24  209.90   1
 -34  29   6  209.02  175.22   1
  -5  34  -6  601.03  186.25   1
  29   6  -4  149.86  111.78   1
 -35  29  -4  -22.84  109.70   1
  29   6  -1  514.11  217.96   1
 -29  -6   1  135.43  163.67   1
 -35  29  -1   78.60  179.91   1
  -6  35   1  121.76  136.56   1
  29   6   2  747.01  236.16   1
 -29  -6  -2  159.63  174.29   1
 -35  29   2  249.41  183.79   1
  -6  35  -2  422.05  188.67   1
  29   6   5  148.97  175.09   1
 -29  -6  -5  179.65  138.61   1
 -35  29   5   39.77  125.43   1
  -6  35  -5  189.97  127.61   1
  29   7  -5   60.61  100.96   1
 -36  29  -5  -70.78   87.27   1
  29   7  -2   99.25  122.44   1
 -36  29  -2 -149.63  123.28   1
  -7  36   2   15.85   66.40   1
  29   7   1  599.26  208.76   1
 -29  -7  -1  132.91  140.39   1
 -36  29   1  263.80  175.66   1
  -7  36  -1   45.98  138.85   1
  29   7   4   -6.02  112.07   1
 -29  -7  -4   -8.17   81.84   1
 -36  29   4 -109.24  124.38   1
  -7  36  -4  154.30  103.77   1
  29   8  -3  203.71  144.89   1
 -37  29  -3  322.61  166.87   1
  29   8   0 1383.62  301.64   1
 -29  -8   0  706.01  258.10   1
 -37  29   0  410.95  264.79   1
  -8  37   0  460.39  244.76   1
  29   8   3  534.19  217.01   1
 -29  -8  -3  369.69  173.68   1
 -37  29   3  233.42  194.04   1
  -8  37  -3  330.31  186.77   1
  29   9  -1  -52.53  147.03   1
 -38  29  -1  -87.47   92.64   1
  -9  38   1  -77.31  118.66   1
  -9  38   1   72.14   83.81   1
  29   9   2  113.65  187.32   1
 -29  -9  -2   -4.11  117.93   1
 -38  29   2   31.62  118.67   1
  -9  38  -2   99.71  119.52   1
  29  10   1   11.85  166.28   1
 -39  29   1   -2.88  118.58   1
 -10  39  -1   25.17   95.75   1
  30   1  -7   63.10  109.89   1
 -31  30  -7  -51.27  121.49   1
  30   1  -4   60.28  112.35   1
 -30  -1   4  117.42  102.48   1
 -31  30  -4   39.31  140.01   1
  30   1  -1   92.96  139.32   1
 -30  -1   1  -52.83  111.11   1
 -31  30  -1   18.70  109.39   1
  -1  31   1  294.22  117.95   1
  30   1   2  234.83  183.74   1
 -30  -1  -2   83.97  152.22   1
 -31  30   2   19.16  143.80   1
  -1  31  -2  242.15  150.06   1
 -30  -1  -5  176.79  154.39   1
  -1  31  -5  185.07  137.46   1
  30   2  -5   -1.22   95.92   1
 -32  30  -5   -0.27  118.02   1
  30   2  -2   32.85  148.00   1
 -30  -2   2  123.96  101.86   1
 -32  30  -2   42.20  113.82   1
  -2  32   2   62.82   84.68   1
  30   2   1  732.52  235.49   1
 -30  -2  -1  209.31  190.62   1
 -32  30   1   95.77  181.50   1
  -2  32  -1  312.01  186.98   1
  30   2   4  339.95  245.00   1
 -30  -2  -4  465.43  232.07   1
 -32  30   4  388.23  227.87   1
  -2  32  -4  718.69  199.37   1
 -30  -2  -7  179.70  167.39   1
 -32  30   7  169.95  153.46   1
  -2  32  -7  371.80  146.81   1
  30   3  -6   87.01  101.20   1
 -33  30  -6 -121.05  109.91   1
  30   3  -3  500.10  155.82   1
 -30  -3   3   38.66  137.53   1
 -33  30  -3   61.06  160.60   1
  30   3   0  887.32  273.45   1
 -30  -3   0  383.02  246.65   1
 -33  30   0  996.20  323.70   1
  -3  33   0  730.51  249.52   1
  30   3   3 1875.06  478.78   1
 -30  -3  -3 1597.65  491.46   1
 -33  30   3  860.06  487.54   1
  -3  33  -3 2440.08  481.38   1
 -30  -3  -6  536.49  288.92   1
 -33  30   6  552.42  307.86   1
  -3  33  -6 1315.66  272.69   1
  30   4  -4  296.68  158.59   1
 -34  30  -4  364.30  186.23   1
  30   4  -1  600.37  174.08   1
 -30  -4   1  158.54  137.06   1
 -34  30  -1   43.53  175.55   1
  -4  34   1   78.60  135.09   1
  30   4   2   74.25  174.27   1
 -30  -4  -2  227.69  121.67   1
 -34  30   2   -3.11  104.02   1
  -4  34  -2   80.32  125.57   1
 -30  -4  -5  270.01  158.63   1
 -34  30   5   74.04  125.91   1
  -4  34  -5  307.09  142.62   1
  30   5  -5 1053.42  260.08   1
 -35  30  -5  303.12  276.91   1
  30   5  -2 2001.20  310.72   1
 -30  -5   2  858.71  283.90   1
 -35  30  -2  319.99  294.28   1
  -5  35   2  857.61  299.15   1
  -5  35   2  422.25  276.13   1
  30   5   1 2078.34  465.85   1
 -30  -5  -1 1423.32  416.95   1
 -35  30   1 1053.54  432.38   1
  -5  35  -1 1322.08  403.53   1
  30   5   4  466.93  203.45   1
 -30  -5  -4  150.39  189.33   1
 -35  30   4  315.11  185.15   1
  -5  35  -4  521.88  178.12   1
  30   6  -3 1141.64  273.72   1
 -36  30  -3  444.88  277.88   1
  30   6   0 2666.16  490.37   1
 -30  -6   0 1630.37  459.98   1
 -36  30   0 1134.84  469.30   1
  -6  36   0 1313.31  453.85   1
  30   6   3 1316.79  330.27   1
 -30  -6  -3  822.36  300.18   1
 -36  30   3  624.86  311.80   1
  -6  36  -3  851.33  276.60   1
  30   7  -1  282.57  185.58   1
 -30  -7   1   29.67  127.80   1
 -37  30  -1  205.48  133.14   1
  -7  37   1   11.29  152.44   1
  -7  37   1   43.08  103.69   1
  30   7   2  -39.89  166.56   1
 -30  -7  -2  -81.58  113.89   1
 -37  30   2  165.41  109.41   1
  -7  37  -2  -42.37   85.76   1
  30   8  -2  500.20  174.99   1
 -38  30  -2  355.12  178.66   1
  -8  38   2  163.87  150.33   1
  -8  38   2   34.00  116.39   1
 -30  -8  -1  219.56  131.34   1
 -38  30   1  205.73  133.47   1
  -8  38  -1  -36.22  115.82   1
  31   1  -6  110.45  108.14   1
 -32  31  -6   36.80  128.68   1
  31   1  -3  -37.16  131.47   1
 -31  -1   3   66.93   84.24   1
 -32  31  -3  -17.61  136.33   1
  31   1   0  -59.45  121.63   1
 -31  -1   0   58.88   85.13   1
 -32  31   0  -62.67   90.75   1
  31   1   3  -17.56  123.35   1
 -31  -1  -3   49.03  122.21   1
 -32  31   3  -88.59   95.17   1
  -1  32  -3  118.02  110.19   1
 -31  -1  -6  146.36  134.70   1
 -32  31   6  103.85  116.84   1
  -1  32  -6  104.64  107.36   1
  31   2  -4  265.72  140.00   1
 -31  -2   4  179.67  130.79   1
 -33  31  -4  110.05  171.22   1
  31   2  -1  403.26  170.04   1
 -31  -2   1  307.81  142.93   1
 -33  31  -1  150.89  144.48   1
  -2  33   1   89.24  140.04   1
  31   2   2 1004.09  269.09   1
 -31  -2  -2  393.53  249.40   1
 -33  31   2  291.29  248.97   1
  -2  33  -2  731.47  233.86   1
 -31  -2  -5  425.84  228.32   1
 -33  31   5  181.37  198.97   1
  -2  33  -5  961.79  212.94   1
  31   3  -5  -56.13   72.04   1
 -34  31  -5   -7.78  110.38   1
  31   3  -2    3.00  123.00   1
 -31  -3   2  -65.91   77.25   1
 -34  31  -2  -42.29   92.90   1
  -3  34   2  158.83  124.28   1
  -3  34   2   -5.59   61.90   1
  31   3   1   84.71  225.84   1
 -31  -3  -1  295.87  149.52   1
 -34  31   1  241.22  161.65   1
  -3  34  -1  214.09  144.62   1
  31   3   4  119.55  137.28   1
 -31  -3  -4  -37.28  122.68   1
 -34  31   4   -8.91  109.32   1
  -3  34  -4   90.20  102.28   1
  31   4  -3  280.34  156.43   1
 -31  -4   3  256.94  139.16   1
 -35  31  -3   86.97  167.51   1
  31   4   0  306.87  213.25   1
 -31  -4   0  453.06  178.27   1
 -35  31   0  233.65  194.21   1
  -4  35   0  207.70  159.97   1
  31   4   3  167.70  161.34   1
 -31  -4  -3   23.51  124.89   1
 -35  31   3 -158.68  104.78   1
  -4  35  -3  -88.51   83.79   1
  31   5  -4  705.01  221.25   1
 -36  31  -4  506.33  225.99   1
  31   5  -1 3916.43  676.06   1
 -31  -5   1 2125.45  635.16   1
 -36  31  -1 1511.22  665.29   1
  31   5   2 2034.08  409.53   1
 -31  -5  -2 1104.21  372.24   1
 -36  31   2  690.16  360.71   1
  -5  36  -2 1394.47  377.37   1
  31   6  -2  348.09  184.31   1
 -31  -6   2  121.88  140.69   1
 -37  31  -2  145.36  160.90   1
  -6  37   2  100.52  106.85   1
  31   6   1  180.20  202.63   1
 -31  -6  -1   66.88  142.38   1
 -37  31   1  226.95  157.31   1
  -6  37  -1  157.94  143.76   1
  31   7   0  187.96  162.89   1
 -31  -7   0   17.95  121.01   1
 -38  31   0   56.41  126.62   1
  32   1  -5   36.95  108.80   1
 -33  32  -5  201.93  137.34   1
  32   1  -2  114.36  135.37   1
 -32  -1   2   80.25  105.07   1
 -33  32  -2  104.69  120.53   1
  -1  33   2   99.42   90.29   1
  32   1   1  -91.48  179.31   1
 -32  -1  -1  -61.14  153.76   1
 -33  32   1   95.80  105.00   1
  -1  33  -1  101.64   87.22   1
  32   1   4   77.09  149.52   1
 -32  -1  -4   48.85  127.90   1
 -33  32   4  -57.63   89.96   1
  -1  33  -4 -114.70   93.85   1
  32   2  -3   74.51  147.40   1
 -32  -2   3  114.18   93.59   1
 -34  32  -3   -4.43  114.56   1
  32   2   0  568.37  210.91   1
 -32  -2   0  222.36  165.06   1
 -34  32   0  116.90  193.90   1
  -2  34   0  184.74  162.06   1
  32   2   3  107.95  166.10   1
 -32  -2  -3   -6.91  155.75   1
 -34  32   3   20.38  106.12   1
  -2  34  -3  104.43  119.82   1
  32   3  -4  289.69  147.71   1
 -35  32  -4  138.06  154.59   1
  32   3  -1  935.64  250.42   1
 -32  -3   1  210.52  199.35   1
 -35  32  -1  602.65  246.35   1
  -3  35   1  423.58  196.28   1
  32   3   2  456.54  216.23   1
 -32  -3  -2  160.23  175.80   1
 -35  32   2   94.12  176.21   1
  -3  35  -2  267.00  147.76   1
  32   4  -2  -28.13  112.34   1
 -32  -4   2  -69.55   69.85   1
 -36  32  -2   59.01   97.49   1
  -4  36   2  -37.72   46.32   1
  32   4   1  198.00  197.75   1
 -32  -4  -1   31.57  127.57   1
 -36  32   1  302.56  150.39   1
  -4  36  -1  210.28  119.26   1
  32   5   0   -2.90  137.17   1
 -32  -5   0  -75.23  102.74   1
 -37  32   0  -66.36  100.99   1
  33   1  -4  174.40  121.61   1
 -33  -1   4  -69.27   79.90   1
 -34  33  -4  -42.82  127.17   1
  33   1  -1  204.16  125.34   1
 -33  -1   1   30.74   94.41   1
 -34  33  -1  -41.96  123.57   1
  -1  34   1   18.25  104.38   1
  33   1   2    6.67  184.96   1
 -33  -1  -2  273.15  149.91   1
 -34  33   2  125.63  124.80   1
  -1  34  -2  -47.36  121.04   1
  33   2  -2  681.27  208.20   1
 -33  -2   2  377.62  171.28   1
 -35  33  -2  177.52  186.07   1
  -2  35   2  551.44  204.31   1
  -2  35   2  297.73  157.16   1
  33   2   1  823.00  237.30   1
 -33  -2  -1  259.10  191.31   1
 -35  33   1  279.49  197.34   1
  -2  35  -1  231.88  177.08   1
  33   3   0  343.49  208.72   1
 -33  -3   0  475.96  179.79   1
 -36  33   0  205.37  176.47   1
  -3  36   0  348.02  195.54   1
  33   4  -1  128.97  185.05   1
 -33  -4   1  220.59  151.94   1
 -37  33  -1  442.78  179.40   1
  -4  37   1  147.38  140.91   1
  34   1  -3  -83.35   97.00   1
 -34  -1   3  -33.59   53.00   1
 -35  34  -3  -58.05   87.72   1
  34   1   0  242.81  177.37   1
 -34  -1   0   11.75  113.89   1
 -35  34   0   57.95  148.69   1
  -1  35   0   -7.65   98.46   1
  34   1   3   39.92  154.57   1
 -34  -1  -3 -123.24  140.45   1
 -35  34   3   50.20  111.32   1
  -1  35  -3  131.00   88.59   1
 -34  -2   1 -103.20   99.60   1
 -36  34  -1    7.31  122.80   1
  -2  36   1   25.99   82.76   1
   0   0   0
;
_shelx_hkl_checksum              11758
_shelx_fab_file
;
    0    0   12     -9.65      0.00
    0    0   15     -3.46      0.00
   -1    1   13     -1.20      0.00
   -1    1   10      3.16      0.00
    0    1   11     -4.23      0.00
    0    1   14     -2.24      0.00
   -2    2   14      4.33      0.00
   -2    2   11     -0.90      0.00
   -2    2    8      5.00      0.00
   -2    2    2     -1.77      0.00
    0    2   10     10.30      0.00
    0    2   13      1.02      0.00
   -3    3   15      8.24      0.00
   -3    3   12     -0.36      0.00
   -3    3    9     -6.19      0.00
   -3    3    6     29.25      0.00
   -3    3    3    -66.58      0.00
    0    3    3     28.59      0.00
    0    3    9     -5.72      0.00
    0    3   12      4.56      0.00
    0    3   15      8.35      0.00
   -4    4   13     -5.10      0.00
   -4    4   10     -3.67      0.00
   -4    4    7     -1.93      0.00
   -4    4    4     17.44      0.00
   -4    4    1    122.42      0.00
    0    4    2     59.05      0.00
    0    4    5      3.69      0.00
    0    4    8     -3.96      0.00
    0    4   11     -6.63      0.00
    0    4   14      0.62      0.00
   -5    5   14     -5.02      0.00
   -5    5   11     -3.61      0.00
   -5    5    8     -1.04      0.00
   -5    5    5    -24.17      0.00
    0    5    1     44.86      0.00
    0    5    4     25.51      0.00
    0    5    7     -0.56      0.00
    0    5   10     -6.72      0.00
    0    5   13     -0.95      0.00
   -6    6   12     -2.60      0.00
   -6    6    9     -7.17      0.00
   -6    6    6     -2.66      0.00
   -6    6    3      6.01      0.00
    0    6    0     24.16      0.00
    0    6    3     47.69      0.00
    0    6    6      7.65      0.00
    0    6    9      4.20      0.00
    0    6   12      0.19      0.00
   -7    7   13      1.51      0.00
   -7    7   10     -1.17      0.00
   -7    7    7      4.40      0.00
   -7    7    4    -37.46      0.00
   -7    7    1   -133.77      0.00
    0    7    2     49.13      0.00
    0    7    5     20.27      0.00
    0    7    8     14.16      0.00
    0    7   11      1.18      0.00
    0    7   14      6.94      0.00
   -8    8   14      1.89      0.00
   -8    8   11      2.22      0.00
   -8    8    8     -1.12      0.00
   -8    8    5     -5.32      0.00
   -8    8    2    -34.19      0.00
    0    8    1    -25.07      0.00
    0    8    4      7.26      0.00
    0    8    7      0.32      0.00
    0    8   10     -5.13      0.00
    0    8   13     -0.22      0.00
   -9    9   12     -0.30      0.00
   -9    9    9     -2.52      0.00
   -9    9    6     -2.85      0.00
   -9    9    3     50.80      0.00
    0    9    0      4.32      0.00
    0    9    3    -17.85      0.00
    0    9    6      5.25      0.00
    0    9    9    -14.30      0.00
    0    9   12     -2.17      0.00
  -10   10   13     -0.89      0.00
  -10   10   10     -1.55      0.00
  -10   10    7     -3.00      0.00
  -10   10    4     38.86      0.00
  -10   10    1     18.18      0.00
    0   10    2    -21.90      0.00
    0   10    5     10.14      0.00
    0   10    8     -4.35      0.00
    0   10   11      2.40      0.00
    0   10   14     -3.78      0.00
  -11   11   14     -2.13      0.00
  -11   11   11      5.42      0.00
  -11   11    8      2.42      0.00
  -11   11    5    -12.04      0.00
  -11   11    2    -23.21      0.00
    0   11    1     -0.88      0.00
    0   11    4      8.44      0.00
    0   11    7      7.15      0.00
    0   11   10      8.40      0.00
    0   11   13     -5.35      0.00
  -12   12   12      8.32      0.00
  -12   12    9      7.62      0.00
  -12   12    6      4.79      0.00
  -12   12    3    -45.36      0.00
    0   12    0    -13.73      0.00
    0   12    3      7.85      0.00
    0   12    6     -8.46      0.00
    0   12    9      8.05      0.00
    0   12   12     -3.45      0.00
  -13   13   13      0.12      0.00
  -13   13   10      3.31      0.00
  -13   13    7     12.92      0.00
  -13   13    4     -3.14      0.00
  -13   13    1      1.27      0.00
    0   13    2    -20.78      0.00
    0   13    5    -11.92      0.00
    0   13    8     -5.93      0.00
    0   13   11     -1.49      0.00
    0   13   14      5.45      0.00
  -14   14   11      5.82      0.00
  -14   14    8      6.73      0.00
  -14   14    5     10.24      0.00
  -14   14    2     30.63      0.00
    0   14    1    -23.45      0.00
    0   14    4    -11.11      0.00
    0   14    7     -7.31      0.00
    0   14   10     -4.07      0.00
    0   14   13      6.95      0.00
  -15   15   12     -3.03      0.00
  -15   15    9      3.26      0.00
  -15   15    6     -1.18      0.00
  -15   15    3     15.06      0.00
    0   15    0     -4.97      0.00
    0   15    3      1.25      0.00
    0   15    6      8.36      0.00
    0   15    9     -3.49      0.00
    0   15   12      4.25      0.00
  -16   16   13     -2.15      0.00
  -16   16   10     -5.23      0.00
  -16   16    7      3.81      0.00
  -16   16    4     -9.76      0.00
  -16   16    1     -6.25      0.00
    0   16    2      7.58      0.00
    0   16    5      3.27      0.00
    0   16    8      4.74      0.00
    0   16   11      1.03      0.00
  -17   17   11     -6.55      0.00
  -17   17    8      4.77      0.00
  -17   17    5      6.07      0.00
  -17   17    2     -7.08      0.00
    0   17    1    -13.20      0.00
    0   17    4     -1.88      0.00
    0   17    7      3.99      0.00
    0   17   10     -7.74      0.00
    0   17   13      2.12      0.00
  -18   18   12      0.24      0.00
  -18   18    9      2.10      0.00
  -18   18    6     14.19      0.00
  -18   18    3     13.23      0.00
    0   18    0    -20.53      0.00
    0   18    3    -18.24      0.00
    0   18    6      1.85      0.00
    0   18    9     -2.05      0.00
    0   18   12     -4.56      0.00
  -19   19   10      2.61      0.00
  -19   19    7      6.22      0.00
  -19   19    4     12.11      0.00
  -19   19    1     -3.89      0.00
    0   19    2     -9.05      0.00
    0   19    5     -3.18      0.00
    0   19    8      1.00      0.00
    0   19   11      1.35      0.00
  -20   20   11     -4.88      0.00
  -20   20    8      1.20      0.00
  -20   20    5     -2.12      0.00
  -20   20    2      2.80      0.00
    0   20    1     10.04      0.00
    0   20    4     -4.41      0.00
    0   20    7      7.34      0.00
    0   20   10     -0.86      0.00
  -21   21   12     -1.42      0.00
  -21   21    9     -6.61      0.00
  -21   21    6     -4.41      0.00
  -21   21    3      2.36      0.00
    0   21    0     12.00      0.00
    0   21    3     -0.16      0.00
    0   21    6      4.01      0.00
    0   21    9     -0.27      0.00
    0   21   12     -0.85      0.00
  -22   22   10     -4.84      0.00
  -22   22    7     -8.15      0.00
  -22   22    4      5.64      0.00
  -22   22    1      7.16      0.00
    0   22    2     -8.97      0.00
    0   22    5     -1.71      0.00
    0   22    8     -3.85      0.00
    0   22   11     -4.29      0.00
  -23   23   11     -1.79      0.00
  -23   23    8     -3.74      0.00
  -23   23    5      7.04      0.00
  -23   23    2      5.50      0.00
    0   23    1     -2.89      0.00
    0   23    4     -9.32      0.00
    0   23    7     -9.00      0.00
    0   23   10      0.85      0.00
  -24   24    9     -2.63      0.00
  -24   24    6      3.24      0.00
  -24   24    3     -0.09      0.00
    0   24    0     -1.23      0.00
    0   24    3      1.49      0.00
    0   24    6     -0.64      0.00
    0   24    9      3.59      0.00
  -25   25   10      3.34      0.00
  -25   25    7     -5.68      0.00
  -25   25    4      0.45      0.00
  -25   25    1     -0.66      0.00
    0   25    2     -1.34      0.00
    0   25    5      5.76      0.00
    0   25    8      6.25      0.00
  -26   26    8      3.01      0.00
  -26   26    5     -3.91      0.00
  -26   26    2     -1.15      0.00
    0   26    1      2.75      0.00
    0   26    4     -0.47      0.00
    0   26    7      5.53      0.00
    0   26   10      0.24      0.00
  -27   27    9      1.62      0.00
  -27   27    6      4.64      0.00
  -27   27    3      2.12      0.00
    0   27    0     -1.12      0.00
    0   27    3     -2.32      0.00
    0   27    6      0.83      0.00
    0   27    9      2.74      0.00
  -28   28    7     -1.06      0.00
  -28   28    4      5.14      0.00
  -28   28    1     -1.94      0.00
    0   28    2     -7.31      0.00
    0   28    5      2.64      0.00
    0   28    8      2.47      0.00
  -29   29    8      0.17      0.00
  -29   29    5      1.27      0.00
  -29   29    2      1.12      0.00
    0   29    1     -7.23      0.00
    0   29    4      1.69      0.00
    0   29    7      0.12      0.00
  -30   30    6     -0.21      0.00
  -30   30    3     -0.57      0.00
    0   30    0      3.37      0.00
    0   30    3      5.70      0.00
    0   30    6     -1.69      0.00
  -31   31    7      2.98      0.00
  -31   31    4      0.10      0.00
  -31   31    1      3.41      0.00
    0   31    2      5.64      0.00
    0   31    5     -3.75      0.00
  -32   32    5     -0.39      0.00
  -32   32    2     -0.85      0.00
    0   32    1      6.33      0.00
    0   32    4     -8.77      0.00
  -33   33    3     -3.14      0.00
    0   33    0     -2.10      0.00
    0   33    3     -3.02      0.00
  -34   34    4     -8.35      0.00
  -34   34    1     -1.07      0.00
    0   34    2      1.18      0.00
    0   35    1      3.82      0.00
   -1    2   15      1.94      0.00
   -1    2   12      1.46      0.00
   -1    2    9     -5.61      0.00
   -2    3   13      3.77      0.00
   -2    3   10      2.38      0.00
   -1    3    2      8.26      0.00
   -1    3    5      9.85      0.00
   -1    3    8     -8.19      0.00
   -1    3   11      5.86      0.00
   -1    3   14      2.54      0.00
   -3    4   14      4.07      0.00
   -3    4   11     -0.30      0.00
   -3    4    8      8.36      0.00
   -3    4    5    -10.49      0.00
   -3    4    2     84.16      0.00
   -1    4    1   -129.39      0.00
   -1    4    4     42.72      0.00
   -1    4    7    -18.86      0.00
   -1    4   10      2.68      0.00
   -1    4   13      2.57      0.00
   -4    5   15      1.27      0.00
   -4    5   12     -4.79      0.00
   -4    5    9     -0.31      0.00
   -4    5    6    -17.89      0.00
   -4    5    3     65.90      0.00
   -1    5    0    146.73      0.00
   -1    5    3    -28.08      0.00
   -1    5    6      4.36      0.00
   -1    5    9     -5.40      0.00
   -1    5   12      0.20      0.00
   -1    5   15     -3.51      0.00
   -5    6   13     -7.10      0.00
   -5    6    7     -7.85      0.00
   -5    6    4     26.13      0.00
   -5    6    1     55.75      0.00
   -1    6    2     23.96      0.00
   -1    6    5      3.75      0.00
   -1    6    8      8.30      0.00
   -1    6   11     -4.43      0.00
   -1    6   14      0.12      0.00
   -6    7   14     -3.04      0.00
   -6    7   11      0.10      0.00
   -6    7    8     -1.32      0.00
   -6    7    5    -12.90      0.00
   -6    7    2    -26.36      0.00
   -1    7    1    -32.56      0.00
   -1    7    4     23.99      0.00
   -1    7    7      1.57      0.00
   -1    7   10      2.95      0.00
   -1    7   13      0.43      0.00
   -7    8   12      0.75      0.00
   -7    8    9      6.09      0.00
   -7    8    6      6.27      0.00
   -7    8    3    -66.05      0.00
   -1    8    0    -36.55      0.00
   -1    8    3      7.57      0.00
   -1    8    6     -2.68      0.00
   -1    8    9      1.56      0.00
   -1    8   12      0.05      0.00
   -8    9   13      1.62      0.00
   -8    9   10     -5.07      0.00
   -8    9    7     -3.77      0.00
   -8    9    4      4.23      0.00
   -8    9    1     12.36      0.00
   -1    9    2    -27.89      0.00
   -1    9    5     -0.66      0.00
   -1    9    8     -3.35      0.00
   -1    9   11     -6.18      0.00
   -1    9   14      5.53      0.00
   -9   10   14     -0.93      0.00
   -9   10   11     -1.75      0.00
   -9   10    8     -6.32      0.00
   -9   10    5     13.14      0.00
   -9   10    2     57.78      0.00
   -1   10    1    -16.62      0.00
   -1   10    4    -14.36      0.00
   -1   10    7      1.02      0.00
   -1   10   10     -5.18      0.00
   -1   10   13     -1.59      0.00
  -10   11   12     -3.93      0.00
  -10   11    9      2.80      0.00
  -10   11    6      5.67      0.00
  -10   11    3     13.26      0.00
   -1   11    0    -10.33      0.00
   -1   11    3     12.18      0.00
   -1   11    6      4.09      0.00
   -1   11    9     -0.02      0.00
   -1   11   12     -1.99      0.00
  -11   12   13      0.99      0.00
  -11   12   10      2.08      0.00
  -11   12    7     10.51      0.00
  -11   12    4    -30.10      0.00
  -11   12    1    -22.17      0.00
   -1   12    2      7.34      0.00
   -1   12    5      1.47      0.00
   -1   12    8      6.05      0.00
   -1   12   11     -0.46      0.00
   -1   12   14     -0.59      0.00
  -12   13   14     -0.36      0.00
  -12   13   11      3.38      0.00
  -12   13    8      2.94      0.00
  -12   13    5     -8.20      0.00
  -12   13    2    -14.43      0.00
   -1   13    1      4.17      0.00
   -1   13    4     -9.31      0.00
   -1   13    7     -4.74      0.00
   -1   13   10     -4.27      0.00
   -1   13   13      2.93      0.00
  -13   14   12      3.59      0.00
  -13   14    9     -0.44      0.00
  -13   14    6      4.96      0.00
  -13   14    3     22.28      0.00
   -1   14    0     -3.23      0.00
   -1   14    3    -13.42      0.00
   -1   14    6     -5.06      0.00
   -1   14    9     -4.09      0.00
  -14   15   13     -4.79      0.00
  -14   15   10      3.55      0.00
  -14   15    7      0.94      0.00
  -14   15    4     18.68      0.00
  -14   15    1      9.72      0.00
   -1   15    2     -5.63      0.00
   -1   15    5      2.17      0.00
   -1   15    8     -4.80      0.00
   -1   15   11      7.08      0.00
  -15   16   11     -5.56      0.00
  -15   16    8     -0.02      0.00
  -15   16    5     -7.08      0.00
  -15   16    2      2.10      0.00
   -1   16    1      0.38      0.00
   -1   16    4      9.41      0.00
   -1   16    7      6.81      0.00
   -1   16   10     -1.04      0.00
   -1   16   13     -0.09      0.00
  -16   17   12      0.55      0.00
  -16   17    9     -5.37      0.00
  -16   17    6     -0.09      0.00
  -16   17    3     -6.44      0.00
   -1   17    0     -1.02      0.00
   -1   17    3      4.01      0.00
   -1   17    6      3.98      0.00
   -1   17    9      0.26      0.00
   -1   17   12     -3.26      0.00
  -17   18   13     -3.13      0.00
  -17   18   10     -2.89      0.00
  -17   18    7      5.54      0.00
  -17   18    4      7.54      0.00
  -17   18    1    -10.95      0.00
   -1   18    2     -4.69      0.00
   -1   18    5     -3.43      0.00
   -1   18    8     -1.13      0.00
   -1   18   11     -3.23      0.00
  -18   19   11     -0.80      0.00
  -18   19    8      9.25      0.00
  -18   19    5      9.39      0.00
  -18   19    2      0.49      0.00
   -1   19    1     -9.32      0.00
   -1   19    4     -6.05      0.00
   -1   19    7     -1.06      0.00
   -1   19   10     -2.75      0.00
  -19   20   12     -4.84      0.00
  -19   20    9      3.88      0.00
  -19   20    6     -1.44      0.00
  -19   20    3      2.77      0.00
   -1   20    0      3.12      0.00
   -1   20    3     -1.39      0.00
   -1   20    6      6.84      0.00
   -1   20    9      1.75      0.00
   -1   20   12     -1.54      0.00
  -20   21   10     -1.92      0.00
  -20   21    7     -6.31      0.00
  -20   21    4     -5.64      0.00
  -20   21    1      8.96      0.00
   -1   21    2      4.45      0.00
   -1   21    5      3.51      0.00
   -1   21    8      4.81      0.00
   -1   21   11     -0.54      0.00
  -21   22   11     -1.62      0.00
  -21   22    8     -7.62      0.00
  -21   22    5     -1.55      0.00
  -21   22    2      1.54      0.00
   -1   22    1      7.41      0.00
   -1   22    4     -1.56      0.00
   -1   22    7     -2.81      0.00
   -1   22   10     -4.67      0.00
  -22   23    9     -3.91      0.00
  -22   23    6      4.29      0.00
  -22   23    3      3.44      0.00
   -1   23    0     -2.34      0.00
   -1   23    3     -2.74      0.00
   -1   23    6     -4.13      0.00
   -1   23    9     -2.28      0.00
  -23   24   10     -0.66      0.00
  -23   24    7     -2.74      0.00
  -23   24    4      5.01      0.00
  -23   24    1      1.14      0.00
   -1   24    2     -6.90      0.00
   -1   24    5      1.26      0.00
   -1   24    8     -0.98      0.00
   -1   24   11      0.25      0.00
  -24   25    8     -1.65      0.00
  -24   25    5     -1.75      0.00
  -24   25    2      0.04      0.00
   -1   25    1      1.11      0.00
   -1   25    4      1.28      0.00
   -1   25    7      1.57      0.00
   -1   25   10      3.61      0.00
  -25   26    9     -0.39      0.00
  -25   26    6      0.37      0.00
  -25   26    3     -3.66      0.00
   -1   26    0      3.15      0.00
   -1   26    3      5.19      0.00
   -1   26    6      1.58      0.00
   -1   26    9      3.58      0.00
  -26   27    7      2.84      0.00
  -26   27    4      1.03      0.00
  -26   27    1     -1.08      0.00
   -1   27    2     -2.95      0.00
   -1   27    5     -0.63      0.00
   -1   27    8      8.46      0.00
  -27   28    8      4.57      0.00
  -27   28    5     -0.01      0.00
  -27   28    2      4.47      0.00
   -1   28    1     -4.15      0.00
   -1   28    4     -5.27      0.00
   -1   28    7      4.15      0.00
  -28   29    6      1.43      0.00
  -28   29    3      3.15      0.00
   -1   29    0     -3.68      0.00
   -1   29    3      1.44      0.00
   -1   29    6     -1.21      0.00
  -29   30    7     -2.93      0.00
  -29   30    4      4.43      0.00
  -29   30    1      0.83      0.00
   -1   30    2      1.99      0.00
   -1   30    5     -1.49      0.00
   -1   30    8      2.46      0.00
  -30   31    5      0.81      0.00
  -30   31    2     -0.22      0.00
   -1   31    1      6.72      0.00
   -1   31    4     -2.76      0.00
   -1   31    7      0.97      0.00
  -31   32    6      2.50      0.00
  -31   32    3      0.94      0.00
   -1   32    0      6.72      0.00
   -1   32    3      1.01      0.00
   -1   32    6     -6.15      0.00
  -32   33    4     -2.90      0.00
  -32   33    1      0.79      0.00
   -1   33    2      0.69      0.00
   -1   33    5     -5.25      0.00
  -33   34    2     -0.32      0.00
   -1   34    1     -1.13      0.00
   -1   34    4     -4.66      0.00
  -34   35    3     -1.37      0.00
   -1   35    0     -0.04      0.00
   -1   35    3      3.74      0.00
   -2    3    4     20.36      0.00
   -2    3    7     -4.38      0.00
   -2    4   15      2.52      0.00
   -2    4   12      4.53      0.00
   -2    4    9     -1.34      0.00
   -2    4    6     -0.59      0.00
   -2    4    3    -33.98      0.00
   -3    5   13     -0.53      0.00
   -3    5   10      5.78      0.00
   -3    5    7    -12.47      0.00
   -3    5    4     12.16      0.00
   -2    5    2    -24.93      0.00
   -2    5    5    -19.79      0.00
   -2    5    8      4.96      0.00
   -2    5   11     -0.12      0.00
   -2    5   14     -1.90      0.00
   -4    6   14     -5.61      0.00
   -4    6   11      3.63      0.00
   -4    6    8      8.20      0.00
   -2    6    1    -92.23      0.00
   -2    6    4    -14.63      0.00
   -2    6    7     -3.04      0.00
   -2    6   10     -0.47      0.00
   -2    6   13      3.45      0.00
   -5    7   12     -5.33      0.00
   -5    7    9      1.85      0.00
   -5    7    6     -1.68      0.00
   -5    7    3     13.23      0.00
   -2    7    0      4.25      0.00
   -2    7    3    -45.94      0.00
   -2    7    6     -5.28      0.00
   -2    7    9      1.14      0.00
   -2    7   12      2.30      0.00
   -6    8   13     -2.00      0.00
   -6    8   10     -1.18      0.00
   -6    8    7      3.58      0.00
   -6    8    4    -21.37      0.00
   -6    8    1    -37.70      0.00
   -2    8    2     -8.68      0.00
   -2    8    5    -13.73      0.00
   -2    8    8      6.19      0.00
   -2    8   11     -0.14      0.00
   -2    8   14      6.13      0.00
   -7    9   14      2.43      0.00
   -7    9   11     -1.18      0.00
   -7    9    8      0.14      0.00
   -7    9    5     -9.46      0.00
   -7    9    2     -4.09      0.00
   -2    9    1      3.03      0.00
   -2    9    4    -26.26      0.00
   -2    9    7     -2.04      0.00
   -2    9   10     -4.92      0.00
   -2    9   13      3.13      0.00
   -8   10   12     -3.00      0.00
   -8   10    9      2.97      0.00
   -8   10    6     -6.15      0.00
   -8   10    3     17.15      0.00
   -2   10    0     22.25      0.00
   -2   10    3    -17.90      0.00
   -2   10    6     -4.88      0.00
   -2   10    9     -6.44      0.00
   -2   10   12      2.16      0.00
   -9   11   13     -3.60      0.00
   -9   11   10     -5.36      0.00
   -9   11    7      9.66      0.00
   -9   11    4     14.31      0.00
   -9   11    1     16.30      0.00
   -2   11    2    -15.80      0.00
   -2   11    5     -3.91      0.00
   -2   11    8     -4.30      0.00
   -2   11   11      2.45      0.00
   -2   11   14      0.69      0.00
  -10   12   14     -0.78      0.00
  -10   12   11     -6.19      0.00
  -10   12    8      0.80      0.00
  -10   12    5      5.64      0.00
  -10   12    2    -20.34      0.00
   -2   12    1     11.71      0.00
   -2   12    4     -3.30      0.00
   -2   12    7     -0.33      0.00
   -2   12   10      2.36      0.00
   -2   12   13     -2.91      0.00
  -11   13   12     -1.17      0.00
  -11   13    9     -1.38      0.00
  -11   13    6      3.61      0.00
  -11   13    3    -22.61      0.00
   -2   13    0      8.00      0.00
   -2   13    3     10.33      0.00
   -2   13    6     -3.72      0.00
   -2   13    9      0.48      0.00
   -2   13   12     -4.98      0.00
  -12   14   13     -0.90      0.00
  -12   14   10     -6.02      0.00
  -12   14    7     -4.92      0.00
  -12   14    4      4.08      0.00
  -12   14    1     11.32      0.00
   -2   14    2      5.51      0.00
   -2   14    5     -0.29      0.00
   -2   14    8      0.73      0.00
   -2   14   11     -4.95      0.00
   -2   14   14      2.00      0.00
  -13   15   11     -2.34      0.00
  -13   15    8     -3.91      0.00
  -13   15    5      4.37      0.00
  -13   15    2     20.43      0.00
   -2   15    1      0.62      0.00
   -2   15    4     -0.57      0.00
   -2   15    7      1.40      0.00
   -2   15   10      1.16      0.00
   -2   15   13     -0.83      0.00
  -14   16   12     -1.31      0.00
  -14   16    9     -4.10      0.00
  -14   16    6     -2.78      0.00
  -14   16    3      5.84      0.00
   -2   16    0      3.66      0.00
   -2   16    3      6.04      0.00
   -2   16    6      4.85      0.00
   -2   16    9      6.84      0.00
   -2   16   12     -2.16      0.00
  -15   17   13     -0.89      0.00
  -15   17   10     -0.75      0.00
  -15   17    7     -7.70      0.00
  -15   17    4     -4.57      0.00
  -15   17    1     -3.76      0.00
   -2   17    2     15.47      0.00
   -2   17    5     -1.69      0.00
   -2   17    8      5.94      0.00
   -2   17   11     -1.00      0.00
  -16   18   11     -2.16      0.00
  -16   18    8     -0.96      0.00
  -16   18    5     -4.55      0.00
  -16   18    2     -1.58      0.00
   -2   18    1      7.61      0.00
   -2   18    4      2.88      0.00
   -2   18    7      0.60      0.00
   -2   18   10     -9.39      0.00
   -2   18   13      3.15      0.00
  -17   19   12      3.59      0.00
  -17   19    9      1.77      0.00
  -17   19    6     -0.78      0.00
  -17   19    3      3.73      0.00
   -2   19    0      2.41      0.00
   -2   19    3     -0.71      0.00
   -2   19    6      2.28      0.00
   -2   19    9     -4.63      0.00
   -2   19   12     -1.61      0.00
  -18   20   10      2.77      0.00
  -18   20    7      1.14      0.00
  -18   20    4     -3.65      0.00
  -18   20    1      1.41      0.00
   -2   20    2      4.52      0.00
   -2   20    5      4.29      0.00
   -2   20    8     -0.62      0.00
   -2   20   11      2.23      0.00
  -19   21   11     -0.84      0.00
  -19   21    8      0.98      0.00
  -19   21    5     -8.95      0.00
  -19   21    2     -3.82      0.00
   -2   21    1      6.18      0.00
   -2   21    4      5.52      0.00
   -2   21    7      4.47      0.00
   -2   21   10     -1.99      0.00
  -20   22   12     -0.27      0.00
  -20   22    9     -2.83      0.00
  -20   22    6     -4.28      0.00
  -20   22    3     -4.32      0.00
   -2   22    0      0.33      0.00
   -2   22    3      7.76      0.00
   -2   22    6      3.32      0.00
   -2   22    9     -2.74      0.00
   -2   22   12     -1.62      0.00
  -21   23   10     -1.77      0.00
  -21   23    7     -2.49      0.00
  -21   23    4     -2.47      0.00
  -21   23    1     -2.90      0.00
   -2   23    2      0.25      0.00
   -2   23    5      2.72      0.00
   -2   23    8     -3.88      0.00
   -2   23   11     -3.34      0.00
  -22   24   11      0.35      0.00
  -22   24    8      0.79      0.00
  -22   24    5      1.67      0.00
  -22   24    2     -2.30      0.00
   -2   24    1      2.16      0.00
   -2   24    4     -1.50      0.00
   -2   24    7     -3.86      0.00
   -2   24   10     -0.82      0.00
  -23   25    9      2.72      0.00
  -23   25    6     -1.36      0.00
  -23   25    3      0.25      0.00
   -2   25    0     -2.53      0.00
   -2   25    3      4.68      0.00
   -2   25    6      4.14      0.00
   -2   25    9     -0.80      0.00
  -24   26   10      2.95      0.00
  -24   26    7     -3.53      0.00
  -24   26    4      0.60      0.00
  -24   26    1      0.28      0.00
   -2   26    2     -1.28      0.00
   -2   26    5      3.85      0.00
   -2   26    8      1.88      0.00
  -25   27    8      2.62      0.00
  -25   27    5     -4.24      0.00
  -25   27    2      0.12      0.00
   -2   27    1      4.14      0.00
   -2   27    4     -4.56      0.00
   -2   27    7      2.58      0.00
   -2   27   10     -0.00      0.00
  -26   28    9     -0.50      0.00
  -26   28    6      5.04      0.00
  -26   28    3     -2.07      0.00
   -2   28    0      4.39      0.00
   -2   28    3     -3.63      0.00
   -2   28    6     -0.38      0.00
   -2   28    9      1.97      0.00
  -27   29    7     -1.07      0.00
  -27   29    4      3.34      0.00
  -27   29    1      1.42      0.00
   -2   29    2     -1.30      0.00
   -2   29    5     -1.61      0.00
   -2   29    8      3.80      0.00
  -28   30    8     -0.74      0.00
  -28   30    5      2.22      0.00
  -28   30    2      4.95      0.00
   -2   30    1     -0.48      0.00
   -2   30    4     -3.32      0.00
   -2   30    7     -0.79      0.00
  -29   31    6      0.76      0.00
  -29   31    3      3.32      0.00
   -2   31    0      4.48      0.00
   -2   31    3      4.68      0.00
   -2   31    6     -6.90      0.00
  -30   32    7      1.83      0.00
  -30   32    4      1.25      0.00
  -30   32    1      2.84      0.00
   -2   32    2      4.44      0.00
   -2   32    5     -3.86      0.00
  -31   33    5      1.24      0.00
  -31   33    2      0.23      0.00
   -2   33    1      4.14      0.00
   -2   33    4     -2.45      0.00
  -32   34    3      3.73      0.00
   -2   34    0     -2.38      0.00
   -2   34    3      2.64      0.00
  -33   35    1      2.43      0.00
   -2   35    2      0.96      0.00
   -2   36    1      0.03      0.00
   -3    6   12      2.87      0.00
   -3    6    9      7.63      0.00
   -3    6    6    -20.12      0.00
   -3    6    3    -37.27      0.00
   -3    6    0      9.85      0.00
   -3    6   15    -10.29      0.00
   -4    7   13     -2.16      0.00
   -4    7   10      7.81      0.00
   -4    7    7      0.21      0.00
   -4    7    4      5.57      0.00
   -4    7    1    -19.36      0.00
   -3    7    2    -51.13      0.00
   -3    7    8      7.51      0.00
   -3    7   14     -0.70      0.00
   -5    8   14      0.45      0.00
   -5    8   11     -2.21      0.00
   -5    8    8     -5.48      0.00
   -5    8    5      3.86      0.00
   -5    8    2     26.68      0.00
   -3    8    1    -26.17      0.00
   -3    8    4    -13.39      0.00
   -3    8   10      1.61      0.00
   -3    8   13      0.54      0.00
   -6    9   12     -6.91      0.00
   -6    9    9     -2.32      0.00
   -6    9    6      2.83      0.00
   -6    9    3    -16.91      0.00
   -3    9    0     40.06      0.00
   -3    9    3      8.54      0.00
   -3    9    6     -5.34      0.00
   -3    9    9     -2.24      0.00
   -3    9   12      1.83      0.00
   -7   10   13     -1.64      0.00
   -7   10   10     -0.41      0.00
   -7   10    7     -3.81      0.00
   -7   10    4     -9.41      0.00
   -7   10    1     12.30      0.00
   -3   10    2     27.76      0.00
   -3   10    5     -8.65      0.00
   -3   10    8      1.73      0.00
   -3   10   11      0.19      0.00
   -3   10   14      1.23      0.00
   -8   11   14      2.01      0.00
   -8   11   11      5.72      0.00
   -8   11    8      8.25      0.00
   -8   11    5     -7.01      0.00
   -8   11    2     -1.39      0.00
   -3   11    1      6.20      0.00
   -3   11    4    -17.64      0.00
   -3   11    7     -0.29      0.00
   -3   11   10      3.51      0.00
   -3   11   13      2.60      0.00
   -9   12   12     -2.38      0.00
   -9   12    9      0.83      0.00
   -9   12    6      9.70      0.00
   -9   12    3     -8.03      0.00
   -3   12    0    -10.28      0.00
   -3   12    3     -4.30      0.00
   -3   12    6     -4.87      0.00
   -3   12    9     -0.61      0.00
   -3   12   12      4.22      0.00
  -10   13   13     -2.44      0.00
  -10   13   10     -8.10      0.00
  -10   13    7      2.10      0.00
  -10   13    4      1.44      0.00
  -10   13    1     -9.21      0.00
   -3   13    2      1.06      0.00
   -3   13    5      1.63      0.00
   -3   13    8     -3.26      0.00
   -3   13   11      2.15      0.00
   -3   13   14     -0.79      0.00
  -11   14   14      0.84      0.00
  -11   14   11     -5.62      0.00
  -11   14    8     -2.29      0.00
  -11   14    5     -1.67      0.00
  -11   14    2     -0.15      0.00
   -3   14    1     19.08      0.00
   -3   14    4      3.22      0.00
   -3   14    7      3.69      0.00
   -3   14   10     -5.39      0.00
  -12   15   12      4.49      0.00
  -12   15    9     -0.38      0.00
  -12   15    6    -10.08      0.00
  -12   15    3      4.75      0.00
   -3   15    0      6.09      0.00
   -3   15    3      6.14      0.00
   -3   15    6      6.70      0.00
   -3   15    9      3.77      0.00
   -3   15   12     -5.62      0.00
  -13   16   13      1.45      0.00
  -13   16   10     -1.07      0.00
  -13   16    7     -3.37      0.00
  -13   16    4      2.73      0.00
  -13   16    1     -6.30      0.00
   -3   16    2      3.90      0.00
   -3   16    5      1.42      0.00
   -3   16    8      3.79      0.00
   -3   16   11      4.34      0.00
  -14   17   11     -3.84      0.00
  -14   17    8     -3.80      0.00
  -14   17    5      6.29      0.00
  -14   17    2    -11.19      0.00
   -3   17    1     -0.77      0.00
   -3   17    4     -1.03      0.00
   -3   17    7      0.63      0.00
   -3   17   10      3.50      0.00
  -15   18   12      2.94      0.00
  -15   18    9      3.08      0.00
  -15   18    6     -3.03      0.00
  -15   18    3     -1.86      0.00
   -3   18    0      8.54      0.00
   -3   18    3     -2.46      0.00
   -3   18    6     -1.82      0.00
   -3   18    9     -1.35      0.00
   -3   18   12     -1.12      0.00
  -16   19   13      1.51      0.00
  -16   19   10      4.84      0.00
  -16   19    7     -4.15      0.00
  -16   19    4     -5.17      0.00
  -16   19    1      8.01      0.00
   -3   19    2      6.68      0.00
   -3   19    5      1.46      0.00
   -3   19    8     -3.45      0.00
   -3   19   11     -2.28      0.00
  -17   20   11      0.96      0.00
  -17   20    8      0.58      0.00
  -17   20    5     -2.85      0.00
  -17   20    2      2.38      0.00
   -3   20    1      3.49      0.00
   -3   20    4      8.14      0.00
   -3   20    7     -1.94      0.00
   -3   20   10     -2.25      0.00
  -18   21   12      1.00      0.00
  -18   21    9     -1.69      0.00
  -18   21    6      0.13      0.00
  -18   21    3     -2.19      0.00
   -3   21    0     -2.19      0.00
   -3   21    3      4.42      0.00
   -3   21    6      4.53      0.00
   -3   21    9      0.60      0.00
   -3   21   12      0.42      0.00
  -19   22   10      1.06      0.00
  -19   22    7      0.34      0.00
  -19   22    4     -5.77      0.00
  -19   22    1     -3.49      0.00
   -3   22    2     -3.28      0.00
   -3   22    5      0.88      0.00
   -3   22    8      1.93      0.00
   -3   22   11     -0.11      0.00
  -20   23   11      0.04      0.00
  -20   23    8     -2.65      0.00
  -20   23    5     -2.67      0.00
  -20   23    2     -6.54      0.00
   -3   23    1     -0.46      0.00
   -3   23    4      1.09      0.00
   -3   23    7     -3.28      0.00
   -3   23   10     -1.98      0.00
  -21   24    9     -1.54      0.00
  -21   24    6      0.77      0.00
  -21   24    3     -3.54      0.00
   -3   24    0     -4.43      0.00
   -3   24    3      6.36      0.00
   -3   24    6     -0.26      0.00
   -3   24    9     -1.03      0.00
  -22   25   10      2.47      0.00
  -22   25    7     -3.63      0.00
  -22   25    4      1.87      0.00
  -22   25    1     -1.59      0.00
   -3   25    2      0.92      0.00
   -3   25    5      3.25      0.00
   -3   25    8     -1.69      0.00
   -3   25   11      0.81      0.00
  -23   26    8      3.91      0.00
  -23   26    5     -2.75      0.00
  -23   26    2      1.47      0.00
   -3   26    1     -0.03      0.00
   -3   26    4     -2.41      0.00
   -3   26    7      0.22      0.00
   -3   26   10     -0.36      0.00
  -24   27    9      0.11      0.00
  -24   27    6      0.43      0.00
  -24   27    3     -3.48      0.00
   -3   27    0      3.26      0.00
   -3   27    3     -0.81      0.00
   -3   27    6      1.50      0.00
   -3   27    9     -2.69      0.00
  -25   28    7     -1.31      0.00
  -25   28    4     -3.50      0.00
  -25   28    1      2.01      0.00
   -3   28    2     -2.18      0.00
   -3   28    5      1.61      0.00
   -3   28    8      0.64      0.00
  -26   29    8      1.10      0.00
  -26   29    5     -1.82      0.00
  -26   29    2      3.74      0.00
   -3   29    1      2.51      0.00
   -3   29    4     -4.24      0.00
   -3   29    7      0.75      0.00
  -27   30    6      2.95      0.00
  -27   30    3      2.68      0.00
   -3   30    0      2.53      0.00
   -3   30    3     -0.19      0.00
   -3   30    6     -1.82      0.00
  -28   31    7     -0.87      0.00
  -28   31    4      4.01      0.00
  -28   31    1      1.92      0.00
   -3   31    2      1.94      0.00
   -3   31    5     -1.91      0.00
   -3   31    8     -0.23      0.00
  -29   32    5     -2.32      0.00
  -29   32    2      1.34      0.00
   -3   32    1      2.24      0.00
   -3   32    4     -0.54      0.00
   -3   32    7     -2.79      0.00
  -30   33    6     -0.85      0.00
  -30   33    3      2.60      0.00
   -3   33    0      2.23      0.00
   -3   33    3      1.54      0.00
   -3   33    6     -1.80      0.00
  -31   34    4      2.36      0.00
  -31   34    1     -0.63      0.00
   -3   34    2     -0.34      0.00
   -3   34    5      4.24      0.00
  -32   35    2      2.19      0.00
   -3   35    1     -1.13      0.00
   -3   35    4      1.37      0.00
   -3   36    0     -0.35      0.00
   -3    7   11      3.00      0.00
   -3    7    5    -19.96      0.00
   -4    8   12     -4.34      0.00
   -4    8    9     -3.54      0.00
   -4    8    6      4.18      0.00
   -4    8    3     -5.43      0.00
   -4    8    0     47.85      0.00
   -5    9   13     -5.05      0.00
   -5    9   10     -4.07      0.00
   -5    9    7     -6.42      0.00
   -5    9    4     22.14      0.00
   -5    9    1     36.32      0.00
   -4    9    2     45.67      0.00
   -4    9    5     12.03      0.00
   -4    9    8     -9.07      0.00
   -4    9   11     -0.38      0.00
   -4    9   14     -1.95      0.00
   -6   10   14     -0.21      0.00
   -6   10   11      2.15      0.00
   -6   10    8     -4.86      0.00
   -6   10    5     10.95      0.00
   -6   10    2      1.90      0.00
   -4   10    1     50.51      0.00
   -4   10    4     17.46      0.00
   -4   10    7      3.62      0.00
   -4   10   10      1.37      0.00
   -4   10   13     -2.09      0.00
   -7   11   12      6.60      0.00
   -7   11    9      9.23      0.00
   -7   11    6    -11.10      0.00
   -7   11    3    -20.00      0.00
   -4   11    0      0.14      0.00
   -4   11    3     21.18      0.00
   -4   11    6     12.03      0.00
   -4   11    9     10.54      0.00
   -4   11   12      3.14      0.00
   -8   12   13      3.95      0.00
   -8   12   10      4.72      0.00
   -8   12    7      5.55      0.00
   -8   12    4    -10.50      0.00
   -8   12    1    -17.27      0.00
   -4   12    2    -15.91      0.00
   -4   12    5      5.76      0.00
   -4   12    8      2.40      0.00
   -4   12   11      4.42      0.00
   -4   12   14     -0.19      0.00
   -9   13   14      2.27      0.00
   -9   13   11     -1.17      0.00
   -9   13    8     -0.16      0.00
   -9   13    5      7.67      0.00
   -9   13    2     -7.56      0.00
   -4   13    1    -11.50      0.00
   -4   13    4    -10.33      0.00
   -4   13    7     -3.10      0.00
   -4   13   10     -1.27      0.00
   -4   13   13     -1.93      0.00
  -10   14   12      0.28      0.00
  -10   14    9      5.91      0.00
  -10   14    6     -5.47      0.00
  -10   14    3      7.95      0.00
   -4   14    0     -2.84      0.00
   -4   14    3     -1.46      0.00
   -4   14    6      3.15      0.00
   -4   14    9     -7.62      0.00
  -11   15   13      0.34      0.00
  -11   15   10      4.55      0.00
  -11   15    7     -8.45      0.00
  -11   15    4     -4.05      0.00
  -11   15    1     -4.10      0.00
   -4   15    2      5.10      0.00
   -4   15    5     14.01      0.00
   -4   15    8      1.11      0.00
   -4   15   11      1.39      0.00
   -4   15   14     -3.60      0.00
  -12   16   11      2.49      0.00
  -12   16    8      0.47      0.00
  -12   16    5     -1.86      0.00
  -12   16    2    -14.89      0.00
   -4   16    1     -6.06      0.00
   -4   16    4      7.50      0.00
   -4   16    7     -0.80      0.00
   -4   16   10      7.70      0.00
   -4   16   13     -2.48      0.00
  -13   17   12      0.83      0.00
  -13   17    9     -0.32      0.00
  -13   17    6     12.74      0.00
  -13   17    3    -12.87      0.00
   -4   17    0    -10.55      0.00
   -4   17    3     -8.80      0.00
   -4   17    6     -6.37      0.00
   -4   17    9      5.01      0.00
   -4   17   12     -0.25      0.00
  -14   18   13     -3.05      0.00
  -14   18   10      6.41      0.00
  -14   18    7      3.28      0.00
  -14   18    4      6.27      0.00
  -14   18    1    -10.10      0.00
   -4   18    2     -9.26      0.00
   -4   18    5    -10.10      0.00
   -4   18    8     -3.17      0.00
   -4   18   11      0.17      0.00
  -15   19   11     -0.69      0.00
  -15   19    8      2.39      0.00
  -15   19    5      1.28      0.00
  -15   19    2      4.09      0.00
   -4   19    1     -3.74      0.00
   -4   19    4      2.71      0.00
   -4   19    7     -3.56      0.00
   -4   19   10     -5.88      0.00
   -4   19   13      1.77      0.00
  -16   20   12      3.53      0.00
  -16   20    9     -1.37      0.00
  -16   20    6      0.53      0.00
  -16   20    3      0.71      0.00
   -4   20    0      9.01      0.00
   -4   20    3      2.76      0.00
   -4   20    6      2.06      0.00
   -4   20    9     -0.74      0.00
   -4   20   12     -0.44      0.00
  -17   21   10     -0.61      0.00
  -17   21    7      2.62      0.00
  -17   21    4     -2.49      0.00
  -17   21    1      7.43      0.00
   -4   21    2     -2.88      0.00
   -4   21    5      0.30      0.00
   -4   21    8      1.26      0.00
   -4   21   11      2.44      0.00
  -18   22   11     -0.90      0.00
  -18   22    8     -0.81      0.00
  -18   22    5      5.00      0.00
  -18   22    2      1.01      0.00
   -4   22    1    -12.27      0.00
   -4   22    4     -6.06      0.00
   -4   22    7     -0.18      0.00
   -4   22   10     -0.72      0.00
  -19   23   12     -1.13      0.00
  -19   23    9     -4.09      0.00
  -19   23    6      4.89      0.00
  -19   23    3      3.95      0.00
   -4   23    0    -10.49      0.00
   -4   23    3     -5.31      0.00
   -4   23    6     -2.94      0.00
   -4   23    9      2.14      0.00
   -4   23   12     -1.57      0.00
  -20   24   10     -1.49      0.00
  -20   24    7     -1.65      0.00
  -20   24    4     -1.42      0.00
  -20   24    1     -1.39      0.00
   -4   24    2     -2.57      0.00
   -4   24    5     -0.67      0.00
   -4   24    8      2.57      0.00
   -4   24   11      1.40      0.00
  -21   25   11      1.76      0.00
  -21   25    8     -2.86      0.00
  -21   25    5     -1.28      0.00
  -21   25    2     -1.93      0.00
   -4   25    1      3.61      0.00
   -4   25    4     -0.87      0.00
   -4   25    7     -2.47      0.00
   -4   25   10      1.77      0.00
  -22   26    9      0.80      0.00
  -22   26    6     -0.99      0.00
  -22   26    3     -0.18      0.00
   -4   26    0     -1.00      0.00
   -4   26    3      0.67      0.00
   -4   26    6     -0.42      0.00
   -4   26    9     -3.26      0.00
  -23   27   10     -1.67      0.00
  -23   27    7      2.44      0.00
  -23   27    4      3.26      0.00
  -23   27    1      1.15      0.00
   -4   27    2     -5.33      0.00
   -4   27    5      0.16      0.00
   -4   27    8     -2.43      0.00
  -24   28    8      0.95      0.00
  -24   28    5      0.40      0.00
  -24   28    2      0.08      0.00
   -4   28    1     -0.96      0.00
   -4   28    4     -0.59      0.00
   -4   28    7      0.25      0.00
   -4   28   10      1.72      0.00
  -25   29    9      1.33      0.00
  -25   29    6      0.89      0.00
  -25   29    3     -3.65      0.00
   -4   29    0      2.28      0.00
   -4   29    3     -0.32      0.00
   -4   29    6      1.79      0.00
   -4   29    9      1.03      0.00
  -26   30    7     -0.51      0.00
  -26   30    4      0.17      0.00
  -26   30    1      0.18      0.00
   -4   30    2      0.37      0.00
   -4   30    5      3.04      0.00
   -4   30    8      0.88      0.00
  -27   31    8      4.82      0.00
  -27   31    5      1.16      0.00
  -27   31    2      3.85      0.00
   -4   31    1     -0.20      0.00
   -4   31    4     -0.86      0.00
   -4   31    7     -0.96      0.00
  -28   32    6      1.36      0.00
  -28   32    3      2.64      0.00
   -4   32    0      1.64      0.00
   -4   32    3      0.18      0.00
   -4   32    6     -1.15      0.00
  -29   33    7     -0.65      0.00
  -29   33    4      0.79      0.00
  -29   33    1     -0.23      0.00
   -4   33    2     -4.57      0.00
   -4   33    5      4.19      0.00
  -30   34    5     -3.95      0.00
  -30   34    2      0.41      0.00
   -4   34    1     -1.17      0.00
   -4   34    4      1.41      0.00
  -31   35    3      3.11      0.00
   -4   35    0     -0.97      0.00
   -4   35    3      0.98      0.00
  -32   36    1      1.63      0.00
   -4   36    2     -1.64      0.00
   -4   37    1     -2.60      0.00
   -3    8    7     -0.89      0.00
   -5   10   12     -1.39      0.00
   -5   10    9     -1.24      0.00
   -5   10    6     10.97      0.00
   -5   10    3     35.24      0.00
   -5   10    0     42.84      0.00
   -6   11   13     -0.66      0.00
   -6   11   10      4.85      0.00
   -6   11    7      3.27      0.00
   -6   11    4      6.53      0.00
   -6   11    1     -3.55      0.00
   -5   11    2     20.78      0.00
   -5   11    5     25.96      0.00
   -5   11    8      9.94      0.00
   -5   11   11      1.96      0.00
   -5   11   14     -3.14      0.00
   -7   12   14      3.49      0.00
   -7   12   11     10.07      0.00
   -7   12    8      5.18      0.00
   -7   12    5     -4.12      0.00
   -7   12    2    -26.17      0.00
   -5   12    1     -3.58      0.00
   -5   12    4     -0.15      0.00
   -5   12    7     12.01      0.00
   -5   12   13     -4.26      0.00
   -8   13   12      4.18      0.00
   -8   13    9      2.28      0.00
   -8   13    6     -1.93      0.00
   -8   13    3      1.45      0.00
   -5   13    0     -7.72      0.00
   -5   13    3    -16.01      0.00
   -5   13    6      0.27      0.00
   -5   13    9     -1.48      0.00
   -5   13   12     -5.14      0.00
   -9   14   13      0.51      0.00
   -9   14   10      1.41      0.00
   -9   14    7     -2.88      0.00
   -9   14    4     13.19      0.00
   -9   14    1      7.88      0.00
   -5   14    2    -16.53      0.00
   -5   14    5     -3.67      0.00
   -5   14    8     -4.14      0.00
   -5   14   11     -1.43      0.00
   -5   14   14     -0.92      0.00
  -10   15   14     -1.11      0.00
  -10   15   11      1.34      0.00
  -10   15    8      3.09      0.00
  -10   15    5     -1.31      0.00
  -10   15    2      3.36      0.00
   -5   15    1     -0.20      0.00
   -5   15    4      2.15      0.00
   -5   15    7      4.50      0.00
   -5   15   10      0.17      0.00
   -5   15   13     -3.33      0.00
  -11   16   12      4.15      0.00
  -11   16    9      3.24      0.00
  -11   16    6     -3.97      0.00
  -11   16    3    -16.28      0.00
   -5   16    0     -5.08      0.00
   -5   16    3      4.11      0.00
   -5   16    6      5.92      0.00
   -5   16    9      4.82      0.00
   -5   16   12     -2.04      0.00
  -12   17   13     -3.53      0.00
  -12   17   10      3.27      0.00
  -12   17    7      3.38      0.00
  -12   17    4     -3.49      0.00
  -12   17    1    -17.29      0.00
   -5   17    2     -2.55      0.00
   -5   17    5     -2.94      0.00
   -5   17    8     -3.74      0.00
   -5   17   11      1.01      0.00
  -13   18   11     -6.31      0.00
  -13   18    8      3.27      0.00
  -13   18    5     14.65      0.00
  -13   18    2     -8.29      0.00
   -5   18    1    -13.92      0.00
   -5   18    4    -10.14      0.00
   -5   18    7     -8.60      0.00
   -5   18   10     -3.53      0.00
   -5   18   13      2.69      0.00
  -14   19   12     -1.89      0.00
  -14   19    9      2.44      0.00
  -14   19    6      4.11      0.00
  -14   19    3      5.76      0.00
   -5   19    0     -0.96      0.00
   -5   19    3     -9.73      0.00
   -5   19    6     -3.34      0.00
   -5   19    9     -5.37      0.00
   -5   19   12     -0.61      0.00
  -15   20   13     -2.41      0.00
  -15   20   10      0.18      0.00
  -15   20    7     -0.66      0.00
  -15   20    4     -4.50      0.00
  -15   20    1      8.60      0.00
   -5   20    2     -0.12      0.00
   -5   20    5      5.88      0.00
   -5   20    8     -0.28      0.00
   -5   20   11     -0.30      0.00
  -16   21   11     -3.46      0.00
  -16   21    8     -0.18      0.00
  -16   21    5     -0.57      0.00
  -16   21    2      8.87      0.00
   -5   21    1     -3.21      0.00
   -5   21    4      5.86      0.00
   -5   21    7     -1.01      0.00
   -5   21   10      0.73      0.00
  -17   22   12     -1.35      0.00
  -17   22    9     -1.58      0.00
  -17   22    6      3.55      0.00
  -17   22    3      9.57      0.00
   -5   22    0     -4.70      0.00
   -5   22    3     -7.71      0.00
   -5   22    6     -3.82      0.00
   -5   22    9      1.40      0.00
   -5   22   12     -3.61      0.00
  -18   23   10     -0.40      0.00
  -18   23    7      4.12      0.00
  -18   23    4      6.74      0.00
  -18   23    1      0.36      0.00
   -5   23    2    -11.53      0.00
   -5   23    5    -10.62      0.00
   -5   23    8      4.36      0.00
   -5   23   11     -4.09      0.00
  -19   24   11     -0.73      0.00
  -19   24    8     -4.13      0.00
  -19   24    5      4.89      0.00
  -19   24    2     -0.16      0.00
   -5   24    1     -1.38      0.00
   -5   24    4     -4.35      0.00
   -5   24    7      0.51      0.00
   -5   24   10      0.04      0.00
  -20   25    9     -3.43      0.00
  -20   25    6     -1.15      0.00
  -20   25    3     -0.88      0.00
   -5   25    0      0.63      0.00
   -5   25    3      1.97      0.00
   -5   25    6     -0.31      0.00
   -5   25    9      2.25      0.00
  -21   26   10     -1.39      0.00
  -21   26    7     -1.27      0.00
  -21   26    4     -2.68      0.00
  -21   26    1      2.84      0.00
   -5   26    2     -1.97      0.00
   -5   26    5     -3.39      0.00
   -5   26    8     -0.66      0.00
   -5   26   11     -0.39      0.00
  -22   27    8      4.10      0.00
  -22   27    5      2.36      0.00
  -22   27    2      1.11      0.00
   -5   27    1     -2.88      0.00
   -5   27    4     -7.19      0.00
   -5   27    7      0.08      0.00
   -5   27   10     -2.00      0.00
  -23   28    9     -0.92      0.00
  -23   28    6      7.88      0.00
  -23   28    3      0.59      0.00
   -5   28    0     -0.71      0.00
   -5   28    3     -1.35      0.00
   -5   28    6      3.23      0.00
   -5   28    9     -0.88      0.00
  -24   29    7     -0.84      0.00
  -24   29    4      5.35      0.00
  -24   29    1     -4.61      0.00
   -5   29    2      0.00      0.00
   -5   29    5      4.56      0.00
   -5   29    8      2.79      0.00
  -25   30    8      4.10      0.00
  -25   30    5     -1.10      0.00
  -25   30    2      1.04      0.00
   -5   30    1     -1.56      0.00
   -5   30    4      0.56      0.00
   -5   30    7      0.76      0.00
  -26   31    6      3.77      0.00
  -26   31    3     -0.35      0.00
   -5   31    0      0.38      0.00
   -5   31    3     -0.38      0.00
   -5   31    6      0.31      0.00
  -27   32    7      4.72      0.00
  -27   32    4      3.69      0.00
  -27   32    1      0.37      0.00
   -5   32    2     -0.65      0.00
   -5   32    5      3.06      0.00
   -5   32    8     -1.47      0.00
  -28   33    5      2.24      0.00
  -28   33    2      0.73      0.00
   -5   33    1     -3.43      0.00
   -5   33    4      0.89      0.00
   -5   33    7     -0.75      0.00
  -29   34    6     -0.54      0.00
  -29   34    3      3.71      0.00
   -5   34    0     -2.21      0.00
   -5   34    3     -0.89      0.00
   -5   34    6      0.82      0.00
  -30   35    4     -0.58      0.00
  -30   35    1     -0.11      0.00
   -5   35    2     -0.81      0.00
   -5   35    5      3.53      0.00
  -31   36    2     -0.56      0.00
   -5   36    1      2.21      0.00
   -5   36    4     -2.86      0.00
   -5   37    0     -1.05      0.00
   -6   12   12     -1.34      0.00
   -6   12    9      9.23      0.00
   -6   12    6     10.05      0.00
   -6   12    3    -11.56      0.00
   -6   12    0      0.63      0.00
   -7   13   13      0.50      0.00
   -7   13   10      2.35      0.00
   -7   13    7     -0.18      0.00
   -7   13    4     -7.54      0.00
   -7   13    1     13.07      0.00
   -6   13    2    -15.59      0.00
   -6   13    5      1.52      0.00
   -6   13    8     -0.31      0.00
   -6   13   11     -6.52      0.00
   -6   13   14      1.86      0.00
   -8   14   14      0.95      0.00
   -8   14   11     -3.93      0.00
   -8   14    8     -5.65      0.00
   -8   14    5      3.20      0.00
   -8   14    2     22.82      0.00
   -6   14    1      5.64      0.00
   -6   14    4    -12.38      0.00
   -6   14    7     -2.52      0.00
   -6   14   10     -4.02      0.00
   -6   14   13     -3.58      0.00
   -9   15   12      0.57      0.00
   -9   15    9      1.76      0.00
   -9   15    6      1.02      0.00
   -9   15    3     17.49      0.00
   -6   15    0      5.95      0.00
   -6   15    3     -3.39      0.00
   -6   15    6     -3.35      0.00
   -6   15    9      0.36      0.00
   -6   15   12     -1.28      0.00
  -10   16   13     -3.66      0.00
  -10   16   10      2.98      0.00
  -10   16    7      1.23      0.00
  -10   16    4     -4.49      0.00
  -10   16    1     -6.33      0.00
   -6   16    2      1.15      0.00
   -6   16    5      8.32      0.00
   -6   16    8      4.51      0.00
   -6   16   11      1.13      0.00
  -11   17   11     -2.09      0.00
  -11   17    8     -2.89      0.00
  -11   17    5     -2.68      0.00
  -11   17    2     -9.63      0.00
   -6   17    1     -1.37      0.00
   -6   17    4      6.82      0.00
   -6   17    7     -2.59      0.00
   -6   17   10     -0.30      0.00
   -6   17   13      0.69      0.00
  -12   18   12     -5.09      0.00
  -12   18    9     -4.56      0.00
  -12   18    6     -1.11      0.00
  -12   18    3      2.83      0.00
   -6   18    0      5.35      0.00
   -6   18    3     -2.48      0.00
   -6   18    6     -8.99      0.00
   -6   18    9     -6.57      0.00
   -6   18   12      1.63      0.00
  -13   19   13     -3.01      0.00
  -13   19   10     -2.27      0.00
  -13   19    7     -0.57      0.00
  -13   19    4      9.65      0.00
  -13   19    1     -0.89      0.00
   -6   19    2      2.92      0.00
   -6   19    5    -10.38      0.00
   -6   19    8     -4.56      0.00
   -6   19   11     -0.01      0.00
  -14   20   11     -4.62      0.00
  -14   20    8     -0.14      0.00
  -14   20    5     -2.48      0.00
  -14   20    2      2.58      0.00
   -6   20    1     -2.76      0.00
   -6   20    4      7.11      0.00
   -6   20    7      0.76      0.00
   -6   20   10      1.13      0.00
   -6   20   13     -0.98      0.00
  -15   21   12      1.43      0.00
  -15   21    9     -2.78      0.00
  -15   21    6     -7.98      0.00
  -15   21    3     -0.26      0.00
   -6   21    0      3.43      0.00
   -6   21    3      4.07      0.00
   -6   21    6      6.37      0.00
   -6   21    9      2.52      0.00
   -6   21   12     -3.60      0.00
  -16   22   10      1.47      0.00
  -16   22    7     -0.89      0.00
  -16   22    4     -3.58      0.00
  -16   22    1      7.94      0.00
   -6   22    2     -0.60      0.00
   -6   22    5     -1.72      0.00
   -6   22    8      0.94      0.00
   -6   22   11     -3.96      0.00
  -17   23   11      0.32      0.00
  -17   23    8      3.22      0.00
  -17   23    5      4.03      0.00
  -17   23    2      3.26      0.00
   -6   23    1     -1.49      0.00
   -6   23    4     -8.04      0.00
   -6   23    7     -3.98      0.00
   -6   23   10     -3.86      0.00
  -18   24    9     -0.62      0.00
  -18   24    6      3.06      0.00
  -18   24    3      4.56      0.00
   -6   24    0     -0.68      0.00
   -6   24    3     -1.61      0.00
   -6   24    6     -4.35      0.00
   -6   24    9      2.87      0.00
  -19   25   10      0.47      0.00
  -19   25    7     -2.41      0.00
  -19   25    4     -3.28      0.00
  -19   25    1      3.41      0.00
   -6   25    2     -0.52      0.00
   -6   25    5      2.40      0.00
   -6   25    8      4.17      0.00
   -6   25   11     -0.60      0.00
  -20   26   11     -0.69      0.00
  -20   26    8     -1.46      0.00
  -20   26    5     -5.18      0.00
  -20   26    2      1.90      0.00
   -6   26    1     -1.71      0.00
   -6   26    4      1.30      0.00
   -6   26    7     -1.58      0.00
   -6   26   10     -1.75      0.00
  -21   27    9      0.94      0.00
  -21   27    6      0.56      0.00
  -21   27    3     -0.39      0.00
   -6   27    0     -3.81      0.00
   -6   27    3     -1.56      0.00
   -6   27    6     -3.39      0.00
   -6   27    9     -2.27      0.00
  -22   28   10      1.09      0.00
  -22   28    7      5.81      0.00
  -22   28    4      3.79      0.00
  -22   28    1     -1.96      0.00
   -6   28    2     -0.97      0.00
   -6   28    5     -5.94      0.00
   -6   28    8      4.80      0.00
  -23   29    8      1.33      0.00
  -23   29    5      5.16      0.00
  -23   29    2     -0.77      0.00
   -6   29    1      0.18      0.00
   -6   29    4     -2.07      0.00
   -6   29    7      8.49      0.00
   -6   29   10      0.11      0.00
  -24   30    9      2.69      0.00
  -24   30    6      0.96      0.00
  -24   30    3      2.39      0.00
   -6   30    0     -1.92      0.00
   -6   30    3      1.36      0.00
   -6   30    6      2.89      0.00
   -6   30    9      0.49      0.00
  -25   31    7      2.75      0.00
  -25   31    4      1.40      0.00
  -25   31    1     -3.94      0.00
   -6   31    2      2.76      0.00
   -6   31    5     -0.26      0.00
   -6   31    8      0.41      0.00
  -26   32    8      7.50      0.00
  -26   32    5      1.04      0.00
  -26   32    2     -1.20      0.00
   -6   32    1      0.77      0.00
   -6   32    4     -2.73      0.00
   -6   32    7     -0.01      0.00
  -27   33    6      7.03      0.00
  -27   33    3     -3.32      0.00
   -6   33    0      3.23      0.00
   -6   33    3     -0.04      0.00
   -6   33    6      0.60      0.00
  -28   34    4      3.63      0.00
  -28   34    1      0.81      0.00
   -6   34    2     -0.95      0.00
   -6   34    5      1.76      0.00
  -29   35    5     -0.83      0.00
  -29   35    2      3.04      0.00
   -6   35    1      0.05      0.00
   -6   35    4      0.07      0.00
  -30   36    3      0.49      0.00
   -6   36    0     -2.06      0.00
   -6   36    3      1.32      0.00
  -31   37    1     -2.23      0.00
   -6   37    2     -0.56      0.00
   -5   12   10      4.66      0.00
   -7   14   12     -6.97      0.00
   -7   14    9     -2.70      0.00
   -7   14    6     -5.94      0.00
   -7   14    3      7.22      0.00
   -7   14    0     28.52      0.00
   -8   15   13      1.60      0.00
   -8   15   10     -0.41      0.00
   -8   15    7     -0.17      0.00
   -8   15    4      7.94      0.00
   -8   15    1     17.08      0.00
   -7   15    2      6.12      0.00
   -7   15    5     -5.64      0.00
   -7   15    8     -0.15      0.00
   -7   15   11     -3.38      0.00
   -7   15   14      3.02      0.00
   -9   16   11      0.17      0.00
   -9   16    8      2.02      0.00
   -9   16    5      1.79      0.00
   -9   16    2      1.73      0.00
   -7   16    1     -7.29      0.00
   -7   16    4      3.07      0.00
   -7   16    7      2.81      0.00
   -7   16   10      4.33      0.00
   -7   16   13      3.92      0.00
  -10   17   12     -0.39      0.00
  -10   17    9     -5.16      0.00
  -10   17    6     -2.73      0.00
  -10   17    3    -10.20      0.00
   -7   17    0      0.45      0.00
   -7   17    3      3.34      0.00
   -7   17    6      1.68      0.00
   -7   17    9      4.00      0.00
   -7   17   12      3.99      0.00
  -11   18   13     -3.72      0.00
  -11   18   10     -1.91      0.00
  -11   18    7     -5.14      0.00
  -11   18    4     -4.43      0.00
  -11   18    1      8.99      0.00
   -7   18    2     12.38      0.00
   -7   18    5     -5.71      0.00
   -7   18    8      2.11      0.00
   -7   18   11     -4.02      0.00
  -12   19   11     -6.42      0.00
  -12   19    8     -1.71      0.00
  -12   19    5     -2.73      0.00
  -12   19    2     13.38      0.00
   -7   19    1      7.95      0.00
   -7   19    4     -7.39      0.00
   -7   19    7      0.75      0.00
   -7   19   10     -3.59      0.00
   -7   19   13      4.73      0.00
  -13   20   12      6.43      0.00
  -13   20    9     -5.74      0.00
  -13   20    6     -6.12      0.00
  -13   20    3      6.64      0.00
   -7   20    0      2.08      0.00
   -7   20    3      0.05      0.00
   -7   20    6      1.92      0.00
   -7   20    9      0.27      0.00
   -7   20   12      3.88      0.00
  -14   21   10      0.75      0.00
  -14   21    7     -3.68      0.00
  -14   21    4     -8.61      0.00
  -14   21    1     -5.97      0.00
   -7   21    2      4.41      0.00
   -7   21    5      8.77      0.00
   -7   21    8      3.00      0.00
   -7   21   11      2.09      0.00
  -15   22   11      2.19      0.00
  -15   22    8      1.01      0.00
  -15   22    5     -8.24      0.00
  -15   22    2     -3.58      0.00
   -7   22    1      1.12      0.00
   -7   22    4      4.74      0.00
   -7   22    7      1.13      0.00
   -7   22   10     -2.36      0.00
  -16   23   12      4.24      0.00
  -16   23    9      2.18      0.00
  -16   23    6     -4.91      0.00
  -16   23    3      0.81      0.00
   -7   23    0      3.98      0.00
   -7   23    3     -2.21      0.00
   -7   23    6     -2.49      0.00
   -7   23    9     -2.43      0.00
   -7   23   12     -1.21      0.00
  -17   24   10      1.23      0.00
  -17   24    7      3.57      0.00
  -17   24    4     -1.81      0.00
  -17   24    1      5.76      0.00
   -7   24    2      1.66      0.00
   -7   24    5     -4.87      0.00
   -7   24    8      2.06      0.00
   -7   24   11     -1.81      0.00
  -18   25   11      2.29      0.00
  -18   25    8     -0.10      0.00
  -18   25    5     -0.20      0.00
  -18   25    2     -0.50      0.00
   -7   25    1      1.50      0.00
   -7   25    4      5.36      0.00
   -7   25    7     -0.45      0.00
   -7   25   10     -0.57      0.00
  -19   26    9      3.18      0.00
  -19   26    6     -5.78      0.00
  -19   26    3      2.43      0.00
   -7   26    0     -7.03      0.00
   -7   26    3      3.74      0.00
   -7   26    6      3.89      0.00
   -7   26    9     -3.85      0.00
  -20   27   10     -0.40      0.00
  -20   27    7     -2.38      0.00
  -20   27    4     -2.63      0.00
  -20   27    1     -2.57      0.00
   -7   27    2     -2.12      0.00
   -7   27    5      0.75      0.00
   -7   27    8     -3.19      0.00
   -7   27   11     -1.04      0.00
  -21   28    8      1.58      0.00
  -21   28    5     -1.58      0.00
  -21   28    2     -0.12      0.00
   -7   28    1     -1.55      0.00
   -7   28    4     -5.75      0.00
   -7   28    7      2.15      0.00
   -7   28   10     -0.77      0.00
  -22   29    9      3.23      0.00
  -22   29    6      2.64      0.00
  -22   29    3      0.04      0.00
   -7   29    0      3.46      0.00
   -7   29    3     -4.46      0.00
   -7   29    6      3.89      0.00
   -7   29    9     -0.22      0.00
  -23   30    7      0.22      0.00
  -23   30    4      5.95      0.00
  -23   30    1     -3.10      0.00
   -7   30    2      0.74      0.00
   -7   30    5      2.27      0.00
   -7   30    8      1.40      0.00
  -24   31    8      1.48      0.00
  -24   31    5     -1.22      0.00
  -24   31    2     -0.87      0.00
   -7   31    1     -0.69      0.00
   -7   31    4      1.80      0.00
   -7   31    7     -0.84      0.00
  -25   32    6     -0.60      0.00
  -25   32    3     -5.86      0.00
   -7   32    0      3.13      0.00
   -7   32    3     -0.94      0.00
   -7   32    6     -0.51      0.00
  -26   33    7      3.43      0.00
  -26   33    4     -2.15      0.00
  -26   33    1      2.43      0.00
   -7   33    2      1.93      0.00
   -7   33    5     -0.10      0.00
  -27   34    5      3.83      0.00
  -27   34    2     -1.13      0.00
   -7   34    1      3.37      0.00
   -7   34    4     -1.56      0.00
   -7   34    7     -0.25      0.00
  -28   35    6      4.77      0.00
  -28   35    3     -0.19      0.00
   -7   35    0      2.54      0.00
   -7   35    3      2.09      0.00
   -7   35    6     -0.72      0.00
  -29   36    4      0.66      0.00
  -29   36    1     -0.68      0.00
   -7   36    2      1.50      0.00
   -7   36    5      2.96      0.00
  -30   37    2     -1.72      0.00
   -7   37    1      0.58      0.00
   -7   38    0     -3.93      0.00
   -8   16   12      6.77      0.00
   -8   16    9      2.45      0.00
   -8   16    6     -0.02      0.00
   -8   16    3      2.89      0.00
   -8   16    0     -6.39      0.00
   -9   17   13     -0.99      0.00
   -9   17   10      2.15      0.00
   -9   17    7      5.87      0.00
   -9   17    4     -9.10      0.00
   -9   17    1    -10.23      0.00
   -8   17    2     -4.36      0.00
   -8   17    5     -0.30      0.00
   -8   17    8      8.11      0.00
   -8   17   11      3.49      0.00
  -10   18   11     -1.92      0.00
  -10   18    8      2.05      0.00
  -10   18    5    -11.00      0.00
  -10   18    2      4.78      0.00
   -8   18    1      1.08      0.00
   -8   18    4     -5.93      0.00
   -8   18    7      7.27      0.00
   -8   18   10      0.62      0.00
   -8   18   13     -1.48      0.00
  -11   19   12      2.29      0.00
  -11   19    9     -2.19      0.00
  -11   19    6     -8.55      0.00
  -11   19    3      3.81      0.00
   -8   19    0     18.57      0.00
   -8   19    3     -4.69      0.00
   -8   19    6      1.51      0.00
   -8   19    9      1.37      0.00
   -8   19   12     -0.11      0.00
  -12   20   13      6.67      0.00
  -12   20   10      0.60      0.00
  -12   20    7     -1.76      0.00
  -12   20    4      5.32      0.00
  -12   20    1      1.95      0.00
   -8   20    2      4.92      0.00
   -8   20    5     -3.52      0.00
   -8   20    8      4.82      0.00
   -8   20   11      2.46      0.00
  -13   21   11      2.74      0.00
  -13   21    8     -1.64      0.00
  -13   21    5      1.37      0.00
  -13   21    2     -4.00      0.00
   -8   21    1     -6.30      0.00
   -8   21    4      1.51      0.00
   -8   21    7      1.37      0.00
   -8   21   10      5.74      0.00
  -14   22   12      4.30      0.00
  -14   22    9     -1.22      0.00
  -14   22    6     -4.19      0.00
  -14   22    3     -5.66      0.00
   -8   22    0     -6.80      0.00
   -8   22    3     -4.42      0.00
   -8   22    6      3.53      0.00
   -8   22    9     -1.43      0.00
   -8   22   12      1.36      0.00
  -15   23   10      2.61      0.00
  -15   23    7      0.39      0.00
  -15   23    4     -8.44      0.00
  -15   23    1     -0.76      0.00
   -8   23    2     -0.53      0.00
   -8   23    5      0.96      0.00
   -8   23    8      0.48      0.00
   -8   23   11     -2.79      0.00
  -16   24   11      0.76      0.00
  -16   24    8      1.79      0.00
  -16   24    5      1.05      0.00
  -16   24    2     -3.58      0.00
   -8   24    1      5.61      0.00
   -8   24    4      0.69      0.00
   -8   24    7      0.59      0.00
   -8   24   10     -1.76      0.00
  -17   25    9     -2.73      0.00
  -17   25    6      1.24      0.00
  -17   25    3      1.46      0.00
   -8   25    0      3.23      0.00
   -8   25    3      0.94      0.00
   -8   25    6      0.21      0.00
   -8   25    9     -0.40      0.00
  -18   26   10     -0.94      0.00
  -18   26    7      0.09      0.00
  -18   26    4     -1.78      0.00
  -18   26    1      2.31      0.00
   -8   26    2     -4.72      0.00
   -8   26    5      3.66      0.00
   -8   26    8     -3.32      0.00
   -8   26   11      0.39      0.00
  -19   27   11     -4.03      0.00
  -19   27    8      0.79      0.00
  -19   27    5     -0.66      0.00
  -19   27    2      0.16      0.00
   -8   27    1     -6.92      0.00
   -8   27    4      3.29      0.00
   -8   27    7     -1.60      0.00
   -8   27   10     -1.72      0.00
  -20   28    9      2.17      0.00
  -20   28    6     -1.89      0.00
  -20   28    3     -0.12      0.00
   -8   28    0     -4.63      0.00
   -8   28    3     -1.59      0.00
   -8   28    6      4.38      0.00
   -8   28    9     -1.29      0.00
  -21   29   10      1.43      0.00
  -21   29    7      0.85      0.00
  -21   29    4     -1.43      0.00
  -21   29    1      0.57      0.00
   -8   29    2     -1.21      0.00
   -8   29    5     -0.72      0.00
   -8   29    8      1.32      0.00
  -22   30    8     -0.09      0.00
  -22   30    5      0.55      0.00
  -22   30    2      0.05      0.00
   -8   30    1      0.14      0.00
   -8   30    4     -1.37      0.00
   -8   30    7      0.98      0.00
  -23   31    9      1.38      0.00
  -23   31    6      1.01      0.00
  -23   31    3      0.26      0.00
   -8   31    0      3.01      0.00
   -8   31    3     -1.27      0.00
   -8   31    6      0.14      0.00
   -8   31    9     -2.56      0.00
  -24   32    7     -2.45      0.00
  -24   32    4      1.55      0.00
  -24   32    1     -2.12      0.00
   -8   32    2      0.76      0.00
   -8   32    5      4.66      0.00
   -8   32    8     -2.30      0.00
  -25   33    8     -0.53      0.00
  -25   33    5     -4.10      0.00
  -25   33    2     -1.24      0.00
   -8   33    1      0.53      0.00
   -8   33    4     -0.90      0.00
   -8   33    7     -0.30      0.00
  -26   34    6      0.68      0.00
  -26   34    3     -5.14      0.00
   -8   34    0      8.20      0.00
   -8   34    3     -3.62      0.00
   -8   34    6      0.45      0.00
  -27   35    4      1.19      0.00
  -27   35    1      5.83      0.00
   -8   35    2      0.73      0.00
   -8   35    5      0.86      0.00
  -28   36    5      0.53      0.00
  -28   36    2      1.08      0.00
   -8   36    1      2.81      0.00
   -8   36    4      2.92      0.00
  -29   37    3      0.06      0.00
   -8   37    0     -2.47      0.00
   -8   37    3      2.07      0.00
  -30   38    1     -1.75      0.00
   -8   38    2     -0.28      0.00
   -9   18   12      0.28      0.00
   -9   18    9      3.00      0.00
   -9   18    6      1.02      0.00
   -9   18    3    -13.08      0.00
   -9   18    0      6.69      0.00
  -10   19   13     -5.10      0.00
  -10   19   10      5.68      0.00
  -10   19    7      2.49      0.00
  -10   19    4     -8.35      0.00
  -10   19    1      9.08      0.00
   -9   19    2      1.32      0.00
   -9   19    5     -1.80      0.00
   -9   19    8      8.20      0.00
   -9   19   11     -2.33      0.00
  -11   20   11      0.75      0.00
  -11   20    8      1.14      0.00
  -11   20    5      6.37      0.00
  -11   20    2      5.64      0.00
   -9   20    1     -1.27      0.00
   -9   20    4     -1.63      0.00
   -9   20    7      3.65      0.00
   -9   20   10      6.70      0.00
   -9   20   13     -1.72      0.00
  -12   21   12      7.70      0.00
  -12   21    9     -4.08      0.00
  -12   21    6      5.80      0.00
  -12   21    3      7.77      0.00
   -9   21    0     -4.49      0.00
   -9   21    3     -6.23      0.00
   -9   21    6     -3.74      0.00
   -9   21    9      4.86      0.00
   -9   21   12      1.56      0.00
  -13   22   10      1.28      0.00
  -13   22    7      3.04      0.00
  -13   22    4     -0.92      0.00
  -13   22    1     -6.26      0.00
   -9   22    2     -8.37      0.00
   -9   22    5     -5.73      0.00
   -9   22    8      1.47      0.00
   -9   22   11     -0.16      0.00
  -14   23   11     -2.34      0.00
  -14   23    8      0.56      0.00
  -14   23    5     -0.76      0.00
  -14   23    2     -5.84      0.00
   -9   23    1     -5.42      0.00
   -9   23    4     -2.92      0.00
   -9   23    7      1.38      0.00
   -9   23   10     -3.94      0.00
  -15   24   12      0.74      0.00
  -15   24    9     -3.23      0.00
  -15   24    6      0.13      0.00
  -15   24    3     -2.46      0.00
   -9   24    0     -0.28      0.00
   -9   24    3      0.55      0.00
   -9   24    6      4.33      0.00
   -9   24    9     -3.39      0.00
   -9   24   12      0.68      0.00
  -16   25   10     -5.61      0.00
  -16   25    7      4.53      0.00
  -16   25    4     -1.84      0.00
  -16   25    1      6.93      0.00
   -9   25    2     -0.88      0.00
   -9   25    5     -1.23      0.00
   -9   25    8      1.91      0.00
   -9   25   11      0.79      0.00
  -17   26   11     -1.66      0.00
  -17   26    8     -2.97      0.00
  -17   26    5      2.13      0.00
  -17   26    2      3.45      0.00
   -9   26    1     -1.19      0.00
   -9   26    4     -6.97      0.00
   -9   26    7     -0.32      0.00
   -9   26   10      0.46      0.00
  -18   27    9     -0.81      0.00
  -18   27    6      0.69      0.00
  -18   27    3      4.71      0.00
   -9   27    0     -3.81      0.00
   -9   27    3     -8.69      0.00
   -9   27    6      3.27      0.00
   -9   27    9     -2.91      0.00
  -19   28   10     -3.37      0.00
  -19   28    7      3.00      0.00
  -19   28    4      1.66      0.00
  -19   28    1     -2.97      0.00
   -9   28    2     -0.17      0.00
   -9   28    5      4.65      0.00
   -9   28    8     -1.64      0.00
  -20   29    8      1.60      0.00
  -20   29    5      0.78      0.00
  -20   29    2     -4.50      0.00
   -9   29    1      0.94      0.00
   -9   29    4      1.25      0.00
   -9   29    7      0.88      0.00
   -9   29   10      0.66      0.00
  -21   30    9     -0.03      0.00
  -21   30    6      2.38      0.00
  -21   30    3     -5.26      0.00
   -9   30    0      3.97      0.00
   -9   30    3     -4.96      0.00
   -9   30    6     -1.04      0.00
   -9   30    9     -1.12      0.00
  -22   31    7      1.67      0.00
  -22   31    4      2.50      0.00
  -22   31    1     -0.63      0.00
   -9   31    2     -0.58      0.00
   -9   31    5     -0.20      0.00
   -9   31    8     -2.55      0.00
  -23   32    8     -0.06      0.00
  -23   32    5      1.39      0.00
  -23   32    2      0.08      0.00
   -9   32    1     -2.29      0.00
   -9   32    4      8.64      0.00
   -9   32    7     -4.46      0.00
  -24   33    6     -3.58      0.00
  -24   33    3     -0.68      0.00
   -9   33    0     -0.71      0.00
   -9   33    3      1.88      0.00
   -9   33    6     -0.20      0.00
  -25   34    7     -3.02      0.00
  -25   34    4      0.79      0.00
  -25   34    1      1.12      0.00
   -9   34    2     -0.34      0.00
   -9   34    5     -0.90      0.00
  -26   35    5     -2.51      0.00
  -26   35    2      3.44      0.00
   -9   35    1      2.30      0.00
   -9   35    4     -4.13      0.00
  -27   36    3     -0.45      0.00
   -9   36    0      5.16      0.00
   -9   36    3      0.32      0.00
  -28   37    4      0.82      0.00
  -28   37    1      1.73      0.00
   -9   37    2     -1.49      0.00
  -29   38    2      1.68      0.00
   -9   38    1      0.02      0.00
   -4   14   12     -0.14      0.00
  -10   20   12     -1.92      0.00
  -10   20    9      4.92      0.00
  -10   20    6      3.98      0.00
  -10   20    3     -3.47      0.00
  -10   20    0      9.25      0.00
  -11   21   10      2.83      0.00
  -11   21    7      1.90      0.00
  -11   21    4     11.33      0.00
  -11   21    1     -3.80      0.00
  -10   21    2     -4.72      0.00
  -10   21    5      3.20      0.00
  -10   21    8      3.43      0.00
  -12   22   11     -1.97      0.00
  -12   22    8     -1.17      0.00
  -12   22    5      6.81      0.00
  -12   22    2      4.94      0.00
  -10   22    1     -8.79      0.00
  -10   22    4     -3.59      0.00
  -10   22    7     -3.90      0.00
  -10   22   10      1.66      0.00
  -13   23   12      0.35      0.00
  -13   23    9     -3.19      0.00
  -13   23    6      0.98      0.00
  -13   23    3      2.09      0.00
  -10   23    0     -3.21      0.00
  -10   23    3     -3.93      0.00
  -10   23    6     -6.81      0.00
  -10   23    9     -3.22      0.00
  -10   23   12     -0.04      0.00
  -14   24   10     -1.56      0.00
  -14   24    7      1.64      0.00
  -14   24    4     -4.92      0.00
  -14   24    1      0.64      0.00
  -10   24    2      1.52      0.00
  -10   24    5      0.24      0.00
  -10   24    8      0.86      0.00
  -10   24   11     -1.10      0.00
  -15   25   11     -3.30      0.00
  -15   25    8     -0.53      0.00
  -15   25    5      1.13      0.00
  -15   25    2     -3.50      0.00
  -10   25    1      2.22      0.00
  -10   25    4      1.26      0.00
  -10   25    7      5.01      0.00
  -10   25   10      0.65      0.00
  -16   26    9     -6.35      0.00
  -16   26    6      0.01      0.00
  -16   26    3      5.56      0.00
  -10   26    0      0.04      0.00
  -10   26    3     -8.50      0.00
  -10   26    6      1.26      0.00
  -10   26    9      0.94      0.00
  -17   27   10     -1.15      0.00
  -17   27    7     -0.60      0.00
  -17   27    4      3.31      0.00
  -17   27    1      4.86      0.00
  -10   27    2     -6.55      0.00
  -10   27    5     -8.04      0.00
  -10   27    8      0.37      0.00
  -10   27   11     -2.36      0.00
  -18   28    8     -0.42      0.00
  -18   28    5      4.18      0.00
  -18   28    2     -2.11      0.00
  -10   28    1      3.99      0.00
  -10   28    4     -4.95      0.00
  -10   28    7      0.75      0.00
  -10   28   10     -0.81      0.00
  -19   29    9      0.59      0.00
  -19   29    6      2.76      0.00
  -19   29    3     -5.88      0.00
  -10   29    0      2.91      0.00
  -10   29    3     -0.28      0.00
  -10   29    6      5.02      0.00
  -10   29    9      0.49      0.00
  -20   30   10     -3.84      0.00
  -20   30    7      4.54      0.00
  -20   30    4     -3.99      0.00
  -20   30    1     -1.26      0.00
  -10   30    2      2.82      0.00
  -10   30    5     -0.04      0.00
  -10   30    8     -1.44      0.00
  -21   31    8      0.15      0.00
  -21   31    5      0.80      0.00
  -21   31    2     -2.49      0.00
  -10   31    1     -1.72      0.00
  -10   31    4      1.18      0.00
  -10   31    7     -4.12      0.00
  -22   32    9      5.17      0.00
  -22   32    6      0.87      0.00
  -22   32    3     -1.82      0.00
  -10   32    0     -0.94      0.00
  -10   32    3      4.45      0.00
  -10   32    6     -5.56      0.00
  -10   32    9     -0.02      0.00
  -23   33    7     -1.34      0.00
  -23   33    4      1.63      0.00
  -23   33    1     -5.14      0.00
  -10   33    2      5.64      0.00
  -10   33    5      3.85      0.00
  -10   33    8      0.17      0.00
  -24   34    5     -2.48      0.00
  -24   34    2      1.05      0.00
  -10   34    1     -2.97      0.00
  -10   34    4      3.56      0.00
  -10   34    7      0.26      0.00
  -25   35    6     -1.01      0.00
  -25   35    3      2.16      0.00
  -10   35    0     -2.37      0.00
  -10   35    3     -1.02      0.00
  -10   35    6     -1.63      0.00
  -26   36    4      1.69      0.00
  -26   36    1      0.41      0.00
  -10   36    2     -0.36      0.00
  -10   36    5     -5.27      0.00
  -27   37    5     -4.20      0.00
  -27   37    2      0.10      0.00
  -10   37    1     -0.88      0.00
  -10   37    4      0.22      0.00
  -28   38    3     -1.87      0.00
  -10   38    0     -0.90      0.00
  -10   38    3      1.65      0.00
  -29   39    1      3.48      0.00
   -3   14   13     -3.49      0.00
  -10   21   11     -1.81      0.00
  -11   22   12      0.58      0.00
  -11   22    9     -2.47      0.00
  -11   22    6     -3.16      0.00
  -11   22    3      5.09      0.00
  -11   22    0     -0.89      0.00
  -12   23   10      1.27      0.00
  -12   23    7     -2.11      0.00
  -12   23    4     -0.21      0.00
  -12   23    1      6.42      0.00
  -11   23    2      1.82      0.00
  -11   23    5     -6.47      0.00
  -11   23    8     -2.44      0.00
  -11   23   11      0.68      0.00
  -13   24   11      1.00      0.00
  -13   24    8     -1.39      0.00
  -13   24    5      1.21      0.00
  -13   24    2     -0.11      0.00
  -11   24    1      5.07      0.00
  -11   24    4      1.12      0.00
  -11   24    7     -2.29      0.00
  -11   24   10      4.21      0.00
  -14   25    9      0.72      0.00
  -14   25    6     -1.22      0.00
  -14   25    3     -4.28      0.00
  -11   25    0     -0.92      0.00
  -11   25    3      6.47      0.00
  -11   25    6      4.87      0.00
  -11   25    9      3.04      0.00
  -15   26   10     -0.02      0.00
  -15   26    7      0.95      0.00
  -15   26    4     -3.31      0.00
  -15   26    1      0.10      0.00
  -11   26    2     -0.25      0.00
  -11   26    5      3.12      0.00
  -11   26    8      3.23      0.00
  -11   26   11     -2.36      0.00
  -16   27   11      1.87      0.00
  -16   27    8     -5.90      0.00
  -16   27    5      0.77      0.00
  -16   27    2      1.06      0.00
  -11   27    1      0.31      0.00
  -11   27    4     -5.04      0.00
  -11   27    7     -0.64      0.00
  -11   27   10     -0.20      0.00
  -17   28    9     -0.36      0.00
  -17   28    6     -2.32      0.00
  -17   28    3      4.59      0.00
  -11   28    0      2.52      0.00
  -11   28    3     -5.08      0.00
  -11   28    6     -2.57      0.00
  -11   28    9      2.54      0.00
  -18   29   10      0.92      0.00
  -18   29    7      0.56      0.00
  -18   29    4     -1.45      0.00
  -18   29    1      2.75      0.00
  -11   29    2      4.67      0.00
  -11   29    5      0.16      0.00
  -11   29    8      2.98      0.00
  -19   30    8      0.98      0.00
  -19   30    5     -1.47      0.00
  -19   30    2     -3.75      0.00
  -11   30    1      1.16      0.00
  -11   30    4      5.63      0.00
  -11   30    7      1.73      0.00
  -11   30   10     -1.40      0.00
  -20   31    9     -0.87      0.00
  -20   31    6      1.78      0.00
  -20   31    3     -6.77      0.00
  -11   31    0     -0.51      0.00
  -11   31    3      3.24      0.00
  -11   31    6     -0.72      0.00
  -11   31    9     -2.85      0.00
  -21   32    7     -0.58      0.00
  -21   32    4     -1.82      0.00
  -21   32    1     -2.93      0.00
  -11   32    2      6.65      0.00
  -11   32    5     -3.83      0.00
  -11   32    8      0.34      0.00
  -22   33    8      1.87      0.00
  -22   33    5     -3.82      0.00
  -22   33    2     -0.16      0.00
  -11   33    1      0.75      0.00
  -11   33    4      5.09      0.00
  -11   33    7     -0.57      0.00
  -23   34    6      1.01      0.00
  -23   34    3     -2.00      0.00
  -11   34    0     -1.81      0.00
  -11   34    3      2.98      0.00
  -11   34    6      1.07      0.00
  -24   35    7      1.44      0.00
  -24   35    4      2.21      0.00
  -24   35    1     -4.45      0.00
  -11   35    2      2.05      0.00
  -11   35    5      0.57      0.00
  -25   36    5     -1.15      0.00
  -25   36    2     -0.47      0.00
  -11   36    1     -2.93      0.00
  -11   36    4     -2.66      0.00
  -26   37    3     -0.41      0.00
  -11   37    0     -4.99      0.00
  -11   37    3      0.79      0.00
  -27   38    4     -0.61      0.00
  -27   38    1     -1.76      0.00
  -11   38    2     -1.09      0.00
  -28   39    2      0.10      0.00
  -11   39    1      2.11      0.00
  -12   24   12      3.28      0.00
  -12   24    9      1.34      0.00
  -12   24    6     -2.79      0.00
  -12   24    3      2.54      0.00
  -12   24    0      7.40      0.00
  -13   25   10      6.61      0.00
  -13   25    7     -0.78      0.00
  -13   25    4     -1.48      0.00
  -13   25    1      4.98      0.00
  -12   25    2      3.32      0.00
  -12   25    5      6.07      0.00
  -12   25    8      2.07      0.00
  -12   25   11      2.35      0.00
  -14   26   11      2.17      0.00
  -14   26    8      3.53      0.00
  -14   26    5     -1.69      0.00
  -14   26    2     -7.71      0.00
  -12   26    1      2.96      0.00
  -12   26    4      7.33      0.00
  -12   26    7      2.08      0.00
  -12   26   10      3.24      0.00
  -15   27    9      1.17      0.00
  -15   27    6     -2.63      0.00
  -15   27    3     -1.12      0.00
  -12   27    0     -5.00      0.00
  -12   27    3      2.98      0.00
  -12   27    6      1.34      0.00
  -12   27    9      2.59      0.00
  -16   28   10      2.11      0.00
  -16   28    7     -4.04      0.00
  -16   28    4      2.33      0.00
  -16   28    1      0.47      0.00
  -12   28    2      1.44      0.00
  -12   28    5     -0.22      0.00
  -12   28    8      3.02      0.00
  -17   29    8     -3.75      0.00
  -17   29    5     -0.90      0.00
  -17   29    2      1.44      0.00
  -12   29    1      3.42      0.00
  -12   29    4      3.65      0.00
  -12   29    7      1.94      0.00
  -12   29   10     -1.18      0.00
  -18   30    9      0.71      0.00
  -18   30    6     -2.67      0.00
  -18   30    3     -3.00      0.00
  -12   30    0      3.40      0.00
  -12   30    3      2.48      0.00
  -12   30    6      3.49      0.00
  -12   30    9     -0.74      0.00
  -19   31    7      0.77      0.00
  -19   31    4     -2.33      0.00
  -19   31    1      2.34      0.00
  -12   31    2      2.58      0.00
  -12   31    5      2.59      0.00
  -12   31    8     -1.21      0.00
  -20   32    8     -2.25      0.00
  -20   32    5      0.91      0.00
  -20   32    2     -0.65      0.00
  -12   32    1     -2.73      0.00
  -12   32    4      4.92      0.00
  -12   32    7      2.99      0.00
  -21   33    6     -1.17      0.00
  -21   33    3     -4.47      0.00
  -12   33    0      1.98      0.00
  -12   33    3      1.82      0.00
  -12   33    6      0.44      0.00
  -22   34    7      1.21      0.00
  -22   34    4     -4.31      0.00
  -22   34    1      3.60      0.00
  -12   34    2      3.93      0.00
  -12   34    5      0.48      0.00
  -12   34    8      0.66      0.00
  -23   35    5     -0.55      0.00
  -23   35    2      3.34      0.00
  -12   35    1      1.73      0.00
  -12   35    4      0.38      0.00
  -12   35    7      0.59      0.00
  -24   36    6      4.19      0.00
  -24   36    3      1.20      0.00
  -12   36    0     -3.15      0.00
  -12   36    3     -0.10      0.00
  -12   36    6      1.80      0.00
  -25   37    4      4.36      0.00
  -25   37    1     -5.70      0.00
  -12   37    2      1.08      0.00
  -12   37    5     -2.88      0.00
  -26   38    2     -2.41      0.00
  -12   38    1      0.43      0.00
  -12   38    4     -0.80      0.00
  -12   39    0      0.26      0.00
   -1   14   12      2.47      0.00
  -13   26    9      6.50      0.00
  -13   26    6      0.70      0.00
  -13   26    3     -0.87      0.00
  -13   26    0     -0.45      0.00
  -14   27   10      2.77      0.00
  -14   27    7      3.14      0.00
  -14   27    4     -2.37      0.00
  -14   27    1     -2.27      0.00
  -13   27    2     -2.03      0.00
  -13   27    5      4.26      0.00
  -13   27    8      4.47      0.00
  -13   27   11      0.43      0.00
  -15   28    8     -0.08      0.00
  -15   28    5      0.52      0.00
  -15   28    2     -4.33      0.00
  -13   28    1     -0.31      0.00
  -13   28    4      7.03      0.00
  -13   28    7      2.12      0.00
  -13   28   10      0.80      0.00
  -16   29    9      0.09      0.00
  -16   29    6     -1.90      0.00
  -16   29    3      0.85      0.00
  -13   29    0     -1.38      0.00
  -13   29    3      3.18      0.00
  -13   29    6      0.22      0.00
  -13   29    9      1.54      0.00
  -17   30   10     -0.87      0.00
  -17   30    7     -3.59      0.00
  -17   30    4     -1.16      0.00
  -17   30    1      4.17      0.00
  -13   30    2      1.62      0.00
  -13   30    5     -1.57      0.00
  -13   30    8      1.49      0.00
  -18   31    8     -1.65      0.00
  -18   31    5     -0.80      0.00
  -18   31    2      4.50      0.00
  -13   31    1     -2.34      0.00
  -13   31    4      3.57      0.00
  -13   31    7      2.18      0.00
  -19   32    9      2.82      0.00
  -19   32    6      3.00      0.00
  -19   32    3      0.28      0.00
  -13   32    0     -0.57      0.00
  -13   32    3      2.73      0.00
  -13   32    6      2.76      0.00
  -13   32    9     -2.11      0.00
  -20   33    7     -0.45      0.00
  -20   33    4      1.91      0.00
  -20   33    1     -0.89      0.00
  -13   33    2      2.92      0.00
  -13   33    5     -1.96      0.00
  -13   33    8      2.30      0.00
  -21   34    8     -2.00      0.00
  -21   34    5     -2.78      0.00
  -21   34    2      1.80      0.00
  -13   34    1      2.48      0.00
  -13   34    4     -1.61      0.00
  -13   34    7      2.32      0.00
  -22   35    6      1.80      0.00
  -22   35    3     -1.00      0.00
  -13   35    0      8.86      0.00
  -13   35    3     -3.37      0.00
  -13   35    6      1.53      0.00
  -23   36    4      2.11      0.00
  -23   36    1      5.46      0.00
  -13   36    2      2.45      0.00
  -13   36    5      0.77      0.00
  -24   37    5      0.60      0.00
  -24   37    2      1.31      0.00
  -13   37    1     -0.47      0.00
  -13   37    4      0.51      0.00
  -25   38    3      0.16      0.00
  -13   38    0     -3.46      0.00
  -13   38    3      3.27      0.00
  -26   39    1      0.31      0.00
  -13   39    2      3.44      0.00
   -3   17   13      1.30      0.00
  -14   28    9      2.21      0.00
  -14   28    6      2.53      0.00
  -14   28    3     -0.39      0.00
  -14   28    0     -4.50      0.00
  -15   29   10      0.33      0.00
  -15   29    7      0.51      0.00
  -15   29    4     -0.10      0.00
  -15   29    1     -1.66      0.00
  -14   29    2     -0.48      0.00
  -14   29    5      0.81      0.00
  -14   29    8      0.92      0.00
  -16   30    8     -4.05      0.00
  -16   30    5     -2.15      0.00
  -16   30    2      1.57      0.00
  -14   30    1     -0.78      0.00
  -14   30    4     -1.60      0.00
  -14   30    7     -0.63      0.00
  -14   30   10      0.37      0.00
  -17   31    9      0.90      0.00
  -17   31    6     -1.66      0.00
  -17   31    3      3.14      0.00
  -14   31    0     -0.29      0.00
  -14   31    3     -2.74      0.00
  -14   31    6     -1.60      0.00
  -14   31    9     -0.57      0.00
  -18   32    7      2.01      0.00
  -18   32    4      5.43      0.00
  -18   32    1      0.09      0.00
  -14   32    2      2.17      0.00
  -14   32    5     -2.77      0.00
  -14   32    8     -1.07      0.00
  -19   33    8      2.17      0.00
  -19   33    5      3.45      0.00
  -19   33    2     -1.18      0.00
  -14   33    1     -2.43      0.00
  -14   33    4      1.86      0.00
  -14   33    7      0.63      0.00
  -20   34    6      0.19      0.00
  -20   34    3     -1.08      0.00
  -14   34    0     -0.13      0.00
  -14   34    3     -1.30      0.00
  -14   34    6     -2.33      0.00
  -21   35    7     -1.05      0.00
  -21   35    4      1.51      0.00
  -21   35    1      3.94      0.00
  -14   35    2      2.25      0.00
  -14   35    5     -2.42      0.00
  -22   36    5     -0.66      0.00
  -22   36    2      4.84      0.00
  -14   36    1      4.73      0.00
  -14   36    4     -0.91      0.00
  -23   37    6      1.26      0.00
  -23   37    3      1.20      0.00
  -14   37    0     -1.15      0.00
  -14   37    3      2.07      0.00
  -14   37    6      0.36      0.00
  -24   38    4      1.28      0.00
  -24   38    1     -1.73      0.00
  -14   38    2      2.02      0.00
  -14   38    5     -0.38      0.00
  -25   39    2      0.34      0.00
  -14   39    1      2.94      0.00
  -14   40    0      3.13      0.00
  -15   30    9      0.04      0.00
  -15   30    6     -1.74      0.00
  -15   30    3     -2.05      0.00
  -15   30    0     -3.82      0.00
  -16   31    7     -3.56      0.00
  -16   31    4     -0.61      0.00
  -16   31    1     -0.25      0.00
  -15   31    2      2.21      0.00
  -15   31    5     -5.80      0.00
  -15   31    8     -3.27      0.00
  -17   32    8     -0.08      0.00
  -17   32    5      0.61      0.00
  -17   32    2      4.19      0.00
  -15   32    1      1.24      0.00
  -15   32    4     -3.34      0.00
  -15   32    7     -1.16      0.00
  -18   33    6      3.42      0.00
  -18   33    3      3.13      0.00
  -15   33    0     -2.07      0.00
  -15   33    3     -3.16      0.00
  -15   33    6     -0.91      0.00
  -19   34    7      2.36      0.00
  -19   34    4      4.97      0.00
  -19   34    1     -6.64      0.00
  -15   34    2     -1.02      0.00
  -15   34    5     -2.45      0.00
  -15   34    8     -1.58      0.00
  -20   35    5      0.83      0.00
  -20   35    2     -3.37      0.00
  -15   35    1      0.47      0.00
  -15   35    4      1.60      0.00
  -15   35    7     -2.47      0.00
  -21   36    6     -0.41      0.00
  -21   36    3      0.57      0.00
  -15   36    0      3.90      0.00
  -15   36    3     -0.30      0.00
  -15   36    6      1.41      0.00
  -22   37    4      4.49      0.00
  -22   37    1      0.61      0.00
  -15   37    2      1.72      0.00
  -15   37    5      0.42      0.00
  -23   38    5      1.42      0.00
  -23   38    2     -1.26      0.00
  -15   38    1     -3.06      0.00
  -15   38    4      0.89      0.00
  -24   39    3     -1.89      0.00
  -15   39    0     -3.54      0.00
  -15   39    3      1.77      0.00
  -25   40    1      3.14      0.00
  -16   32    9     -0.93      0.00
  -16   32    6      0.18      0.00
  -16   32    3     -0.27      0.00
  -16   32    0     -0.32      0.00
  -17   33    7      3.16      0.00
  -17   33    4      1.95      0.00
  -17   33    1     -0.51      0.00
  -16   33    2      1.53      0.00
  -16   33    5     -1.43      0.00
  -16   33    8     -2.03      0.00
  -18   34    8      2.01      0.00
  -18   34    5      0.59      0.00
  -18   34    2     -0.89      0.00
  -16   34    1     -0.97      0.00
  -16   34    4     -1.31      0.00
  -16   34    7     -1.77      0.00
  -19   35    6      1.21      0.00
  -19   35    3      0.31      0.00
  -16   35    0     -1.04      0.00
  -16   35    3     -3.12      0.00
  -16   35    6     -1.07      0.00
  -20   36    7     -0.61      0.00
  -20   36    4      4.91      0.00
  -20   36    1     -1.23      0.00
  -16   36    2      0.38      0.00
  -16   36    5      4.07      0.00
  -21   37    5      3.62      0.00
  -21   37    2     -2.91      0.00
  -16   37    1      4.12      0.00
  -16   37    4      2.46      0.00
  -22   38    3      0.55      0.00
  -16   38    0     -1.87      0.00
  -16   38    3     -0.58      0.00
  -23   39    4      4.29      0.00
  -23   39    1     -1.33      0.00
  -16   39    2     -2.77      0.00
  -24   40    2     -0.09      0.00
  -16   40    1     -0.16      0.00
  -17   34    6      2.35      0.00
  -17   34    3     -3.17      0.00
  -17   34    0      1.12      0.00
  -18   35    7      1.28      0.00
  -18   35    4      0.42      0.00
  -18   35    1      1.28      0.00
  -17   35    2     -0.08      0.00
  -17   35    5     -0.43      0.00
  -19   36    5     -0.12      0.00
  -19   36    2      0.72      0.00
  -17   36    1      3.52      0.00
  -17   36    4      1.83      0.00
  -17   36    7     -0.17      0.00
  -20   37    6      1.33      0.00
  -20   37    3     -0.15      0.00
  -17   37    0      3.16      0.00
  -17   37    3     -0.98      0.00
  -17   37    6      5.09      0.00
  -21   38    4      4.08      0.00
  -21   38    1      0.23      0.00
  -17   38    2     -0.35      0.00
  -17   38    5      3.54      0.00
  -22   39    2     -0.09      0.00
  -17   39    1      0.63      0.00
  -17   39    4      1.07      0.00
  -17   40    0      0.10      0.00
  -18   36    6      0.76      0.00
  -18   36    3     -0.47      0.00
  -18   36    0      3.59      0.00
  -19   37    4     -1.02      0.00
  -19   37    1      2.28      0.00
  -18   37    2      1.64      0.00
  -18   37    5      0.62      0.00
  -20   38    5     -2.01      0.00
  -20   38    2     -0.06      0.00
  -18   38    1      2.06      0.00
  -18   38    4      1.65      0.00
  -21   39    3      2.68      0.00
  -18   39    0     -0.48      0.00
  -18   39    3      1.16      0.00
  -22   40    1      2.77      0.00
  -18   40    2     -0.33      0.00
  -19   38    3      0.17      0.00
  -19   38    0     -3.33      0.00
  -20   39    4     -0.14      0.00
  -20   39    1     -0.67      0.00
  -19   39    2      0.39      0.00
  -21   40    2      2.90      0.00
  -19   40    1      0.28      0.00
  -20   40    0     -3.34      0.00
   -1    2    0    159.76      0.00
    0    3    0    -33.82      0.00
   -2    4    0    -81.68      0.00
   -9   39    0     -0.53      0.00
  -11   40    0      1.16      0.00
  -19   41    0     -0.93      0.00
  -16   41    0      2.73      0.00
   -1    1    1    262.04      0.00
    0    2    1    -86.92      0.00
   -2    3    1   -188.92      0.00
   -3    5    1    -31.23      0.00
  -35   36    1      2.00      0.00
  -34   37    1      3.68      0.00
  -33   38    1     -0.12      0.00
   -6   38    1     -1.72      0.00
   -8   39    1     -0.02      0.00
  -28   40    1      1.13      0.00
  -13   40    1      5.41      0.00
  -24   41    1      3.24      0.00
  -21   41    1      1.18      0.00
  -18   41    1      0.87      0.00
    0    1    2    180.33      0.00
   -5    5    2    212.94      0.00
   -4    6    2    109.97      0.00
  -35   35    2     -3.26      0.00
  -34   36    2      2.93      0.00
   -1   36    2      1.37      0.00
  -33   37    2      0.10      0.00
   -3   37    2     -1.93      0.00
  -32   38    2     -4.19      0.00
  -10   39    2      0.98      0.00
  -27   40    2      0.41      0.00
  -15   40    2     -0.09      0.00
  -12   40    2      1.09      0.00
  -23   41    2      1.26      0.00
  -20   41    2      0.12      0.00
    0    0    3   -101.13      0.00
   -1    2    3    -63.11      0.00
  -33   36    3      3.88      0.00
   -3   36    3      3.51      0.00
  -32   37    3     -3.58      0.00
   -5   37    3     -1.80      0.00
  -31   38    3     -3.98      0.00
   -7   38    3      0.65      0.00
  -27   39    3     -2.22      0.00
  -12   39    3      0.60      0.00
  -26   40    3     -1.71      0.00
  -23   40    3      1.70      0.00
  -20   40    3      2.58      0.00
  -17   40    3      0.03      0.00
  -14   40    3      1.79      0.00
   -1    1    4    -46.97      0.00
    0    2    4     53.11      0.00
  -33   35    4      1.92      0.00
  -32   36    4      1.72      0.00
  -31   37    4     -3.26      0.00
   -7   37    4     -0.89      0.00
  -30   38    4      0.45      0.00
   -9   38    4      1.68      0.00
  -26   39    4      0.40      0.00
  -14   39    4      2.79      0.00
  -22   40    4      2.52      0.00
  -19   40    4      2.28      0.00
    0    1    5    -45.68      0.00
   -2    2    5      3.73      0.00
   -4    6    5    -29.66      0.00
  -33   34    5     -0.99      0.00
    0   34    5     -1.41      0.00
  -32   35    5      3.70      0.00
  -31   36    5     -1.73      0.00
   -9   37    5      3.10      0.00
  -26   38    5     -2.32      0.00
  -11   38    5     -1.83      0.00
  -22   39    5      2.71      0.00
  -19   39    5      0.06      0.00
  -16   39    5     -1.16      0.00
    0    0    6      9.34      0.00
   -1    2    6     17.54      0.00
    0    3    6      0.61      0.00
  -33   33    6      0.49      0.00
    0   33    6     -5.51      0.00
  -32   34    6      1.97      0.00
   -2   34    6     -3.17      0.00
  -27   36    6      0.55      0.00
   -9   36    6     -2.56      0.00
  -26   37    6     -1.36      0.00
  -11   37    6     -4.53      0.00
  -22   38    6      2.01      0.00
  -19   38    6      0.68      0.00
  -16   38    6      2.13      0.00
   -1    1    7     15.20      0.00
    0    2    7    -18.06      0.00
    0   32    7     -3.30      0.00
   -2   33    7     -2.27      0.00
  -28   34    7      3.08      0.00
  -27   35    7      3.46      0.00
   -9   35    7      0.84      0.00
  -23   36    7      3.44      0.00
  -14   36    7     -0.39      0.00
  -11   36    7      2.16      0.00
  -19   37    7      1.20      0.00
    0    1    8     20.85      0.00
  -30   31    8      4.27      0.00
  -29   32    8     -0.62      0.00
   -7   33    8     -1.73      0.00
  -24   34    8     -2.47      0.00
   -9   34    8      0.59      0.00
  -20   35    8     -1.22      0.00
  -17   35    8     -1.04      0.00
  -14   35    8     -0.07      0.00
    0    0    9      7.75      0.00
  -28   29    9     -2.58      0.00
   -1   29    9      1.33      0.00
  -27   30    9      0.56      0.00
   -3   30    9      1.05      0.00
  -26   31    9      6.64      0.00
   -5   31    9      0.66      0.00
  -25   32    9      1.23      0.00
   -7   32    9     -0.20      0.00
  -21   33    9      3.03      0.00
  -18   33    9      4.98      0.00
  -15   33    9     -1.96      0.00
  -12   33    9     -0.07      0.00
   -5    6   10     -3.33      0.00
  -26   27   10      1.42      0.00
  -25   28   10     -0.26      0.00
  -24   29   10      1.04      0.00
  -23   30   10      3.34      0.00
   -8   30   10     -1.08      0.00
  -19   31   10     -0.56      0.00
  -16   31   10      0.48      0.00
  -13   31   10     -1.39      0.00
  -10   31   10     -1.79      0.00
  -24   25   11      2.71      0.00
    0   25   11      3.36      0.00
  -23   26   11      1.19      0.00
   -2   26   11      2.12      0.00
  -22   27   11     -0.04      0.00
   -4   27   11      1.05      0.00
  -21   28   11      0.44      0.00
  -18   28   11      0.53      0.00
  -15   28   11     -0.17      0.00
  -12   28   11     -0.61      0.00
   -9   28   11     -0.48      0.00
  -17   29   11      0.01      0.00
  -14   29   11      2.32      0.00
  -22   23   12      0.27      0.00
   -1   23   12     -5.74      0.00
  -21   24   12      0.42      0.00
  -18   24   12      2.96      0.00
   -6   24   12     -2.24      0.00
   -3   24   12     -1.49      0.00
  -17   25   12      4.77      0.00
  -14   25   12      3.11      0.00
  -11   25   12     -1.82      0.00
   -8   25   12      0.60      0.00
  -13   26   12      0.58      0.00
  -19   19   13     -7.60      0.00
   -1   19   13     -2.01      0.00
  -18   20   13     -2.16      0.00
   -3   20   13      0.70      0.00
  -17   21   13      0.47      0.00
  -14   21   13     -0.19      0.00
  -11   21   13     -0.77      0.00
   -8   21   13      4.08      0.00
   -5   21   13     -2.07      0.00
  -13   22   13     -0.53      0.00
  -10   22   13     -1.03      0.00
   -7   22   13      0.05      0.00
  -14   14   14      0.72      0.00
  -13   15   14      3.05      0.00
   -1   15   14     -1.46      0.00
  -12   16   14      4.41      0.00
   -9   16   14     -0.24      0.00
   -6   16   14     -1.81      0.00
   -3   16   14     -1.09      0.00
  -11   17   14      0.08      0.00
   -8   17   14      0.04      0.00
   -5   17   14     -0.88      0.00
   -6    6   15     -1.52      0.00
    0    6   15     -0.58      0.00
   -5    7   15     -2.61      0.00
   -2    7   15     -4.08      0.00
   -7    8   15      3.42      0.00
   -4    8   15     -2.84      0.00
   -1    8   15      4.68      0.00
   -6    9   15      1.26      0.00
   -3    9   15     -0.90      0.00
   -5   10   15     -2.42      0.00
    0    0    0      0.00      0.00
# SQUEEZE RESULTS (Version = 300118)
# Note: Data are Listed for all Voids in the P1 Unit Cell
# i.e. Centre of Gravity, Solvent Accessible Volume,
# Recovered number of Electrons in the Void and
# Details about the Squeezed Material
loop_
  _platon_squeeze_void_nr
  _platon_squeeze_void_average_x
  _platon_squeeze_void_average_y
  _platon_squeeze_void_average_z
  _platon_squeeze_void_volume
  _platon_squeeze_void_count_electrons
  _platon_squeeze_void_content
   1 -0.000 -0.000 -0.001      1259       256 ' '
   2  0.333  0.667  0.665      1252       254 ' '
   3  0.667  0.333  0.331      1253       254 ' '
# Missing Reflections Below sin(th)/lambda = 0.25
loop_
  _platon_missing_refln_index_h
  _platon_missing_refln_index_k
  _platon_missing_refln_index_l
  _platon_missing_refln_theta
   -1    2    0     1.447
    0    3    0     2.508
   -2    4    0     2.896
   -1    1    1     2.114
    0    2    1     2.562
   -2    3    1     2.943
   -3    5    1     4.131
    0    1    2     3.975
   -5    5    2     5.713
   -4    6    2     5.895
    0    0    3     5.834
   -1    2    3     6.012
   -1    1    4     7.835
    0    2    4     7.969
    0    1    5     9.790
   -2    2    5     9.899
   -4    6    5    10.729
_platon_squeeze_void_probe_radius                  1.20
_platon_squeeze_details
)
TITL pr in R-3m; 100K; Moscow
CELL   31.7680   31.7680   11.8410     90.00     90.00    120.00
SPGR R-3m
# Solvent Accessible Volume =      3766
# Electrons Found in S.A.V. =       754
# Note: Atoms in Void are Labelled as Cxxx and Qxxx for all Others
C101 0.368 0.900 0.720 !       2.16 eA-3
C102 1.000 1.000 0.500 !       2.00 eA-3
C103 0.680 0.542 0.298 !       1.82 eA-3
Q104 0.578 0.784 0.031 !       1.22 eA-3
Q105 0.724 0.577 0.455 !       1.16 eA-3
Q106 0.821 0.248 0.436 !       1.10 eA-3
Q107 0.546 0.802 0.113 !       1.00 eA-3
Q108 0.143 0.221 0.554 !       0.96 eA-3
C109 0.697 0.517 0.202 !       0.95 eA-3
C110 0.149 0.632 0.548 !       0.93 eA-3
Q111 0.211 0.789 0.250 !       0.89 eA-3
Q112 0.497 0.086 0.832 !       0.89 eA-3
C113 0.051 0.194 0.904 !       0.84 eA-3
C114 0.921 0.848 0.107 !       0.84 eA-3
C115 0.415 0.825 0.562 !       0.83 eA-3
C116 0.243 0.726 0.815 !       0.83 eA-3
C117 0.085 0.913 0.909 !       0.83 eA-3
Q118 0.430 0.570 0.172 !       0.81 eA-3
Q119 0.899 0.094 0.329 !       0.79 eA-3
Q120 0.833 0.572 0.885 !       0.74 eA-3
Q121 0.953 0.867 0.170 !       0.72 eA-3
Q122 0.522 0.474 0.753 !       0.72 eA-3
Q123 0.563 0.718 0.158 !       0.71 eA-3
Q124 0.898 0.382 0.821 !       0.70 eA-3
C125 0.110 0.054 0.141 !       0.68 eA-3
C126 1.000 1.000-0.000 !       0.67 eA-3
C127 0.891 0.943 0.016 !       0.67 eA-3
Q128 0.453 0.292 0.883 !       0.64 eA-3
C129 0.471 0.236 0.203 !       0.64 eA-3
Q130 0.529 0.868 0.283 !       0.63 eA-3
Q131 0.403 0.233 0.821 !       0.63 eA-3
Q132 0.460 0.540 0.377 !       0.63 eA-3
Q133 0.304 0.696 0.251 !       0.60 eA-3
Q134 0.572 0.064 0.795 !       0.58 eA-3
Q135 0.517 0.165 0.795 !       0.57 eA-3
Q136 0.085 0.451 0.208 !       0.56 eA-3
Q137 0.874 0.439 0.875 !       0.55 eA-3
Q138 0.896 0.969 0.860 !       0.55 eA-3
Q139 0.500 1.002 0.529 !       0.54 eA-3
C140 1.000 1.000 0.125 !       0.52 eA-3
Q141 0.196 0.805 0.374 !       0.52 eA-3
Q142 0.383 0.618 0.469 !       0.51 eA-3
Q143 0.876 0.940 0.250 !       0.51 eA-3
C144 0.598 0.187 0.343 !       0.51 eA-3
Q145 0.253 0.585 0.172 !       0.50 eA-3
Q146 0.151 0.124 0.137 !       0.50 eA-3
C147 0.358 0.440 0.661 !       0.50 eA-3
)
;
_shelx_fab_checksum              5076
loop_
_space_group_symop_operation_xyz
'x, y, z'
'-y, x-y, z'
'-x+y, -x, z'
'y, x, -z'
'x-y, -y, -z'
'-x, -x+y, -z'
'x+2/3, y+1/3, z+1/3'
'-y+2/3, x-y+1/3, z+1/3'
'-x+y+2/3, -x+1/3, z+1/3'
'y+2/3, x+1/3, -z+1/3'
'x-y+2/3, -y+1/3, -z+1/3'
'-x+2/3, -x+y+1/3, -z+1/3'
'x+1/3, y+2/3, z+2/3'
'-y+1/3, x-y+2/3, z+2/3'
'-x+y+1/3, -x+2/3, z+2/3'
'y+1/3, x+2/3, -z+2/3'
'x-y+1/3, -y+2/3, -z+2/3'
'-x+1/3, -x+y+2/3, -z+2/3'
'-x, -y, -z'
'y, -x+y, -z'
'x-y, x, -z'
'-y, -x, z'
'-x+y, y, z'
'x, x-y, z'
'-x+2/3, -y+1/3, -z+1/3'
'y+2/3, -x+y+1/3, -z+1/3'
'x-y+2/3, x+1/3, -z+1/3'
'-y+2/3, -x+1/3, z+1/3'
'-x+y+2/3, y+1/3, z+1/3'
'x+2/3, x-y+1/3, z+1/3'
'-x+1/3, -y+2/3, -z+2/3'
'y+1/3, -x+y+2/3, -z+2/3'
'x-y+1/3, x+2/3, -z+2/3'
'-y+1/3, -x+2/3, z+2/3'
'-x+y+1/3, y+2/3, z+2/3'
'x+1/3, x-y+2/3, z+2/3'
loop_
_atom_site_label
_atom_site_type_symbol
_atom_site_fract_x
_atom_site_fract_y
_atom_site_fract_z
_atom_site_U_iso_or_equiv
_atom_site_adp_type
_atom_site_occupancy
_atom_site_site_symmetry_order
_atom_site_calc_flag
_atom_site_refinement_flags_posn
_atom_site_refinement_flags_adp
_atom_site_refinement_flags_occupancy
Zn1 Zn 0.42470(3) 0.21235(2) 0.86162(8) 0.0468(4) Uani 1 2 d S T P
Zn2 Zn 0.46875(3) 0.333333 0.833333 0.0563(4) Uani 1 2 d S T P
S1 S 0.44349(6) 0.44349(6) 0.500000 0.0527(6) Uani 1 2 d S T P
O11 O 0.43495(16) 0.34669(16) 0.7125(5) 0.0727(14) Uani 1 1 d . . .
O12 O 0.48973(16) 0.42499(14) 0.6917(4) 0.0648(12) Uani 1 1 d . . .
C11 C 0.4508(2) 0.3873(2) 0.6681(5) 0.0529(13) Uani 1 1 d . . .
C12 C 0.4205(2) 0.39105(19) 0.5761(6) 0.0547(14) Uani 1 1 d . . .
C13 C 0.3751(2) 0.3581(2) 0.5440(6) 0.0647(16) Uani 1 1 d . . .
H13 H 0.356601 0.326921 0.577378 0.078 Uiso 1 1 calc R U .
O21 O 0.47204(15) 0.27706(14) 0.7988(4) 0.0651(12) Uani 1 1 d D U .
C21 C 0.5143(6) 0.2786(7) 0.763(2) 0.084(4) Uani 0.5 1 d D U P
H21 H 0.538355 0.290686 0.826416 0.101 Uiso 0.5 1 calc R U P
C22 C 0.5057(5) 0.2291(6) 0.7256(15) 0.069(4) Uani 0.5 1 d D U P
H22A H 0.493243 0.222237 0.647191 0.083 Uiso 0.5 1 calc R U P
H22B H 0.536504 0.228348 0.728355 0.083 Uiso 0.5 1 calc R U P
C23 C 0.5366(6) 0.3124(6) 0.6612(15) 0.096(5) Uani 0.5 1 d D U P
H23A H 0.545382 0.345584 0.682737 0.144 Uiso 0.5 1 calc R U P
H23B H 0.512884 0.301351 0.599506 0.144 Uiso 0.5 1 calc R U P
H23C H 0.565740 0.311854 0.636364 0.144 Uiso 0.5 1 calc R U P
N1 N 0.3674(2) 0.18372(11) 0.7412(5) 0.0449(13) Uani 1 2 d S TU P
C1 C 0.3839(4) 0.1721(5) 0.6372(11) 0.064(3) Uani 0.5 1 d . U P
H1A H 0.398247 0.151501 0.655112 0.077 Uiso 0.5 1 calc R U P
H1B H 0.409613 0.202560 0.602572 0.077 Uiso 1 2 calc R U P
C2 C 0.3519(5) 0.2176(4) 0.7138(12) 0.057(3) Uani 0.5 1 d . U P
H2A H 0.380428 0.248791 0.690490 0.068 Uiso 0.5 1 calc R U P
H2B H 0.337647 0.223800 0.781666 0.068 Uiso 0.5 1 calc R U P
C3 C 0.3245(5) 0.1365(4) 0.7813(12) 0.068(3) Uani 0.5 1 d . U P
H3A H 0.314139 0.140954 0.857172 0.081 Uiso 0.5 1 calc R U P
H3B H 0.333522 0.110959 0.786247 0.081 Uiso 0.5 1 calc R U P
loop_
_atom_site_aniso_label
_atom_site_aniso_U_11
_atom_site_aniso_U_22
_atom_site_aniso_U_33
_atom_site_aniso_U_23
_atom_site_aniso_U_13
_atom_site_aniso_U_12
Zn1 0.0505(6) 0.0430(5) 0.0493(6) 0.00160(19) 0.0032(4) 0.0253(3)
Zn2 0.0587(6) 0.0398(5) 0.0641(8) 0.0062(4) 0.0031(2) 0.0199(3)
S1 0.0462(7) 0.0462(7) 0.0494(12) 0.0035(5) -0.0035(5) 0.0108(8)
O11 0.066(3) 0.058(2) 0.078(3) 0.021(2) -0.008(2) 0.019(2)
O12 0.072(3) 0.044(2) 0.060(3) 0.0011(19) -0.019(2) 0.0150(19)
C11 0.052(3) 0.051(3) 0.050(3) 0.001(3) 0.003(3) 0.021(2)
C12 0.056(3) 0.045(3) 0.051(3) 0.004(2) 0.000(3) 0.016(2)
C13 0.059(3) 0.045(3) 0.069(4) 0.008(3) -0.003(3) 0.011(2)
O21 0.058(2) 0.049(2) 0.082(3) 0.007(2) 0.021(2) 0.0223(19)
C21 0.077(6) 0.066(6) 0.092(8) 0.012(6) 0.030(6) 0.024(5)
C22 0.069(7) 0.067(7) 0.079(10) 0.020(7) 0.033(7) 0.038(6)
C23 0.092(8) 0.076(7) 0.106(10) 0.013(7) 0.043(8) 0.031(6)
N1 0.053(3) 0.042(2) 0.043(3) 0.0007(13) 0.001(3) 0.0265(15)
C1 0.061(5) 0.088(6) 0.051(6) -0.008(5) -0.001(5) 0.043(5)
C2 0.067(6) 0.043(5) 0.067(7) -0.010(5) -0.022(5) 0.033(4)
C3 0.067(6) 0.053(5) 0.051(6) 0.013(5) -0.017(5) 0.005(5)
loop_
_atom_type_symbol
_atom_type_description
_atom_type_scat_dispersion_real
_atom_type_scat_dispersion_imag
_atom_type_scat_source
C C 0.0050 0.0020 'International Tables Vol C Tables 4.2.6.8 and 6.1.1.4'
H H 0.0000 0.0000 'International Tables Vol C Tables 4.2.6.8 and 6.1.1.4'
N N 0.0090 0.0040 'International Tables Vol C Tables 4.2.6.8 and 6.1.1.4'
O O 0.0150 0.0080 'International Tables Vol C Tables 4.2.6.8 and 6.1.1.4'
S S 0.1500 0.1580 'International Tables Vol C Tables 4.2.6.8 and 6.1.1.4'
Zn Zn 0.2120 1.8140 'International Tables Vol C Tables 4.2.6.8 and 6.1.1.4'
loop_
_geom_angle_atom_site_label_1
_geom_angle_atom_site_label_2
_geom_angle_atom_site_label_3
_geom_angle
_geom_angle_site_symmetry_1
_geom_angle_site_symmetry_3
O12 Zn1 O12 83.1(2) 17_556 33_546
O12 Zn1 N1 100.09(19) 17_556 .
O12 Zn1 N1 100.09(19) 33_546 .
O21 Zn1 O12 92.64(17) . 17_556
O21 Zn1 O12 92.64(17) 24 33_546
O21 Zn1 O12 156.3(2) . 33_546
O21 Zn1 O12 156.3(2) 24 17_556
O21 Zn1 O21 82.0(2) 24 .
O21 Zn1 N1 103.6(2) . .
O21 Zn1 N1 103.6(2) 24 .
O11 Zn2 O11 97.9(3) 17_556 .
O21 Zn2 O11 110.1(2) . .
O21 Zn2 O11 110.1(2) 17_556 17_556
O21 Zn2 O11 110.59(18) . 17_556
O21 Zn2 O11 110.60(18) 17_556 .
O21 Zn2 O21 116.1(3) . 17_556
C12 S1 C12 90.6(4) 4_556 .
C11 O11 Zn2 123.5(4) . .
C11 O12 Zn1 143.4(4) . 32_556
O11 C11 O12 126.5(6) . .
O11 C11 C12 116.5(5) . .
O12 C11 C12 117.1(5) . .
C11 C12 S1 118.9(4) . .
C13 C12 S1 112.3(5) . .
C13 C12 C11 128.8(5) . .
C12 C13 C13 112.4(4) . 4_556
C12 C13 H13 123.8 . .
C13 C13 H13 123.8 4_556 .
Zn2 O21 Zn1 121.8(2) . .
C21 O21 Zn1 111.7(7) . .
C21 O21 Zn2 123.0(9) . .
C22 O21 Zn1 114.4(9) 24 .
C22 O21 Zn2 123.7(9) 24 .
C22 O21 C21 21.2(15) 24 .
O21 C21 H21 108.9 . .
O21 C21 C22 112.5(15) . .
O21 C21 H22B 113.4(18) . 24
O21 C21 C23 111.4(13) . .
H21 C21 H22B 84.1 . 24
C22 C21 H21 108.9 . .
C22 C21 H22B 124.2(18) . 24
C22 C21 C23 106.0(16) . .
C23 C21 H21 108.9 . .
C23 C21 H22B 26.4(18) . 24
O21 C22 C21 107.2(14) 24 .
O21 C22 H22A 110.3 24 .
O21 C22 H22B 110.3 24 .
C21 C22 H22A 110.3 . .
C21 C22 H22B 110.3 . .
H22A C22 H22B 108.5 . .
C21 C23 H22B 31(2) . 24
C21 C23 H23A 109.5 . .
C21 C23 H23B 109.5 . .
C21 C23 H23C 109.5 . .
H23A C23 H22B 84.2 . 24
H23A C23 H23B 109.5 . .
H23A C23 H23C 109.5 . .
H23B C23 H22B 137.6 . 24
H23B C23 H23C 109.5 . .
H23C C23 H22B 102.6 . 24
C1 N1 Zn1 109.7(6) . .
C1 N1 Zn1 109.7(6) 24 .
C1 N1 C1 51.3(12) . 24
C1 N1 C3 106.0(8) . .
C1 N1 C3 106.0(8) 24 24
C1 N1 C3 137.9(8) . 24
C1 N1 C3 137.9(8) 24 .
C2 N1 Zn1 112.0(5) . .
C2 N1 Zn1 112.0(5) 24 .
C2 N1 C1 60.0(8) . 24
C2 N1 C1 60.0(8) 24 .
C2 N1 C1 107.5(9) . .
C2 N1 C1 107.5(9) 24 24
C2 N1 C2 135.9(10) 24 .
C2 N1 C3 48.5(8) . 24
C2 N1 C3 48.5(8) 24 .
C2 N1 C3 109.7(9) . .
C2 N1 C3 109.7(9) 24 24
C3 N1 Zn1 111.6(6) . .
C3 N1 Zn1 111.6(6) 24 .
C3 N1 C3 65.3(13) . 24
N1 C1 H1A 109.2 . .
N1 C1 H1B 109.2 . .
N1 C1 C2 86.7(8) . 25_556
N1 C1 C3 112.0(9) . 12_556
H1A C1 H1B 107.9 . .
C2 C1 H1A 95.2 25_556 .
C2 C1 H1B 144.8 25_556 .
C3 C1 H1A 109.2 12_556 .
C3 C1 H1B 109.2 12_556 .
C3 C1 C2 36.4(7) 12_556 25_556
N1 C2 C1 89.3(7) . 25_556
N1 C2 C2 111.7(5) . 12_556
N1 C2 H2A 109.3 . .
N1 C2 H2B 109.3 . .
N1 C2 C3 91.3(8) . 25_556
C1 C2 H2A 153.7 25_556 .
C1 C2 H2B 81.8 25_556 .
C2 C2 C1 45.0(9) 12_556 25_556
C2 C2 H2A 109.3 12_556 .
C2 C2 H2B 109.3 12_556 .
C2 C2 C3 37.2(8) 12_556 25_556
H2A C2 H2B 107.9 . .
C3 C2 C1 71.9(6) 25_556 25_556
C3 C2 H2A 88.7 25_556 .
C3 C2 H2B 146.4 25_556 .
N1 C3 C1 108.1(9) . 12_556
N1 C3 C2 86.6(8) . 25_556
N1 C3 H2B 102.7(13) . 24
N1 C3 H3A 110.1 . .
N1 C3 H3B 110.1 . .
C1 C3 C2 45.8(7) 12_556 25_556
C1 C3 H2B 112.7(14) 12_556 24
C1 C3 H3A 110.1 12_556 .
C1 C3 H3B 110.1 12_556 .
C2 C3 H2B 79.4(12) 25_556 24
C2 C3 H3A 155.3 25_556 .
C2 C3 H3B 81.1 25_556 .
H3A C3 H2B 112.8 . 24
H3A C3 H3B 108.4 . .
H3B C3 H2B 7.4 . 24
loop_
_geom_bond_atom_site_label_1
_geom_bond_atom_site_label_2
_geom_bond_distance
_geom_bond_site_symmetry_2
_geom_bond_publ_flag
Zn1 O12 2.043(4) 17_556 yes
Zn1 O12 2.043(4) 33_546 ?
Zn1 O21 1.987(4) . yes
Zn1 O21 1.987(4) 24 ?
Zn1 N1 2.125(6) . yes
Zn2 O11 1.959(5) . yes
Zn2 O11 1.959(5) 17_556 ?
Zn2 O21 1.887(4) . yes
Zn2 O21 1.887(4) 17_556 ?
S1 C12 1.704(6) . ?
S1 C12 1.704(6) 4_556 ?
O11 C11 1.243(7) . ?
O12 C11 1.248(7) . ?
C11 C12 1.498(9) . ?
C12 C13 1.346(8) . ?
C13 C13 1.398(13) 4_556 ?
C13 H13 0.9500 . ?
O21 C21 1.386(11) . ?
O21 C22 1.383(10) 24 ?
C21 H21 1.0000 . ?
C21 C22 1.520(16) . ?
C21 H22B 0.94(3) 24 ?
C21 C23 1.532(17) . ?
C22 H22A 0.9900 . ?
C22 H22B 0.9900 . ?
C23 H23A 0.9800 . ?
C23 H23B 0.9800 . ?
C23 H23C 0.9800 . ?
N1 C1 1.456(13) . ?
N1 C1 1.456(13) 24 ?
N1 C2 1.428(10) . ?
N1 C2 1.428(10) 24 ?
N1 C3 1.513(12) . ?
N1 C3 1.513(12) 24 ?
C1 H1A 0.9900 . ?
C1 H1B 0.9900 . ?
C1 C2 2.036(18) 25_556 ?
C1 C3 1.540(17) 12_556 ?
C2 C2 1.51(2) 12_556 ?
C2 H2A 0.9900 . ?
C2 H2B 0.9900 . ?
C2 C3 2.00(2) 25_556 ?
C3 H3A 0.9900 . ?
C3 H3B 0.9900 . ?
