#------------------------------------------------------------------------------
#$Date: 2019-11-02 05:14:57 +0200 (Sat, 02 Nov 2019) $
#$Revision: 220675 $
#$URL: file:///home/coder/svn-repositories/cod/cif/4/12/73/4127399.cif $
#------------------------------------------------------------------------------
#
# This file is available in the Crystallography Open Database (COD),
# http://www.crystallography.net/
#
# All data on this site have been placed in the public domain by the
# contributors.
#
data_4127399
loop_
_publ_author_name
'Rouhani, Farzaneh'
'Rafizadeh-Masuleh, Fatemeh'
'Morsali, Ali'
_publ_section_title
;
 Highly Electroconductive Metal-Organic Framework: Tunable by Metal Ion
 Sorption Quantity.
;
_journal_issue                   28
_journal_name_full               'Journal of the American Chemical Society'
_journal_page_first              11173
_journal_page_last               11182
_journal_paper_doi               10.1021/jacs.9b04173
_journal_volume                  141
_journal_year                    2019
_chemical_formula_sum            'C21 H15 N2 O5 Zn'
_chemical_formula_weight         440.72
_space_group_crystal_system      orthorhombic
_space_group_IT_number           73
_space_group_name_Hall           '-I 2b 2c'
_space_group_name_H-M_alt        'I b c a'
_symmetry_space_group_name_Hall  '-I 2b 2c'
_symmetry_space_group_name_H-M   'I b c a'
_atom_sites_solution_hydrogens   geom
_audit_creation_method           SHELXL-2016/6
_cell_angle_alpha                90
_cell_angle_beta                 90
_cell_angle_gamma                90
_cell_formula_units_Z            16
_cell_length_a                   17.6350(15)
_cell_length_b                   22.345(2)
_cell_length_c                   22.944(2)
_cell_measurement_reflns_used    9676
_cell_measurement_temperature    150(2)
_cell_measurement_theta_max      30.88
_cell_measurement_theta_min      2.31
_cell_volume                     9041.2(14)
_computing_structure_refinement  'SHELXL-2016/6 (Sheldrick, 2016)'
_diffrn_ambient_temperature      150(2)
_diffrn_measured_fraction_theta_full 1.000
_diffrn_measured_fraction_theta_max 0.968
_diffrn_measurement_device_type  'CCD area detector'
_diffrn_measurement_method       'phi and omega scans'
_diffrn_radiation_monochromator  graphite
_diffrn_radiation_source         'sealed tube'
_diffrn_radiation_type           MoK\a
_diffrn_radiation_wavelength     0.71073
_diffrn_reflns_av_R_equivalents  0.0255
_diffrn_reflns_av_unetI/netI     0.0132
_diffrn_reflns_Laue_measured_fraction_full 1.000
_diffrn_reflns_Laue_measured_fraction_max 0.968
_diffrn_reflns_limit_h_max       26
_diffrn_reflns_limit_h_min       -25
_diffrn_reflns_limit_k_max       32
_diffrn_reflns_limit_k_min       -32
_diffrn_reflns_limit_l_max       33
_diffrn_reflns_limit_l_min       -33
_diffrn_reflns_number            7394
_diffrn_reflns_point_group_measured_fraction_full 1.000
_diffrn_reflns_point_group_measured_fraction_max 0.968
_diffrn_reflns_theta_full        25.242
_diffrn_reflns_theta_max         31.691
_diffrn_reflns_theta_min         1.775
_exptl_absorpt_coefficient_mu    1.117
_exptl_absorpt_correction_T_max  0.7463
_exptl_absorpt_correction_T_min  0.6892
_exptl_absorpt_correction_type   empirical
_exptl_absorpt_process_details   sadabs
_exptl_crystal_colour            orange-red
_exptl_crystal_density_diffrn    1.295
_exptl_crystal_description       block
_exptl_crystal_F_000             3600
_exptl_crystal_size_max          0.50
_exptl_crystal_size_mid          0.40
_exptl_crystal_size_min          0.34
_refine_diff_density_max         0.935
_refine_diff_density_min         -0.533
_refine_diff_density_rms         0.071
_refine_ls_extinction_method     none
_refine_ls_goodness_of_fit_ref   1.103
_refine_ls_hydrogen_treatment    constr
_refine_ls_matrix_type           full
_refine_ls_number_parameters     263
_refine_ls_number_reflns         7394
_refine_ls_number_restraints     0
_refine_ls_restrained_S_all      1.103
_refine_ls_R_factor_all          0.0719
_refine_ls_R_factor_gt           0.0448
_refine_ls_shift/su_max          0.040
_refine_ls_shift/su_mean         0.001
_refine_ls_structure_factor_coef Fsqd
_refine_ls_weighting_details
'w=1/[\s^2^(Fo^2^)+(0.0440P)^2^+21.3378P] where P=(Fo^2^+2Fc^2^)/3'
_refine_ls_weighting_scheme      calc
_refine_ls_wR_factor_gt          0.1080
_refine_ls_wR_factor_ref         0.1323
_reflns_Friedel_coverage         0.000
_reflns_number_gt                5268
_reflns_number_total             7394
_reflns_threshold_expression     'I > 2\s(I)'
_cod_data_source_file            ja9b04173_si_001.cif
_cod_data_source_block           shelx
_cod_database_code               4127399
_shelx_shelxl_version_number     2016/6
_shelx_space_group_comment
;
The symmetry employed for this shelxl refinement is uniquely defined
by the following loop, which should always be used as a source of
symmetry information in preference to the above space-group names.
They are only intended as comments.
;
_shelx_res_file
;
TITL mors8
    shelx.res
    created by SHELXL-2016/6 at 15:27:32 on 11-Jan-2018
CELL  0.71073  17.6350  22.3450  22.9440   90.000   90.000   90.000
ZERR     16.00   0.0015   0.0020   0.0020    0.000    0.000    0.000
LATT   2
SYMM  - X, 1/2 - Y,   Z
SYMM    X, - Y, 1/2 - Z
SYMM  1/2 - X,   Y, - Z
SFAC  C    H    N    O    ZN
UNIT  336  240  32   80   16
MERG   2
ABIN
BOND $H
FMAP   2
PLAN   5
ACTA
L.S.   5
WGHT    0.044000   21.337799
FVAR      10.05527
ZN1   5    0.055910    0.005211    0.048003    11.00000    0.03432    0.03877 =
         0.02934    0.00909   -0.00517   -0.00379
O5    4   -0.296951    0.221295    0.172064    11.00000    0.07975    0.06597 =
         0.04568    0.01945    0.00300    0.03615
N2    3    0.399281    0.025951    0.194013    11.00000    0.03379    0.10481 =
         0.03859   -0.01912    0.00630   -0.01499
AFIX 147
H2B   2    0.404604    0.006968    0.163702    11.00000   -1.20000
AFIX   0
O3    4   -0.026690    0.052958    0.089936    11.00000    0.05799    0.06500 =
         0.05042    0.01331    0.01087    0.01416
C3    1    0.061963    0.168092   -0.132039    11.00000    0.04095    0.04318 =
         0.04178    0.01140   -0.00175   -0.00728
AFIX  43
H3    2    0.017573    0.152224   -0.147534    11.00000   -1.20000
AFIX   0
C13   1   -0.143881    0.104023    0.095310    11.00000    0.05399    0.03664 =
         0.04073    0.01047    0.00147    0.00361
C4    1    0.156874    0.169876   -0.057006    11.00000    0.04561    0.04248 =
         0.04256    0.01221   -0.00407   -0.00937
AFIX  43
H4    2    0.175648    0.155619   -0.021765    11.00000   -1.20000
AFIX   0
O4    4    0.107265   -0.044792   -0.015609    11.00000    0.07242    0.05833 =
         0.05509   -0.00818    0.00673    0.00363
C1    1    0.052365    0.094529   -0.049364    11.00000    0.03738    0.03268 =
         0.03674    0.00612    0.00064   -0.00206
N1    3    0.142381    0.008744    0.106029    11.00000    0.03558    0.04553 =
         0.03453    0.01210   -0.00509   -0.00553
O2    4    0.078982    0.078894   -0.000987    11.00000    0.05108    0.04259 =
         0.04215    0.01642   -0.00773   -0.01074
C7    1    0.166441    0.235946   -0.138644    11.00000    0.05455    0.04485 =
         0.04213    0.01130    0.00239   -0.01359
O1    4    0.002741   -0.070433    0.075035    11.00000    0.05331    0.04774 =
         0.04933    0.01822   -0.01216   -0.01925
C19   1    0.265224    0.009650    0.183666    11.00000    0.03006    0.04994 =
         0.02999   -0.00209    0.00150   -0.00375
C2    1    0.090164    0.145948   -0.079584    11.00000    0.03958    0.03377 =
         0.03749    0.00821    0.00087   -0.00329
C20   1    0.332377    0.008485    0.221281    11.00000    0.02768    0.05855 =
         0.03210   -0.00922    0.00135   -0.00253
C5    1    0.099523    0.213648   -0.161414    11.00000    0.05172    0.04988 =
         0.04095    0.01428   -0.00355   -0.00753
AFIX  43
H5    2    0.079930    0.228971   -0.195961    11.00000   -1.20000
AFIX   0
C8    1   -0.246120    0.182639    0.144747    11.00000    0.05807    0.04339 =
         0.04226    0.01355   -0.00055    0.01517
C15   1    0.148376   -0.031997    0.148813    11.00000    0.03585    0.03694 =
         0.03520    0.00408   -0.00197   -0.00338
AFIX  43
H15   2    0.110859   -0.061034    0.152236    11.00000   -1.20000
AFIX   0
C14   1   -0.088574    0.064037    0.064728    11.00000    0.05829    0.03855 =
         0.04905    0.01301    0.01072    0.00217
C17   1    0.207908   -0.032612    0.187966    11.00000    0.03475    0.03662 =
         0.03660    0.00466   -0.00439   -0.00115
AFIX  43
H17   2    0.209539   -0.061389    0.217223    11.00000   -1.20000
AFIX   0
C18   1    0.259149    0.050606    0.138725    11.00000    0.05178    0.07241 =
         0.05396    0.02037   -0.01009   -0.02723
AFIX  43
H18   2    0.296331    0.079685    0.133801    11.00000   -1.20000
AFIX   0
C11   1   -0.125184    0.135283    0.145315    11.00000    0.04600    0.04602 =
         0.04785    0.00699   -0.00284    0.00063
AFIX  43
H11   2   -0.077794    0.129749    0.162263    11.00000   -1.20000
AFIX   0
C6    1    0.195568    0.214474   -0.086184    11.00000    0.04914    0.05086 =
         0.04991    0.01237   -0.00578   -0.01673
AFIX  43
H6    2    0.240393    0.229951   -0.071058    11.00000   -1.20000
AFIX   0
C12   1   -0.215528    0.111625    0.072001    11.00000    0.07066    0.05707 =
         0.04746    0.00050   -0.01663    0.01420
AFIX  43
H12   2   -0.229435    0.089727    0.039231    11.00000   -1.20000
AFIX   0
C9    1   -0.176148    0.174705    0.170444    11.00000    0.05828    0.04253 =
         0.04427    0.00335   -0.00310    0.00244
AFIX  43
H9    2   -0.163393    0.195525    0.204144    11.00000   -1.20000
AFIX   0
C10   1   -0.266730    0.150901    0.096238    11.00000    0.06096    0.06278 =
         0.05879    0.00864   -0.01803    0.01836
AFIX  43
H10   2   -0.314595    0.155800    0.079906    11.00000   -1.20000
AFIX   0
C16   1    0.198081    0.048473    0.101148    11.00000    0.06394    0.07095 =
         0.05182    0.03178   -0.01620   -0.02785
AFIX  43
H16   2    0.195814    0.076183    0.070954    11.00000   -1.20000
AFIX   0
C21   1    0.466437    0.026064    0.229585    11.00000    0.03854    0.20955 =
         0.05144   -0.01864    0.00321   -0.02927
AFIX  23
H21A  2    0.468741    0.062974    0.251767    11.00000   -1.20000
H21B  2    0.510946    0.024196    0.204812    11.00000   -1.20000
AFIX   0
HKLF    4




REM  mors8
REM R1 =  0.0448 for    5268 Fo > 4sig(Fo)  and  0.0719 for all    7394 data
REM    263 parameters refined using      0 restraints

END

WGHT      0.0431     21.9991

REM Highest difference peak  0.935,  deepest hole -0.533,  1-sigma level  0.071
Q1    1   0.1675 -0.0033 -0.0482  11.00000  0.05    0.94
Q2    1   0.4426  0.0004  0.1422  11.00000  0.05    0.74
Q3    1   0.0606 -0.0290  0.0079  11.00000  0.05    0.40
Q4    1   0.0563 -0.0106  0.0476  11.00000  0.05    0.39
Q5    1   0.0806 -0.0743  0.0002  11.00000  0.05    0.38
;
_shelx_res_checksum              21730
_shelx_hkl_file
;
   2   0   012217789   70801
   4   0   0  484949    6106
   6   0   0 6094197   34380
   8   0   0 6586419   37433
  10   0   0 2854847   17473
  12   0   0    6900    1971
  14   0   0  206109    7294
  16   0   0  484282   10296
  18   0   0 1056933   14762
  20   0   0 1481318   18506
  22   0   0   -6527    6527
  24   0   0   63435    8257
   0   2   057424513 1333786
   2   2   014886719   59187
   4   2   0   44438    1646
   6   2   0 7075998   28143
   8   2   0 2038535    9304
  10   2   0 7827880   31565
  12   2   0 1702258    8787
  14   2   0  224245    4735
  16   2   0  276450    6462
  18   2   0  863987    9611
  20   2   0  712823   10058
  22   2   0   18760    4888
  24   2   0   96717    6580
   0   4   070429450  474534
   2   4   0 8124101   41151
   4   4   0 2880909   11833
   6   4   0  149733    1849
   8   4   0 5691319   23175
  10   4   0 3419874   15233
  12   4   0 1047032    5895
  14   4   0   11457    2262
  16   4   0  360756    6873
  18   4   0 1162802   11028
  20   4   0  814138   12027
  22   4   0   -4687    4687
  24   4   0  132516    6771
   0   6   019348639  119989
   2   6   0  324055    3908
   4   6   0 3544727   15229
   6   6   0 6173940   24886
   8   6   0 6695861   27100
  10   6   015344288   60827
  12   6   0  607338    4493
  14   6   0   36623    2589
  16   6   0  652838    8081
  18   6   0 1279152   12529
  20   6   0  314021    8729
  22   6   0   -5103    5103
  24   6   0  138792    6848
   0   8   0 2554156   15065
   2   8   0 1691788    7440
   4   8   0  305125    2472
   6   8   0  143881    2319
   8   8   0 3374372   14473
  10   8   0 7450176   30427
  12   8   0 1934035    9959
  14   8   0  520424    6226
  16   8   0  310068    6913
  18   8   0 1468633   12421
  20   8   0   68527    4697
  22   8   0   41904    5610
  24   8   0   83170    6585
   0  10   0 2020217   13543
   2  10   0 1356652    6362
   4  10   0   43877    1755
   6  10   0 1520721    8337
   8  10   0 9390676   37857
  10  10   0 8758342   37380
  12  10   0 1219493   10032
  14  10   0  305552    5712
  16  10   0 1146584   10470
  18  10   0 1044825   11854
  20  10   0  372815   10356
  22  10   0   11587    5410
  24  10   0  118946    8729
   0  12   0 8355686   51632
   2  12   0 7251321   29281
   4  12   0  566555    3918
   6  12   0  386600    3771
   8  12   0 4073077   17577
  10  12   0 8002924   32943
  12  12   0  668671    5682
  14  12   0  458733    6097
  16  12   0 1061475   10232
  18  12   0 1312155   13307
  20  12   0   33055    5097
  22  12   0   13257    6132
   0  14   0 7682302   53866
   2  14   0 5901343   24282
   4  14   0   48570    3253
   6  14   0 2264718   10613
   8  14   0 2555546   12525
  10  14   0  109103    2602
  12  14   0    1936    2287
  14  14   0   37331    2983
  16  14   0  744034    9188
  18  14   0  185895   10236
  20  14   0   27802    5687
  22  14   0   62726    9492
   0  16   0 1502666   10757
   2  16   0 2619757   12375
   4  16   0  431488    3882
   6  16   0  289124    4059
   8  16   0  223159    7258
  10  16   0 1593581   10423
  12  16   0   36816    3187
  14  16   0    4526    3564
  16  16   0  767946   12864
  18  16   0  372575   12258
  20  16   0    7194    6497
  22  16   0    2274   10983
   0  18   0 5174074   57056
   2  18   0  292090    5370
   4  18   0  268915    5054
   6  18   0   33607    2508
   8  18   0 1804867   10851
  10  18   0 1131756    8535
  12  18   0   73931    3679
  14  18   0   -3708    3708
  16  18   0  312101   12499
  18  18   0  168062    8183
  20  18   0   72422    9420
   0  20   0  983071   12206
   2  20   0  686308    7533
   4  20   0   11522    2948
   6  20   0  659144    8115
   8  20   0  329893    7180
  10  20   0 1052557   11856
  12  20   0  225395    6712
  14  20   0   -4454    4454
  16  20   0   75686    8298
  18  20   0  176640   10071
   0  22   0 1590823   16770
   2  22   0  143042    6120
   4  22   0   -1555    3254
   6  22   0  255486    6855
   8  22   0  602169    8378
  10  22   0  800362    9957
  12  22   0  142404    6279
  14  22   0   10120    6165
  16  22   0  135796   16441
   0  24   0  388314   16611
   2  24   0  248706    7429
   4  24   0     389    3632
   6  24   0   42341    4047
   8  24   0  687216    9341
  10  24   0  259328    8717
  12  24   0   95501    5773
  14  24   0   45197    8647
  16  24   0  107223   19300
   0  26   0  122375    6834
   2  26   0   50313    4422
   4  26   0   34390    4349
   6  26   0   81725    4709
   8  26   0   95247    5399
  10  26   0   37771    5138
  12  26   0    6098    7233
  14  26   0   87065   12099
   0  28   0  766502   15338
   2  28   0   21616    4626
   4  28   0     250    4506
   6  28   0   21341    5181
   8  28   0   34248    5421
  10  28   0   -5778    5778
  12  28   0   -5502   10858
   0  30   0  124345    8162
   2  30   0   67954    5454
   4  30   0   28082    5646
   6  30   0   18835    6208
   8  30   0   30652    6447
  10  30   0   69313   11870
   0  32   0    8961   10353
   2  32   0    2490    8385
   4  32   0    9293   15011
   2   1   1 2089312    6037
   4   1   1  727635    2871
   6   1   1  253753    1569
   8   1   1   35797    1039
  10   1   1  142496    1748
  12   1   1 1014275    4267
  14   1   1 1653782    7363
  16   1   1  411631    4913
  18   1   1   38581    2654
  20   1   1  102085    3377
  22   1   1   72446    3670
  24   1   1   13304    4039
   1   2   1  362353    2346
   3   2   1 8008380   26282
   5   2   1 1290443    4039
   7   2   1  782190    2999
   9   2   1 2179196    7022
  11   2   1 1113274    4288
  13   2   1   26314    1401
  15   2   1   19559    1963
  17   2   1   -2226    2226
  19   2   1    5825    2705
  21   2   1   16977    3183
  23   2   1   -3718    3718
  25   2   1    7981    6875
   2   3   1 4546565   14025
   4   3   1  379248    2789
   6   3   1   16290     547
   8   3   1  672410    2749
  10   3   1  661985    3352
  12   3   1 1264388    4867
  14   3   1 1526356    7017
  16   3   1  145904    3426
  18   3   1   11292    2540
  20   3   1   80359    3252
  22   3   1   55976    3586
  24   3   1   49954    4221
   1   4   1  227574    3302
   3   4   1 8518102   24387
   5   4   1 2680300    8075
   7   4   1    1676     661
   9   4   1   82191    1820
  11   4   1 1042382    4710
  13   4   1  359410    3086
  15   4   1  625181    5215
  17   4   1   33209    2441
  19   4   1   -2673    2673
  21   4   1    -213    3111
  23   4   1   -3708    3708
  25   4   1   15416    6710
   2   5   1  287212    2723
   4   5   1 1113246    3687
   6   5   1  550729    2363
   8   5   1  292486    1953
  10   5   1  194084    3316
  12   5   1 1195016    4709
  14   5   1 1408813    6742
  16   5   1  383435    4957
  18   5   1   20521    2612
  20   5   1   18523    3012
  22   5   1   23705    3657
  24   5   1   29582    4275
   1   6   1 3254957   14667
   3   6   1 1397263    4460
   5   6   1   28720     762
   7   6   1   74391    2005
   9   6   1   12838     873
  11   6   1  111480    2287
  13   6   1  425831    3280
  15   6   1   77669    2332
  17   6   1    2795    2350
  19   6   1    1943    2748
  21   6   1   -3284    3284
  23   6   1   12388    3990
  25   6   1     522    7242
   2   7   1   72879    1193
   4   7   1 2019144    6183
   6   7   1    5709     728
   8   7   1  143540    1910
  10   7   1   50137    1326
  12   7   1  478623    3458
  14   7   1  170236    3176
  16   7   1   10507    2196
  18   7   1   19821    2678
  20   7   1   -2904    2904
  22   7   1   88855    4120
  24   7   1   22865    4303
   1   8   1    5889     505
   3   8   1   19548     639
   5   8   1   18952     756
   7   8   1  186647    1795
   9   8   1   18132    1092
  11   8   1  263741    3273
  13   8   1  355542    3261
  15   8   1   -1894    1894
  17   8   1   22919    2485
  19   8   1   -2780    2780
  21   8   1   12632    3417
  23   8   1   26794    4106
  25   8   1   28593   17156
   2   9   1   69451    1151
   4   9   1 3031422    9273
   6   9   1 1508584    5105
   8   9   1  742217    3265
  10   9   1   -1060    1060
  12   9   1  107847    2249
  14   9   1  308658    3766
  16   9   1   -2178    2178
  18   9   1   -2597    2635
  20   9   1   15110    3265
  22   9   1   18406    3862
  24   9   1    5732    5538
   1  10   1    2507     620
   3  10   1   24989     985
   5  10   1  926030    3644
   7  10   1  181018    1902
   9  10   1  188537    2173
  11  10   1    5189    1207
  13  10   1  186996    3117
  15  10   1  256076    4446
  17  10   1    1081    2441
  19  10   1   -2980    2980
  21  10   1   -3029    3555
  23  10   1   64996    4400
   2  11   1  112863    1545
   4  11   1 4722665   14111
   6  11   1  410182    2486
   8  11   1   58134    1181
  10  11   1    2972    1196
  12  11   1    2721    1325
  14  11   1  131496    3225
  16  11   1   23316    2415
  18  11   1   -2820    2820
  20  11   1    -601    3405
  22  11   1    3369    3891
  24  11   1    4031    7925
   1  12   1    6985     790
   3  12   1 2801313    8612
   5  12   1 2104998    6990
   7  12   1  215379    2201
   9  12   1   98151    2750
  11  12   1   20764    1421
  13  12   1  658585    4406
  15  12   1  307533    4734
  17  12   1   94775    3120
  19  12   1   41578    3377
  21  12   1   22611    3958
  23  12   1   42532    5092
   2  13   1   15442     825
   4  13   1  674996    3070
   6  13   1  346730    2545
   8  13   1   11165    1165
  10  13   1  342730    3064
  12  13   1   59837    1667
  14  13   1  114814    2400
  16  13   1   19765    2458
  18  13   1    2257    2970
  20  13   1   -1964    3625
  22  13   1   38981    4746
   1  14   1 1181676    4492
   3  14   1 6034645   17921
   5  14   1 1229555    4658
   7  14   1  611642    3464
   9  14   1   10885    1318
  11  14   1  259747    3175
  13  14   1   95103    2198
  15  14   1   76075    2516
  17  14   1   59128    3183
  19  14   1    9201    3679
  21  14   1    5461    4599
  23  14   1   20015   17156
   2  15   1  216916    2376
   4  15   1  635762    3195
   6  15   1   66390    1473
   8  15   1  296544    2934
  10  15   1  390807    3595
  12  15   1  116377    3223
  14  15   1  122420    2967
  16  15   1  119979    3656
  18  15   1   -1817    3683
  20  15   1   -4665    4665
  22  15   1   16970    6112
   1  16   1  823514    4263
   3  16   1 2138048    7547
   5  16   1 1059027    4792
   7  16   1    2988    1276
   9  16   1   60381    1782
  11  16   1   35376    1895
  13  16   1  211517    4845
  15  16   1   36127    3142
  17  16   1   26057    4111
  19  16   1   21095    4850
  21  16   1    -531    5267
   2  17   1    5690    1259
   4  17   1 1153426    5695
   6  17   1     183    1457
   8  17   1   36352    1719
  10  17   1   -1915    1915
  12  17   1    1788    1970
  14  17   1  137746    3800
  16  17   1     -76    3845
  18  17   1    5144    4594
  20  17   1   -2085    5170
  22  17   1   10140   10858
   1  18   1  260051    4499
   3  18   1  774894    4953
   5  18   1  121007    2947
   7  18   1  309677    3775
   9  18   1  216106    3786
  11  18   1  278034    4006
  13  18   1  243142    5514
  15  18   1   43568    3753
  17  18   1   37049    4603
  19  18   1   11561    5070
  21  18   1   21183   10722
   2  19   1    7567    1864
   4  19   1   45676    2102
   6  19   1   -1834    1834
   8  19   1    9124    2090
  10  19   1   58575    2379
  12  19   1    1359    2472
  14  19   1  104841    4557
  16  19   1   54176    4801
  18  19   1    7631    5780
  20  19   1    2859   13582
   1  20   1  231578    4105
   3  20   1  223019    4764
   5  20   1  135024    2806
   7  20   1   88563    2588
   9  20   1   93893    2780
  11  20   1   64894    2774
  13  20   1  206495    7278
  15  20   1  171942    5870
  17  20   1    1698    6271
  19  20   1   -2577    6966
   2  21   1   29174    2244
   4  21   1  223941    4436
   6  21   1   31984    2430
   8  21   1    5312    2347
  10  21   1   39755    2689
  12  21   1   -1979    2919
  14  21   1   40928    4221
  16  21   1   -2075    6166
  18  21   1   -5152    7757
   1  22   1   63276    2573
   3  22   1  243920    4712
   5  22   1  322822    5027
   7  22   1  316149    5249
   9  22   1   19304    2691
  11  22   1   56746    3071
  13  22   1  131502    4583
  15  22   1  183478    7571
  17  22   1    2666    7769
   2  23   1    -772    2410
   4  23   1   19714    2529
   6  23   1   18025    2604
   8  23   1   -2629    2629
  10  23   1    3390    2968
  12  23   1    4834    3798
  14  23   1   -2022    4989
  16  23   1    2969    7757
   1  24   1  176938    4234
   3  24   1  133050    3220
   5  24   1  397526    5695
   7  24   1  191015    3797
   9  24   1    8339    2954
  11  24   1   78992    3720
  13  24   1  332763    9505
  15  24   1   49928    7058
   2  25   1   78170    3104
   4  25   1   43122    2917
   6  25   1    1650    2820
   8  25   1   -2166    2994
  10  25   1   -3242    3242
  12  25   1   11305    4267
  14  25   1    5623    5536
   1  26   1  376346    6187
   3  26   1  119741    3449
   5  26   1  200266    5664
   7  26   1  134401    3787
   9  26   1   10985    3632
  11  26   1  208582    6387
  13  26   1  284411   11187
  15  26   1   30023   15726
   2  27   1   69156    3372
   4  27   1    8273    3064
   6  27   1   31998    3371
   8  27   1   -1913    3556
  10  27   1   -3733    3733
  12  27   1   21421    5457
  14  27   1   13000   10858
   1  28   1   33933    3408
   3  28   1  259868    7414
   5  28   1   96003    3811
   7  28   1   21613    3857
   9  28   1    1593    3880
  11  28   1   35919    5013
  13  28   1   51891    8209
   2  29   1   10737    3386
   4  29   1   15445    3559
   6  29   1    6586    3907
   8  29   1   -3926    3926
  10  29   1   -4783    4783
   1  30   1   32056    3678
   3  30   1  118196    4216
   5  30   1   86630    4484
   7  30   1    5396    4146
   9  30   1   -4283    6828
   2  31   1   18582    3931
   4  31   1   16204    4779
   6  31   1   15587    6348
   1  32   1   -5829    5829
   3  32   1   29449    7678
   5  32   1   98645   17871
   0   0   227571313  213357
   2   0   231169841  175021
   4   0   2  118574    1829
   6   0   2 8325817   34584
   8   0   2 7718892   32442
  10   0   2 4138680   19108
  12   0   2  484794    4056
  14   0   2  876728    7234
  16   0   2 1290692   10421
  18   0   2  708609    9056
  20   0   2  505389    9258
  22   0   2   20108    4923
  24   0   2   70522    6267
  26   0   2   40745   17871
   1   1   2   13708     515
   3   1   2 3355728   10197
   5   1   2  398670    3067
   7   1   2 2529005    7962
   9   1   2   39344    1121
  11   1   2  205224    2170
  13   1   2   61529    1540
  15   1   2    7906    1823
  17   1   2    -410    2218
  19   1   2  104515    3160
  21   1   2   24566    3211
  23   1   2      69    3748
  25   1   2     611    6260
   0   2   219134963   79345
   2   2   221420217   61225
   4   2   2   64978     849
   6   2   2 4439729   13012
   8   2   2 4747035   14368
  10   2   2 1146658    4437
  12   2   2  386303    2804
  14   2   2  531764    4206
  16   2   2 1702671    8686
  18   2   2  781478    6646
  20   2   2  302423    6149
  22   2   2   14210    3608
  24   2   2   47225    4395
   1   3   2  213528    1736
   3   3   215409883   45921
   5   3   2   76041    1028
   7   3   2  853064    3160
   9   3   2  365704    2169
  11   3   2   20042     985
  13   3   2  467978    3873
  15   3   2   -1772    1772
  17   3   2  161640    9305
  19   3   2    3695    2676
  21   3   2   12966    3199
  23   3   2     345    3772
  25   3   2    3687    7560
   0   4   2  924931    8602
   2   4   211844742   34116
   4   4   2  255865    2960
   6   4   2 2314577    7138
   8   4   2 4076852   11974
  10   4   2 4282114   13033
  12   4   2 1635013    6453
  14   4   2   32107    1732
  16   4   2 2005445    9689
  18   4   2  615401    6198
  20   4   2  169985    3987
  22   4   2   -3485    3485
  24   4   2   89909    4379
   1   5   2  758517    3323
   3   5   2 9815439   28580
   5   5   2  193194    1334
   7   5   2  423339    2177
   9   5   2  429490    2315
  11   5   2   22899    1025
  13   5   2    2162    1303
  15   5   2   -1836    1836
  17   5   2   21565    2378
  19   5   2   14731    2787
  21   5   2   -3242    3242
  23   5   2    7192    3771
  25   5   2   13865    7268
   0   6   2  689263    5576
   2   6   2 1749227    5502
   4   6   2  111793    1498
   6   6   2  298302    1847
   8   6   2 3067812    9510
  10   6   2 4121232   12346
  12   6   2 1459721    6896
  14   6   2  159060    2996
  16   6   2  731957    5961
  18   6   2  706278    6477
  20   6   2  419443    6782
  22   6   2   -3528    3528
  24   6   2   58245    4431
   1   7   2   36958     963
   3   7   2  418275    2290
   5   7   2    1337     682
   7   7   2  470586    2400
   9   7   2 1078350    4096
  11   7   2   73008    1393
  13   7   2  563644    3756
  15   7   2   -1867    1867
  17   7   2   43229    2536
  19   7   2    1500    2764
  21   7   2    -971    3324
  23   7   2   35785    4146
  25   7   2    9245   11297
   0   8   2   41082    1162
   2   8   2  395413    1909
   4   8   2  450761    2134
   6   8   2 1347992    4708
   8   8   2 5289162   15824
  10   8   2 4954856   14717
  12   8   2 1624929    6730
  14   8   2   62356    2201
  16   8   2  969304    6712
  18   8   2  509637    6110
  20   8   2  283936    6606
  22   8   2   -3579    3579
  24   8   2   71295    5361
   1   9   2  381244    2179
   3   9   2 3913314   11926
   5   9   2   49191    1176
   7   9   2  391874    2428
   9   9   2   29715    1338
  11   9   2   47448    1427
  13   9   2  509149    3790
  15   9   2  753870    5787
  17   9   2   96088    2871
  19   9   2   41873    3130
  21   9   2    -260    3395
  23   9   2    2611    4188
  25   9   2    2144   17156
   0  10   2 3638735   16579
   2  10   2 4478082   13603
   4  10   2  578615    3025
   6  10   2  933853    3727
   8  10   2 4631975   14073
  10  10   2 4017838   12602
  12  10   2 1552795    6894
  14  10   2  631817    4734
  16  10   2 1067235    7150
  18  10   2  621395    6813
  20  10   2  340463    6870
  22  10   2   -3798    3798
  24  10   2   40843    6680
   1  11   2  627230    3304
   3  11   2  262860    2044
   5  11   2   57464    1067
   7  11   2    3067    1173
   9  11   2  391554    3987
  11  11   2  778428    5665
  13  11   2  317729    3416
  15  11   2   79489    2496
  17  11   2  227979    5801
  19  11   2   39109    3210
  21  11   2   -3644    3644
  23  11   2    8522    4439
   0  12   2 6351503   28279
   2  12   2 4124353   13026
   4  12   2   10441     815
   6  12   2 1336449    4963
   8  12   2 3097043   10163
  10  12   2 2013570   10632
  12  12   2  147073    3092
  14  12   2  393703    4186
  16  12   2  360157    5624
  18  12   2  267723    6156
  20  12   2  280528    7135
  22  12   2   -3218    4240
  24  12   2   16441   15726
   1  13   2   42252    1117
   3  13   2   16405     854
   5  13   2  151752    2353
   7  13   2   59599    1267
   9  13   2   -1231    1536
  11  13   2   19566    1462
  13  13   2   -1587    1587
  15  13   2   45909    2432
  17  13   2   12112    2821
  19  13   2   13006    3305
  21  13   2   77689    4466
  23  13   2    2942    6852
   0  14   2 4937024   22563
   2  14   2 3738400   11835
   4  14   2  379488    2909
   6  14   2  975285    4194
   8  14   2 2194284    7855
  10  14   2  512102    3499
  12  14   2    3180    1589
  14  14   2  163555    4425
  16  14   2  421301    6219
  18  14   2  101464    3598
  20  14   2  120219    4985
  22  14   2    7924    4925
   1  15   2  402258    4040
   3  15   2  481575    3895
   5  15   2  639926    3455
   7  15   2  185941    2751
   9  15   2  969102    4795
  11  15   2  661576    4185
  13  15   2   -2066    2066
  15  15   2   47593    3058
  17  15   2   86297    3876
  19  15   2   46407    4597
  21  15   2    3931    5227
   0  16   2 2016469   11199
   2  16   2 1577509    6132
   4  16   2   10117    1169
   6  16   2  334225    3067
   8  16   2  959843    5185
  10  16   2   99066    2006
  12  16   2  242260    4032
  14  16   2   89650    2794
  16  16   2   74698    3536
  18  16   2   89982    5105
  20  16   2  129270    5837
  22  16   2   -5178    7664
   1  17   2  753629    4125
   3  17   2   39712    1550
   5  17   2  153166    2594
   7  17   2  582958    4186
   9  17   2  288325    3736
  11  17   2  214267    3928
  13  17   2   10123    2584
  15  17   2   59615    3513
  17  17   2   69744    4504
  19  17   2   19113    4636
  21  17   2    8873    6154
   0  18   2 2021504   11824
   2  18   2  646091    4394
   4  18   2   -1583    1583
   6  18   2   58441    1937
   8  18   2  413287    4089
  10  18   2  530496    4782
  12  18   2  254350    5092
  14  18   2   21479    4042
  16  18   2   81443    4830
  18  18   2  113460    5481
  20  18   2  119867    6054
   1  19   2  285109    4137
   3  19   2   -1213    1860
   5  19   2   74546    2148
   7  19   2  116965    2581
   9  19   2  211053    3944
  11  19   2  143619    3841
  13  19   2   -2942    2942
  15  19   2    1638    4175
  17  19   2    -751    4971
  19  19   2   16527    5693
   0  20   2 1662852   11601
   2  20   2  277819    4378
   4  20   2   -1983    1983
   6  20   2  298658    4445
   8  20   2  641805    5381
  10  20   2  315800    5057
  12  20   2  320615    5604
  14  20   2   -3351    4047
  16  20   2   70939    6491
  18  20   2   83918    6664
  20  20   2   73627   15726
   1  21   2  594986    5372
   3  21   2   -2148    2148
   5  21   2   -2185    2185
   7  21   2   27356    2438
   9  21   2  243755    4969
  11  21   2  156969    4103
  13  21   2   -3499    3499
  15  21   2   82314    5987
  17  21   2   16383    7678
   0  22   2  496185    7709
   2  22   2  597290    5611
   4  22   2   -2338    2338
   6  22   2  178906    3886
   8  22   2  370326    5338
  10  22   2  340967    5709
  12  22   2  106981    3864
  14  22   2   -1678    4772
  16  22   2   82617    7025
   1  23   2  716732    6175
   3  23   2   -2419    2419
   5  23   2   -2469    2469
   7  23   2    4573    2641
   9  23   2  124790    3415
  11  23   2  109335    3644
  13  23   2    -341    3988
  15  23   2   76857    6324
   0  24   2  441317    8164
   2  24   2  128241    3197
   4  24   2   -2558    2558
   6  24   2   89243    3099
   8  24   2  238546    5689
  10  24   2  161800    4086
  12  24   2   13560    4320
  14  24   2    2712    5633
  16  24   2   51467   17156
   1  25   2  233388    6483
   3  25   2    1213    2718
   5  25   2   -2726    2726
   7  25   2     377    2973
   9  25   2   24433    3457
  11  25   2   -1253    3827
  13  25   2   -3302    4845
  15  25   2    3574   16441
   0  26   2  195160   11417
   2  26   2  121232    3459
   4  26   2   -2855    2855
   6  26   2  101432    3582
   8  26   2   48463    3573
  10  26   2    3657    3610
  12  26   2   -1391    4430
  14  26   2   -5320   10858
   1  27   2  174977    4456
   3  27   2   35961    3192
   5  27   2   -3182    3182
   7  27   2   40671    3657
   9  27   2   30260    3845
  11  27   2   21002    4375
  13  27   2   10193    6836
   0  28   2  108385    5242
   2  28   2   60796    3488
   4  28   2     695    3372
   6  28   2   31135    3695
   8  28   2   29699    3984
  10  28   2   29473    4115
  12  28   2   -6221    6221
   1  29   2   64284    3661
   3  29   2    7524    3566
   5  29   2   -3099    3675
   7  29   2   -2438    3937
   9  29   2  154563    4838
  11  29   2   69207    9905
   0  30   2   21248    5072
   2  30   2   36238    3870
   4  30   2   -3822    3822
   6  30   2   -1600    3921
   8  30   2    2050    4795
  10  30   2   48604   11870
   1  31   2   43473    4244
   3  31   2   -3851    4029
   5  31   2   12654    5017
   7  31   2    5712    8588
   0  32   2    2737   10353
   2  32   2   16753    6208
   4  32   2    5466    7738
   6  32   2   -4289   15726
   2   1   3 1953576    5786
   4   1   3 2011300    7263
   6   1   3 3631289   11601
   8   1   3 2870018    9600
  10   1   3  707777    3341
  12   1   3 2512022    8775
  14   1   3 1970698    8413
  16   1   3  841143    6097
  18   1   3   -2448    2448
  20   1   3  137825    3532
  22   1   3  346670    7304
  24   1   3   64806    4468
   1   2   3 2164896    7356
   3   2   3  334569    3372
   5   2   3  518092    2206
   7   2   3  770382    3203
   9   2   3   24530     920
  11   2   3  269068    2370
  13   2   3  145858    3172
  15   2   3    -918    1701
  17   2   3   25886    2361
  19   2   3   -2653    2653
  21   2   3   11293    3189
  23   2   3   21824    3883
  25   2   3     120    7150
   2   3   340543684  118555
   4   3   3 3504272   10058
   6   3   3 3194577    9354
   8   3   3 2365681    7646
  10   3   3 1496583    5626
  12   3   3 3307571   11143
  14   3   3 1647130    7360
  16   3   3  233394    4595
  18   3   3   79677    2841
  20   3   3  140765    3532
  22   3   3  387863    7503
  24   3   3  101581    4657
   1   4   3 4711958   13784
   3   4   312042267   34501
   5   4   3 1356836    4307
   7   4   3 1263226    4356
   9   4   3  433021    2370
  11   4   3  253901    2307
  13   4   3  879769    4633
  15   4   3  240130    3807
  17   4   3   -2256    2256
  19   4   3   -2678    2678
  21   4   3    3966    3319
  23   4   3   18537    4075
  25   4   3    9678    7357
   2   5   323542213   74190
   4   5   312319984   37629
   6   5   3 2972225    8848
   8   5   3 1543458    5165
  10   5   3   39964    1122
  12   5   3 3990225   15585
  14   5   3 1133297    5794
  16   5   3  599765    5563
  18   5   3   12078    2537
  20   5   3   65027    3376
  22   5   3  192117    4509
  24   5   3  179824    6226
   1   6   3  736156    2731
   3   6   3 7769274   21793
   5   6   3    2483     632
   7   6   3 3851804   11373
   9   6   3   66800    1693
  11   6   3   74483    1406
  13   6   3  689364    4217
  15   6   3  117811    3537
  17   6   3   16199    2411
  19   6   3    2559    2884
  21   6   3   23804    3468
  23   6   3   19577    3890
  25   6   3   -9293   16441
   2   7   3 8349487   25023
   4   7   3 2660339    8282
   6   7   3 7930445   22481
   8   7   3 1406759    4859
  10   7   3   66404    1526
  12   7   3 2190504    8089
  14   7   3  736100    4847
  16   7   3  544111    5647
  18   7   3   -2617    2617
  20   7   3   42900    3342
  22   7   3  339218    7492
  24   7   3   52927    4790
   1   8   3    2952     544
   3   8   3  285122    2103
   5   8   3  732718    4467
   7   8   3 1046905    3974
   9   8   3  355869    2395
  11   8   3   42820    1224
  13   8   3   12620    1487
  15   8   3    1094    1905
  17   8   3    7719    2442
  19   8   3   -2905    2905
  21   8   3    8380    3448
  23   8   3    2375    4001
  25   8   3    9536   11086
   2   9   3 6420737   19068
   4   9   315622988   43597
   6   9   3 1372388    4775
   8   9   3 1637157    5597
  10   9   3  463416    3412
  12   9   3 1382861    5947
  14   9   3   99952    2134
  16   9   3  338574    5002
  18   9   3   -2668    2668
  20   9   3  155857    4331
  22   9   3  100295    4236
  24   9   3   47478    5878
   1  10   3  414743    2436
   3  10   3  262064    3330
   5  10   3   31124     908
   7  10   3  557105    2782
   9  10   3   -1017    1017
  11  10   3   90590    2623
  13  10   3 1902125    9355
  15  10   3    1628    2044
  17  10   3    8269    2668
  19  10   3   -2998    2998
  21  10   3   53566    3822
  23  10   3    1858    4212
   2  11   3 5618880   17345
   4  11   3 4449371   13690
   6  11   3 1745128    6137
   8  11   3  235619    2286
  10  11   3  187678    2764
  12  11   3  182837    2861
  14  11   3  319917    4090
  16  11   3  121048    3017
  18  11   3    9742    2918
  20  11   3   50291    3528
  22  11   3   71006    4581
  24  11   3   65454    9311
   1  12   3  215618    2110
   3  12   3  163584    2546
   5  12   3  198241    2477
   7  12   3  600613    3112
   9  12   3  132925    2411
  11  12   3  492195    3406
  13  12   3    1999    1602
  15  12   3  130008    4291
  17  12   3   -2644    2644
  19  12   3    1379    3227
  21  12   3   78158    4415
  23  12   3    7722    4980
   2  13   3 1123275    4526
   4  13   3 1144448    4810
   6  13   3 2365374    8007
   8  13   3  513746    3143
  10  13   3   70529    1540
  12  13   3 1673352    6968
  14  13   3  460832    5195
  16  13   3  150023    3431
  18  13   3   15843    3113
  20  13   3   83171    4029
  22  13   3  149400    5638
   1  14   3  183032    3297
   3  14   3  231228    3764
   5  14   3  661779    3552
   7  14   3   38978    1242
   9  14   3  156573    2635
  11  14   3   18939    1602
  13  14   3  269643    4920
  15  14   3   29299    2710
  17  14   3    2102    3195
  19  14   3    4188    3815
  21  14   3   49520    5089
  23  14   3    4564    8864
   2  15   3 2565257    9054
   4  15   3  643571    3586
   6  15   3 1576588    6281
   8  15   3  975513    4895
  10  15   3  225000    3328
  12  15   3 1888339    8907
  14  15   3  638438    5914
  16  15   3  250342    6230
  18  15   3   -3823    3823
  20  15   3  172372    5632
  22  15   3  120766    7749
   1  16   3   25191    1289
   3  16   3 1561844    6152
   5  16   3  546254    3438
   7  16   3    9937    1416
   9  16   3   57043    1730
  11  16   3   36422    1899
  13  16   3  151198    4515
  15  16   3   69739    3227
  17  16   3    -399    3462
  19  16   3   21847    4636
  21  16   3    4126    5046
   2  17   3  537897    3607
   4  17   3 1131120    5338
   6  17   3  613570    3965
   8  17   3    8546    1543
  10  17   3  327292    3881
  12  17   3  315217    4689
  14  17   3  829528    7216
  16  17   3   52484    3925
  18  17   3    -548    4269
  20  17   3   18847    5035
   1  18   3   32675    1521
   3  18   3  415973    3697
   5  18   3  421601    4007
   7  18   3   39005    1934
   9  18   3   -1876    1876
  11  18   3   -2189    2189
  13  18   3   14861    2928
  15  18   3  126589    4620
  17  18   3    1183    4571
  19  18   3   -1403    5071
  21  18   3    6641    7653
   2  19   3  146056    3063
   4  19   3  365813    4124
   6  19   3  283713    3899
   8  19   3    5007    1951
  10  19   3  186002    3965
  12  19   3  420450    5643
  14  19   3  320694    7491
  16  19   3  128182    5226
  18  19   3   -1335    5306
  20  19   3   29694    8760
   1  20   3  140683    3737
   3  20   3   70848    2320
   5  20   3    3220    2075
   7  20   3  333391    4544
   9  20   3   -2265    2265
  11  20   3   -2397    2397
  13  20   3    6568    3405
  15  20   3   51178    5067
  17  20   3   18354    5952
  19  20   3   12466    7743
   2  21   3  247960    4568
   4  21   3   45609    2371
   6  21   3  536329    5393
   8  21   3   -2426    2426
  10  21   3  115935    3147
  12  21   3  285114    6233
  14  21   3  310608    7991
  16  21   3   -4669    5523
  18  21   3   -5782    6736
   1  22   3  240439    4552
   3  22   3  408213    5269
   5  22   3  524374    5507
   7  22   3    1602    2492
   9  22   3   -2629    2629
  11  22   3   -3058    3058
  13  22   3   95469    4371
  15  22   3  123493    6455
  17  22   3   26728    6966
   2  23   3  225895    5421
   4  23   3  262299    5264
   6  23   3   72352    2878
   8  23   3   -2702    2702
  10  23   3   46367    3289
  12  23   3   95494    4038
  14  23   3    1970    5558
  16  23   3    1622    5995
   1  24   3   -1391    2559
   3  24   3   88839    2984
   5  24   3   57874    2998
   7  24   3  170324    3895
   9  24   3   -3045    3045
  11  24   3    1584    3438
  13  24   3   35597    4683
  15  24   3  107895    6705
   2  25   3  349373    5859
   4  25   3  302323    5701
   6  25   3   78091    3433
   8  25   3    4204    3337
  10  25   3    1946    3441
  12  25   3   43146    4753
  14  25   3   27780    6593
   1  26   3  113426    3436
   3  26   3  296104    5903
   5  26   3  136401    4013
   7  26   3   36134    3490
   9  26   3   14578    3629
  11  26   3    -207    4276
  13  26   3   20169    5575
   2  27   3   50545    3308
   4  27   3  118817    3764
   6  27   3   80618    3825
   8  27   3  106730    4052
  10  27   3   -1579    3768
  12  27   3   93849    5211
  14  27   3    7863   15011
   1  28   3   -3181    3181
   3  28   3   69160    3869
   5  28   3  193184    6614
   7  28   3   13430    3702
   9  28   3   11332    3808
  11  28   3   23975    4795
  13  28   3   22159   15726
   2  29   3   -1240    3627
   4  29   3   69355    4033
   6  29   3   40901    3949
   8  29   3     350    3891
  10  29   3    7125    5128
   1  30   3   -3801    3801
   3  30   3   41929    4044
   5  30   3   26968    4014
   7  30   3   11913    4048
   9  30   3   -1677    6816
   2  31   3   10324    4088
   4  31   3   16767    5007
   6  31   3    2657    6008
   8  31   3    4289   14296
   1  32   3   -8233    8233
   3  32   3   37802    8935
   5  32   3   15250   10671
   0   0   425352903  156525
   2   0   428237491  117987
   4   0   4  303854    2594
   6   0   4 2618544   12181
   8   0   4 5503855   24734
  10   0   4    2674    1369
  12   0   4   70418    2240
  14   0   4   50118    2502
  16   0   4   -2245    2913
  18   0   4  616704    8753
  20   0   4   -4024    4024
  22   0   4   -1711    5304
  24   0   4   -4474    5928
   1   1   4   55746     703
   3   1   4   55656     833
   5   1   4  292805    1646
   7   1   4 1212815    4745
   9   1   4  398547    2582
  11   1   4  175486    2323
  13   1   4  148045    4309
  15   1   4   -1720    1720
  17   1   4   73694    2582
  19   1   4   13316    2733
  21   1   4    7886    3333
  23   1   4    2401    3980
  25   1   4    6343    9312
   0   2   418822152   81802
   2   2   4 2315859    7188
   4   2   4  493596    2113
   6   2   4 4592286   14098
   8   2   4 5671932   18034
  10   2   4   15198    1012
  12   2   4   -1224    1224
  14   2   4  310815    3456
  16   2   4   89034    2390
  18   2   4  532582    5890
  20   2   4   -2975    2975
  22   2   4   16705    3653
  24   2   4    4374    4255
   1   3   4  657538    2769
   3   3   4 2658393    8310
   5   3   4  172562    1704
   7   3   4  291506    2571
   9   3   4    1540     787
  11   3   4  208239    2346
  13   3   4   28660    1513
  15   3   4   37425    1984
  17   3   4  139639    3431
  19   3   4   -1320    2659
  21   3   4    2245    3346
  23   3   4   36015    4141
  25   3   4    1159    8227
   0   4   4 2980643   12213
   2   4   4 4120701   11690
   4   4   4  339255    1591
   6   4   4 1266024    4271
   8   4   4  241298    2016
  10   4   4  417299    2574
  12   4   4  151129    2654
  14   4   4    5757    1604
  16   4   4  250783    4573
  18   4   4  353416    5490
  20   4   4   -3049    3049
  22   4   4    2486    3569
  24   4   4    3525    4429
   1   5   417401803   52995
   3   5   410653358   30488
   5   5   4  747980    3377
   7   5   4 2915067    9179
   9   5   4    6069     774
  11   5   4   62569    1241
  13   5   4   32293    1536
  15   5   4  472414    4712
  17   5   4   92035    2739
  19   5   4    1589    2876
  21   5   4    3466    3329
  23   5   4   19547    3855
  25   5   4   10742    9599
   0   6   4   51492    1388
   2   6   4  227815    2605
   4   6   4  422841    2203
   6   6   4 3028952    9701
   8   6   4  714518    3091
  10   6   4   61996    1714
  12   6   4  131047    2839
  14   6   4  102446    2204
  16   6   4   -2073    2073
  18   6   4  275269    5727
  20   6   4    3174    3176
  22   6   4    7047    3630
  24   6   4   -2647    4414
   1   7   4 6500931   19568
   3   7   4 3201476    9812
   5   7   4  552970    2484
   7   7   4  835497    3417
   9   7   4    -500     832
  11   7   4  235217    2227
  13   7   4  439748    3676
  15   7   4    -759    1862
  17   7   4   14103    2685
  19   7   4   89181    3332
  21   7   4   57358    3610
  23   7   4   18887    4070
  25   7   4  -15011   17156
   0   8   4 2304200   10791
   2   8   4  615117    2659
   4   8   4 6473540   18446
   6   8   4  197413    1775
   8   8   4 1320698    4967
  10   8   4  416191    2670
  12   8   4   -1278    1278
  14   8   4   91179    2107
  16   8   4  437013    5092
  18   8   4  111314    3256
  20   8   4   49010    3432
  22   8   4   30336    3917
  24   8   4    2990    5259
   1   9   4 4140347   13207
   3   9   4   99246    1817
   5   9   4 1669748    5624
   7   9   4  216235    1976
   9   9   4  467475    2776
  11   9   4  424479    2908
  13   9   4   10067    1609
  15   9   4   13810    2048
  17   9   4   39547    2834
  19   9   4  327555    6436
  21   9   4   27469    3679
  23   9   4    7598    4066
   0  10   4 3698723   16940
   2  10   4  926313    3641
   4  10   4 2036891    6649
   6  10   4   91594    2543
   8  10   4 1519796    5638
  10  10   4 1024230    5370
  12  10   4     482    1421
  14  10   4   -1768    1768
  16  10   4   98946    2806
  18  10   4  154764    4209
  20  10   4   -3335    3335
  22  10   4    5374    3860
  24  10   4   -8588    8588
   1  11   4 6366644   20027
   3  11   4  397808    2379
   5  11   4  284991    2631
   7  11   4   44614    1072
   9  11   4    1527    1119
  11  11   4  134182    3167
  13  11   4   76684    1940
  15  11   4   -2032    2032
  17  11   4   62559    3032
  19  11   4  260709    8116
  21  11   4   71582    4111
  23  11   4    6054    4664
   0  12   4 2305415   13089
   2  12   4  157304    1903
   4  12   4   29951    1017
   6  12   4  222887    2079
   8  12   4 1083280    4714
  10  12   4   52141    1504
  12  12   4   41288    1754
  14  12   4   47123    2193
  16  12   4   20175    2550
  18  12   4   -2935    3157
  20  12   4    5538    3626
  22  12   4    6086    4510
  24  12   4  -12867   17156
   1  13   4  470813    2888
   3  13   4   66996    1239
   5  13   4    3245     898
   7  13   4  155910    2186
   9  13   4   36630    1321
  11  13   4  637600    3903
  13  13   4   23190    1951
  15  13   4   70382    2627
  17  13   4   65942    3668
  19  13   4   33697    3752
  21  13   4   43889    4501
  23  13   4   -3839    7533
   0  14   4  968323    6600
   2  14   4  122479    2616
   4  14   4   39507    1198
   6  14   4  190701    2361
   8  14   4  975322    4477
  10  14   4 1419041    5873
  12  14   4   51235    1934
  14  14   4   64181    2483
  16  14   4   21822    3193
  18  14   4   61373    3962
  20  14   4    5170    4058
  22  14   4   10608    5122
   1  15   4  355565    2829
   3  15   4    -976     976
   5  15   4   39646    1348
   7  15   4  148434    2526
   9  15   4  826869    4511
  11  15   4  158164    3345
  13  15   4     691    2113
  15  15   4   -1710    2664
  17  15   4  149209    4266
  19  15   4   70083    4307
  21  15   4   25300    4820
   0  16   4  177806    5111
   2  16   4    5650    1252
   4  16   4   26914    1318
   6  16   4   37355    1493
   8  16   4  654570    4092
  10  16   4   48629    1822
  12  16   4    6940    2008
  14  16   4   49282    2759
  16  16   4   -3149    3149
  18  16   4   56045    4116
  20  16   4    6551    4878
  22  16   4   -4074    8938
   1  17   4  268823    2990
   3  17   4  110521    2128
   5  17   4  132805    2468
   7  17   4  408608    4100
   9  17   4 1704111    7226
  11  17   4  319374    4134
  13  17   4    2915    2307
  15  17   4   13753    3069
  17  17   4  167137    5138
  19  17   4   15837    5131
  21  17   4   32709    7116
   0  18   4    9108    2041
   2  18   4   93051    2473
   4  18   4   37038    1641
   6  18   4    4147    1607
   8  18   4   12686    1859
  10  18   4  115813    2589
  12  18   4   24239    2683
  14  18   4   -3299    3299
  16  18   4     384    3844
  18  18   4  118679    5688
  20  18   4     904    5416
   1  19   4 1000337    5720
   3  19   4  179335    3369
   5  19   4  224484    3769
   7  19   4 1380521    7023
   9  19   4  257481    4459
  11  19   4  340626    4889
  13  19   4   -2883    2883
  15  19   4     824    3803
  17  19   4  100946    5800
  19  19   4    7493    5614
  21  19   4   53612   16441
   0  20   4  138259   13906
   2  20   4   82542    2413
   4  20   4   -1917    1917
   6  20   4   11459    2057
   8  20   4  131503    4175
  10  20   4   58712    2573
  12  20   4   11279    2976
  14  20   4   -3589    3721
  16  20   4   94296    5590
  18  20   4  111308    6333
  20  20   4    8205   11494
   1  21   4 1045830    6768
   3  21   4   50870    2383
   5  21   4   36954    2382
   7  21   4   59223    2730
   9  21   4  579307    5773
  11  21   4  172014    3959
  13  21   4   -1166    3444
  15  21   4   -2778    4459
  17  21   4  168540    7934
  19  21   4   -6433   13582
   0  22   4  127127    8568
   2  22   4  303795    4993
   4  22   4   -2329    2329
   6  22   4    7001    2552
   8  22   4   82030    3041
  10  22   4   22618    3036
  12  22   4   -3518    3518
  14  22   4   27924    4443
  16  22   4   21289    6055
  18  22   4   37171   13582
   1  23   4  409851    5371
   3  23   4  112668    3055
   5  23   4   28217    2657
   7  23   4   17424    2805
   9  23   4  263664    5824
  11  23   4  110320    4024
  13  23   4    -770    4029
  15  23   4   -4945    5780
  17  23   4   96501   15011
   0  24   4  278294    7592
   2  24   4   35197    2726
   4  24   4   -2669    2669
   6  24   4   33858    2990
   8  24   4   -1168    3079
  10  24   4   29794    3379
  12  24   4    6280    3676
  14  24   4   -5181    5181
  16  24   4    3429    8613
   1  25   4  336523    5797
   3  25   4  385070    5932
   5  25   4   28500    3365
   7  25   4   80215    3600
   9  25   4   54543    3529
  11  25   4   21010    3886
  13  25   4   -4924    4924
  15  25   4   -7787    8298
   0  26   4  201356   14332
   2  26   4   65447    3176
   4  26   4    8271    3292
   6  26   4   36506    3619
   8  26   4   29640    3611
  10  26   4   -3599    3599
  12  26   4   -4914    4914
  14  26   4   -8298    8298
   1  27   4  338299    6426
   3  27   4   37352    3551
   5  27   4   18087    3525
   7  27   4   78407    3930
   9  27   4  182855    4668
  11  27   4   95529    5084
  13  27   4   -7372    7372
   0  28   4   11528    4612
   2  28   4   26218    3627
   4  28   4   10520    3603
   6  28   4   11965    3625
   8  28   4   51518    3952
  10  28   4   21207    4302
  12  28   4   -6120    6120
   1  29   4  120866    4254
   3  29   4   33013    3866
   5  29   4     901    3730
   7  29   4   51640    4061
   9  29   4  133835    4653
  11  29   4  160317    8329
   0  30   4    5053    6005
   2  30   4   -1464    4019
   4  30   4   39577    4111
   6  30   4   17824    4044
   8  30   4    5114    4812
  10  30   4   19300   15726
   1  31   4   81065    4960
   3  31   4    3805    5187
   5  31   4   -4528    5622
   7  31   4   90859    8371
   2  32   4       0   17156
   4  32   4    1430   15011
   2   1   5   80755    1147
   4   1   513100733   37104
   6   1   5 7104195   21514
   8   1   5   28392    1270
  10   1   5  557662    3165
  12   1   5 3659368   12555
  14   1   5 3553648   12865
  16   1   5 1267062    6854
  18   1   5  536647    5958
  20   1   5  337865    6568
  22   1   5  740926    8882
  24   1   5  138213    4892
   1   2   5   72475     825
   3   2   5  214715    1235
   5   2   5  705308    2717
   7   2   5  238135    1907
   9   2   5 1234706    4980
  11   2   5   62762    2006
  13   2   5   35643    1547
  15   2   5  180276    3670
  17   2   5   -2281    2281
  19   2   5   -2823    2823
  21   2   5   24835    3464
  23   2   5   12761    4061
  25   2   5    4800    9331
   2   3   5  234432    2393
   4   3   5 8179222   23988
   6   3   512546134   35777
   8   3   5    7597     814
  10   3   5  944354    4118
  12   3   5 4219376   14585
  14   3   5 2320043   10235
  16   3   5  550810    5052
  18   3   5   -2426    2426
  20   3   5  209307    9542
  22   3   5  765670    8914
  24   3   5  130999    5056
   1   4   5  849186    2985
   3   4   5 7132501   20500
   5   4   5  756789    2798
   7   4   5 1441159    4806
   9   4   5   96689    1656
  11   4   5  144249    2273
  13   4   5  122579    3452
  15   4   5   57032    2072
  17   4   5    1192    2374
  19   4   5   -2823    2823
  21   4   5   15414    3397
  23   4   5    9715    4212
  25   4   5   -4143   11086
   2   5   5 6586127   18523
   4   5   524282319   71577
   6   5   510294554   29312
   8   5   5    6670     767
  10   5   5 1022958    4342
  12   5   5 3895420   12965
  14   5   5 2496666   11796
  16   5   5 1859420    8715
  18   5   5    3090    2701
  20   5   5  238037    7145
  22   5   5  752055    8817
  24   5   5  411962    9158
   1   6   5 9720096   29707
   3   6   5 3981738   11862
   5   6   5 1052894    3824
   7   6   5   76034    1236
   9   6   5  356706    2194
  11   6   5  116763    3259
  13   6   5 1284598    5907
  15   6   5   44147    2063
  17   6   5   15066    2663
  19   6   5   -2854    2854
  21   6   5   47836    3637
  23   6   5   12811    4079
  25   6   5   -2768   11678
   2   7   5 7959698   23885
   4   7   514343261   42888
   6   7   5 9493725   28020
   8   7   5   51965    1019
  10   7   5  242814    2128
  12   7   5 2911754   10202
  14   7   5 4495154   15497
  16   7   5  389216    5197
  18   7   5   31631    3012
  20   7   5  164609    3904
  22   7   5  464177    8262
  24   7   5  109478    5840
   1   8   5   79816    1307
   3   8   5 2445277    7617
   5   8   5  195603    2026
   7   8   5  220211    1979
   9   8   5  104485    2183
  11   8   5   20847    1278
  13   8   5   99302    2159
  15   8   5  310354    4368
  17   8   5   22936    2712
  19   8   5   -2921    2921
  21   8   5    6279    3585
  23   8   5    -625    4039
  25   8   5   37886   18585
   2   9   5 6344468   18895
   4   9   514522500   41393
   6   9   5  422097    2380
   8   9   5  378418    2493
  10   9   5  607953    3266
  12   9   5 1335681    5687
  14   9   5  577158    4486
  16   9   5  482298    5588
  18   9   5   24157    3011
  20   9   5  116358    3919
  22   9   5  310678    7556
  24   9   5   95263    7665
   1  10   5  418343    2506
   3  10   5    7871     819
   5  10   5  113659    1889
   7  10   5    -898     898
   9  10   5  322677    2490
  11  10   5   15283    1297
  13  10   5   98470    2002
  15  10   5   76306    2368
  17  10   5   98232    3126
  19  10   5   16749    3240
  21  10   5    7099    3625
  23  10   5   22663    4492
   2  11   5 2313935    7817
   4  11   5 5405761   16443
   6  11   5 7032516   22072
   8  11   5   19126    1050
  10  11   5  342122    2789
  12  11   5  991187    5023
  14  11   5 1511841    7740
  16  11   5   75737    2785
  18  11   5   -3054    3054
  20  11   5  107832    4231
  22  11   5  417571    8981
  24  11   5   56823   12516
   1  12   5  434537    2719
   3  12   5   90738    2399
   5  12   5  137705    2246
   7  12   5   49359    1151
   9  12   5  130646    2156
  11  12   5    2728    1326
  13  12   5   17195    1812
  15  12   5   16449    2257
  17  12   5    6992    3015
  19  12   5   13476    3644
  21  12   5   15679    4307
  23  12   5   11736    6150
   2  13   5 3053479   10395
   4  13   5 4112373   12948
   6  13   5 2578442    8697
   8  13   5  696289    3653
  10  13   5  207051    2831
  12  13   5 1467945    6808
  14  13   5 1224939    7163
  16  13   5  123111    3315
  18  13   5   -3707    3707
  20  13   5  261421   12943
  22  13   5  195788    5597
   1  14   5  146076    2236
   3  14   5    5724    1016
   5  14   5   39731    1221
   7  14   5  306484    2937
   9  14   5   33926    1543
  11  14   5    4678    1641
  13  14   5  109565    2653
  15  14   5   16471    2650
  17  14   5   -3090    3090
  19  14   5    -666    3708
  21  14   5   11812    4230
  23  14   5    6433   15011
   2  15   5 2215772    8139
   4  15   5 2368353    8631
   6  15   5 1651818    6384
   8  15   5  326804    3250
  10  15   5   52247    1865
  12  15   5 1761425    8053
  14  15   5 1178519    8135
  16  15   5  136521    3752
  18  15   5    8213    3769
  20  15   5  117659    5663
  22  15   5  271366   21778
   1  16   5  309512    2965
   3  16   5    4056    1305
   5  16   5   56196    1613
   7  16   5   62353    1699
   9  16   5  346866    3673
  11  16   5   16725    1834
  13  16   5   84186    2637
  15  16   5   18202    2809
  17  16   5    2601    3505
  19  16   5   56987    4383
  21  16   5    3696    5780
   2  17   5 1205289    5537
   4  17   5 1456427    6322
   6  17   5 2028011    8100
   8  17   5  482584    4261
  10  17   5  478740    4406
  12  17   5 1181346    7094
  14  17   5  854862    8222
  16  17   5  189559   11375
  18  17   5    1820    4758
  20  17   5   52653    5693
   1  18   5   63245    1727
   3  18   5   15260    1553
   5  18   5  191372    3331
   7  18   5   55686    1906
   9  18   5  316417    4322
  11  18   5   55190    2824
  13  18   5   41155    3135
  15  18   5   17099    3528
  17  18   5    2698    4082
  19  18   5   -4405    5154
  21  18   5   18585   15011
   2  19   5  217870    3397
   4  19   5 1931556    8442
   6  19   5  618707    4851
   8  19   5    8214    2111
  10  19   5   79459    2698
  12  19   5  769465    7297
  14  19   5  343017    7387
  16  19   5   27812    4490
  18  19   5   -2186    5881
  20  19   5   17156    8710
   1  20   5   55857    2326
   3  20   5   49660    2110
   5  20   5     383    1902
   7  20   5   68955    2415
   9  20   5   -2296    2296
  11  20   5    2285    2851
  13  20   5   40427    3329
  15  20   5   12005    4542
  17  20   5   43656    5292
  19  20   5   -4859    7335
   2  21   5  444901    4962
   4  21   5   59022    2468
   6  21   5  433929    5434
   8  21   5   54226    2777
  10  21   5   22456    2738
  12  21   5  493045    7212
  14  21   5  112550    4589
  16  21   5   21448    5332
  18  21   5    2692    7689
   1  22   5  103213    2837
   3  22   5  214234    4718
   5  22   5    6942    2510
   7  22   5   67064    3082
   9  22   5   -2874    2874
  11  22   5    4168    3354
  13  22   5   28444    4140
  15  22   5    -942    5169
  17  22   5    -254    6593
   2  23   5  369935    5499
   4  23   5  859599    6984
   6  23   5  209675    4680
   8  23   5   10232    3015
  10  23   5   21440    3184
  12  23   5  126649    4422
  14  23   5   79657    4980
  16  23   5    6721    6025
  18  23   5   27878   15011
   1  24   5   16430    2695
   3  24   5   42004    3003
   5  24   5   11553    3036
   7  24   5   -3025    3025
   9  24   5    6195    3222
  11  24   5   -2127    3590
  13  24   5    1871    4341
  15  24   5     368    5467
  17  24   5   26448   13582
   2  25   5  184275    5740
   4  25   5  434635    6878
   6  25   5  350131    6570
   8  25   5    6373    3280
  10  25   5   43359    3794
  12  25   5  108467    4653
  14  25   5   70828    5939
  16  25   5     976   10133
   1  26   5   -2901    2901
   3  26   5   23709    3331
   5  26   5   39973    3608
   7  26   5   11895    3431
   9  26   5   25119    3652
  11  26   5    3992    4180
  13  26   5   11199    5674
  15  26   5   14296   13582
   2  27   5   12706    3420
   4  27   5  239284    7930
   6  27   5  114258    4220
   8  27   5   30323    3843
  10  27   5    5300    4242
  12  27   5   45348    5890
  14  27   5   26585   25376
   1  28   5   -3711    3711
   3  28   5   15088    3606
   5  28   5   30385    3778
   7  28   5    2580    3751
   9  28   5   -3887    3887
  11  28   5    8690    5288
  13  28   5  -17871   17871
   2  29   5   25404    3987
   4  29   5   95810    4230
   6  29   5   49528    4033
   8  29   5    -285    3876
  10  29   5   18010    5513
   1  30   5   -4211    4211
   3  30   5   -2980    4064
   5  30   5   -1080    3933
   7  30   5   -4039    4709
   9  30   5    -778    7722
   2  31   5   -5714    5714
   4  31   5   42205    6459
   6  31   5   15963    6873
   8  31   5  -15726   15726
   0   0   6 1324315    8471
   2   0   6 8010904   33187
   4   0   6 5934395   23729
   6   0   6 6606373   28946
   8   0   6   67029    2229
  10   0   6  627160    4804
  12   0   6  282015    4186
  14   0   6  131182    5171
  16   0   6   -2842    2842
  18   0   6   -3476    3476
  20   0   6   47946    5006
  22   0   6   55884    5721
  24   0   6   -3183    6616
   1   1   6  174228    1558
   3   1   6  181203    1114
   5   1   6  133878    1529
   7   1   6  145169    1674
   9   1   6   10707    1005
  11   1   6   50083    1765
  13   1   6   25201    1503
  15   1   6    3355    1880
  17   1   6   24643    2393
  19   1   6   -2789    2789
  21   1   6    6566    3572
  23   1   6    3293    4044
  25   1   6   21445   16441
   0   2   6 8723043   41734
   2   2   6 5425507   16396
   4   2   6 2008458    6365
   6   2   6 4067830   12097
   8   2   6 1242107    5049
  10   2   6  497635    3152
  12   2   6  182684    2779
  14   2   6   -1560    1560
  16   2   6    1194    1962
  18   2   6   23856    2791
  20   2   6   -3074    3074
  22   2   6    3338    3794
  24   2   6   -1594    4480
   1   3   6 2498198    7478
   3   3   6   93992    1124
   5   3   6 1237530    4302
   7   3   6 1192332    4339
   9   3   6   40154    1070
  11   3   6   40601    1295
  13   3   6   23634    1568
  15   3   6    -308    1735
  17   3   6   -1010    2290
  19   3   6   -2795    2795
  21   3   6    9157    3572
  23   3   6   12146    4267
  25   3   6    2907   13939
   0   4   6 3413547   13945
   2   4   6 5111861   15900
   4   4   6    -712     712
   6   4   6  927028    3973
   8   4   6 1202041    4448
  10   4   6 1157339    4620
  12   4   6  189190    3331
  14   4   6    8407    1619
  16   4   6  472049    4865
  18   4   6   -2729    2729
  20   4   6    -455    3134
  22   4   6   11042    4042
  24   4   6   10295    4564
   1   5   6  187269    1285
   3   5   6  529279    2923
   5   5   6 1455611    5038
   7   5   6  794586    3235
   9   5   6  228618    1963
  11   5   6    3065    1054
  13   5   6   55174    1676
  15   5   6   40445    1968
  17   5   6   22835    2505
  19   5   6   -2909    2909
  21   5   6   16145    3598
  23   5   6    7045    4246
  25   5   6    -958   11870
   0   6   6   76880    1785
   2   6   6  207813    1413
   4   6   6 2074309    6785
   6   6   6 1643269    5543
   8   6   6 1483258    5258
  10   6   6  569481    3038
  12   6   6   25645    1481
  14   6   6   -1688    1688
  16   6   6   43405    2374
  18   6   6   -2808    2808
  20   6   6   -3280    3280
  22   6   6    6068    3868
  24   6   6   16929    5725
   1   7   6  373501    1836
   3   7   6 1371765    5218
   5   7   6 1597182    5388
   7   7   6  544869    2634
   9   7   6  761616    3638
  11   7   6  696526    3702
  13   7   6    5183    1553
  15   7   6  152474    5920
  17   7   6  289016    5326
  19   7   6     777    3093
  21   7   6   69026    3922
  23   7   6    7843    4304
   0   8   6 1385523    7168
   2   8   6  636933    2813
   4   8   6 1600592    5246
   6   8   6 1578957    5583
   8   8   6  685881    3609
  10   8   6  787154    3719
  12   8   6   -1386    1386
  14   8   6   -1782    1782
  16   8   6   -2220    2220
  18   8   6    3405    3021
  20   8   6   10594    3400
  22   8   6   -1276    3845
  24   8   6    7368    7742
   1   9   6  791195    3473
   3   9   6 1058295    4128
   5   9   6   13181     879
   7   9   6   10144     927
   9   9   6  901380    3842
  11   9   6  279686    3815
  13   9   6   82255    2050
  15   9   6    9190    2091
  17   9   6  187279    7209
  19   9   6   62656    3593
  21   9   6   50411    3976
  23   9   6   15380    4514
   0  10   6  100152    2479
   2  10   6  132606    1633
   4  10   6 1671386    5720
   6  10   6  234107    2363
   8  10   6   32976    1093
  10  10   6  768732    3730
  12  10   6  531291    4075
  14  10   6   72203    2197
  16  10   6   40955    2656
  18  10   6  106521    3656
  20  10   6   30302    3717
  22  10   6    7780    4194
  24  10   6   -5021   10353
   1  11   6   10545     937
   3  11   6  564743    2922
   5  11   6   69922    1234
   7  11   6   28678    1084
   9  11   6  365254    2925
  11  11   6   83436    2134
  13  11   6   26848    1901
  15  11   6   69445    2505
  17  11   6   14269    2892
  19  11   6   67879    4357
  21  11   6   14077    4103
  23  11   6    1548    5539
   0  12   6 1164468    7436
   2  12   6  284586    2245
   4  12   6  587329    3069
   6  12   6   33710    1097
   8  12   6  273850    2569
  10  12   6   85330    1854
  12  12   6   21912    1719
  14  12   6   -2015    2015
  16  12   6    -264    2649
  18  12   6  109607    3805
  20  12   6  129532    4544
  22  12   6   -4308    4308
   1  13   6  262233    2431
   3  13   6  812438    3672
   5  13   6   15776    1123
   7  13   6  272219    2553
   9  13   6  547236    3572
  11  13   6  148839    3699
  13  13   6   59119    2325
  15  13   6  339731    5346
  17  13   6  151908    3931
  19  13   6   25457    3978
  21  13   6    2819    4181
  23  13   6    5152    9061
   0  14   6 1162075    7096
   2  14   6   67869    1398
   4  14   6   13549    1078
   6  14   6   28075    1304
   8  14   6    -857    1337
  10  14   6   -1582    1582
  12  14   6  110879    2413
  14  14   6   -2488    2488
  16  14   6   18765    3145
  18  14   6   14640    3613
  20  14   6   52112    4286
  22  14   6    -137    5075
   1  15   6  158486    2521
   3  15   6  453669    3315
   5  15   6   -1298    1298
   7  15   6  294080    3037
   9  15   6  433389    3829
  11  15   6  258633    4090
  13  15   6   40542    2548
  15  15   6   86022    3113
  17  15   6   19240    3403
  19  15   6   34350    4201
  21  15   6    5784    4568
   0  16   6  968357    6696
   2  16   6  731211    4127
   4  16   6   -1391    1391
   6  16   6  115952    2081
   8  16   6  104330    2089
  10  16   6   66852    2165
  12  16   6   31594    2214
  14  16   6   81630    3129
  16  16   6     293    3177
  18  16   6   20761    4021
  20  16   6   44364    4886
   1  17   6  244525    3090
   3  17   6  324738    3362
   5  17   6   -1500    1500
   7  17   6  367869    3911
   9  17   6 1075669    5961
  11  17   6  145986    4329
  13  17   6  104556    3068
  15  17   6   64645    3470
  17  17   6   -3782    3782
  19  17   6  205686    9287
  21  17   6   -3265    7035
   0  18   6  593436    5823
   2  18   6    6501    1506
   4  18   6   55258    1788
   6  18   6   51713    1924
   8  18   6   18471    1902
  10  18   6  121899    2990
  12  18   6   10239    2632
  14  18   6   84371    3871
  16  18   6   -4267    4267
  18  18   6    5695    5410
  20  18   6   -5916    7566
   1  19   6  704152    4579
   3  19   6  792769    4939
   5  19   6   44301    1860
   7  19   6 1080782    6298
   9  19   6  520207    5427
  11  19   6  135015    3340
  13  19   6  163856    4280
  15  19   6  111257    4588
  17  19   6   92365    5125
  19  19   6   95438    6973
   0  20   6 1531581   10403
   2  20   6    5162    1901
   4  20   6   15368    1963
   6  20   6   34877    2259
   8  20   6  194882    6838
  10  20   6   21023    2637
  12  20   6    -383    2931
  14  20   6    3867    3890
  16  20   6   18076    4904
  18  20   6   16199    5733
  20  20   6     715   14296
   1  21   6  332457    4854
   3  21   6  230109    4482
   5  21   6    9473    2309
   7  21   6  554456    5895
   9  21   6   86436    3047
  11  21   6  136670    3892
  13  21   6   32834    3791
  15  21   6   51527    4915
  17  21   6   37167    5665
  19  21   6   75056   15726
   0  22   6  143252    4360
   2  22   6   47254    2545
   4  22   6   22140    2620
   6  22   6   -2714    2714
   8  22   6   96579    3342
  10  22   6   59894    3409
  12  22   6   12667    3319
  14  22   6   -4027    4027
  16  22   6   -4149    4933
  18  22   6    -715    9604
   1  23   6  160619    3423
   3  23   6  257420    5396
   5  23   6     -38    2856
   7  23   6  167537    3790
   9  23   6   96464    3538
  11  23   6    6198    3709
  13  23   6   12327    4514
  15  23   6   -3986    5363
  17  23   6   30106   11437
   0  24   6   83842    4258
   2  24   6   40734    2981
   4  24   6   62060    3263
   6  24   6   42571    3292
   8  24   6    6447    3199
  10  24   6   45713    3892
  12  24   6   21943    3898
  14  24   6    -323    4745
  16  24   6    3096    8518
   1  25   6  139817    3727
   3  25   6  222205    7690
   5  25   6   12303    3225
   7  25   6  362325    6761
   9  25   6   56278    3663
  11  25   6   41588    4234
  13  25   6   20831    4873
  15  25   6   46085    7984
   0  26   6    1565    4989
   2  26   6    4875    3234
   4  26   6   -3359    3359
   6  26   6   -1302    3380
   8  26   6     721    3477
  10  26   6    8721    4137
  12  26   6   -2245    4075
  14  26   6    3410    7743
   1  27   6  237840    7108
   3  27   6   60907    3750
   5  27   6   -3315    3598
   7  27   6   75149    3953
   9  27   6  109359    4235
  11  27   6   67208    4756
  13  27   6    9286    7743
   0  28   6    3187    5614
   2  28   6    6298    3766
   4  28   6   -3603    3603
   6  28   6   -3757    3757
   8  28   6    6957    3919
  10  28   6   -1406    4695
  12  28   6   -1400    7058
   1  29   6  117137    4763
   3  29   6   55764    4421
   5  29   6   -3923    3923
   7  29   6  109429    4443
   9  29   6   76009    5749
  11  29   6   62495    8542
   0  30   6    8574    6154
   2  30   6   19100    4406
   4  30   6   -4244    4244
   6  30   6    7290    4765
   8  30   6    6924    5649
   1  31   6   72765    6740
   3  31   6   56473    7318
   5  31   6   -9061    9061
   2   1   7  165329    1105
   4   1   710344397   28901
   6   1   713514677   39338
   8   1   7 4038599   13577
  10   1   7  442887    2971
  12   1   7 1861543    7357
  14   1   7 2210021    8730
  16   1   7   27037    2158
  18   1   7   -2627    2627
  20   1   7  494989    7502
  22   1   7   30191    4158
  24   1   7   70474    5104
   1   2   7   91620     997
   3   2   7  484209    2896
   5   2   7 2165863    6953
   7   2   7   18743     874
   9   2   7  177893    2145
  11   2   7   13198    1327
  13   2   7   -1441    1441
  15   2   7  333312    4905
  17   2   7   50949    2548
  19   2   7   15191    3006
  21   2   7    6871    3584
  23   2   7    8698    4292
   2   3   7 2357338    7376
   4   3   7 7644912   22584
   6   3   710081128   28979
   8   3   7 2802807    9056
  10   3   7  784125    3916
  12   3   7 1769449    7111
  14   3   7 1284780    6382
  16   3   7  897813    6225
  18   3   7   -2780    2780
  20   3   7  557858    7654
  22   3   7   38741    4205
  24   3   7   85702    4933
   1   4   7 3001489    8969
   3   4   7 1366817    4652
   5   4   7 1145678    4096
   7   4   7  163576    2007
   9   4   7    -846     890
  11   4   7    3866    1223
  13   4   7  242210    3272
  15   4   7  226923    3953
  17   4   7  263226    4935
  19   4   7    7074    2971
  21   4   7   17542    3843
  23   4   7   46764    4480
   2   5   7  603119    2572
   4   5   7 8584072   25332
   6   5   719151528   56033
   8   5   7  385972    2419
  10   5   7 1106495    4670
  12   5   7 1339896    5940
  14   5   7 3872868   14162
  16   5   7  248592    4653
  18   5   7   -2732    2732
  20   5   7  556743    7977
  22   5   7   80330    4398
  24   5   7   75645    6117
   1   6   7 1316196    5371
   3   6   7  410006    2942
   5   6   7   25423    1065
   7   6   7  335928    2194
   9   6   7    6601     871
  11   6   7   -1149    1149
  13   6   7  290578    3813
  15   6   7   48916    2171
  17   6   7   38171    2644
  19   6   7     825    3224
  21   6   7   70038    3945
  23   6   7   23381    4490
   2   7   7 1551634    5206
   4   7   716391698   47999
   6   7   7 1510512    5427
   8   7   7  109890    2003
  10   7   7 2137342    7475
  12   7   7 1147913    5624
  14   7   7 1947209    8434
  16   7   7  578273    5558
  18   7   7      32    2930
  20   7   7  430267    7412
  22   7   7  114292    4776
  24   7   7  140182   10174
   1   8   7 2893749    9305
   3   8   7 5027739   14531
   5   8   7  894910    3830
   7   8   7  225576    2723
   9   8   7    -923    1022
  11   8   7  109141    2243
  13   8   7  145921    6169
  15   8   7  111997    2895
  17   8   7   94313    3192
  19   8   7   -2154    3419
  21   8   7    1480    3773
  23   8   7   15003    4531
   2   9   7 5427875   17185
   4   9   7  344256    2038
   6   9   7 3924578   12303
   8   9   7  128545    2520
  10   9   7 1098462    4681
  12   9   7  565297    4290
  14   9   7 1523135    7460
  16   9   7  212887    4960
  18   9   7   -3086    3086
  20   9   7  255945   10647
  22   9   7  110964    4749
  24   9   7   29773   10858
   1  10   7  682981    3281
   3  10   7 5364845   16281
   5  10   7  913042    5158
   7  10   7   22733    1068
   9  10   7  166123    2267
  11  10   7   11208    1510
  13  10   7   91653    2139
  15  10   7     740    2167
  17  10   7   17575    2926
  19  10   7   -1476    3389
  21  10   7    7137    3891
  23  10   7   21060    5559
   2  11   7  945690    3970
   4  11   7 7025477   21090
   6  11   7  447801    2588
   8  11   7   -1058    1058
  10  11   7  695069    3850
  12  11   7  850860    5154
  14  11   7 1143543    6610
  16  11   7  330734    5506
  18  11   7    4120    3324
  20  11   7  221259   11655
  22  11   7  128112    5532
   1  12   7  700992    3508
   3  12   7  320514    2321
   5  12   7  977028    4128
   7  12   7  281382    2517
   9  12   7  244310    2861
  11  12   7  636197    4232
  13  12   7  122256    2715
  15  12   7   81070    2752
  17  12   7   29183    3095
  19  12   7     914    3723
  21  12   7   29009    4333
  23  12   7    8544    7577
   2  13   7 1331220    5432
   4  13   7 3669864   11876
   6  13   7 1903601    7427
   8  13   7   20778    1411
  10  13   7  647443    4169
  12  13   7   96734    2317
  14  13   7 1117280    7453
  16  13   7  190931    7831
  18  13   7   -3506    3506
  20  13   7  394099    8990
  22  13   7   75571    5214
   1  14   7   77293    1518
   3  14   7   47603    1379
   5  14   7  488863    3254
   7  14   7  335554    3271
   9  14   7   25526    1599
  11  14   7   57271    2093
  13  14   7    5439    2346
  15  14   7   25996    2821
  17  14   7   79080    3690
  19  14   7   17898    3945
  21  14   7    5656    4319
   2  15   7  535658    3543
   4  15   7 3116218   10948
   6  15   7 1276695    5597
   8  15   7  276360    3419
  10  15   7  542123    4300
  12  15   7  204239    4312
  14  15   7  616386    6097
  16  15   7  460078    6937
  18  15   7   -3678    3678
  20  15   7  141386    5078
  22  15   7   85444    7597
   1  16   7  283419    3093
   3  16   7  164917    2870
   5  16   7  294194    3392
   7  16   7  367048    3815
   9  16   7   20962    1894
  11  16   7    8668    2192
  13  16   7  165687    5978
  15  16   7  113217    3525
  17  16   7   36094    3835
  19  16   7    2235    4822
  21  16   7    7664    5842
   2  17   7  402652    3553
   4  17   7 3602191   12633
   6  17   7  937458    5345
   8  17   7   67182    2211
  10  17   7    4779    2078
  12  17   7  526598    5667
  14  17   7  370146    6328
  16  17   7  282710    9155
  18  17   7   14538    4395
  20  17   7  159271    6483
   1  18   7   16442    1604
   3  18   7   39326    1711
   5  18   7  305128    4130
   7  18   7   28042    2031
   9  18   7  277875    4512
  11  18   7   96601    2894
  13  18   7   56854    3297
  15  18   7  139095    4201
  17  18   7    2041    4521
  19  18   7   10273    5742
   2  19   7  291405    3647
   4  19   7  986840    5564
   6  19   7  480433    4696
   8  19   7  290457    4503
  10  19   7  138239    3094
  12  19   7  226131    5587
  14  19   7  335267    7463
  16  19   7   21457    4555
  18  19   7    7695    5135
  20  19   7   37886   15726
   1  20   7    1529    1700
   3  20   7   10624    1828
   5  20   7   37665    2339
   7  20   7  768743    6233
   9  20   7    6756    2565
  11  20   7   50101    3101
  13  20   7   30042    3533
  15  20   7   21040    4393
  17  20   7   18683    4976
  19  20   7   13514    9280
   2  21   7  242365    4473
   4  21   7  873552    6595
   6  21   7   82629    2798
   8  21   7   57320    2773
  10  21   7  127558    3452
  12  21   7  104667    3592
  14  21   7    4193    3847
  16  21   7   62773    5330
  18  21   7    2927    7396
   1  22   7   -2320    2320
   3  22   7  561064    6234
   5  22   7  710413    6876
   7  22   7    6860    2916
   9  22   7  102030    3424
  11  22   7    7053    3273
  13  22   7   26508    3912
  15  22   7   34463    4801
  17  22   7   -2806    5929
   2  23   7   38282    2941
   4  23   7  493403    6421
   6  23   7  511565    6635
   8  23   7      -6    3006
  10  23   7   27610    3825
  12  23   7   92712    4177
  14  23   7  139497    5516
  16  23   7   19948    5826
   1  24   7  271774    5944
   3  24   7   85155    3391
   5  24   7  148340    3768
   7  24   7   85203    3564
   9  24   7    7815    3387
  11  24   7   19125    3853
  13  24   7   39596    4937
  15  24   7   46613    6024
   2  25   7   79721    3484
   4  25   7  241722    6916
   6  25   7  152228    4007
   8  25   7    8159    3369
  10  25   7   62507    4331
  12  25   7   95683    4498
  14  25   7   69997    5691
   1  26   7   -3561    3561
   3  26   7   60641    3704
   5  26   7   27170    3539
   7  26   7   28165    3609
   9  26   7   -2666    3841
  11  26   7    1806    4070
  13  26   7   31878    5953
  15  26   7   37886   17156
   2  27   7  146578    4553
   4  27   7   71876    4102
   6  27   7  120649    4173
   8  27   7   -3645    3645
  10  27   7   26978    4486
  12  27   7   45615    5613
   1  28   7   11379    4059
   3  28   7   38060    4211
   5  28   7   78747    4353
   7  28   7   10333    3973
   9  28   7    2796    4429
  11  28   7   26868    5190
   2  29   7   37816    4404
   4  29   7   35346    4335
   6  29   7   41264    4399
   8  29   7    -962    4427
  10  29   7   -2442    6957
   1  30   7   18545    4436
   3  30   7   15631    4427
   5  30   7    9394    4989
   7  30   7    2917    6032
   2  31   7   39980   10858
   0   0   821929086  123566
   2   0   8 1755042    9930
   4   0   8 4326698   17644
   6   0   8  397012    2904
   8   0   8 4786992   20791
  10   0   8   15770    1639
  12   0   8  663982    5790
  14   0   8   27102    2449
  16   0   8   64854    3260
  18   0   8 1145693   13976
  20   0   8  788796   12778
  22   0   8   43551    6348
  24   0   8   10138    7558
   1   1   8  599504    2302
   3   1   8   94201    1360
   5   1   8     259     788
   7   1   8  101817    1573
   9   1   8   49353    1272
  11   1   8   12948    1859
  13   1   8     358    1476
  15   1   8   -1692    1692
  17   1   8   23455    2485
  19   1   8   69812    3459
  21   1   8   -3728    3728
  23   1   8    8076    4503
   0   2   8 6810857   29681
   2   2   8 7434354   21941
   4   2   8 3174528    9853
   6   2   8 3255483    9728
   8   2   8 2678801    8906
  10   2   8 1981297    7613
  12   2   8  294879    3163
  14   2   8   10388    1671
  16   2   8  702573    5906
  18   2   8 1463698   10011
  20   2   8  356508    9139
  22   2   8    -433    4002
  24   2   8   19221    7357
   1   3   8  185977    1372
   3   3   8   57892    1348
   5   3   8  604573    2671
   7   3   8    -758     758
   9   3   8  536224    3769
  11   3   8  466711    3629
  13   3   8   -1475    1475
  15   3   8   24830    1974
  17   3   8  102932    2784
  19   3   8   67571    3769
  21   3   8   -3755    3755
  23   3   8   39818    4653
   0   4   8 7819335   31125
   2   4   8 2309583    7702
   4   4   8 1118853    4111
   6   4   8 5751141   16980
   8   4   8 3068475    9823
  10   4   8  780421    3686
  12   4   8  887557    4805
  14   4   8   20979    1831
  16   4   8  837605    6189
  18   4   8  496867    7177
  20   4   8  156680    4321
  22   4   8   -4155    4155
  24   4   8   34834    8209
   1   5   8  405732    2016
   3   5   8 1602771    5454
   5   5   8  316906    5044
   7   5   8    4431     816
   9   5   8  108965    2749
  11   5   8    6547    1290
  13   5   8   70551    1958
  15   5   8   22384    1993
  17   5   8   56580    2652
  19   5   8   85730    3680
  21   5   8   -3012    3920
  23   5   8     513    4410
   0   6   8 6186913   24905
   2   6   8  662946    2861
   4   6   8  533640    4254
   6   6   8 1741561    5897
   8   6   8 4376143   13659
  10   6   8 1854675    6769
  12   6   8   -1500    1500
  14   6   8   18743    1910
  16   6   8   93391    2740
  18   6   8  417599    6627
  20   6   8   83480    4072
  22   6   8   -4241    4241
  24   6   8   -1794    8896
   1   7   8  645656    2723
   3   7   8   19960    1055
   5   7   8    6930     809
   7   7   8  182209    1963
   9   7   8   39312    1166
  11   7   8    1740    1323
  13   7   8   -1669    1669
  15   7   8   24270    2099
  17   7   8   93824    3052
  19   7   8   38391    3491
  21   7   8   -2118    3965
  23   7   8   43831    4471
   0   8   8 5907165   23927
   2   8   8  635587    3073
   4   8   8 1441782    5135
   6   8   8 8924855   26642
   8   8   8 3053326   10019
  10   8   8 1814982    6862
  12   8   8  476175    4069
  14   8   8   -1866    1866
  16   8   8  535251    6460
  18   8   8  321788    6405
  20   8   8  133748    4377
  22   8   8    2997    4097
  24   8   8   54701   14073
   1   9   8 1039448    4095
   3   9   8    5510     754
   5   9   8 1805625    6335
   7   9   8  561625    3106
   9   9   8   30487    1231
  11   9   8   17676    1502
  13   9   8  183958    3623
  15   9   8   55917    2403
  17   9   8   42937    2814
  19   9   8    7847    3316
  21   9   8   -3807    3807
  23   9   8   16133    5339
   0  10   8 7091303   31451
   2  10   8  588508    2916
   4  10   8  342423    2796
   6  10   8 1158699    4505
   8  10   8 1668789    6229
  10  10   8 1943516    7514
  12  10   8  561678    4599
  14  10   8    6438    2002
  16  10   8  614745    6197
  18  10   8  754836    7587
  20  10   8  107229    4400
  22  10   8    6141    4336
   1  11   8   61588    1372
   3  11   8  806316    3837
   5  11   8   14071     954
   7  11   8  283108    2434
   9  11   8  487337    3538
  11  11   8     632    1551
  13  11   8  176099    5181
  15  11   8   -2254    2254
  17  11   8   38356    3151
  19  11   8   12356    3621
  21  11   8   32455    4533
  23  11   8   -1517    7653
   0  12   8 2357591   11817
   2  12   8 1331702    5375
   4  12   8  142192    2127
   6  12   8   92172    1789
   8  12   8  242535    2766
  10  12   8 1823149    7518
  12  12   8   85800    2388
  14  12   8    2783    2169
  16  12   8  312577    6090
  18  12   8  569005    7885
  20  12   8   76594    4595
  22  12   8   39871    4742
   1  13   8   35950    1233
   3  13   8  253255    2453
   5  13   8   52758    1307
   7  13   8  590303    3781
   9  13   8  221492    3163
  11  13   8   57061    2058
  13  13   8  141045    3180
  15  13   8   85483    3037
  17  13   8   28745    3434
  19  13   8    1062    3893
  21  13   8   10582    4580
  23  13   8   -6646   11870
   0  14   8 2509536   12766
   2  14   8 1483896    6064
   4  14   8  336250    3017
   6  14   8  567219    3952
   8  14   8  276479    3227
  10  14   8  522906    4338
  12  14   8   -2133    2133
  14  14   8   -2387    2387
  16  14   8  341575    6196
  18  14   8  125958    4215
  20  14   8  110365    4898
  22  14   8   10634    6221
   1  15   8  531570    3596
   3  15   8  170765    3329
   5  15   8  336012    3304
   7  15   8   99183    2007
   9  15   8   92661    2099
  11  15   8   58660    2255
  13  15   8   -2355    2355
  15  15   8    -389    2796
  17  15   8    2142    3438
  19  15   8    3980    4031
  21  15   8    4751    5191
   0  16   8  542881    5302
   2  16   8 1737706    7074
   4  16   8   55540    1663
   6  16   8  333821    3931
   8  16   8  493068    4593
  10  16   8  685735    5459
  12  16   8   -2392    2392
  14  16   8   59770    3128
  16  16   8  130320    3846
  18  16   8  207687   10024
  20  16   8     307    5051
   1  17   8  959243    5026
   3  17   8     537    1498
   5  17   8   26721    1797
   7  17   8   97258    2321
   9  17   8  118454    2556
  11  17   8  125332    3138
  13  17   8   -2736    2736
  15  17   8    -742    3262
  17  17   8   19612    4324
  19  17   8   59721    5196
  21  17   8  -15726   15726
   0  18   8 1211498    8292
   2  18   8  176522    3283
   4  18   8    -489    1672
   6  18   8   53409    2095
   8  18   8  504301    5034
  10  18   8  319102    4909
  12  18   8    4899    2611
  14  18   8   35787    3507
  16  18   8   16939    3768
  18  18   8   57011    5137
  20  18   8   -8522    8522
   1  19   8  216921    3520
   3  19   8  131732    2550
   5  19   8  141964    3177
   7  19   8     495    2118
   9  19   8  502481    5195
  11  19   8   10133    2710
  13  19   8    6071    3319
  15  19   8    9718    4107
  17  19   8   81587    5264
  19  19   8   55799    6244
   0  20   8  234075    5344
   2  20   8  724018    4893
   4  20   8   -1980    1980
   6  20   8  675832    5662
   8  20   8  517597    6688
  10  20   8  606195    6718
  12  20   8   20438    3285
  14  20   8   -3911    3911
  16  20   8   82043    5401
  18  20   8   54343    5735
   1  21   8   19983    2171
   3  21   8   35810    2458
   5  21   8    5310    2359
   7  21   8  266769    5249
   9  21   8  138654    3438
  11  21   8   19591    3137
  13  21   8    3673    3570
  15  21   8   -1786    4232
  17  21   8   10159    5275
  19  21   8   82205   16441
   0  22   8   56029    3643
   2  22   8  234302    5587
   4  22   8    5503    2732
   6  22   8   39850    2835
   8  22   8  509446    6487
  10  22   8  365857    6877
  12  22   8   62904    4113
  14  22   8    7420    4192
  16  22   8   28428    5330
  18  22   8   46085   10858
   1  23   8  156445    3741
   3  23   8   -2817    2817
   5  23   8   86304    3389
   7  23   8   63742    3360
   9  23   8   74130    3627
  11  23   8    3825    3723
  13  23   8    -134    4294
  15  23   8   -5121    5121
  17  23   8   25209   11297
   0  24   8    1936    4651
   2  24   8   -3083    3083
   4  24   8    5872    3117
   6  24   8   27749    3266
   8  24   8   48396    3596
  10  24   8  120054    4383
  12  24   8   25568    4505
  14  24   8   -2882    4850
  16  24   8   23589   18585
   1  25   8   20091    3630
   3  25   8   19597    3436
   5  25   8   -2078    3287
   7  25   8    -422    3335
   9  25   8  156285    4599
  11  25   8   26644    4144
  13  25   8     355    4903
  15  25   8   14031    9331
   0  26   8   21310    5386
   2  26   8   26489    3931
   4  26   8   67495    3837
   6  26   8   17954    3522
   8  26   8    8021    3711
  10  26   8   13780    4139
  12  26   8   54800    4968
  14  26   8   15424    8036
   1  27   8   84244    4338
   3  27   8   15879    4093
   5  27   8   25953    3865
   7  27   8    1840    3670
   9  27   8   78945    4718
  11  27   8   30089    4557
  13  27   8  -11364   11364
   0  28   8  134137    6752
   2  28   8    2230    4044
   4  28   8   -4187    4187
   6  28   8   -1739    3915
   8  28   8   46317    4444
  10  28   8    4886    4999
  12  28   8  -10858   10858
   1  29   8   95355    4751
   3  29   8    1371    4226
   5  29   8   -4450    4450
   7  29   8   45841    4757
   9  29   8   94810    7024
   0  30   8   64949    6740
   2  30   8    7609    4447
   4  30   8    -532    4874
   6  30   8     843    6876
   8  30   8    9293   14296
   2   1   9 1340730    4377
   4   1   9 3435496   10159
   6   1   9  276901    2342
   8   1   9  324439    2253
  10   1   9  305521    4402
  12   1   9  408630    3608
  14   1   9   -1600    1600
  16   1   9   28041    2278
  18   1   9   -2841    2841
  20   1   9   -3529    3529
  22   1   9  118134    5051
  24   1   9   11437   11120
   1   2   9  564260    2386
   3   2   9   88092    1454
   5   2   9    -740     740
   7   2   9    2625     770
   9   2   9 1110436    4645
  11   2   9   32911    1438
  13   2   9   11629    1593
  15   2   9   28000    1974
  17   2   9  129249    3271
  19   2   9    5921    3531
  21   2   9   14994    4277
  23   2   9   17800    4801
   2   3   9 1917725    6305
   4   3   9 4936355   14983
   6   3   9  550436    2703
   8   3   9  421457    2527
  10   3   9   28451    1664
  12   3   9 1240936    5712
  14   3   9  203405    4179
  16   3   9  447090    5540
  18   3   9  147761    4138
  20   3   9   59881    4251
  22   3   9  162451    5300
  24   3   9    6450   10858
   1   4   9   96547    1360
   3   4   9  397377    2235
   5   4   9  121845    2297
   7   4   9  403133    2618
   9   4   9   89398    2329
  11   4   9   28521    1416
  13   4   9  123189    4363
  15   4   9  659719    5157
  17   4   9   -2533    2533
  19   4   9   54612    3766
  21   4   9   14826    4023
  23   4   9    5708    4704
   2   5   9  228505    1864
   4   5   9 1658859    5742
   6   5   9  835220    3750
   8   5   9   30209    1361
  10   5   9  211713    3668
  12   5   9  205458    3315
  14   5   9  364298    4732
  16   5   9  149526    5465
  18   5   9   30320    3054
  20   5   9    9475    3978
  22   5   9  128377    4957
  24   5   9    3574   11120
   1   6   9  903141    3466
   3   6   9 1474291    5268
   5   6   9  466813    2601
   7   6   9  332902    2290
   9   6   9   55194    1201
  11   6   9   -1440    1440
  13   6   9   -1643    1643
  15   6   9  149481    4751
  17   6   9   38171    2712
  19   6   9   57460    3631
  21   6   9   12381    3901
  23   6   9    8418    4372
   2   7   9  858539    3588
   4   7   9 1410306    5139
   6   7   9  428886    3822
   8   7   9  280168    3489
  10   7   9  449200    3641
  12   7   9  342160    3755
  14   7   9     919    1903
  16   7   9  291515    5408
  18   7   9   -2879    2879
  20   7   9   19354    3892
  22   7   9  110684    4614
  24   7   9   25019   15726
   1   8   9   45770    1032
   3   8   9   22099     916
   5   8   9 1378473    5129
   7   8   9   25622    1044
   9   8   9  206311    2709
  11   8   9    2124    1675
  13   8   9   20576    1928
  15   8   9   -1300    2067
  17   8   9   -1851    2617
  19   8   9   29285    3405
  21   8   9    6369    4043
  23   8   9     -45    5260
   2   9   9  901254    3550
   4   9   9  312376    2908
   6   9   9 1568650    5642
   8   9   9  413095    3973
  10   9   9   24295    1624
  12   9   9 1079205    6011
  14   9   9  449666    4767
  16   9   9   56491    2629
  18   9   9   43892    3240
  20   9   9   20076    3833
  22   9   9  171991    5223
   1  10   9    3532     804
   3  10   9 2535725    8356
   5  10   9 2028359    7059
   7  10   9   65625    1695
   9  10   9  281569    3743
  11  10   9  297472    3738
  13  10   9    7769    1927
  15  10   9  241468    4610
  17  10   9   -2720    2720
  19  10   9   24466    3682
  21  10   9    3298    4316
  23  10   9   65077   11151
   2  11   9 1053442    4341
   4  11   9    6717     962
   6  11   9  204418    2404
   8  11   9  164198    3019
  10  11   9    -921    1491
  12  11   9  475452    4885
  14  11   9  243566    4627
  16  11   9  150124    4246
  18  11   9   36902    3473
  20  11   9   37242    4217
  22  11   9    1277    4715
   1  12   9   27679    1191
   3  12   9 1153156    4652
   5  12   9  970189    4379
   7  12   9  168726    2656
   9  12   9  105045    3017
  11  12   9   72388    2046
  13  12   9  468779    5288
  15  12   9  140270    3279
  17  12   9    -518    3118
  19  12   9     479    3918
  21  12   9   40315    4718
   2  13   9  122978    2327
   4  13   9 1263319    5129
   6  13   9  452113    3354
   8  13   9  406613    3653
  10  13   9   33973    1917
  12  13   9   67634    2485
  14  13   9  190669    6448
  16  13   9   41627    3086
  18  13   9    5972    3604
  20  13   9   -2838    4128
  22  13   9   21501    5893
   1  14   9   46837    1432
   3  14   9  138291    3133
   5  14   9 1153997    5384
   7  14   9  144628    3079
   9  14   9   -1594    1594
  11  14   9  198971    4088
  13  14   9  228556    4952
  15  14   9  327743    5894
  17  14   9   45873    3664
  19  14   9   -1347    4063
  21  14   9   47511    4902
   2  15   9  284976    3090
   4  15   9  660203    4743
   6  15   9 1914423    8280
   8  15   9   53721    2004
  10  15   9  196963    3839
  12  15   9   91750    2871
  14  15   9  134030    3284
  16  15   9   27872    3318
  18  15   9   -3897    3897
  20  15   9   68180    4938
  22  15   9   -6433   15011
   1  16   9    9614    1471
   3  16   9    7235    1472
   5  16   9 1674043    7801
   7  16   9  268195    4000
   9  16   9   52454    2236
  11  16   9   -2271    2271
  13  16   9  289189    5664
  15  16   9  384010    6834
  17  16   9   67798    4094
  19  16   9    8508    4398
  21  16   9   23542    7757
   2  17   9    7135    1545
   4  17   9  340825    4325
   6  17   9  818142    5736
   8  17   9   -1936    1936
  10  17   9   33661    2548
  12  17   9   76388    3152
  14  17   9  142214    3861
  16  17   9   11262    3531
  18  17   9   41188    4740
  20  17   9   32031    5785
   1  18   9   29793    1727
   3  18   9   -1743    1743
   5  18   9  582514    4964
   7  18   9  316710    4404
   9  18   9    -668    2155
  11  18   9   16592    2646
  13  18   9  393843    6493
  15  18   9   82362    4042
  17  18   9    1031    4335
  19  18   9   -4779    5459
   2  19   9  283426    4051
   4  19   9   33972    2062
   6  19   9  501872    5050
   8  19   9   26607    2303
  10  19   9   -2504    2504
  12  19   9   65048    3534
  14  19   9   59147    3659
  16  19   9   -4087    4087
  18  19   9    3047    4996
   1  20   9   61900    2210
   3  20   9  256656    4290
   5  20   9  673923    5600
   7  20   9   36970    2460
   9  20   9   79035    2818
  11  20   9  103643    3470
  13  20   9   94068    4029
  15  20   9   52211    4731
  17  20   9   20423    5052
  19  20   9   -5480   11164
   2  21   9    1109    2080
   4  21   9  740812    6378
   6  21   9  123680    3143
   8  21   9   15934    2694
  10  21   9   51060    3255
  12  21   9   40273    3726
  14  21   9   33575    4201
  16  21   9     812    4791
  18  21   9    1614    7653
   1  22   9   89901    3298
   3  22   9  252855    5457
   5  22   9  930708    7228
   7  22   9  243300    5620
   9  22   9    1158    3080
  11  22   9   41256    3440
  13  22   9  262866    7320
  15  22   9   71580    5151
  17  22   9   11490    7579
   2  23   9   -3114    3114
   4  23   9   33547    3106
   6  23   9  233609    6634
   8  23   9   60617    3461
  10  23   9   33316    3656
  12  23   9   36874    4189
  14  23   9   32673    4660
  16  23   9   19998    6801
   1  24   9   13238    3477
   3  24   9  523089    7125
   5  24   9  751646    7603
   7  24   9   50853    3620
   9  24   9    2421    3543
  11  24   9   59532    4229
  13  24   9  103317    5158
  15  24   9   15667    6998
   2  25   9   -3316    3525
   4  25   9  108226    3994
   6  25   9   35504    3614
   8  25   9   -2614    3520
  10  25   9   -1362    3943
  12  25   9   66989    4934
  14  25   9   70650    6373
   1  26   9   32939    3926
   3  26   9   87493    4259
   5  26   9  357666    7483
   7  26   9   45084    4067
   9  26   9   -3976    3976
  11  26   9   22524    4282
  13  26   9   63536    7532
   2  27   9   75746    4536
   4  27   9   89759    4487
   6  27   9    9641    3991
   8  27   9    6658    4148
  10  27   9   38035    4500
  12  27   9   33046    7590
   1  28   9    2855    4109
   3  28   9  117628    4919
   5  28   9  166970    5124
   7  28   9   10180    4260
   9  28   9     701    5314
  11  28   9    5187   10858
   2  29   9   17951    4394
   4  29   9   22003    4604
   6  29   9   -1298    4589
   8  29   9   -6736    6736
  10  29   9  -17871   17871
   1  30   9    6102    4527
   3  30   9   52236    7202
   5  30   9   60540   11364
   7  30   9   -7811   12509
   0   0  10 4229601   24665
   2   0  10 5589607   28960
   4   0  10  426141    3072
   6   0  10 1565293    7705
   8   0  10 5343522   23197
  10   0  1010554224   46922
  12   0  10  377326    4910
  14   0  10     459    2488
  16   0  10 1395011   12394
  18   0  10 1861126   17263
  20   0  10  437076   12622
  22   0  10   -6617    6617
   1   1  10  334743    1868
   3   1  10   13407     703
   5   1  10   46428    1035
   7   1  10     769     724
   9   1  10 1365751    5412
  11   1  10  213438    3661
  13   1  10    -634    1556
  15   1  10   24982    2211
  17   1  10   52834    3048
  19   1  10   21218    4275
  21   1  10   28228    4591
  23   1  10   -4662    4662
   0   2  10  246219    2455
   2   2  10 8179020   24238
   4   2  10 1812851    6181
   6   2  10 2044324    6726
   8   2  10 6422279   19024
  10   2  10 5796957   18940
  12   2  10 1017977    5146
  14   2  10  104910    3737
  16   2  10 1418098    8539
  18   2  10 1076797    9147
  20   2  10  303182    9203
  22   2  10   18306    4587
   1   3  10   31434     807
   3   3  10  178575    1804
   5   3  10  612536    2933
   7   3  10 1139156    4343
   9   3  10   15326    1013
  11   3  10  110152    4133
  13   3  10   27626    1807
  15   3  10    2555    2054
  17   3  10  108297    3343
  19   3  10   29085    3855
  21   3  10   -4196    4196
  23   3  10   -4713    4713
   0   4  10 3566032   15511
   2   4  10 4739688   14454
   4   4  10  227149    1958
   6   4  10 2079275    7034
   8   4  10 5380857   16603
  10   4  10 4784695   17120
  12   4  10   56422    1831
  14   4  10   88842    2589
  16   4  10  465660    5526
  18   4  10  745676    7344
  20   4  10  135142    4649
  22   4  10    6935    4456
   1   5  10  192093    1778
   3   5  10   18190     856
   5   5  10  785836    3454
   7   5  10   19733     968
   9   5  10  668698    3496
  11   5  10   81130    1810
  13   5  10    -384    1830
  15   5  10  398617    4890
  17   5  10   77931    2940
  19   5  10   83371    3862
  21   5  10   -4167    4167
  23   5  10   -2266    4779
   0   6  10 9371105   37374
   2   6  10 8533241   25348
   4   6  10   94049    1537
   6   6  10  862067    3786
   8   6  10 5286444   16003
  10   6  10 3480117   11814
  12   6  10  292549    3956
  14   6  10  208795    4149
  16   6  10 1036526    6956
  18   6  10  462218    7051
  20   6  10  117268    4428
  22   6  10    5317    4390
   1   7  10  159647    1688
   3   7  10 1350754    4970
   5   7  10  285903    2254
   7   7  10    4719    1003
   9   7  10  520088    3330
  11   7  10    1598    1607
  13   7  10    6203    1944
  15   7  10   -2150    2150
  17   7  10   22226    2772
  19   7  10   34008    3633
  21   7  10   -4207    4207
  23   7  10    -648    6958
   0   8  10 5070311   20862
   2   8  10 9141627   27163
   4   8  10  105780    2475
   6   8  10  736198    3630
   8   8  10 6459495   19852
  10   8  10  899543    4882
  12   8  10 1504738    7523
  14   8  10   23183    2193
  16   8  10  831008    6761
  18   8  10  821719    7711
  20   8  10   42524    4089
  22   8  10   -4367    4367
   1   9  10   41816    1503
   3   9  10  432516    2625
   5   9  10  824650    3775
   7   9  10  276676    2816
   9   9  10  241922    2928
  11   9  10    -667    1734
  13   9  10   -1969    1969
  15   9  10   -2232    2232
  17   9  10   17075    2897
  19   9  10    2609    3552
  21   9  10   -3710    4311
  23   9  10   -1675    8357
   0  10  10 5927512   24300
   2  10  10 5223515   15632
   4  10  10 2357418    8203
   6  10  10 2109586    7462
   8  10  10 4143054   13361
  10  10  10  678130    4522
  12  10  10  932200    6116
  14  10  10    4060    2207
  16  10  10  600800    6311
  18  10  10  844597    8282
  20  10  10  187851    6893
  22  10  10   -1443    4928
   1  11  10   11389     890
   3  11  10  650701    3141
   5  11  10  225961    2701
   7  11  10  434478    3441
   9  11  10   22744    1496
  11  11  10    4087    1777
  13  11  10   28102    2216
  15  11  10   -2353    2353
  17  11  10    9274    3169
  19  11  10   26226    4124
  21  11  10    3708    4580
  23  11  10   24304   17871
   0  12  10 4868661   22454
   2  12  10 2555131    8803
   4  12  10  511544    3304
   6  12  10  291928    3170
   8  12  10 4182135   14739
  10  12  10 1251829    6502
  12  12  10  840380    6891
  14  12  10   -2365    2365
  16  12  10  495154    6522
  18  12  10  851881    8893
  20  12  10  325389    8659
  22  12  10   19422    6561
   1  13  10  442651    3272
   3  13  10  225368    2774
   5  13  10   71747    1632
   7  13  10   12935    1586
   9  13  10   62741    1948
  11  13  10  111418    2492
  13  13  10   35023    2608
  15  13  10   -2627    2627
  17  13  10   22835    3374
  19  13  10   28866    4178
  21  13  10   -1393    4469
   0  14  10 1366040    8702
   2  14  10 2469235    9048
   4  14  10   -1457    1457
   6  14  10  569502    4372
   8  14  10 1140014    6147
  10  14  10  126658    2603
  12  14  10  835289    6468
  14  14  10   -2546    2546
  16  14  10  423554    6668
  18  14  10  464872    7940
  20  14  10   78929    4714
  22  14  10  -15726   15726
   1  15  10  275848    3333
   3  15  10   97673    1960
   5  15  10  120970    2354
   7  15  10  185315    4744
   9  15  10   52791    2354
  11  15  10    1491    2199
  13  15  10    -216    2726
  15  15  10   -3025    3025
  17  15  10   18629    3675
  19  15  10    8573    4414
  21  15  10   23706    6447
   0  16  10 2194037   11940
   2  16  10  295555    3506
   4  16  10   86068    2058
   6  16  10 1430295    7039
   8  16  10  967840    5934
  10  16  10  523132    5504
  12  16  10  106156    3274
  14  16  10   -1991    3087
  16  16  10  445856    7565
  18  16  10  129773    4909
  20  16  10   63431    5558
   1  17  10   10931    1590
   3  17  10  259418    3891
   5  17  10   46214    2037
   7  17  10   77192    2275
   9  17  10   38921    2344
  11  17  10  100295    2957
  13  17  10   74214    3337
  15  17  10     884    3377
  17  17  10   49480    4434
  19  17  10   20554    5125
   0  18  10 1315451    8777
   2  18  10  737247    5113
   4  18  10   18606    1975
   6  18  10 1197743    6892
   8  18  10 1569370    7982
  10  18  10  136734    3132
  12  18  10   -2945    2945
  14  18  10    6056    3304
  16  18  10   73088    4156
  18  18  10  355718    9676
  20  18  10   26231   11593
   1  19  10   63355    2169
   3  19  10    9911    1945
   5  19  10  190852    3956
   7  19  10  145115    4989
   9  19  10   37476    2575
  11  19  10   44471    2872
  13  19  10   -1368    3399
  15  19  10   13752    3973
  17  19  10   18870    5025
  19  19  10   11135    9126
   0  20  10  150589    4421
   2  20  10  950793    6057
   4  20  10   56500    2409
   6  20  10  712646    5712
   8  20  10 1112259    7029
  10  20  10  152849    4481
  12  20  10   61962    3638
  14  20  10   -2646    3835
  16  20  10  188348    7696
  18  20  10  167175    7319
   1  21  10    6019    2303
   3  21  10    1490    2157
   5  21  10   -2454    2454
   7  21  10   16564    2668
   9  21  10   14406    2897
  11  21  10    5685    3186
  13  21  10    1447    3732
  15  21  10    1969    4319
  17  21  10   33527    6515
   0  22  10  822926   11173
   2  22  10  193316    5140
   4  22  10   41159    2904
   6  22  10  182113    6085
   8  22  10  188305    8457
  10  22  10  435110    6934
  12  22  10   23817    3829
  14  22  10   -4087    4087
  16  22  10  170175    7135
   1  23  10   10474    3320
   3  23  10     592    3214
   5  23  10   15930    3386
   7  23  10   39689    3152
   9  23  10   15822    3464
  11  23  10   17244    3708
  13  23  10   -3781    4113
  15  23  10    8107    4949
   0  24  10  226265    8841
   2  24  10  178787    4615
   4  24  10    7138    3323
   6  24  10    1049    3532
   8  24  10  116793    3942
  10  24  10  155661    4639
  12  24  10    8895    4526
  14  24  10   14005    5079
   1  25  10    3459    3784
   3  25  10   23578    3772
   5  25  10   25963    3774
   7  25  10   -3571    3571
   9  25  10    8823    4010
  11  25  10    4623    4323
  13  25  10   -4957    4957
   0  26  10   20655    6054
   2  26  10   76527    4224
   4  26  10   19438    4154
   6  26  10   -3157    3802
   8  26  10  102157    4550
  10  26  10   37401    4598
  12  26  10   -1595    5425
   1  27  10   -4062    4062
   3  27  10   -1285    4002
   5  27  10   16643    4338
   7  27  10    1394    3944
   9  27  10   -4435    4435
  11  27  10   10897    6445
   0  28  10   41576    7530
   2  28  10   39061    4552
   4  28  10   -2604    4410
   6  28  10   10660    4552
   8  28  10     211    5264
  10  28  10   32305    7824
   1  29  10   17872    4404
   3  29  10   -4695    4695
   5  29  10   13154    4731
   7  29  10     243    7824
   9  29  10   10722   17156
   0  30  10  155278   13142
   2  30  10   49105   11364
   4  30  10   14529   10858
   6  30  10     615   19658
   2   1  11    4500     705
   4   1  11  767897    3096
   6   1  11   62906    1466
   8   1  11   86318    1993
  10   1  11    1025    1275
  12   1  11    1266    1564
  14   1  11   15266    1960
  16   1  11  179847    4924
  18   1  11    -863    3106
  20   1  11   31711    4211
  22   1  11   38528    4497
   1   2  11  506308    2386
   3   2  11   73215    1662
   5   2  11  295676    2210
   7   2  11 1891116    6429
   9   2  11  712447    3656
  11   2  11   61336    1716
  13   2  11  107120    2564
  15   2  11   31208    2278
  17   2  11   72803    3213
  19   2  11   41139    4264
  21   2  11   10520    4103
  23   2  11    -389    4562
   2   3  11 2812085    8774
   4   3  11  318659    2223
   6   3  11   56984    1969
   8   3  11   52855    1234
  10   3  11    3736    1475
  12   3  11    5543    1609
  14   3  11   55329    2136
  16   3  11  367857    5419
  18   3  11   16833    3301
  20   3  11    9014    4134
  22   3  11   -1435    4282
   1   4  11    -763     763
   3   4  11    7518     860
   5   4  11 1196707    4619
   7   4  11   -1023    1023
   9   4  11  915839    4197
  11   4  11  256063    3383
  13   4  11   -1766    1766
  15   4  11  114027    2569
  17   4  11   -2924    2924
  19   4  11   17654    3550
  21   4  11   -4447    4447
  23   4  11   -4516    4516
   2   5  11   89049    2089
   4   5  11  395931    2503
   6   5  11  823185    3684
   8   5  11  135459    3162
  10   5  11    7880    1421
  12   5  11   44073    1905
  14   5  11  117917    2899
  16   5  11   90262    3008
  18   5  11    1175    3140
  20   5  11    5797    3891
  22   5  11   -4247    4247
  24   5  11  -16441   16441
   1   6  11   27646    1259
   3   6  11  483708    2872
   5   6  11  637220    3209
   7   6  11  785679    3748
   9   6  11   27175    1349
  11   6  11   26484    1749
  13   6  11    4010    1837
  15   6  11   57591    2470
  17   6  11   15460    3037
  19   6  11   33669    3678
  21   6  11   -1331    4565
  23   6  11    1120    6997
   2   7  11    9949     898
   4   7  11  584726    3111
   6   7  11  241120    2335
   8   7  11   -1121    1121
  10   7  11  150211    2996
  12   7  11   -1741    1741
  14   7  11    6958    2041
  16   7  11  149570    3362
  18   7  11    2466    3223
  20   7  11   -3234    3886
  22   7  11    1617    4818
   1   8  11   39872    1188
   3   8  11  162342    3071
   5   8  11 1709678    6207
   7   8  11  383531    3516
   9   8  11   30078    1438
  11   8  11   18122    1777
  13   8  11   16407    2051
  15   8  11   52227    2450
  17   8  11   -1967    2878
  19   8  11   42755    3791
  21   8  11   -4108    4108
  23   8  11    5909   11297
   2   9  11    7646     861
   4   9  11   50726    1165
   6   9  11  458924    3014
   8   9  11   39665    1420
  10   9  11  137625    3304
  12   9  11    4850    1950
  14   9  11   -2083    2083
  16   9  11   20808    2593
  18   9  11   -3138    3138
  20   9  11   -3983    3983
  22   9  11   -4869    4869
   1  10  11  119223    2204
   3  10  11   30080    1202
   5  10  11 1286871    5190
   7  10  11  218729    3602
   9  10  11   97140    1896
  11  10  11   24802    2011
  13  10  11   98359    2562
  15  10  11   -2386    2386
  17  10  11   17603    3021
  19  10  11    1067    3949
  21  10  11   -2594    4559
   2  11  11    -937     937
   4  11  11  326834    2839
   6  11  11  350077    3047
   8  11  11   -1411    1411
  10  11  11   -1741    1741
  12  11  11    6933    2134
  14  11  11    5273    2458
  16  11  11   -2797    2797
  18  11  11   -3521    3521
  20  11  11   -4413    4413
  22  11  11   -4113    6882
   1  12  11     666    1186
   3  12  11 2290952    8454
   5  12  11   78926    1734
   7  12  11  749972    4455
   9  12  11  174011    3926
  11  12  11   35845    2270
  13  12  11  486298    7763
  15  12  11   56337    2898
  17  12  11   25561    3388
  19  12  11   -3752    3834
  21  12  11   -3598    4716
   2  13  11  353339    3100
   4  13  11   24239    1573
   6  13  11  916763    5183
   8  13  11   -1664    1664
  10  13  11    2965    1886
  12  13  11    -237    2307
  14  13  11   86067    2951
  16  13  11   -2986    2986
  18  13  11    2097    3691
  20  13  11   32514    4518
  22  13  11    1766    9605
   1  14  11  513011    3599
   3  14  11  414240    3772
   5  14  11  127805    3007
   7  14  11  900389    5615
   9  14  11   29826    1992
  11  14  11   98811    2760
  13  14  11  450455    5939
  15  14  11  222067    6606
  17  14  11   71168    3938
  19  14  11   30009    4315
  21  14  11   70410    7539
   2  15  11   76543    1986
   4  15  11   36180    1873
   6  15  11  437938    4483
   8  15  11   70940    2371
  10  15  11   -2280    2280
  12  15  11   -1482    2546
  14  15  11    1274    2804
  16  15  11   28794    3430
  18  15  11   -3976    3976
  20  15  11   12179    4794
   1  16  11  511737    4403
   3  16  11   -1725    1725
   5  16  11  432362    4478
   7  16  11  355523    4701
   9  16  11   -2186    2186
  11  16  11    7403    2583
  13  16  11  138520    3611
  15  16  11  215832    9985
  17  16  11    7989    3947
  19  16  11    -523    4568
  21  16  11   29246   11593
   2  17  11   16721    1899
   4  17  11  285860    4039
   6  17  11   18984    2094
   8  17  11   34204    2359
  10  17  11   -2472    2472
  12  17  11   -2881    2881
  14  17  11   28284    3438
  16  17  11   21234    3725
  18  17  11   -4360    4360
  20  17  11   -3640    8798
   1  18  11   -2042    2042
   3  18  11  358753    4323
   5  18  11    1635    2013
   7  18  11  767770    6204
   9  18  11  110259    2999
  11  18  11   28837    2954
  13  18  11   52620    3423
  15  18  11   34346    3743
  17  18  11   42451    4570
  19  18  11   12950    6476
   2  19  11   19022    2225
   4  19  11    1300    2037
   6  19  11     629    2232
   8  19  11    9265    2408
  10  19  11   -2611    2611
  12  19  11   -2370    3045
  14  19  11   36312    3829
  16  19  11    7425    4024
  18  19  11    2684    5211
   1  20  11   50930    2585
   3  20  11  735421    6057
   5  20  11  336921    4799
   7  20  11   87330    2702
   9  20  11   11824    2737
  11  20  11  232838    5694
  13  20  11   66795    3782
  15  20  11   85662    5076
  17  20  11    4790    5009
   2  21  11      50    2458
   4  21  11    3508    2305
   6  21  11   -2345    2345
   8  21  11   -2567    2567
  10  21  11   -2876    3129
  12  21  11    4410    3694
  14  21  11    2779    3972
  16  21  11   10913    4441
   1  22  11   70010    2955
   3  22  11  376837    6349
   5  22  11  179874    4946
   7  22  11  132490    3358
   9  22  11   33591    3366
  11  22  11  135085    4241
  13  22  11   61024    4265
  15  22  11   62297    4954
  17  22  11   10479   18228
   2  23  11    1177    3508
   4  23  11   13800    3820
   6  23  11   19831    3179
   8  23  11   51665    3467
  10  23  11    4599    3561
  12  23  11   -4066    4066
  14  23  11    3328    4618
  16  23  11    3469    7839
   1  24  11   -2287    3509
   3  24  11  680042    9186
   5  24  11  262913    7213
   7  24  11  277055    7414
   9  24  11   -3350    4007
  11  24  11  104877    4785
  13  24  11   69787    5073
  15  24  11   59165    9888
   2  25  11   24172    4236
   4  25  11   23262    4266
   6  25  11   21579    3909
   8  25  11   -3252    3857
  10  25  11   -4322    4322
  12  25  11   16886    4790
  14  25  11    2859   11593
   1  26  11   12951    4114
   3  26  11  368711    8445
   5  26  11  188953    5065
   7  26  11   53232    4311
   9  26  11   -4351    4351
  11  26  11  130464    5899
  13  26  11   -3574   15011
   2  27  11    -697    4240
   4  27  11   16144    4327
   6  27  11    1649    4178
   8  27  11   13640    4861
  10  27  11   -5430    5430
   1  28  11   -4594    4594
   3  28  11   66816    4810
   5  28  11   67203    4708
   7  28  11       6    4705
   9  28  11    -189    9211
   2  29  11   -3990    4815
   4  29  11    3840    4741
   6  29  11   -8611    8611
   8  29  11  -16441   16441
   1  30  11    5719   16441
   3  30  11   80775   17156
   5  30  11    5486   10858
   0   0  12  103706    2860
   2   0  12 4386138   20446
   4   0  12   19261    1155
   6   0  12  820391    4852
   8   0  12 3855633   16599
  10   0  12 8316841   37611
  12   0  12  605561    6609
  14   0  12   37062    3278
  16   0  12 1116225   10760
  18   0  12 1713602   15500
  20   0  12  222417   17810
  22   0  12   -1205    6179
   1   1  12  829365    3269
   3   1  12    6880     746
   5   1  12   13831     886
   7   1  12  620509    2963
   9   1  12  500792    3691
  11   1  12   65953    1780
  13   1  12   35732    2090
  15   1  12   27532    2387
  17   1  12    4134    2976
  19   1  12   15617    3573
  21   1  12     705    4343
  23   1  12   -3840    5557
   0   2  12 7498881   41141
   2   2  12  144109    1943
   4   2  12   12844     884
   6   2  12 2363499    7757
   8   2  12 6125971   18372
  10   2  12 1409153    6364
  12   2  12  836404    5292
  14   2  12    3678    2064
  16   2  12  691956    6478
  18   2  12  736982    7944
  20   2  12  424971    8478
  22   2  12   -2446    4375
   1   3  12  320213    2112
   3   3  12  158107    1907
   5   3  12  452904    2693
   7   3  12  458182    2702
   9   3  12   -1135    1135
  11   3  12   17096    1663
  13   3  12   -1821    1821
  15   3  12   31498    2390
  17   3  12   -2950    2950
  19   3  12    8336    3725
  21   3  12   37457    4491
  23   3  12    -500    6864
   0   4  12 9279477   40122
   2   4  12 4014472   12534
   4   4  12    -883     883
   6   4  12 1016688    4288
   8   4  12 2393598    8271
  10   4  12 2281038    9289
  12   4  12    3200    1748
  14   4  12  118694    2601
  16   4  12  328856    5300
  18   4  12  644182    7784
  20   4  12   68230    4231
  22   4  12    6759    4609
   1   5  12  219562    2926
   3   5  12  144882    1910
   5   5  12  332623    2733
   7   5  12 1083071    4574
   9   5  12  185307    2668
  11   5  12   76242    2008
  13   5  12    1899    1896
  15   5  12   19479    2280
  17   5  12    1294    2978
  19   5  12   68693    3859
  21   5  12   -4116    4116
  23   5  12   -8799    8799
   0   6  1211702129   46595
   2   6  12 5882020   18324
   4   6  12   19607     998
   6   6  12 1344390    5255
   8   6  12 3090566   10567
  10   6  12 1480726    6674
  12   6  12  223945    3876
  14   6  12  567257    5199
  16   6  12  560902    6187
  18   6  12  519207    6947
  20   6  12  138458    4577
  22   6  12   -2536    4564
   1   7  12   35681    1260
   3   7  12  426157    3311
   5   7  12   19168    1080
   7   7  12  373345    3002
   9   7  12   28543    1474
  11   7  12    7510    1775
  13   7  12   -1907    1907
  15   7  12   -2349    2349
  17   7  12   52897    3130
  19   7  12   27943    3534
  21   7  12    7326    4418
  23   7  12  -14296   14296
   0   8  1211136144   44502
   2   8  12 6927710   21136
   4   8  12   53598    1368
   6   8  12   83293    2219
   8   8  12 2691236    9294
  10   8  12  764327    4894
  12   8  12   39636    2065
  14   8  12    4699    2256
  16   8  12  604783    6149
  18   8  12  579517    7253
  20   8  12   84508    4457
  22   8  12   -4945    4945
   1   9  12  224306    2094
   3   9  12  212922    2280
   5   9  12   29084    1210
   7   9  12  333088    2992
   9   9  12   48589    1603
  11   9  12   56256    2027
  13   9  12   28801    2235
  15   9  12   58197    2597
  17   9  12  150500    4285
  19   9  12   63492    3994
  21   9  12   -4799    4799
   0  10  12 4019385   17138
   2  10  12 4681412   14280
   4  10  12  203601    2453
   6  10  12  772183    3991
   8  10  12 1965490    7403
  10  10  12 1568554    7431
  12  10  12  230322    4621
  14  10  12    2794    2354
  16  10  12  295203    5768
  18  10  12  457607    7840
  20  10  12   94542    4937
  22  10  12   14003    8091
   1  11  12  382838    2952
   3  11  12  198946    2499
   5  11  12  457936    3373
   7  11  12  474468    3640
   9  11  12    4818    1576
  11  11  12    1234    2125
  13  11  12   37447    2557
  15  11  12   -2333    2663
  17  11  12  109889    3751
  19  11  12  106830    4592
  21  11  12    6563    4755
   0  12  12 6329525   28796
   2  12  12 1522944    6713
   4  12  12   20464    1388
   6  12  12  353374    3495
   8  12  12 2405600    9284
  10  12  12 1122511    6338
  12  12  12  808093    6605
  14  12  12   10083    2621
  16  12  12  282375    6253
  18  12  12  542200    7825
  20  12  12  335011    9290
  22  12  12   17791   11364
   1  13  12    4413    1365
   3  13  12  752119    4662
   5  13  12   37356    2008
   7  13  12  694299    4720
   9  13  12   77362    2078
  11  13  12   12682    2306
  13  13  12   55808    2772
  15  13  12   -1099    2788
  17  13  12   76999    3787
  19  13  12   21495    4060
  21  13  12   26128    6762
   0  14  12  141137    6674
   2  14  12  415671    3824
   4  14  12   -1620    1620
   6  14  12   34957    1936
   8  14  12 1074763    6091
  10  14  12 1839437    8954
  12  14  12  398121    5777
  14  14  12   11697    2873
  16  14  12  196242    6557
  18  14  12  362863    9456
  20  14  12     406    4997
   1  15  12  254070    3607
   3  15  12   -1655    1655
   5  15  12    2431    1810
   7  15  12  259384    4043
   9  15  12   25875    2251
  11  15  12  105355    3178
  13  15  12   20216    3095
  15  15  12   -3172    3172
  17  15  12   57902    4033
  19  15  12    -279    4321
  21  15  12   32167   17871
   0  16  12 2394728   14935
   2  16  12   93849    2160
   4  16  12   11674    1859
   6  16  12  345054    4308
   8  16  12 1176477    6934
  10  16  12  468686    5577
  12  16  12  107334    3404
  14  16  12   19857    3394
  16  16  12  123024    4225
  18  16  12   54831    4650
  20  16  12   77691    7546
   1  17  12  825371    5634
   3  17  12   -1834    1834
   5  17  12  253342    4242
   7  17  12  272510    4748
   9  17  12   91639    2859
  11  17  12  158601    3875
  13  17  12   -3100    3100
  15  17  12   10721    3482
  17  17  12   46759    4299
  19  17  12   19010    5156
   0  18  12  799812    8519
   2  18  12  933568    6316
   4  18  12   -2018    2018
   6  18  12  760934    5924
   8  18  12  670842    5889
  10  18  12  812090    7510
  12  18  12   -3133    3133
  14  18  12   47721    3676
  16  18  12  138038    4458
  18  18  12  120093    5468
   1  19  12  171011    3799
   3  19  12  108078    2749
   5  19  12   75158    2572
   7  19  12  454541    5636
   9  19  12   60524    2903
  11  19  12   47885    3297
  13  19  12   -2838    3376
  15  19  12    4049    4130
  17  19  12   15366    4527
  19  19  12   -7148   18585
   0  20  12  853389   10082
   2  20  12  378581    5488
   4  20  12   47059    2575
   6  20  12   76887    2795
   8  20  12  844106    6930
  10  20  12  178236    4706
  12  20  12    1676    3451
  14  20  12   37590    3833
  16  20  12  169720    5562
  18  20  12  127953   20015
   1  21  12  138526    3444
   3  21  12   97498    3037
   5  21  12    -691    2531
   7  21  12  179071    3870
   9  21  12   86756    3377
  11  21  12   45939    3847
  13  21  12    2876    3923
  15  21  12   23133    4735
  17  21  12   58999    6929
   0  22  12  566747    9475
   2  22  12  331274    5822
   4  22  12   40702    3270
   6  22  12  100979    3471
   8  22  12  140565    4228
  10  22  12  237087   10351
  12  22  12    6107    3919
  14  22  12   20897    4252
  16  22  12  111015    6665
   1  23  12   74526    4252
   3  23  12   91851    3926
   5  23  12    8119    3666
   7  23  12   13864    3412
   9  23  12   43331    3764
  11  23  12   94416    4426
  13  23  12    3337    4408
  15  23  12   13510    7005
   0  24  12  364861   11596
   2  24  12  155922    5037
   4  24  12   29155    4212
   6  24  12   74625    4330
   8  24  12   67605    4371
  10  24  12  189723    6293
  12  24  12    3144    4985
  14  24  12   46066    7344
   1  25  12   15855    4273
   3  25  12   84387    4704
   5  25  12    7789    4073
   7  25  12     -62    4336
   9  25  12   57005    4607
  11  25  12   20024    5076
  13  25  12   -7722    7722
   0  26  12   53250    7326
   2  26  12   38456    4584
   4  26  12    4067    4244
   6  26  12   -4207    4207
   8  26  12   81876    5159
  10  26  12   16156    4849
  12  26  12   20214   10788
   1  27  12   -1597    4774
   3  27  12   42093    4601
   5  27  12   -4360    4360
   7  27  12   -2914    4799
   9  27  12   41731    6278
  11  27  12   54326   15011
   0  28  12   -4231    7442
   2  28  12   39327    4760
   4  28  12   12287    4679
   6  28  12    4764    4749
   8  28  12    6829   15011
   1  29  12   19593    5129
   3  29  12   18676    7546
   5  29  12    8610   16441
   2   1  13  729494    3103
   4   1  13 5698322   16615
   6   1  13 1022404    4026
   8   1  13  683571    3794
  10   1  13   -1417    1474
  12   1  13  222755    4070
  14   1  13  524431    5546
  16   1  13  198424    6967
  18   1  13   -3220    3220
  20   1  13   37729    4413
  22   1  13  148084    5175
   1   2  13  309268    2075
   3   2  13   20231     966
   5   2  13    -910     910
   7   2  13   18149    1455
   9   2  13  401089    3377
  11   2  13    -746    1678
  13   2  13   63615    2268
  15   2  13   63011    2841
  17   2  13   -3046    3046
  19   2  13   17209    3544
  21   2  13   18713    4577
  23   2  13    6201   10858
   2   3  13 1910242    6431
   4   3  13 5805762   17771
   6   3  13 2909970    9629
   8   3  13  201514    2470
  10   3  13    7150    1624
  12   3  13 1547410    7469
  14   3  13  699377    5809
  16   3  13  452334    5946
  18   3  13    9095    3318
  20   3  13  137395    4722
  22   3  13  215424   14058
   1   4  13   99209    2037
   3   4  13  739930    3459
   5   4  13  185647    2195
   7   4  13   -1062    1062
   9   4  13   -1336    1336
  11   4  13   90814    2079
  13   4  13    4230    1945
  15   4  13   -2653    2653
  17   4  13   30357    3196
  19   4  13    5931    3620
  21   4  13    4767    4271
  23   4  13   71324   11364
   2   5  13  265753    2644
   4   5  13 5162300   15980
   6   5  13 2729703    9182
   8   5  13   -1149    1149
  10   5  13   70426    1914
  12   5  13  388708    4339
  14   5  13 1211089    7309
  16   5  13  634965    6242
  18   5  13   -3348    3348
  20   5  13   28943    4124
  22   5  13  127897    5341
   1   6  13    -868     868
   3   6  13  575641    3113
   5   6  13    7712    1056
   7   6  13   14335    1223
   9   6  13   57527    1655
  11   6  13  153534    3460
  13   6  13    5765    2017
  15   6  13   -2404    2404
  17   6  13   -3025    3025
  19   6  13    9291    3464
  21   6  13    3561    4271
  23   6  13   42174   15726
   2   7  13  344222    2544
   4   7  13 1761007    6430
   6   7  13 3017785   10093
   8   7  13      61    1260
  10   7  13  391795    4105
  12   7  13  668638    5238
  14   7  13  803634    6203
  16   7  13  294641    5673
  18   7  13   -3091    3091
  20   7  13   11093    4279
  22   7  13  103934    7081
   1   8  13  503012    2803
   3   8  13  682207    3575
   5   8  13  106079    2618
   7   8  13  129105    3128
   9   8  13   -1419    1419
  11   8  13   98535    2284
  13   8  13     424    2096
  15   8  13   27650    2563
  17   8  13   -1237    3049
  19   8  13    1253    3876
  21   8  13   18960    4694
   2   9  13  357297    2692
   4   9  13 2518317    8674
   6   9  13  992439    4623
   8   9  13   -1317    1317
  10   9  13  124049    3256
  12   9  13 1644067    8083
  14   9  13  439742    5956
  16   9  13  137614    3258
  18   9  13   -3351    3351
  20   9  13    3514    4663
  22   9  13  388863   35026
   1  10  13   12520    1051
   3  10  13  563530    3340
   5  10  13   32620    1327
   7  10  13   67894    1679
   9  10  13   36073    1787
  11  10  13  108313    2574
  13  10  13  153800    6559
  15  10  13   -2608    2608
  17  10  13   -3261    3261
  19  10  13       2    4057
  21  10  13    8389    5125
   2  11  13  296818    2910
   4  11  13   45076    1512
   6  11  13 2020462    7998
   8  11  13   -1589    1589
  10  11  13   -1279    1960
  12  11  13  429784    5376
  14  11  13  456693    5907
  16  11  13  106870    3508
  18  11  13   21540    3822
  20  11  13    9536    4615
  22  11  13   27163   16441
   1  12  13  607216    4114
   3  12  13  169278    3134
   5  12  13  226509    3254
   7  12  13   56515    2051
   9  12  13   -1861    1861
  11  12  13  301137    4979
  13  12  13    6516    2521
  15  12  13   -2785    2785
  17  12  13   10626    3280
  19  12  13   21554    4296
  21  12  13   19105    7267
   2  13  13    8705    1570
   4  13  13 1178026    6042
   6  13  13 1250103    6588
   8  13  13    2245    1875
  10  13  13    4846    2231
  12  13  13  199028    8329
  14  13  13  485375    6235
  16  13  13   59239    3452
  18  13  13    4297    3799
  20  13  13    3906    4995
   1  14  13    4651    1702
   3  14  13   86404    2102
   5  14  13   74400    2097
   7  14  13    5619    1945
   9  14  13  112053    2783
  11  14  13   64221    3001
  13  14  13   92938    3294
  15  14  13   34779    3223
  17  14  13    5947    3577
  19  14  13   -4497    4497
  21  14  13   59339   12131
   2  15  13  282377    4017
   4  15  13  951875    5685
   6  15  13 2229321    9582
   8  15  13    -963    2155
  10  15  13   22735    2621
  12  15  13  381503    6256
  14  15  13  175554    5610
  16  15  13   93858    4443
  18  15  13   -2881    4111
  20  15  13  122147   10714
   1  16  13   -1621    1999
   3  16  13     992    1959
   5  16  13   11855    1990
   7  16  13   17007    2159
   9  16  13  100777    2970
  11  16  13   14643    2920
  13  16  13   97828    3563
  15  16  13   63210    3677
  17  16  13   -3987    3987
  19  16  13    5650    5136
   2  17  13     383    2128
   4  17  13  656739    5438
   6  17  13  703506    5493
   8  17  13   21030    2399
  10  17  13   -2712    2712
  12  17  13  104602    3614
  14  17  13  285129    7958
  16  17  13   97652    4325
  18  17  13   29306    4693
   1  18  13  132333    2896
   3  18  13   52741    2375
   5  18  13  181438    6022
   7  18  13   11754    2287
   9  18  13   -2597    2597
  11  18  13   -2950    2950
  13  18  13   27998    3538
  15  18  13    8205    3598
  17  18  13   -2893    4156
  19  18  13    -565   17513
   2  19  13  267303    4993
   4  19  13  330469    4968
   6  19  13   74442    2718
   8  19  13   19116    2569
  10  19  13   -2874    2874
  12  19  13   43668    3466
  14  19  13   75731    4172
  16  19  13   14799    4291
  18  19  13     389    7696
   1  20  13   21580    2547
   3  20  13   52811    2706
   5  20  13  267566    5036
   7  20  13   43426    2852
   9  20  13   60591    3071
  11  20  13    8880    3240
  13  20  13  111939    4247
  15  20  13    7788    4477
  17  20  13     174    5568
   2  21  13   47789    2793
   4  21  13  429649    5876
   6  21  13   37224    2846
   8  21  13   12883    2831
  10  21  13   18022    3339
  12  21  13   42413    3883
  14  21  13   57924    4454
  16  21  13   -4841    4841
   1  22  13   74094    3067
   3  22  13   30641    2801
   5  22  13  277482    5824
   7  22  13    5123    3035
   9  22  13   14882    3541
  11  22  13   -3972    3972
  13  22  13   94843    4588
  15  22  13   28280    5246
   2  23  13   25609    3422
   4  23  13   79377    3582
   6  23  13   40965    3431
   8  23  13     441    3386
  10  23  13   19544    3958
  12  23  13   -2124    4241
  14  23  13    6984    5098
   1  24  13   55942    3975
   3  24  13   73582    4144
   5  24  13  158901    4826
   7  24  13   12286    4089
   9  24  13   -3918    3918
  11  24  13   12991    4579
  13  24  13  107169    6450
   2  25  13     622    3852
   4  25  13  134870    4846
   6  25  13   27672    4117
   8  25  13     113    4569
  10  25  13   -4620    4620
  12  25  13   10177    7973
   1  26  13     -61    4036
   3  26  13   52501    4522
   5  26  13   73850    4483
   7  26  13   14280    4576
   9  26  13    4025    4931
  11  26  13    1203   12867
   2  27  13   79902    4843
   4  27  13   80602    4707
   6  27  13   -4337    4337
   8  27  13   36678    6913
  10  27  13   42889   17156
   1  28  13   -2330    4525
   3  28  13   10036    4480
   5  28  13   55655    5664
   7  28  13    7511    9348
   9  28  13   12152   17156
   2  29  13   12401   10858
   4  29  13   -3932   10615
   6  29  13    4289   15726
   0   0  14  263912    4702
   2   0  14   28929    1290
   4   0  14  146736    2936
   6   0  14   23325    1446
   8   0  14 1465085    9009
  10   0  14  430830    6466
  12   0  14 1565756   11765
  14   0  14   39898    3597
  16   0  14  100732    4432
  18   0  14   56275    5039
  20   0  14   43303    6208
  22   0  14     480    6328
   1   1  14   57792    1678
   3   1  14    -813     813
   5   1  14    1800     950
   7   1  14  300225    3876
   9   1  14  291788    3155
  11   1  14   99640    2412
  13   1  14   25803    2338
  15   1  14   -2505    2505
  17   1  14   13193    3170
  19   1  14    2024    3565
  21   1  14   29188    4867
   0   2  14 1288651    6564
   2   2  14   82887    1774
   4   2  14   -1007    1007
   6   2  14  481789    3191
   8   2  14  562248    3842
  10   2  14 1302502    6502
  12   2  14  245869    4809
  14   2  14   26494    2507
  16   2  14  321280    5790
  18   2  14   85647    3729
  20   2  14   73207    4678
  22   2  14   -1508    4684
   1   3  14  366902    2477
   3   3  14  233174    2294
   5   3  14   24886    1178
   7   3  14   39987    1416
   9   3  14  189860    3156
  11   3  14    7484    1912
  13   3  14  134260    3677
  15   3  14   -2519    2519
  17   3  14    7162    3026
  19   3  14   -3317    3596
  21   3  14   15456    4377
  23   3  14   40030   15726
   0   4  14 5204750   22247
   2   4  14  441555    2635
   4   4  14   66465    1694
   6   4  14 1834828    6926
   8   4  14  363825    3150
  10   4  14   36754    1823
  12   4  14  350190    4626
  14   4  14  317758    5330
  16   4  14  198641    5468
  18   4  14    6731    3365
  20   4  14   23894    4217
  22   4  14    3675    4792
   1   5  14   32897    1029
   3   5  14    4360    1032
   5   5  14   -1131    1131
   7   5  14    -296    1275
   9   5  14  982062    5268
  11   5  14   42280    1974
  13   5  14    4878    2179
  15   5  14   84294    3388
  17   5  14    8600    3030
  19   5  14   15407    3752
  21   5  14   10770    4381
   0   6  14 4184638   18635
   2   6  14  767108    3827
   4   6  14   44381    1289
   6   6  14  477908    3285
   8   6  14  342602    3290
  10   6  14  148545    4505
  12   6  14   18731    2031
  14   6  14  185642    5774
  16   6  14  127142    3924
  18   6  14   92427    3941
  20   6  14    3957    3916
  22   6  14   17308    8111
   1   7  14   28855    1036
   3   7  14  339254    2771
   5   7  14   -1292    1292
   7   7  14   -1238    1238
   9   7  14  739811    4834
  11   7  14  318260    4263
  13   7  14     419    2104
  15   7  14   25833    2651
  17   7  14   12218    3234
  19   7  14   -1369    3693
  21   7  14   36972    4788
   0   8  14 3678931   16734
   2   8  14 1074802    4616
   4   8  14  473742    4190
   6   8  14 1555250    6174
   8   8  14   23962    1539
  10   8  14 1072122    6133
  12   8  14     363    2311
  14   8  14  215665    6268
  16   8  14  204337    7343
  18   8  14    2714    3555
  20   8  14   98137    4720
  22   8  14   -2144   15726
   1   9  14  308171    2639
   3   9  14  363063    2941
   5   9  14     468    1250
   7   9  14    9777    1387
   9   9  14 1190656    6092
  11   9  14  497121    4841
  13   9  14    6346    2395
  15   9  14   -2663    2663
  17   9  14   39860    3545
  19   9  14     685    4093
  21   9  14   27305    5225
   0  10  14 3192167   14920
   2  10  14 1062496    4681
   4  10  14  233187    2927
   6  10  14  290085    3215
   8  10  14   69228    1864
  10  10  14  998496    6243
  12  10  14   -2907    2907
  14  10  14   47352    2856
  16  10  14  116999    3591
  18  10  14   24554    3798
  20  10  14   63041    4873
  22  10  14    4289   15726
   1  11  14  594964    4322
   3  11  14   42857    1769
   5  11  14   60963    1832
   7  11  14   27959    1710
   9  11  14 1136224    6315
  11  11  14  124813    2958
  13  11  14   67599    2872
  15  11  14   14035    2877
  17  11  14   28224    3581
  19  11  14   41915    4406
  21  11  14    -867    8012
   0  12  14  478275    6145
   2  12  14   67360    1918
   4  12  14   -1598    1598
   6  12  14  143650    4383
   8  12  14   33576    1899
  10  12  14 1038484    6576
  12  12  14  238463    5283
  14  12  14   -2710    2710
  16  12  14   81987    3544
  18  12  14   55265    4071
  20  12  14    8034    4777
   1  13  14    8109    1725
   3  13  14  923751    5403
   5  13  14   -1749    1749
   7  13  14   -1888    1888
   9  13  14  183819    3822
  11  13  14  389921    6311
  13  13  14   67696    3136
  15  13  14    4384    3059
  17  13  14   49765    3810
  19  13  14    3236    4513
  21  13  14   27878   17156
   0  14  14  130369    3620
   2  14  14   13498    1903
   4  14  14  169003    3401
   6  14  14   94143    2364
   8  14  14  118513    2669
  10  14  14 1188014    7781
  12  14  14  122446    3483
  14  14  14   17641    3274
  16  14  14   34236    3604
  18  14  14   45423    4419
  20  14  14   23053    7588
   1  15  14 1527309    7914
   3  15  14   -1928    1928
   5  15  14    4655    1959
   7  15  14  235263    4279
   9  15  14  199245    5589
  11  15  14   67428    3165
  13  15  14   24962    3319
  15  15  14   -2956    3391
  17  15  14    1681    3880
  19  15  14   28301    5424
   0  16  14  178068    6368
   2  16  14  459721    5064
   4  16  14   64027    2364
   6  16  14    9596    2119
   8  16  14  441537    5237
  10  16  14  479564    6290
  12  16  14   10139    3107
  14  16  14   45110    3558
  16  16  14   24103    3919
  18  16  14   24783    4413
   1  17  14 1198138    7265
   3  17  14  139154    2908
   5  17  14   14744    2286
   7  17  14   93365    2630
   9  17  14  532210    6017
  11  17  14  248869    5755
  13  17  14     -36    3304
  15  17  14   18732    3684
  17  17  14   57071    4352
  19  17  14   57238   10174
   0  18  14  860079    9147
   2  18  14  231731    4869
   4  18  14   24910    2551
   6  18  14   11763    2397
   8  18  14  104203    2964
  10  18  14  147163    3576
  12  18  14   15672    3416
  14  18  14   46114    3871
  16  18  14   48129    4243
  18  18  14   -1490    6233
   1  19  14  646073    6122
   3  19  14   92632    2893
   5  19  14   -2394    2394
   7  19  14  263240    5227
   9  19  14   95116    3299
  11  19  14   84033    3630
  13  19  14   83214    3847
  15  19  14   45157    4076
  17  19  14   39603    5117
   0  20  14  748471    9326
   2  20  14  272663    5299
   4  20  14   -1728    2580
   6  20  14   31449    2708
   8  20  14   77006    3123
  10  20  14  165050    3986
  12  20  14   -3396    3396
  14  20  14   65237    4363
  16  20  14   79870    4931
   1  21  14  559692    6277
   3  21  14   43616    2889
   5  21  14   -2722    2722
   7  21  14  332874    5981
   9  21  14  169503    5112
  11  21  14   32569    3899
  13  21  14    8867    3909
  15  21  14   24677    4984
   0  22  14  327366    8372
   2  22  14  157243    3704
   4  22  14    6924    2889
   6  22  14    3717    3000
   8  22  14  281546    6522
  10  22  14    7669    3809
  12  22  14    3274    4280
  14  22  14   85021    4988
  16  22  14   19881   12099
   1  23  14  139057    3584
   3  23  14   30626    3384
   5  23  14    4729    3449
   7  23  14  197329    5336
   9  23  14  109812    4261
  11  23  14   24751    4337
  13  23  14   -3819    4536
   0  24  14  129590    6356
   2  24  14   13437    3857
   4  24  14    1293    3874
   6  24  14   58702    3954
   8  24  14   23524    4313
  10  24  14    -758    4279
  12  24  14     102    5034
  14  24  14     102   10579
   1  25  14   20010    4024
   3  25  14   24151    4091
   5  25  14    -376    4044
   7  25  14   72485    4736
   9  25  14   35079    5275
  11  25  14   23293    8567
   0  26  14    4469    5867
   2  26  14    3596    4147
   4  26  14    -332    4371
   6  26  14   44080    4720
   8  26  14   -4632    4847
  10  26  14   37886   17156
   1  27  14   58303    4604
   3  27  14   21761    4679
   5  27  14   -2264    4330
   7  27  14   13277    9211
   9  27  14  235891   20015
   0  28  14   27789    6591
   2  28  14   12127    4857
   4  28  14   -6966    6966
   6  28  14  -10788   10788
   8  28  14   75056   18585
   3  29  14   25734   15726
   5  29  14  -15011   15011
   2   1  15 5455167   18543
   4   1  15 4578009   14052
   6   1  15 3513360   11506
   8   1  15  313926    3570
  10   1  15  168934    3920
  12   1  15  634522    5733
  14   1  15 1487077    8670
  16   1  15  124880    3500
  18   1  15   -3345    3345
  20   1  15  168992    4652
  22   1  15   26055    7142
   1   2  15  313999    2327
   3   2  15  135356    2191
   5   2  15   12896    1158
   7   2  15   29223    1714
   9   2  15   -1604    1604
  11   2  15  386270    4897
  13   2  15   11744    2372
  15   2  15   -2619    2619
  17   2  15   -3026    3026
  19   2  15   -2211    3602
  21   2  15    9168    4666
   2   3  15 2322715    8431
   4   3  15 4347887   13799
   6   3  15 3836427   12468
   8   3  15 1812207    7331
  10   3  15  505287    4678
  12   3  15 1398345    7938
  14   3  15 1580906    9040
  16   3  15  447860    6281
  18   3  15   -3342    3342
  20   3  15  462236    8843
  22   3  15   66832    7070
   1   4  15  207059    2189
   3   4  15  122333    3000
   5   4  15  112393    3106
   7   4  15  601968    3720
   9   4  15   77602    1940
  11   4  15   -1957    1957
  13   4  15   46480    2583
  15   4  15    2906    2689
  17   4  15   -3026    3026
  19   4  15   -3664    3664
  21   4  15    5539    4393
   2   5  15 3011530   10220
   4   5  15 4403583   14018
   6   5  15 4893661   15526
   8   5  15  455617    3575
  10   5  15  681070    4970
  12   5  15  927875    6301
  14   5  15 2078992   11630
  16   5  15  288963    5946
  18   5  15   -3199    3375
  20   5  15  242647   14580
  22   5  15  113619   12099
   1   6  15    -955     955
   3   6  15  129518    3282
   5   6  15   38139    1393
   7   6  15   16068    1373
   9   6  15   -1597    1597
  11   6  15   -1879    1879
  13   6  15    5932    2323
  15   6  15   24856    2805
  17   6  15   -3030    3030
  19   6  15   20912    3713
  21   6  15    4714    4679
   2   7  15 1840285    6788
   4   7  15 5274379   16567
   6   7  15 1137468    5114
   8   7  15  630593    4143
  10   7  15  439094    4452
  12   7  15 1388679    7443
  14   7  15 1381958    8202
  16   7  15  194345    8029
  18   7  15   -3774    3774
  20   7  15  259067   14695
  22   7  15   76486   17871
   1   8  15      78    1182
   3   8  15   83524    1902
   5   8  15  164771    2815
   7   8  15  117761    3347
   9   8  15   -1695    1695
  11   8  15    -838    1969
  13   8  15   92805    2660
  15   8  15    9728    2788
  17   8  15   36426    3688
  19   8  15   16293    4125
  21   8  15    9778    5791
   2   9  15 2686996    9264
   4   9  15  628011    4059
   6   9  15 1336381    5763
   8   9  15  596832    4340
  10   9  15  670990    5542
  12   9  15 1193069    7320
  14   9  15  975941    8269
  16   9  15  104340    3542
  18   9  15    4717    3951
  20   9  15  201267    7723
   1  10  15   54450    1458
   3  10  15   74584    1728
   5  10  15   -1427    1427
   7  10  15   80880    1854
   9  10  15   -1897    1897
  11  10  15   17386    2440
  13  10  15   31344    2706
  15  10  15   -2935    2935
  17  10  15   -3432    3432
  19  10  15     853    4170
  21  10  15    4477    9280
   2  11  15   95598    2132
   4  11  15 1770833    7343
   6  11  15  533784    4142
   8  11  15  513146    4435
  10  11  15  387168    5058
  12  11  15 1325324    8191
  14  11  15  504643    6306
  16  11  15   81481    3553
  18  11  15   -3921    3921
  20  11  15  105726    5275
   1  12  15  133683    5467
   3  12  15  339663    4038
   5  12  15   82770    2129
   7  12  15   -1766    1766
   9  12  15    9308    2215
  11  12  15     910    2432
  13  12  15    4603    2714
  15  12  15   13733    3033
  17  12  15   -3679    3679
  19  12  15     302    4564
   2  13  15 1533981    7821
   4  13  15 1452332    7334
   6  13  15  519199    4763
   8  13  15  350574    4640
  10  13  15  699407    6736
  12  13  15  502703    6495
  14  13  15  493217    6727
  16  13  15   54420    3768
  18  13  15    7752    4244
  20  13  15   69885   10475
   1  14  15  371104    4620
   3  14  15  100701    2388
   5  14  15    -862    1978
   7  14  15   -1271    2012
   9  14  15  246940    5202
  11  14  15    8212    2892
  13  14  15   14891    3291
  15  14  15    1696    3390
  17  14  15    3870    4159
  19  14  15   -1288    5301
   2  15  15 1304631    7455
   4  15  15 1782431    8624
   6  15  15  480413    5029
   8  15  15  455447    5372
  10  15  15  269055    5607
  12  15  15  638318    7242
  14  15  15  448449    8408
  16  15  15   77608    4169
  18  15  15   -4214    4566
   1  16  15   46477    2444
   3  16  15    8992    2263
   5  16  15  208647    4264
   7  16  15   43891    2596
   9  16  15  120128    3230
  11  16  15   18632    3145
  13  16  15   22685    3478
  15  16  15    7646    3609
  17  16  15   -4054    4054
  19  16  15   15620    8348
   2  17  15  492817    5510
   4  17  15 1027998    7044
   6  17  15  620515    5745
   8  17  15  299574    5370
  10  17  15   44640    3049
  12  17  15  541297    7617
  14  17  15  312144    7604
  16  17  15   98919    4472
  18  17  15    1523    6453
   1  18  15   -2396    2396
   3  18  15    7566    2470
   5  18  15    7064    2518
   7  18  15   57101    2827
   9  18  15   39143    3154
  11  18  15    1030    3222
  13  18  15    8382    3635
  15  18  15   16275    3823
  17  18  15   17478    4488
   2  19  15  505753    5877
   4  19  15  554742    6105
   6  19  15  350331    5681
   8  19  15   99383    3349
  10  19  15   62269    3491
  12  19  15  137263    4285
  14  19  15  110179    4547
  16  19  15    9375    4345
   1  20  15    3510    2658
   3  20  15   19379    2771
   5  20  15    2501    2713
   7  20  15   16092    3011
   9  20  15   30040    3340
  11  20  15   -3499    3499
  13  20  15    9414    3876
  15  20  15    2991    4106
  17  20  15   25019   16441
   2  21  15  415328    6073
   4  21  15  342484    5909
   6  21  15   30132    3018
   8  21  15   71780    3588
  10  21  15   16831    3572
  12  21  15  124029    4647
  14  21  15    7412    4466
  16  21  15   41460   17156
   1  22  15   -2834    2834
   3  22  15   10779    2936
   5  22  15     279    2931
   7  22  15    -479    3154
   9  22  15   41276    3995
  11  22  15    3844    4248
  13  22  15    2533    4477
   2  23  15   82113    3371
   4  23  15  204870    7306
   6  23  15   61769    3899
   8  23  15   -3861    3861
  10  23  15   -4453    4453
  12  23  15    7432    4497
  14  23  15  134681    8925
   1  24  15   -3802    3802
   3  24  15   17551    3731
   5  24  15   12939    3923
   7  24  15   17377    4054
   9  24  15   -1073    4596
  11  24  15    7037    5061
  13  24  15   19376    8647
   2  25  15   11941    4109
   4  25  15  182278    5467
   6  25  15  117926    5055
   8  25  15    7607    4796
  10  25  15   20970    8441
   1  26  15   -4122    4122
   3  26  15    2095    4265
   5  26  15   59730    4575
   7  26  15   -1738    4931
   9  26  15    5004   16441
   2  27  15   79323    4828
   4  27  15  113824    5079
   6  27  15  106519   10019
   8  27  15    2859   11625
   1  28  15   -8077    8115
   3  28  15   10627   11297
   5  28  15   37962   11806
   7  28  15   -5004   17871
   0   0  16    3830    2167
   2   0  16  267746    4328
   4   0  16   61682    1794
   6   0  16 1315094    8341
   8   0  16  552325    6146
  10   0  16   -2837    2837
  12   0  16    2831    3307
  14   0  16    9611    3813
  16   0  16   -3923    3923
  18   0  16   93266    6565
  20   0  16    3813    5575
  22   0  16    8578   15011
   1   1  16   76774    1934
   3   1  16    9082    1108
   5   1  16    5101    1314
   7   1  16   26495    1507
   9   1  16  201579    4076
  11   1  16  314060    4821
  13   1  16   32389    2664
  15   1  16   -2709    2709
  17   1  16    2364    3011
  19   1  16   -3638    3638
  21   1  16   -1329    4677
   0   2  16  392081    3945
   2   2  16   12787    1081
   4   2  16  136759    2299
   6   2  16 1489526    6350
   8   2  16   19234    1686
  10   2  16  427669    5848
  12   2  16   -1335    2328
  14   2  16    6935    2647
  16   2  16     108    2881
  18   2  16   -3417    3417
  20   2  16   23380    4068
  22   2  16   38298   18585
   1   3  16      78    1038
   3   3  16    2250    1215
   5   3  16   57726    1623
   7   3  16   -1308    1308
   9   3  16   85111    2309
  11   3  16   29405    2285
  13   3  16   54741    2757
  15   3  16   39097    2963
  17   3  16    -984    3004
  19   3  16   -3627    3627
  21   3  16   49829    4953
   0   4  16    1028    1333
   2   4  16  110069    3097
   4   4  16   96099    2337
   6   4  16  305353    3208
   8   4  16   94873    1957
  10   4  16   45755    2423
  12   4  16  105187    2812
  14   4  16   19898    2738
  16   4  16   -2875    2875
  18   4  16   -3480    3480
  20   4  16    1100    4083
  22   4  16   19658   13939
   1   5  16   73066    1556
   3   5  16   12214    1231
   5   5  16  261117    4247
   7   5  16  217066    3420
   9   5  16   -1617    1617
  11   5  16   63148    2467
  13   5  16   71742    2888
  15   5  16   50112    3008
  17   5  16   39673    3402
  19   5  16   17581    3927
  21   5  16   19123    4863
   0   6  16   34503    2348
   2   6  16   11527    1262
   4   6  16   73420    1587
   6   6  16   19683    1475
   8   6  16    2786    1594
  10   6  16   44273    2041
  12   6  16  169282    4472
  14   6  16   -2678    2678
  16   6  16   -2858    2858
  18   6  16    3628    3542
  20   6  16   40406    4497
  22   6  16     715   15011
   1   7  16  446653    3292
   3   7  16    2773    1624
   5   7  16    1790    1532
   7   7  16  521113    3924
   9   7  16  122768    2498
  11   7  16   82890    2414
  13   7  16   -2524    2524
  15   7  16  118506    3352
  17   7  16   26014    3500
  19   7  16   30764    4041
  21   7  16   31165    9492
   0   8  16   48419    2202
   2   8  16   83825    1724
   4   8  16  720500    6731
   6   8  16   -1403    1403
   8   8  16    -648    1574
  10   8  16   -1896    1896
  12   8  16  202921    6048
  14   8  16  105494    3347
  16   8  16   -3053    3053
  18   8  16   -3940    3940
  20   8  16   12266    4707
   1   9  16  506205    3561
   3   9  16   13666    1389
   5   9  16  131261    2634
   7   9  16  145943    3928
   9   9  16  493423    4692
  11   9  16   64366    2540
  13   9  16   23329    2909
  15   9  16   -3110    3110
  17   9  16   -3569    3569
  19   9  16   51401    4504
  21   9  16   51842   11870
   0  10  16   14172    2033
   2  10  16  167179    3135
   4  10  16  679694    4600
   6  10  16   22347    1730
   8  10  16   -1243    1772
  10  10  16   12206    2348
  12  10  16   63636    2842
  14  10  16    -608    2962
  16  10  16   -3385    3385
  18  10  16   -4015    4015
  20  10  16    1424    5319
   1  11  16   -1102    1820
   3  11  16   -1723    1723
   5  11  16  207959    3601
   7  11  16    8807    1820
   9  11  16  359057    4746
  11  11  16  380263    5660
  13  11  16   -2558    2689
  15  11  16   23131    3242
  17  11  16   -3711    3711
  19  11  16   23039    4474
   0  12  16  860384    8162
   2  12  16  127425    2634
   4  12  16   -1859    1859
   6  12  16   22539    2045
   8  12  16   24573    2127
  10  12  16    1039    2505
  12  12  16   -2738    2738
  14  12  16   -3015    3015
  16  12  16   -3478    3478
  18  12  16   -1440    4394
  20  12  16   -6601    9061
   1  13  16  594029    5228
   3  13  16   20775    2161
   5  13  16  145595    3045
   7  13  16   12799    2214
   9  13  16  158811    3628
  11  13  16   56688    3115
  13  13  16   45423    3348
  15  13  16   19944    3542
  17  13  16   14024    3991
  19  13  16   27998    5616
   0  14  16   32261    3203
   2  14  16  125543    2726
   4  14  16    4265    2069
   6  14  16   -2094    2094
   8  14  16    6562    2379
  10  14  16   57844    3088
  12  14  16    5808    3236
  14  14  16   -3329    3329
  16  14  16   -3811    3811
  18  14  16   22863    5046
   1  15  16  492914    5281
   3  15  16   89491    2656
   5  15  16  130518    2871
   7  15  16   59330    2640
   9  15  16   88396    3161
  11  15  16   74378    3390
  13  15  16       2    3430
  15  15  16   18640    3665
  17  15  16   -4242    4242
  19  15  16   41112    9761
   0  16  16     623    3286
   2  16  16    6817    2368
   4  16  16   15262    2395
   6  16  16    4358    2345
   8  16  16   -2638    2638
  10  16  16   -3157    3157
  12  16  16   -1905    3222
  14  16  16   -2518    3535
  16  16  16    3994    3996
  18  16  16    2758    6494
   1  17  16  826904    6546
   3  17  16  172574    5170
   5  17  16   -1384    2488
   7  17  16   56716    2808
   9  17  16   90234    3406
  11  17  16   43698    3716
  13  17  16    7840    3643
  15  17  16   19092    3862
  17  17  16   -1646    4663
   0  18  16   39225    3836
   2  18  16   29470    2697
   4  18  16   -2563    2563
   6  18  16    -459    2645
   8  18  16   17413    2924
  10  18  16   27628    3467
  12  18  16     238    3607
  14  18  16     563    4021
  16  18  16   -3455    4163
   1  19  16  745682    6727
   3  19  16  117431    3223
   5  19  16    3961    2751
   7  19  16   45331    3154
   9  19  16  322194    6604
  11  19  16   70528    3899
  13  19  16   42857    4051
  15  19  16   54071    4501
  17  19  16  218497   40043
   0  20  16  406795    8551
   2  20  16   12386    2805
   4  20  16   -2756    2756
   6  20  16   -2936    2936
   8  20  16   14214    3319
  10  20  16    5302    3553
  12  20  16   -1576    3761
  14  20  16   12776    4345
  16  20  16   28241    8918
   1  21  16  453445    6375
   3  21  16   65949    3197
   5  21  16   19401    2965
   7  21  16   54916    3370
   9  21  16   86269    3966
  11  21  16   99055    4234
  13  21  16     305    4163
  15  21  16   78847    8371
   0  22  16   63691    4612
   2  22  16    2654    2993
   4  22  16    3165    3052
   6  22  16   -3167    3167
   8  22  16    2204    3442
  10  22  16    6378    4169
  12  22  16    5040    4443
  14  22  16    4816    6370
   1  23  16   94901    3536
   3  23  16   -3085    3085
   5  23  16   10821    3382
   7  23  16   70534    4106
   9  23  16  110212    4898
  11  23  16     612    4710
  13  23  16    9128    7553
   0  24  16    3937    5575
   2  24  16   -3653    3653
   4  24  16   -3584    3584
   6  24  16   -3797    3797
   8  24  16   26320    4302
  10  24  16   30155    4930
  12  24  16   12883   10788
   1  25  16   21661    4284
   3  25  16   16308    4306
   5  25  16    -627    4410
   7  25  16  150481    5680
   9  25  16   74321    8473
   0  26  16   -5949    5949
   2  26  16   -3241    4335
   4  26  16   -4552    4552
   6  26  16    -739    4687
   8  26  16  -10008   15726
   1  27  16   95101    5059
   3  27  16    6825    6481
   5  27  16   11472    9175
   7  27  16   17871   16441
   0  28  16   42174   17871
   4  28  16   -2144   15011
   2   1  17 4149928   13895
   4   1  17 3846989   12910
   6   1  17 1109997    5843
   8   1  17  257220    3809
  10   1  17   80227    2496
  12   1  17 1365685    8559
  14   1  17  624046    6592
  16   1  17  231397    8251
  18   1  17    3102    3589
  20   1  17     644    3953
   1   2  17  170153    2690
   3   2  17  227855    2808
   5   2  17   27887    1489
   7   2  17   -1594    1594
   9   2  17  570502    5479
  11   2  17  131784    2881
  13   2  17   23772    2674
  15   2  17   -2816    2816
  17   2  17   -3106    3106
  19   2  17   -3722    3722
  21   2  17    -565    5608
   2   3  17 2470663    8853
   4   3  17 3522070   11983
   6   3  17  426016    3429
   8   3  17  198503    3651
  10   3  17   65471    2423
  12   3  17 1082322    7442
  14   3  17  808808    7082
  16   3  17  266394    5954
  18   3  17   -3503    3503
  20   3  17    7344    4020
  22   3  17  596162   34311
   1   4  17   95135    1911
   3   4  17  551154    3559
   5   4  17    2389    1392
   7   4  17  741814    4615
   9   4  17   28921    2160
  11   4  17   17537    2366
  13   4  17   37809    2777
  15   4  17    2619    2865
  17   4  17   -3133    3133
  19   4  17   -3736    3736
  21   4  17    7141    6657
   2   5  17 2101677    7689
   4   5  17 3739109   12368
   6   5  17 1639721    7626
   8   5  17  424409    4752
  10   5  17   85592    2521
  12   5  17 2028000   10279
  14   5  17 1203885    8275
  16   5  17  111038    3499
  18   5  17   19472    3702
  20   5  17   31249    4561
   1   6  17   86639    1977
   3   6  17  342069    3235
   5   6  17  257131    3139
   7   6  17   49063    1743
   9   6  17  205219    3861
  11   6  17   78696    2670
  13   6  17    5599    2643
  15   6  17    -299    2840
  17   6  17    6315    3244
  19   6  17    9592    4221
  21   6  17   13754    9103
   2   7  17 1716257    6879
   4   7  17 4678012   15079
   6   7  17 1147673    5404
   8   7  17   54047    1942
  10   7  17   -1272    2000
  12   7  17 1494853    8740
  14   7  17  549353    6776
  16   7  17  111628    3723
  18   7  17   -3430    4060
  20   7  17   50320    4784
   1   8  17  385700    3568
   3   8  17    7281    1438
   5   8  17    -176    1440
   7   8  17  180023    4512
   9   8  17  192324    3536
  11   8  17   -2347    2347
  13   8  17   20153    2883
  15   8  17   17931    3127
  17   8  17   -2869    3738
  19   8  17    7632    4338
  21   8  17    -715   15011
   2   9  17  296826    3275
   4   9  17  557136    4161
   6   9  17 1751213    7308
   8   9  17  348232    4166
  10   9  17   19368    2469
  12   9  17  950531    7563
  14   9  17  673242    7433
  16   9  17   34223    3602
  18   9  17   -4125    4125
  20   9  17   83899    7697
   1  10  17   86399    2271
   3  10  17  144854    2664
   5  10  17    8880    1777
   7  10  17    6338    1820
   9  10  17  326020    4708
  11  10  17    1175    2465
  13  10  17   45898    3091
  15  10  17   47507    3547
  17  10  17   -1330    3807
  19  10  17    -803    4402
  21  10  17   -5004   15011
   2  11  17  118115    2511
   4  11  17 2414763   10324
   6  11  17  970596    6067
   8  11  17   83933    2481
  10  11  17   19521    2533
  12  11  17 1009686    7532
  14  11  17  605788    7156
  16  11  17   17531    3619
  18  11  17   -4491    4491
  20  11  17   28362    9605
   1  12  17  569833    5191
   3  12  17  137381    2879
   5  12  17  198916    4606
   7  12  17   12925    2341
   9  12  17   15217    2560
  11  12  17  190575    4608
  13  12  17   38829    3217
  15  12  17   12490    3708
  17  12  17   -2412    4158
  19  12  17   31586    6603
   2  13  17 1011695    6581
   4  13  17 1340461    7642
   6  13  17  969112    6376
   8  13  17   63465    3003
  10  13  17  158154    4440
  12  13  17  992233    8595
  14  13  17  396073    7501
  16  13  17   12420    4125
  18  13  17   -1918    4864
   1  14  17   40961    2444
   3  14  17  185259    4051
   5  14  17  198231    4302
   7  14  17   -1790    2378
   9  14  17    3959    2903
  11  14  17  180309    6400
  13  14  17   81781    3700
  15  14  17   12822    3896
  17  14  17   -4495    4495
  19  14  17    6433   11625
   2  15  17  595517    5732
   4  15  17  928051    6690
   6  15  17  794167    6235
   8  15  17   41369    2883
  10  15  17   62989    3600
  12  15  17  570186    7666
  14  15  17  479701    7729
  16  15  17   -3989    3989
  18  15  17    3566    8976
   1  16  17  106600    2924
   3  16  17   41646    2663
   5  16  17  212229    4391
   7  16  17   19922    2657
   9  16  17   -2931    2931
  11  16  17   21278    3569
  13  16  17  104600    4304
  15  16  17   57505    4297
  17  16  17   -4633    4633
   2  17  17  563835    5954
   4  17  17  794590    6708
   6  17  17  962431    7560
   8  17  17    -211    2852
  10  17  17   33799    3514
  12  17  17  467650    8128
  14  17  17  492012    8331
  16  17  17   19940    4567
  18  17  17   24304   17871
   1  18  17   38162    2808
   3  18  17   18171    2749
   5  18  17  332771    5737
   7  18  17    4225    2957
   9  18  17   -3082    3082
  11  18  17     128    3593
  13  18  17   98792    4681
  15  18  17   40284    4517
  17  18  17   16278   11587
   2  19  17  169571    3533
   4  19  17  273603    5691
   6  19  17  799655    7447
   8  19  17   -3299    3299
  10  19  17    4721    3529
  12  19  17  299565    7510
  14  19  17  208448    7637
  16  19  17    1384    7935
   1  20  17   -2811    2811
   3  20  17   18473    2936
   5  20  17   20368    3053
   7  20  17   56642    3338
   9  20  17    2041    3507
  11  20  17    7836    3757
  13  20  17   13853    4070
  15  20  17   -5577    5577
   2  21  17  227289    7800
   4  21  17  109746    3487
   6  21  17   89442    3617
   8  21  17    -129    3535
  10  21  17   -1555    3980
  12  21  17   36297    4128
  14  21  17   19228    5492
   1  22  17   14887    3168
   3  22  17   -2107    3044
   5  22  17  129027    3736
   7  22  17  105367    4022
   9  22  17    2742    3812
  11  22  17    3036    4390
  13  22  17   80645    7437
   2  23  17   21927    3286
   4  23  17  126307    3812
   6  23  17  123808    4203
   8  23  17   24604    4423
  10  23  17    2568    4682
  12  23  17  128021    9409
   1  24  17   -1136    3626
   3  24  17   44542    3890
   5  24  17  100079    4412
   7  24  17   10161    4223
   9  24  17   42531    5110
  11  24  17   16179   10279
   2  25  17  110373    4815
   4  25  17  133232    5023
   6  25  17   55002    4853
   8  25  17   44870    7148
  10  25  17   17871   14296
   1  26  17   11002    4431
   3  26  17   80157    4868
   5  26  17   84595    7009
   7  26  17   17696   11364
   2  27  17   31386    8272
   4  27  17  103015   23947
   6  27  17   55756   17871
   0   0  18 1320763   11580
   2   0  18 1707605    9676
   4   0  18  109928    5838
   6   0  18      -4    2335
   8   0  18 2958905   16650
  10   0  18 1284695   11005
  12   0  18  162122    4625
  14   0  18   11324    4027
  16   0  18   59877    4763
  18   0  18  322672   10833
  20   0  18   19571    6012
   1   1  18   51473    1491
   3   1  18    -318    1367
   5   1  18   15117    1577
   7   1  18   54903    2031
   9   1  18   -2054    2054
  11   1  18   -2316    2316
  13   1  18   -2656    2656
  15   1  18   33465    3096
  17   1  18     451    3251
  19   1  18   -3811    3811
  21   1  18   10668    8091
   0   2  18 1089173    6919
   2   2  18  865608    4379
   4   2  18   32536    1530
   6   2  18   94506    1957
   8   2  18 1976136    8760
  10   2  18 1996305    9880
  12   2  18   81449    2932
  14   2  18   -2768    2768
  16   2  18  301243    6435
  18   2  18   89607    4114
  20   2  18   -2860    4098
   1   3  18   71200    1670
   3   3  18   61426    1565
   5   3  18   46844    1635
   7   3  18  110085    2745
   9   3  18     330    2100
  11   3  18   -2323    2323
  13   3  18   -2641    2641
  15   3  18   12145    2992
  17   3  18   -2720    3264
  19   3  18   -3853    3853
  21   3  18    5576   11297
   0   4  18 1893787   10109
   2   4  18 1114100    5279
   4   4  18   19355    1455
   6   4  18  117023    2179
   8   4  18  354529    4585
  10   4  18  816744    6380
  12   4  18  176342    7283
  14   4  18   10590    2879
  16   4  18  147323    3753
  18   4  18  115678    4241
  20   4  18   26324    4242
   1   5  18   -1375    1375
   3   5  18  147041    3117
   5   5  18 1530289    6380
   7   5  18   70511    1997
   9   5  18   26008    2275
  11   5  18   10968    2615
  13   5  18   -2676    2676
  15   5  18   -1699    2963
  17   5  18    2460    3289
  19   5  18   -3013    4059
  21   5  18  -10788   10788
   0   6  18 1118517    9043
   2   6  18  214345    3485
   4   6  18    1566    1440
   6   6  18  720920    4405
   8   6  18  465612    4546
  10   6  18 1441617    8272
  12   6  18   53441    2813
  14   6  18   -2825    2825
  16   6  18   27498    3412
  18   6  18  364621    8433
  20   6  18   15243    4930
   1   7  18   32112    1632
   3   7  18  203163    3297
   5   7  18  136146    4589
   7   7  18  598908    4416
   9   7  18    6638    2185
  11   7  18   46267    2675
  13   7  18   17374    2941
  15   7  18   -1010    3114
  17   7  18    9900    3648
  19   7  18   10490    4405
  21   7  18   -6433   16441
   0   8  18  949766    7290
   2   8  18  871477    4965
   4   8  18  806500    4864
   6   8  18    4103    1616
   8   8  18   91579    2400
  10   8  18  993679    7286
  12   8  18  153571    3578
  14   8  18    6205    3211
  16   8  18  252465   12871
  18   8  18  118812    4837
  20   8  18   98417    7725
   1   9  18  107377    2325
   3   9  18     117    1661
   5   9  18   -1793    1793
   7   9  18  404462    4345
   9   9  18   18279    2397
  11   9  18   11326    2831
  13   9  18   40536    3272
  15   9  18    -898    3377
  17   9  18    3080    3907
  19   9  18    6452    4489
   0  10  18 3478677   20034
   2  10  18  959685    6234
   4  10  18   -1756    1756
   6  10  18  152468    3252
   8  10  18  564413    5328
  10  10  18  783576    6663
  12  10  18   16681    3075
  14  10  18   -3244    3244
  16  10  18   52932    3826
  18  10  18  131748    4984
  20  10  18   75455    8842
   1  11  18    5157    2138
   3  11  18   -2073    2073
   5  11  18   23639    2161
   7  11  18   86980    2652
   9  11  18   18173    2573
  11  11  18  104209    3232
  13  11  18   -3342    3342
  15  11  18    3934    3681
  17  11  18   12054    4285
  19  11  18    7646   11143
   0  12  18 2440834   15559
   2  12  18  303277    4678
   4  12  18   -2151    2151
   6  12  18   -1746    2222
   8  12  18  396281    5828
  10  12  18  397102    6259
  12  12  18   47424    3514
  14  12  18   11400    3711
  16  12  18    8629    3912
  18  12  18   82522    5117
   1  13  18   47497    2444
   3  13  18   -2226    2226
   5  13  18   35157    2496
   7  13  18   80212    2762
   9  13  18    3178    2807
  11  13  18   45559    3531
  13  13  18    2770    3537
  15  13  18   -4034    4034
  17  13  18   -3374    4506
  19  13  18   28950   11625
   0  14  18  945005    9436
   2  14  18   58313    2609
   4  14  18   -2365    2365
   6  14  18  314482    5491
   8  14  18  353720    6232
  10  14  18  286196    6541
  12  14  18   58974    3916
  14  14  18     136    3814
  16  14  18   -3687    4253
  18  14  18   67552    8729
   1  15  18   69362    2746
   3  15  18   -2426    2426
   5  15  18    7698    2539
   7  15  18   31474    2863
   9  15  18    3674    2958
  11  15  18    4614    3516
  13  15  18   -2192    3635
  15  15  18   -4034    4034
  17  15  18   12943    5970
   0  16  18  503409    8269
   2  16  18   63763    2800
   4  16  18   42689    2764
   6  16  18    -950    2747
   8  16  18  389520    6854
  10  16  18   31840    3480
  12  16  18   18153    3844
  14  16  18    6240    4150
  16  16  18    1342    4689
   1  17  18  181080    5498
   3  17  18   72236    3005
   5  17  18    8315    2749
   7  17  18   -2868    2868
   9  17  18   -3290    3290
  11  17  18   32221    3714
  13  17  18   -1337    4167
  15  17  18   -1063    4340
  17  17  18   79345   18585
   0  18  18  470732    8584
   2  18  18     660    2708
   4  18  18  116462    3311
   6  18  18   -2940    2940
   8  18  18   69279    3683
  10  18  18    9563    3765
  12  18  18   19093    3896
  14  18  18   -1896    4266
  16  18  18   12356    7935
   1  19  18  114481    3354
   3  19  18   65760    3159
   5  19  18   -2886    2886
   7  19  18   -2800    3232
   9  19  18   76892    3898
  11  19  18  105364    4523
  13  19  18      -1    4173
  15  19  18    9579    6244
   0  20  18   58303    4571
   2  20  18   68900    3281
   4  20  18    4380    2996
   6  20  18   -3120    3120
   8  20  18   49699    3802
  10  20  18   36727    4122
  12  20  18   51635    4472
  14  20  18   -5186    5186
   1  21  18  114103    3560
   3  21  18   -2231    3058
   5  21  18   12651    3300
   7  21  18   17266    3553
   9  21  18  128756    4666
  11  21  18   20721    4329
  13  21  18    3479    5379
   0  22  18   45611    4711
   2  22  18   59957    3474
   4  22  18   -3181    3181
   6  22  18   -3366    3366
   8  22  18  107116    4330
  10  22  18   36013    4369
  12  22  18    7724    6154
   1  23  18   34694    3433
   3  23  18   -3273    3273
   5  23  18   -3440    3440
   7  23  18   -2482    3906
   9  23  18   18676    4573
  11  23  18   56477    9191
   0  24  18  144551    5794
   2  24  18   20689    3692
   4  24  18   -3744    3744
   6  24  18   -4012    4012
   8  24  18   14036    5340
  10  24  18   16947   10279
   1  25  18   33143    4535
   3  25  18     507    4346
   5  25  18   -4346    4346
   7  25  18    3153    8518
   9  25  18   47893   15011
   0  26  18   -5401    6586
   2  26  18    5523    5766
   4  26  18    -431    8896
   6  26  18   10722   15726
   1  27  18   34311   17156
   3  27  18  -13582   15726
   2   1  19  932821    4845
   4   1  19  251173    3468
   6   1  19  522020    4218
   8   1  19   -1964    1964
  10   1  19  428598    5531
  12   1  19  398450    6464
  14   1  19   76124    3262
  16   1  19   40431    3385
  18   1  19   -3755    3755
  20   1  19   92911    5063
   1   2  19   15892    1503
   3   2  19   34419    1588
   5   2  19   19660    1701
   7   2  19   52547    2128
   9   2  19    6264    2358
  11   2  19   -2469    2469
  13   2  19   11702    2866
  15   2  19     814    3057
  17   2  19    5520    3372
  19   2  19   -3943    3943
  21   2  19    9295    8371
   2   3  19 1172096    5709
   4   3  19  537822    4084
   6   3  19  485157    4249
   8   3  19   56100    2293
  10   3  19   98295    2828
  12   3  19  448027    6010
  14   3  19  459401    6449
  16   3  19   -3202    3202
  18   3  19   -3783    3783
  20   3  19   70346    6306
   1   4  19  145582    3788
   3   4  19  202255    3341
   5   4  19  487050    4064
   7   4  19  234399    4090
   9   4  19  219932    5295
  11   4  19   -2473    2473
  13   4  19  153997    3504
  15   4  19    6478    3045
  17   4  19   13316    3447
  19   4  19   -3017    3975
  21   4  19  -13582   16441
   2   5  19  734200    4473
   4   5  19  649693    4360
   6   5  19   98373    2173
   8   5  19  672772    6124
  10   5  19   84191    2766
  12   5  19  451862    6096
  14   5  19   91973    3359
  16   5  19   60079    3492
  18   5  19   18300    4136
  20   5  19  101066    7917
   1   6  19   30756    1716
   3   6  19  336766    3595
   5   6  19    2651    1606
   7   6  19   27562    2069
   9   6  19   68675    2587
  11   6  19   -2491    2491
  13   6  19   46140    3011
  15   6  19     252    3248
  17   6  19    1599    3559
  19   6  19    3765    4474
   2   7  19  432082    4014
   4   7  19    3792    1648
   6   7  19 2053990    8524
   8   7  19  323679    5296
  10   7  19   70428    2760
  12   7  19  378561    6183
  14   7  19   72460    3429
  16   7  19   23507    3721
  18   7  19   26119    4423
  20   7  19   90435   10836
   1   8  19   -1622    1622
   3   8  19   36968    1823
   5   8  19   59595    1967
   7   8  19  478477    4770
   9   8  19     513    2452
  11   8  19   -2821    2821
  13   8  19   99247    3633
  15   8  19   37297    3631
  17   8  19    4878    3819
  19   8  19    -900    5105
   2   9  19    8602    1895
   4   9  19 1159204    6471
   6   9  19  465114    4762
   8   9  19   59020    2532
  10   9  19     385    2795
  12   9  19  193813    4960
  14   9  19   55166    3602
  16   9  19   54750    3892
  18   9  19   41549    4568
  20   9  19  102897   12376
   1  10  19     626    2148
   3  10  19   53868    2432
   5  10  19  213571    4126
   7  10  19   50844    2475
   9  10  19   -2638    2638
  11  10  19   -2875    2875
  13  10  19  218183    9227
  15  10  19   52143    3789
  17  10  19   23065    4363
  19  10  19    8213    8036
   2  11  19  365826    5889
   4  11  19  104002    2707
   6  11  19  530211    5677
   8  11  19  100290    3127
  10  11  19  102516    3515
  12  11  19   44470    3564
  14  11  19   74006    4021
  16  11  19   62343    4230
  18  11  19   39330    5564
   1  12  19  121839    2840
   3  12  19  262214    4783
   5  12  19  187089    4869
   7  12  19  156990    3478
   9  12  19   -2930    2930
  11  12  19   54420    3924
  13  12  19  115520    4336
  15  12  19   20491    4158
  17  12  19   35552    4790
  19  12  19   22874   16441
   2  13  19   79030    2702
   4  13  19  748729    6210
   6  13  19  104591    3071
   8  13  19   12652    2975
  10  13  19   85537    3624
  12  13  19  313136    7656
  14  13  19   11228    4285
  16  13  19   82792    4708
  18  13  19   45399   11870
   1  14  19   40753    2655
   3  14  19  379069    5411
   5  14  19  173110    3803
   7  14  19   69933    3063
   9  14  19    5286    3305
  11  14  19   87074    3990
  13  14  19  115419    4795
  15  14  19   25907    4681
  17  14  19    -849    9136
   2  15  19  209669    4788
   4  15  19  717811    6536
   6  15  19   97807    3221
   8  15  19   -3119    3119
  10  15  19  137512    4249
  12  15  19  131860    4456
  14  15  19   11474    4478
  16  15  19   38227    4988
   1  16  19    1386    2626
   3  16  19  674524    6487
   5  16  19  165332    3629
   7  16  19  106359    3454
   9  16  19   -3529    3529
  11  16  19  199173    7756
  13  16  19   89500    4742
  15  16  19   78733    5044
  17  16  19  -17156   17156
   2  17  19  212249    4749
   4  17  19  282497    5742
   6  17  19  106772    3456
   8  17  19   -3314    3314
  10  17  19  172447    5074
  12  17  19   38992    4036
  14  17  19  110400    5062
  16  17  19   19034    8023
   1  18  19   53963    3131
   3  18  19  242374    5235
   5  18  19   66689    3350
   7  18  19   38998    3519
   9  18  19   -3690    3690
  11  18  19   64329    4313
  13  18  19   80796    4563
  15  18  19    1877    7829
   2  19  19  137394    3602
   4  19  19  237099    5159
   6  19  19    4129    3215
   8  19  19    -487    3568
  10  19  19   21213    4110
  12  19  19   38255    4391
  14  19  19   -4923    6012
   1  20  19   19779    3185
   3  20  19  179179    4137
   5  20  19    -424    3208
   7  20  19   35666    3775
   9  20  19    2752    3986
  11  20  19   53959    4457
  13  20  19    6122    5265
   2  21  19   -1503    3134
   4  21  19   67648    3529
   6  21  19   71786    3735
   8  21  19   -3641    3766
  10  21  19    8112    4291
  12  21  19    5293    5653
   1  22  19    2580    3279
   3  22  19  101081    3781
   5  22  19   82451    3830
   7  22  19  237050   10526
   9  22  19   12474    4214
  11  22  19   12949    6190
   2  23  19   69072    3705
   4  23  19   44093    3793
   6  23  19   11865    3745
   8  23  19   61850    4590
  10  23  19   22668    7399
   1  24  19   32152    3704
   3  24  19  254085   10335
   5  24  19    3435    4183
   7  24  19   93208    7156
   9  24  19    -663   10353
   2  25  19  121342    5072
   4  25  19   18892    5772
   6  25  19   15124    8716
   8  25  19   -3641   10788
   1  26  19   12546    9888
   3  26  19  217283   38746
   5  26  19   23081   11364
   2  27  19   32882   18585
   0   0  20 4171593   48762
   2   0  20 1517681   10260
   4   0  20  108870    3765
   6   0  20  900585    8171
   8   0  20  788424   11451
  10   0  20 3150958   26038
  12   0  20  423230    9225
  14   0  20  118154    5008
  16   0  20  412179    9955
  18   0  20   92360    6153
  20   0  20  504224   17389
   1   1  20   53582    2008
   3   1  20   -1575    1575
   5   1  20   38935    1857
   7   1  20   63885    2261
   9   1  20   17976    2596
  11   1  20   26437    2781
  13   1  20   -2823    2823
  15   1  20    8156    3204
  17   1  20    6044    3509
  19   1  20   -4028    4028
   0   2  20 4239589   22100
   2   2  20 1288585    7002
   4   2  20   35173    1807
   6   2  20  560562    4880
   8   2  20 2628558   12371
  10   2  20  949726    7807
  12   2  20  594131    7421
  14   2  20  142859    3626
  16   2  20  330228    6876
  18   2  20   98294    4348
  20   2  20  384184   14763
   1   3  20   -1660    1660
   3   3  20   27234    1848
   5   3  20  185155    3442
   7   3  20  253997    4297
   9   3  20  156984    7178
  11   3  20   -2579    2579
  13   3  20   -2800    2800
  15   3  20   10691    3221
  17   3  20    2087    3484
  19   3  20    6080    4082
   0   4  20 1989857   13401
   2   4  20 1784964    7898
   4   4  20   -1719    1719
   6   4  20  503452    4607
   8   4  20 1362962    8785
  10   4  20  603982    6157
  12   4  20  104201    3219
  14   4  20   76510    3353
  16   4  20  145695    4092
  18   4  20  173428    4768
  20   4  20  382348   16198
   1   5  20   38639    1826
   3   5  20  269696    3694
   5   5  20    2664    1876
   7   5  20   15082    2070
   9   5  20   34328    2533
  11   5  20   -2591    2591
  13   5  20   -2851    2851
  15   5  20     965    3167
  17   5  20   -3643    3643
  19   5  20    6171    4802
   0   6  20 1882694   11413
   2   6  20  594165    4491
   4   6  20  179906    4297
   6   6  20  154293    3499
   8   6  20  232030    4638
  10   6  20  743005    6586
  12   6  20  369772    6026
  14   6  20  104528    3711
  16   6  20  173768    4327
  18   6  20  249889   17626
  20   6  20  370993   32167
   1   7  20   51675    1932
   3   7  20   37141    1910
   5   7  20   70157    2135
   7   7  20   58193    2465
   9   7  20   55554    2801
  11   7  20   16743    2912
  13   7  20   -3173    3173
  15   7  20    6682    3526
  17   7  20   12947    3946
  19   7  20    4601    8180
   0   8  20 1699728   10741
   2   8  20 2321624    9342
   4   8  20   -1908    1908
   6   8  20   86946    2383
   8   8  20  803247    7281
  10   8  20  788346    7446
  12   8  20  310238    6521
  14   8  20   69963    3750
  16   8  20  478266    8033
  18   8  20  404745    8791
   1   9  20  225708    5381
   3   9  20   32788    2136
   5   9  20   -1971    1971
   7   9  20   -2265    2265
   9   9  20   62963    3332
  11   9  20   -3142    3142
  13   9  20    2938    3274
  15   9  20   28211    3782
  17   9  20   16409    4025
  19   9  20   16563    8025
   0  10  20 1899401   13422
   2  10  20 2045875    9906
   4  10  20   -2216    2216
   6  10  20  651875    6896
   8  10  20  982756    7641
  10  10  20 1024599    9085
  12  10  20   92669    4060
  14  10  20   34578    3892
  16  10  20  175442    5816
  18  10  20  124262    6886
   1  11  20    7759    2318
   3  11  20   -2263    2263
   5  11  20   45427    2579
   7  11  20   -2513    2606
   9  11  20    5177    3500
  11  11  20   81898    4140
  13  11  20    -111    4003
  15  11  20   -3926    3926
  17  11  20   18011    4582
  19  11  20   26448   17871
   0  12  20 1145644   10400
   2  12  20  791598    6335
   4  12  20   16556    2502
   6  12  20  662259    6472
   8  12  20  854995    7951
  10  12  20  749338    9239
  12  12  20  131837    5229
  14  12  20    7233    4345
  16  12  20   84105    5096
  18  12  20  101593   12822
   1  13  20   73838    2830
   3  13  20   18897    2578
   5  13  20   -2596    2596
   7  13  20    5483    2938
   9  13  20    1596    3270
  11  13  20   32347    4269
  13  13  20    3447    4218
  15  13  20   -4527    4527
  17  13  20   -1635    8227
   0  14  20  501909    8386
   2  14  20  611240    6181
   4  14  20    6600    2617
   6  14  20  527718    6456
   8  14  20  759680    7954
  10  14  20  454736    7548
  12  14  20  181993    5131
  14  14  20   -4398    4398
  16  14  20  130016    6466
   1  15  20   -2636    2636
   3  15  20    5900    2677
   5  15  20   -2792    2792
   7  15  20   -1195    3200
   9  15  20    3179    3610
  11  15  20   48366    4233
  13  15  20   -4360    4360
  15  15  20   -4668    4668
  17  15  20   -7863   16441
   0  16  20  415636    8571
   2  16  20  152978    3419
   4  16  20   20545    2862
   6  16  20  248861    5840
   8  16  20  268223    6608
  10  16  20  134592    4539
  12  16  20  101497    5008
  14  16  20   -4080    4834
  16  16  20   97963   10004
   1  17  20   10950    2900
   3  17  20   -2857    2857
   5  17  20   -3032    3032
   7  17  20   19438    3514
   9  17  20   -3757    3757
  11  17  20    8437    4078
  13  17  20   -3359    4421
  15  17  20   -2774    7603
   0  18  20  132456    5032
   2  18  20  395455    6262
   4  18  20   -2938    2938
   6  18  20   15016    3250
   8  18  20   98280    4106
  10  18  20  210369    7249
  12  18  20    4224    4274
  14  18  20   -3117    6891
   1  19  20    3278    3101
   3  19  20    2332    3086
   5  19  20   -3167    3167
   7  19  20   -3551    3551
   9  19  20    8955    4070
  11  19  20   -1503    4213
  13  19  20   -6370    6794
   0  20  20  489968   10229
   2  20  20  132342    3769
   4  20  20  110339    3855
   6  20  20   -3367    3367
   8  20  20  260514   11265
  10  20  20  106788    4813
  12  20  20  117380    6425
   1  21  20   13861    3339
   3  21  20    8232    3315
   5  21  20   -3402    3402
   7  21  20   -2225    3836
   9  21  20    8318    4201
  11  21  20   13440    5694
   0  22  20  372177   10030
   2  22  20  150420    4076
   4  22  20   -1705    3555
   6  22  20   27701    3914
   8  22  20   63990    4341
  10  22  20   84740    6561
   1  23  20   10448    3568
   3  23  20   -3543    3543
   5  23  20   -1820    3680
   7  23  20    -687    4834
   9  23  20   -6350    6561
   0  24  20   87444    5751
   2  24  20   95309    4065
   4  24  20   -3797    3797
   6  24  20   14616    5586
   8  24  20   99735   12051
   1  25  20   -7376    7376
   3  25  20   -6807    6807
   5  25  20   -7263    7263
   7  25  20   -5719   15011
   0  26  20   13582   19300
   2  26  20    3574   16441
   2   1  21   60174    2122
   4   1  21   33534    1975
   6   1  21  183505    4519
   8   1  21  395510    5978
  10   1  21   73837    2998
  12   1  21   59293    3137
  14   1  21    -859    3095
  16   1  21   24099    3559
  18   1  21   -3052    3839
   1   2  21    4354    1926
   3   2  21   20907    1960
   5   2  21  110356    2364
   7   2  21   92342    2932
   9   2  21  221827    5407
  11   2  21     382    3381
  13   2  21   -1066    2993
  15   2  21    1324    3310
  17   2  21    8213    3625
  19   2  21    5653    5318
   2   3  21   41293    2015
   4   3  21  164931    4489
   6   3  21   -2081    2081
   8   3  21  599944    5997
  10   3  21  135883    3236
  12   3  21   50012    3059
  14   3  21    6127    3137
  16   3  21    7520    3493
  18   3  21   13459    3958
  20   3  21   21445   16441
   1   4  21   66327    2088
   3   4  21  240500    4263
   5   4  21  903491    5686
   7   4  21  461714    5258
   9   4  21    -395    2559
  11   4  21   29577    2912
  13   4  21    6141    2985
  15   4  21   43881    3499
  17   4  21    3612    3788
  19   4  21    6844    6674
   2   5  21   67474    2107
   4   5  21   10841    1971
   6   5  21   43635    2318
   8   5  21  207700    6205
  10   5  21    -770    2660
  12   5  21   26122    2946
  14   5  21   -3280    3280
  16   5  21    5913    3659
  18   5  21    1325    4331
   1   6  21  138139    2755
   3   6  21   70546    2147
   5   6  21   -1905    1905
   7   6  21    2995    2264
   9   6  21    1495    2671
  11   6  21   -2873    2873
  13   6  21   -2148    3145
  15   6  21   43948    3863
  17   6  21    4571    4039
  19   6  21    5087    8081
   2   7  21  187006    4321
   4   7  21   27522    2028
   6   7  21   -1188    2333
   8   7  21    1770    2683
  10   7  21   -3079    3079
  12   7  21    6304    3272
  14   7  21   31360    3633
  16   7  21   13427    3904
  18   7  21   27374    5199
   1   8  21   60912    2127
   3   8  21  159639    4331
   5   8  21    2473    2260
   7   8  21   -2569    2569
   9   8  21    -487    3009
  11   8  21    -760    3277
  13   8  21   -3322    3322
  15   8  21   65236    4043
  17   8  21   14547    4145
  19   8  21    6034   10858
   2   9  21   18916    2381
   4   9  21   57125    2422
   6   9  21   62883    3048
   8   9  21   43721    3148
  10   9  21    -947    3150
  12   9  21   -3431    3431
  14   9  21   23527    3853
  16   9  21   10331    4181
  18   9  21    6090    7232
   1  10  21   -2335    2335
   3  10  21    3301    2363
   5  10  21  313810    5368
   7  10  21    -424    3462
   9  10  21   -1764    3663
  11  10  21   -3530    3530
  13  10  21    3433    3904
  15  10  21   99518    4704
  17  10  21   22603    4614
   2  11  21   15711    2490
   4  11  21   -2417    2417
   6  11  21    4652    2699
   8  11  21   -3608    3608
  10  11  21   10493    3763
  12  11  21   -3724    4024
  14  11  21   -2531    4345
  16  11  21    9867    4790
  18  11  21  -16441   16441
   1  12  21   -2520    2520
   3  12  21  312418    5398
   5  12  21  389621    5853
   7  12  21   35650    3246
   9  12  21     492    4234
  11  12  21    6518    3973
  13  12  21   27103    4409
  15  12  21   61911    4867
  17  12  21   44564   10111
   2  13  21    2654    2595
   4  13  21    5924    2659
   6  13  21    4424    2835
   8  13  21   -3191    3191
  10  13  21   -4643    4643
  12  13  21   -4112    4112
  14  13  21   -4343    4443
  16  13  21     340    6156
   1  14  21   17978    2769
   3  14  21  508072    6189
   5  14  21  315618    5994
   7  14  21   98050    3731
   9  14  21     997    3673
  11  14  21   41495    5141
  13  14  21   53401    4738
  15  14  21   53804    5090
   2  15  21   -2709    2709
   4  15  21   99790    3274
   6  15  21   -2953    2953
   8  15  21   -3408    3408
  10  15  21   11255    4370
  12  15  21    9508    4939
  14  15  21   -4679    4679
  16  15  21   -7139    9280
   1  16  21   -2801    2801
   3  16  21  222608    6023
   5  16  21  419299    6574
   7  16  21   31464    3588
   9  16  21    4064    3811
  11  16  21   40930    4875
  13  16  21   51706    5440
  15  16  21    6389    9930
   2  17  21    3997    2999
   4  17  21   25427    3215
   6  17  21    2406    3237
   8  17  21   16809    3701
  10  17  21    8352    4065
  12  17  21    1308    5118
  14  17  21    2459    9280
   1  18  21   75619    3455
   3  18  21  226709    7564
   5  18  21   43094    3444
   7  18  21   13032    3715
   9  18  21    1483    4039
  11  18  21   71954    4873
  13  18  21     233    7912
   2  19  21    3069    3220
   4  19  21    9286    3385
   6  19  21   13120    3769
   8  19  21   -3806    3806
  10  19  21    8892    4287
  12  19  21   -1095    8504
   1  20  21   78565    3651
   3  20  21   -2789    3285
   5  20  21  225360    6894
   7  20  21    8644    3882
   9  20  21   -1755    4153
  11  20  21    6694    5670
   2  21  21     771    3433
   4  21  21    9440    3576
   6  21  21    6505    4013
   8  21  21   -4161    4161
  10  21  21     -88    5951
   1  22  21    7118    3584
   3  22  21   20492    3661
   5  22  21  133934    4342
   7  22  21   10682    4186
   9  22  21   -4933    5921
   2  23  21   -1781    3629
   4  23  21    3395    3810
   6  23  21   -2321    5304
   8  23  21    1787    9604
   1  24  21   31101    4045
   3  24  21   10434    4725
   5  24  21   90929    6766
   2  25  21   -3770    8588
   4  25  21   -8864    8864
   0   0  22 5520568   49422
   2   0  22  430440    7961
   4   0  22  465579    6864
   6   0  22  571394    7769
   8   0  22 1919290   14271
  10   0  22 2575721   17624
  12   0  22  156030    7835
  14   0  22   -2158    4585
  16   0  22  387711   10690
  18   0  22  318309   12617
   1   1  22   41756    2338
   3   1  22   -1988    1988
   5   1  22   -2046    2046
   7   1  22   13077    2523
   9   1  22   58759    2951
  11   1  22    3101    2882
  13   1  22   18391    3201
  15   1  22   49779    3621
  17   1  22     603    3689
  19   1  22   -6666    7253
   0   2  22 2869073   24958
   2   2  22 1185265    6982
   4   2  22  337249    4411
   6   2  22  681910    5826
   8   2  22  975636    7240
  10   2  22 1102589    7988
  12   2  22  124660    3535
  14   2  22   -2264    3248
  16   2  22   95993    3957
  18   2  22  328343    7886
   1   3  22   30146    2411
   3   3  22    5862    2127
   5   3  22   14571    2149
   7   3  22   95038    3289
   9   3  22   -2610    2610
  11   3  22   15736    2903
  13   3  22   -3090    3090
  15   3  22   -1220    3443
  17   3  22   15598    3782
  19   3  22    3955   11364
   0   4  22 2139192   13487
   2   4  22  234151    4381
   4   4  22  382872    4930
   6   4  22   92126    2642
   8   4  22 1505256    9160
  10   4  22  621426    8138
  12   4  22  109251    3447
  14   4  22    2048    3264
  16   4  22   93198    4158
  18   4  22  433850    9801
   1   5  22    9719    2093
   3   5  22   -1998    1998
   5   5  22  258752    5015
   7   5  22   -2353    2353
   9   5  22   -2720    2720
  11   5  22   -2919    2919
  13   5  22   -3231    3231
  15   5  22   -1841    3613
  17   5  22   39098    4255
  19   5  22   14296   16441
   0   6  22 1740226   14251
   2   6  22  643308    5206
   4   6  22  399633    4847
   6   6  22  541060    5542
   8   6  22  641970    6593
  10   6  22  512968    6974
  12   6  22   31945    3465
  14   6  22     621    3618
  16   6  22  274957   11241
  18   6  22  405970   13755
   1   7  22    5900    2000
   3   7  22  217765    4119
   5   7  22   -1272    2401
   7   7  22   89614    3168
   9   7  22    5102    3147
  11   7  22   -3351    3351
  13   7  22    3299    3659
  15   7  22   -3151    3788
  17   7  22   70147    4485
   0   8  22 1509046   11849
   2   8  22  560491    5481
   4   8  22   -2197    2197
   6   8  22  157817    3860
   8   8  22  801007    7839
  10   8  22  638622    7763
  12   8  22    6846    3566
  14   8  22   -3825    3825
  16   8  22  129403    4784
  18   8  22  441527   16669
   1   9  22   42839    2609
   3   9  22   -2523    2523
   5   9  22   46814    3157
   7   9  22    6811    3342
   9   9  22  132623    4076
  11   9  22    5497    3676
  13   9  22    3763    3946
  15   9  22   -4255    4255
  17   9  22   28265    6314
   0  10  22 1120152   10571
   2  10  22  799180    6560
   4  10  22   -2634    2634
   6  10  22  164248    4815
   8  10  22  955674   11424
  10  10  22  651096    8854
  12  10  22   23835    4264
  14  10  22   23186    4527
  16  10  22  193259    6067
  18  10  22  190857   20015
   1  11  22   18973    2646
   3  11  22   11049    2633
   5  11  22   -2800    2800
   7  11  22    -910    3559
   9  11  22  222544    9558
  11  11  22   68296    4406
  13  11  22   -4261    4261
  15  11  22   -4443    4617
  17  11  22   22327   11806
   0  12  22 1449181   12306
   2  12  22  529287    6117
   4  12  22   -2622    2622
   6  12  22  621819    7443
   8  12  22  876121    9987
  10  12  22  784303   11428
  12  12  22   -4211    4211
  14  12  22   10796    4659
  16  12  22  147743    9492
   1  13  22   13071    2773
   3  13  22  167274    3578
   5  13  22    9180    2970
   7  13  22    9128    3569
   9  13  22  205937    5766
  11  13  22  142249    6346
  13  13  22   -4458    4458
  15  13  22   -4673    6509
   0  14  22  429533    8666
   2  14  22  184065    4718
   4  14  22   29060    3098
   6  14  22  176446    4089
   8  14  22  558622    9341
  10  14  22  307873   10876
  12  14  22   31666    5161
  14  14  22   -1649    4766
  16  14  22  127238   18585
   1  15  22   93130    3386
   3  15  22   -2868    2868
   5  15  22   -3066    3066
   7  15  22   10990    3537
   9  15  22   90661    4937
  11  15  22    4791    4928
  13  15  22   -5134    5134
  15  15  22   15677   11086
   0  16  22  309182    8678
   2  16  22  217561    8775
   4  16  22   -3125    3125
   6  16  22   75513    3713
   8  16  22   78464    4278
  10  16  22  321941    9048
  12  16  22   -4849    4849
  14  16  22  -15011   15726
   1  17  22  124067    3701
   3  17  22   12414    3176
   5  17  22   -3232    3232
   7  17  22    4382    3716
   9  17  22   98507    4603
  11  17  22   60126    5251
  13  17  22  -13598   14654
   0  18  22  453289    9681
   2  18  22  187217    5512
   4  18  22   43785    3504
   6  18  22    7688    3728
   8  18  22  131412    4723
  10  18  22  449851   10044
  12  18  22   18504   11086
   1  19  22  117523    3860
   3  19  22   34833    3491
   5  19  22   23467    3580
   7  19  22   -3883    3883
   9  19  22   56512    4537
  11  19  22   69470    9635
   0  20  22  535026   10618
   2  20  22  151430    4133
   4  20  22   12534    3598
   6  20  22   17763    4028
   8  20  22   55330    4553
  10  20  22  185784    8751
   1  21  22  223491    8502
   3  21  22   -3620    3620
   5  21  22   -3704    3704
   7  21  22   -4091    4091
   9  21  22  110727    8209
   0  22  22  653223   11626
   2  22  22   44381    3839
   4  22  22   -3783    3783
   6  22  22   21544    5503
   8  22  22   98503    8294
   1  23  22  130973    4457
   3  23  22    4332    4446
   5  23  22   -5044    5044
   7  23  22   17887   10788
   0  24  22  182189   10526
   2  24  22   43438    6976
   4  24  22   -5062    6667
   1  25  22   42889   15726
   2   1  23   76585    2703
   4   1  23  185686    5802
   6   1  23  588441    6105
   8   1  23    -665    2814
  10   1  23   84547    3274
  12   1  23  146233    3790
  14   1  23  394198    7181
  16   1  23    -293    3671
  18   1  23   59802    6037
   1   2  23   39737    2533
   3   2  23  129556    4044
   5   2  23   96110    3389
   7   2  23   25451    2660
   9   2  23   32431    3460
  11   2  23    8994    3009
  13   2  23   33134    3393
  15   2  23    -487    3528
  17   2  23    4631    3890
   2   3  23  251131    4723
   4   3  23  176725    4339
   6   3  23  255246    5039
   8   3  23  358201    7574
  10   3  23   48025    3202
  12   3  23  402264    6753
  14   3  23  662006    7844
  16   3  23   -1640    3703
  18   3  23   28113    7405
   1   4  23   52103    2471
   3   4  23   16894    2420
   5   4  23   -2317    2317
   7   4  23   -2511    2511
   9   4  23   21091    2952
  11   4  23   27355    3236
  13   4  23   -1838    3387
  15   4  23    7412    3757
  17   4  23    4261    4063
   2   5  23  385501    5307
   4   5  23  827138    6334
   6   5  23  123320    3063
   8   5  23  110749    3306
  10   5  23    7752    3035
  12   5  23   88332    3837
  14   5  23  490775    8175
  16   5  23    2810    4070
  18   5  23   37081    9474
   1   6  23    2228    2162
   3   6  23   -1063    2170
   5   6  23   -2547    2547
   7   6  23   -2779    2779
   9   6  23   -2988    2988
  11   6  23   73264    3846
  13   6  23    -490    3751
  15   6  23   -4034    4034
  17   6  23    1869    5414
   2   7  23  221226    5731
   4   7  23  471277    6102
   6   7  23  437861    6866
   8   7  23   34513    3480
  10   7  23    4471    3396
  12   7  23  112651    4258
  14   7  23   79507    4367
  16   7  23    8690    4374
  18   7  23   12711   11494
   1   8  23    3942    2582
   3   8  23   -2571    2571
   5   8  23   -2878    2878
   7   8  23   -3571    3571
   9   8  23   -3317    3317
  11   8  23   -3552    3552
  13   8  23   45986    4300
  15   8  23   -4341    4341
  17   8  23   -7357    7357
   2   9  23  130402    3305
   4   9  23  787254    7635
   6   9  23   89577    3744
   8   9  23    8017    4243
  10   9  23   -3622    3622
  12   9  23   29905    4126
  14   9  23   77154    4663
  16   9  23   22427    6254
   1  10  23   10134    2639
   3  10  23   41461    2947
   5  10  23   51621    3394
   7  10  23  107435    4277
   9  10  23    3137    4119
  11  10  23   -4074    4074
  13  10  23   -4398    4398
  15  10  23   23791    4859
  17  10  23    1947   11806
   2  11  23   29564    2845
   4  11  23  404222    6460
   6  11  23   20473    3570
   8  11  23   73917    4828
  10  11  23    1790    4335
  12  11  23    8439    4376
  14  11  23  132643    5323
  16  11  23   55736    9888
   1  12  23   28081    2893
   3  12  23   28566    2920
   5  12  23  123858    3748
   7  12  23   99682    4422
   9  12  23    8502    4616
  11  12  23   -2119    4544
  13  12  23   51602    4815
  15  12  23    4397    8061
   2  13  23   59509    3126
   4  13  23  505220    6803
   6  13  23    3147    3617
   8  13  23    5163    4279
  10  13  23   -4211    4699
  12  13  23   31424    5249
  14  13  23   53637    6204
   1  14  23   -2013    2961
   3  14  23   51135    3176
   5  14  23   87947    3567
   7  14  23  157871    4858
   9  14  23   -1512    4485
  11  14  23   50705    4934
  13  14  23   31303    5419
   2  15  23   99053    3475
   4  15  23  289759    6319
   6  15  23   11587    3806
   8  15  23  123775    5149
  10  15  23   18357    5204
  12  15  23   51698    5214
  14  15  23   40745   17871
   1  16  23   32850    3292
   3  16  23   46035    3355
   5  16  23   13311    3377
   7  16  23   28425    4045
   9  16  23   14499    4763
  11  16  23   -1712    5162
  13  16  23   -5719   16441
   2  17  23   -1757    3242
   4  17  23   94132    3786
   6  17  23   77745    4132
   8  17  23   35993    4811
  10  17  23    2217    4876
  12  17  23   28593   16441
   1  18  23   -3321    3321
   3  18  23   26569    3581
   5  18  23   39769    3856
   7  18  23    2017    3947
   9  18  23   -4827    4827
  11  18  23   35741   15726
   2  19  23   18070    3544
   4  19  23   57234    3865
   6  19  23    5162    3984
   8  19  23   -4267    4267
  10  19  23   -5004   14296
   1  20  23    2907    3561
   3  20  23   -1694    3667
   5  20  23   71691    4198
   7  20  23   20820    4259
   9  20  23     715   14296
   2  21  23   -3634    3634
   4  21  23   18818    3879
   6  21  23    4494    4825
   8  21  23   -8254    8254
   1  22  23   -3739    3739
   3  22  23    3826    4188
   5  22  23   14315    5543
   7  22  23  -10858   10858
   2  23  23    -199    5870
   4  23  23   -8588    8588
   1  24  23  -11437   16441
   0   0  24   10480    6500
   2   0  24 1243710   11300
   4   0  24   16208    3741
   6   0  24  303706    8005
   8   0  24 1304038   13244
  10   0  24    4060    4672
  12   0  24    2952    4597
  14   0  24   21715    5135
  16   0  24  224395   19785
  18   0  24   89829   16083
   1   1  24   -2406    2406
   3   1  24   17290    2646
   5   1  24   61621    3251
   7   1  24   28333    3080
   9   1  24   13399    3181
  11   1  24   28132    3361
  13   1  24     302    3401
  15   1  24   -3573    3573
  17   1  24   -4946    4946
   0   2  24   16514    3992
   2   2  24  848916    6857
   4   2  24   84018    2884
   6   2  24  121258    3189
   8   2  24  291144    6225
  10   2  24  448612    6888
  12   2  24   -3334    3334
  14   2  24   23485    3624
  16   2  24  181744    4592
  18   2  24  118562    9282
   1   3  24  107902    3171
   3   3  24   -2338    2338
   5   3  24   24247    2777
   7   3  24   71776    3651
   9   3  24   -2933    2933
  11   3  24    7180    3279
  13   3  24   -1646    3524
  15   3  24   16506    4030
  17   3  24    -697    5363
   0   4  24   22368    3640
   2   4  24  250840    5152
   4   4  24   14197    2580
   6   4  24   65407    2900
   8   4  24  326786    6266
  10   4  24   46748    3308
  12   4  24   78928    3896
  14   4  24   23366    3982
  16   4  24  216424    6703
  18   4  24   43604   19300
   1   5  24  149847    3051
   3   5  24   85271    2922
   5   5  24   -2618    2618
   7   5  24   -2852    2852
   9   5  24   -3097    3097
  11   5  24   17568    3504
  13   5  24   -1047    3954
  15   5  24    7509    4278
  17   5  24   -4957    8197
   0   6  24   17998    3310
   2   6  24  425648    5496
   4   6  24   -2869    2869
   6   6  24   96343    3371
   8   6  24  596618    8080
  10   6  24   21961    3607
  12   6  24    8516    3816
  14   6  24   -4093    4093
  16   6  24   93408    5286
   1   7  24  146475    3567
   3   7  24    8558    2730
   5   7  24    2340    2975
   7   7  24   85333    3812
   9   7  24   -3487    3487
  11   7  24   -3585    3585
  13   7  24   64760    4285
  15   7  24   -4229    4229
  17   7  24    6002   15369
   0   8  24  109025    5275
   2   8  24  118877    3670
   4   8  24   26244    3235
   6   8  24  410384    7284
   8   8  24  303100    7934
  10   8  24   74323    4362
  12   8  24   -3973    3973
  14   8  24   -4323    4323
  16   8  24   42642    7602
   1   9  24  127502    3567
   3   9  24   34231    3153
   5   9  24   83736    3825
   7   9  24  164770    4980
   9   9  24   62668    4550
  11   9  24    6571    4563
  13   9  24   55722    4810
  15   9  24   16644    5886
   0  10  24  682844   12059
   2  10  24  116491    3444
   4  10  24    4429    3273
   6  10  24  142857    4528
   8  10  24  499670    9600
  10  10  24    6986    4485
  12  10  24   53352    5034
  14  10  24   11690    4785
  16  10  24   64307   12376
   1  11  24  155946    4239
   3  11  24   -2916    2916
   5  11  24  124261    4206
   7  11  24   62773    4246
   9  11  24  153709    5576
  11  11  24   49089    4942
  13  11  24   -4931    4931
  15  11  24   -8333    8333
   0  12  24  375724    8600
   2  12  24  303240    6269
   4  12  24    -495    3253
   6  12  24  120439    4535
   8  12  24  372855    9586
  10  12  24   51919    5178
  12  12  24   19811    5085
  14  12  24   44031   10174
   1  13  24   12450    3058
   3  13  24    -456    3321
   5  13  24   -3687    3687
   7  13  24   99858    4623
   9  13  24   37325    5051
  11  13  24   19532    5245
  13  13  24   10663    7595
   0  14  24  721377   10829
   2  14  24   64769    3389
   4  14  24   -3416    3416
   6  14  24  134110    4864
   8  14  24  170260    6046
  10  14  24   -4989    4989
  12  14  24    -772    5052
   1  15  24  106722    3681
   3  15  24   63744    3603
   5  15  24   33227    3825
   7  15  24   57594    4494
   9  15  24   28626    4934
  11  15  24    4956    5056
   0  16  24   47119    4952
   2  16  24  200615    5986
   4  16  24    1137    3421
   6  16  24   -4040    4040
   8  16  24  108061    5390
  10  16  24   46736    5499
   1  17  24  105289    3883
   3  17  24  149566    4240
   5  17  24   12074    3761
   7  17  24  121024    5187
   9  17  24   69454    5333
   0  18  24  106098    5630
   2  18  24   71580    3822
   4  18  24   19455    3707
   6  18  24   10588    4217
   8  18  24   77093    5351
   1  19  24   63805    3899
   3  19  24  165619    4529
   5  19  24   -4014    4014
   7  19  24   22504    4969
   0  20  24   90511    5811
   2  20  24   99222    4234
   4  20  24   -3777    3777
   6  20  24   20344    5016
   1  21  24   95342    4238
   3  21  24   58586    4475
   5  21  24   -5607    7207
   7  21  24   13582   10353
   0  22  24   56428    8441
   2  22  24   68510    6446
   4  22  24  -11297   11297
   2   1  25  106920    3251
   4   1  25 1342742    9225
   6   1  25  722737    7162
   8   1  25   -3110    3110
  10   1  25   59134    3633
  12   1  25  152655    4361
  14   1  25  184679    4785
  16   1  25  348064    9400
   1   2  25   20237    2704
   3   2  25   75234    3103
   5   2  25   -2762    2762
   7   2  25   81690    3593
   9   2  25   15232    3322
  11   2  25    1388    3498
  13   2  25   16371    3675
  15   2  25    7551    3982
  17   2  25    5617    8473
   2   3  25  395671    5914
   4   3  25 1585736    9629
   6   3  25  948916    7767
   8   3  25   84453    3551
  10   3  25  298366    7039
  12   3  25  227369   11362
  14   3  25  267690   13950
  16   3  25  395679   11070
   1   4  25    2069    2619
   3   4  25  138638    4759
   5   4  25   21132    2936
   7   4  25   -3156    3156
   9   4  25   -3083    3083
  11   4  25   12386    3611
  13   4  25    2733    3891
  15   4  25   39128    4555
   2   5  25  245277    5346
   4   5  25 1448683    9170
   6   5  25  832565    7532
   8   5  25   71035    3710
  10   5  25   22293    3707
  12   5  25  214245   10510
  14   5  25  212669    8802
  16   5  25  215237    8039
   1   6  25   -2594    2594
   3   6  25     268    2957
   5   6  25   -2815    3136
   7   6  25   22028    3760
   9   6  25   27137    3849
  11   6  25   13456    3863
  13   6  25   15242    4134
  15   6  25   -1900    4871
   2   7  25  483724    7039
   4   7  25 1017187   12617
   6   7  25  752541    9304
   8   7  25   59621    4183
  10   7  25   -4048    4048
  12   7  25  119913    4743
  14   7  25  184878    5451
  16   7  25  139577    9536
   1   8  25   13976    3287
   3   8  25   -3383    3383
   5   8  25   -3607    3607
   7   8  25   33286    4234
   9   8  25   -4306    4306
  11   8  25   -4292    4292
  13   8  25   12857    4429
  15   8  25   -6842    6913
   2   9  25  534748    7478
   4   9  25  433416    7540
   6   9  25 1011807   10577
   8   9  25   21229    4678
  10   9  25    8448    4607
  12   9  25  169884    5788
  14   9  25  153042    6793
   1  10  25   -3123    3123
   3  10  25   -1020    3311
   5  10  25   31938    3819
   7  10  25    6417    4505
   9  10  25     -94    4747
  11  10  25   26810    4988
  13  10  25    3182    5067
  15  10  25    -715   15726
   2  11  25   69238    3448
   4  11  25  498226    7683
   6  11  25  478190    8570
   8  11  25    1182    4698
  10  11  25   10723    5051
  12  11  25   87033    5524
  14  11  25   67809   13142
   1  12  25   -3195    3195
   3  12  25   13075    3603
   5  12  25    5967    3810
   7  12  25    -764    4340
   9  12  25    4788    4666
  11  12  25   -5130    5130
  13  12  25  -11625   11625
   2  13  25  329389    6740
   4  13  25  223957   12781
   6  13  25  317783    8433
   8  13  25   20073    5000
  10  13  25     719    4806
  12  13  25  182524    9998
   1  14  25   -3356    3356
   3  14  25   22874    3687
   5  14  25   28295    4073
   7  14  25   22168    4675
   9  14  25   22029    5209
  11  14  25   16663    5972
   2  15  25  431962    7440
   4  15  25  233697   13908
   6  15  25  226533   14005
   8  15  25   96338    5289
  10  15  25   25880    5528
   1  16  25    -151    3409
   3  16  25   21804    3852
   5  16  25    4428    4302
   7  16  25    4838    4862
   9  16  25   26994    5199
   2  17  25   67557    3937
   4  17  25  123318    4586
   6  17  25  181119    5911
   8  17  25   -4132    5266
   1  18  25    6499    3656
   3  18  25   -1529    3766
   5  18  25   18607    4401
   7  18  25   -6159    6159
   2  19  25   29366    4000
   4  19  25   34665    4146
   6  19  25  101571    8441
   1  20  25    8427    4007
   3  20  25   -4325    4325
   5  20  25   -3505    8777
   2  21  25   33196    6602
   4  21  25   19696    9061
   0   0  26   -5272    5272
   2   0  26   95987    4475
   4   0  26    -477    4405
   6   0  26   90512    5085
   8   0  26     152    4656
  10   0  26   96242    5586
  12   0  26   13880    5393
  14   0  26   14326    5849
  16   0  26  -11795   11795
   1   1  26   12131    2814
   3   1  26   -2903    2903
   5   1  26    8770    3156
   7   1  26   29059    3472
   9   1  26    -544    3398
  11   1  26   -3598    3598
  13   1  26   16927    3957
  15   1  26    1328    4705
   0   2  26  206937   14151
   2   2  26   -2723    2723
   4   2  26    2832    3172
   6   2  26   11627    3193
   8   2  26    8263    3488
  10   2  26   -3500    3500
  12   2  26   10634    3834
  14   2  26   39195    4275
  16   2  26  -11086   11086
   1   3  26   -2719    2719
   3   3  26    3409    2924
   5   3  26    1767    2978
   7   3  26   -3334    3334
   9   3  26   -3493    3493
  11   3  26     161    3665
  13   3  26      44    4139
  15   3  26    1323    5225
   0   4  26    2335    3846
   2   4  26   -2758    2758
   4   4  26   15443    3123
   6   4  26    -172    3126
   8   4  26   -3609    3609
  10   4  26   18148    3984
  12   4  26   -1065    4061
  14   4  26    6193    4385
  16   4  26  -11437   16441
   1   5  26   75457    3127
   3   5  26    -402    2903
   5   5  26    -738    3165
   7   5  26   -3690    3690
   9   5  26   -4026    4026
  11   5  26   70236    4443
  13   5  26    -969    4231
  15   5  26    5044    6580
   0   6  26   -4791    4791
   2   6  26   -3239    3239
   4   6  26   16652    3437
   6   6  26    1033    3529
   8   6  26   -3808    3808
  10   6  26   -3939    3939
  12   6  26    7188    4303
  14   6  26    -806    5266
   1   7  26   90469    4077
   3   7  26     803    3760
   5   7  26    7956    3854
   7   7  26   24656    4357
   9   7  26     672    4217
  11   7  26   61626    4733
  13   7  26    8030    4754
  15   7  26    4438    8918
   0   8  26   44456    6254
   2   8  26   -3339    3339
   4   8  26   -4103    4103
   6   8  26   29960    4813
   8   8  26    4153    4666
  10   8  26   -4624    4624
  12   8  26   -4901    4901
  14   8  26  -11870   11870
   1   9  26  133217    4098
   3   9  26   -3615    3615
   5   9  26   15299    4324
   7   9  26  117979    4990
   9   9  26   76803    5332
  11   9  26   32778    5027
  13   9  26    -236    8599
   0  10  26   24799    5861
   2  10  26    1951    3549
   4  10  26   19487    4118
   6  10  26   40529    4537
   8  10  26   -4473    4473
  10  10  26   -5069    5069
  12  10  26    3381    5155
  14  10  26  -17156   17156
   1  11  26   27030    3711
   3  11  26   17570    3927
   5  11  26    7633    3906
   7  11  26   38210    5022
   9  11  26   83379    5216
  11  11  26    5178    5428
  13  11  26   -7863   16441
   0  12  26   -4940    4940
   2  12  26    3830    3902
   4  12  26    4797    3878
   6  12  26   37815    4470
   8  12  26   -4891    4891
  10  12  26   27510    5157
   1  13  26  128495    4426
   3  13  26   17211    3878
   5  13  26   -4182    4182
   7  13  26   81170    5073
   9  13  26    3171    4872
  11  13  26   11406   10116
   0  14  26  107564    5953
   2  14  26   34448    3862
   4  14  26   23745    4193
   6  14  26   -1509    4420
   8  14  26     228    5119
  10  14  26    5361   10615
   1  15  26   19012    3731
   3  15  26   14858    4042
   5  15  26   24966    4527
   7  15  26   42686    5108
   9  15  26   73844   11364
   0  16  26   -2047    5511
   2  16  26   -3865    3865
   4  16  26   40989    4529
   6  16  26   -2440    4609
   8  16  26   -7716    7716
   1  17  26   31379    3956
   3  17  26   44416    4217
   5  17  26   14851    4701
   7  17  26   88500   14296
   0  18  26   97759    5930
   2  18  26    3347    4072
   4  18  26   13150    4699
   6  18  26    3831    9543
   1  19  26   26128    4528
   3  19  26   36769    5866
   5  19  26   -9991   10858
   0  20  26     929    7834
   2  20  26   -4131    6361
   4  20  26    6433   15011
   2   1  27  136920    3545
   4   1  27  455165    7289
   6   1  27  527477    8926
   8   1  27   10538    3796
  10   1  27  101118    4176
  12   1  27  567406    8729
  14   1  27  192276    5680
   1   2  27   -2836    2836
   3   2  27   -3178    3178
   5   2  27   -3278    3278
   7   2  27   -3667    3667
   9   2  27   -3672    3672
  11   2  27   -3723    3723
  13   2  27   58896    4550
  15   2  27    6433   15726
   2   3  27  153281    3785
   4   3  27  758320    8084
   6   3  27  720661    8928
   8   3  27   -3514    3514
  10   3  27   61625    4404
  12   3  27  390151    8690
  14   3  27  188487    6749
   1   4  27   -2883    2883
   3   4  27   31451    3337
   5   4  27   -3266    3266
   7   4  27   19947    3835
   9   4  27   -3194    4153
  11   4  27   -4386    4386
  13   4  27   28893    4692
  15   4  27  -15011   15011
   2   5  27  108741    3816
   4   5  27  734719    8781
   6   5  27  648236    9182
   8   5  27   61161    4402
  10   5  27   94496    4873
  12   5  27  423236    9761
  14   5  27  169413   10450
   1   6  27    5167    3642
   3   6  27   -4131    4131
   5   6  27    2279    3753
   7   6  27   -4276    4276
   9   6  27   -4416    4416
  11   6  27   24801    4939
  13   6  27   20085    6716
  15   6  27   22159   18585
   2   7  27  320460    8049
   4   7  27  478346    8634
   6   7  27  771857   10903
   8   7  27   16812    4871
  10   7  27   45989    5366
  12   7  27  136970    5823
  14   7  27  581696   37886
   1   8  27    5984    3822
   3   8  27    -169    4267
   5   8  27   -2792    4039
   7   8  27   43973    5000
   9   8  27   -4957    4957
  11   8  27   22707    5092
  13   8  27  100790   17871
   2   9  27  106430    4632
   4   9  27  494864    9330
   6   9  27  273803   14843
   8   9  27   36881    5111
  10   9  27   16535    6174
  12   9  27  168172   11099
   1  10  27   -3858    3858
   3  10  27   16192    4253
   5  10  27   16356    4887
   7  10  27   -1974    4851
   9  10  27   12636    4925
  11  10  27   -1015    6987
  13  10  27  -15726   17156
   2  11  27  306898    7765
   4  11  27  388994    8776
   6  11  27  433813   10583
   8  11  27   -4710    4710
  10  11  27   32350    5298
   1  12  27   36531    4039
   3  12  27    8267    4379
   5  12  27  191594    5809
   7  12  27    5490    5141
   9  12  27   -4160    4967
  11  12  27   11437   16441
   2  13  27   88422    4636
   4  13  27  577477    9635
   6  13  27  198654    6570
   8  13  27   63503    5620
  10  13  27   65764   15726
   1  14  27    4206    4065
   3  14  27   77529    4898
   5  14  27   63184    4890
   7  14  27   88064    5472
   9  14  27  -10279   10279
   2  15  27   40975    4526
   4  15  27  538733    9347
   6  15  27  197994    6132
   8  15  27   -2859   13582
   1  16  27    1558    4228
   3  16  27   81437    4839
   5  16  27   15546    6201
   7  16  27    5635   10649
   2  17  27  170256    5743
   4  17  27  275714   17278
   6  17  27  122235   15726
   1  18  27    5214    6551
   3  18  27   47989    7277
   5  18  27   51163   11494
   2  19  27   22054    8132
   0   0  28   70807    6834
   2   0  28  632399   11144
   4   0  28   -4764    4764
   6   0  28   23047    5569
   8   0  28  164956    6810
  10   0  28   42210    6264
  12   0  28  164922    6931
  14   0  28   50533    9474
   1   1  28   -3074    3074
   3   1  28   -3366    3366
   5   1  28   -3393    3393
   7   1  28   -3850    3850
   9   1  28   -3959    3959
  11   1  28   13672    4194
  13   1  28   -5025    5025
   0   2  28   96910    5606
   2   2  28  299647    6754
   4   2  28   30512    3578
   6   2  28   33294    4014
   8   2  28  139353    4707
  10   2  28   57722    4249
  12   2  28  111159    5110
  14   2  28   36456   16441
   1   3  28   66433    3429
   3   3  28    9967    3448
   5   3  28   -1809    3515
   7   3  28   -3848    3848
   9   3  28   -4035    4035
  11   3  28     298    4603
  13   3  28   -6828    6828
   0   4  28  204534   12732
   2   4  28  329747    6939
   4   4  28    8845    3687
   6   4  28  125196    5065
   8   4  28   96896    4768
  10   4  28   -4381    4381
  12   4  28   82704    5692
  14   4  28  -12152   15011
   1   5  28   18510    3885
   3   5  28   -3990    3990
   5   5  28    6299    4170
   7   5  28   -4136    4136
   9   5  28    6470    4412
  11   5  28   -3290    4680
  13   5  28   -8026   11086
   0   6  28  253825   14420
   2   6  28  155883    4940
   4   6  28   11253    4495
   6   6  28   22630    4992
   8   6  28  165945    7672
  10   6  28   13890    4939
  12   6  28    7523   10579
   1   7  28   -3855    3855
   3   7  28   39231    4633
   5   7  28   31899    5018
   7   7  28    -692    4901
   9   7  28   14370    5181
  11   7  28   17020    6010
   0   8  28   59910    7599
   2   8  28  115946    4843
   4   8  28   50948    4832
   6   8  28   84438    5348
   8   8  28   71569    5475
  10   8  28   32217    5698
   1   9  28   -3975    3975
   3   9  28   22331    4636
   5   9  28   -3164    4508
   7   9  28   -5006    5006
   9   9  28   19983    5391
  11   9  28    4289   15011
   0  10  28  112481    6699
   2  10  28   73111    4675
   4  10  28   -4573    4573
   6  10  28    -472    5111
   8  10  28  102570    5994
  10  10  28   13582   15726
   1  11  28   -4326    4600
   3  11  28   68552    4889
   5  11  28    2904    5035
   7  11  28   10273    5292
   9  11  28  -10287   11332
  11  11  28   17156   17156
   0  12  28   -5963    5963
   2  12  28   27556    4670
   4  12  28     514    4552
   6  12  28    -871    5718
   8  12  28   72010   15120
  10  12  28  156546   17871
   1  13  28   19676    4667
   3  13  28   63652    4911
   5  13  28    9609    4973
   7  13  28   27658   21445
   9  13  28    2859   14296
   0  14  28   -6312    6312
   2  14  28   -4386    4386
   4  14  28   29184    4975
   6  14  28   10042    9838
   8  14  28   19300   14296
   1  15  28   11274    4556
   3  15  28   -5309    5309
   5  15  28    2536    8254
   7  15  28   -8578   13582
   0  16  28   15007    7721
   2  16  28   58969    8191
   4  16  28   -5739    9331
   6  16  28  -11437   13582
   1  17  28   19542    7546
   3  17  28   -9280    9280
   5  17  28  -14296   14296
   0  18  28    4289   15726
   2   1  29  253774   11966
   4   1  29  298155    7249
   6   1  29   31578    4203
   8   1  29   65821    4457
  10   1  29   36248    4522
  12   1  29   74427    6470
   1   2  29     362    3287
   3   2  29   -3523    3523
   5   2  29   -3703    3703
   7   2  29    3367    4112
   9   2  29   -4418    4418
  11   2  29   -5929    5929
   2   3  29  124888    4137
   4   3  29  351528    7601
   6   3  29   60082    4647
   8   3  29   -1886    4617
  10   3  29    2815    4907
  12   3  29   41319    7321
   1   4  29   66029    4128
   3   4  29   47098    4221
   5   4  29   20440    4395
   7   4  29   -4542    4542
   9   4  29   -4554    4812
  11   4  29    1708    6055
  13   4  29  -13582   15726
   2   5  29  173310    6646
   4   5  29  441850    9502
   6   5  29   59709    5283
   8   5  29   -5091    5091
  10   5  29   11797    5177
  12   5  29   47660   15369
   1   6  29   -4174    4174
   3   6  29   12519    4637
   5   6  29    6605    4977
   7   6  29    3812    5530
   9   6  29   -5202    5202
  11   6  29  -10722   15011
   2   7  29   22381    4728
   4   7  29  144504    5533
   6   7  29   95073    6059
   8   7  29   50557    5509
  10   7  29   37886   15011
   1   8  29   13003    4430
   3   8  29   41678    4904
   5   8  29   -2968    5061
   7   8  29   -5190    5190
   9   8  29   -8115    8115
   2   9  29   58502    5073
   4   9  29  225878   14391
   6   9  29    1787    5215
   8   9  29     886    5557
  10   9  29   10722   15011
   1  10  29    4623    4518
   3  10  29   58729    5140
   5  10  29  123082    5672
   7  10  29   -5378    5378
   9  10  29   28593   15011
   2  11  29  130839    5588
   4  11  29  138747    6094
   6  11  29   28620    5609
   8  11  29   -7863   14296
   1  12  29   12481    4692
   3  12  29   31145    5143
   5  12  29   69379    6813
   7  12  29   30023   15726
   2  13  29    8852    5140
   4  13  29  130359    8177
   1  14  29   16230    6283
   3  14  29    7949    7245
   5  14  29  139000   10805
   2  15  29    7630    8393
   4  15  29  143323   13142
   1  16  29   14666   10418
   3  16  29   29308   11625
   0   0  30  493248   15187
   2   0  30  148378    6121
   4   0  30   18579    6462
   6   0  30   43231    6301
   8   0  30   88887    6865
  10   0  30  454162   18984
   1   1  30   -3603    3603
   3   1  30   -1097    3677
   5   1  30   -4018    4018
   7   1  30   -4235    4235
   9   1  30   -4554    4554
  11   1  30   -7480    7480
   0   2  30  770644   11611
   2   2  30  134633    4319
   4   2  30   -3513    3756
   6   2  30   28964    4390
   8   2  30  287167   16221
  10   2  30  449591   14693
   1   3  30   -3225    3674
   3   3  30   20593    4175
   5   3  30   -4537    4537
   7   3  30    -384    4887
   9   3  30   -5601    5710
  11   3  30   10722   14296
   0   4  30  682597   13503
   2   4  30   75298    5022
   4   4  30   28936    4566
   6   4  30   43828    5372
   8   4  30  228286   11656
  10   4  30  242269   57543
   1   5  30     507    4480
   3   5  30   -4647    4647
   5   5  30   21975    5605
   7   5  30    4078    5734
   9   5  30  -10615   10615
  11   5  30   -2859   15726
   0   6  30  680213   13368
   2   6  30   58697    5010
   4   6  30   -4777    4777
   6   6  30   87279    7342
   8   6  30  105208    7541
  10   6  30  147253   18585
   1   7  30    4445    4574
   3   7  30   70342    5179
   5   7  30   -5569    5569
   7   7  30   -5841    5841
   0   8  30  588467   16275
   2   8  30  184451    8558
   4   8  30   -4715    5171
   6   8  30  141342    6669
   1   9  30    3740    5759
   3   9  30   -1906    4901
   5   9  30   -5772    5772
   9   9  30   36456   15726
   0  10  30  243930   33016
   2  10  30   54404    5419
   4  10  30  106903    6152
   6  10  30   57901   18585
   8  10  30  365989   30023
   1  11  30   16173    4886
   3  11  30    3687    6696
   5  11  30   -9978   22874
   7  11  30   17156   15011
   0  12  30   94532   14111
   2  12  30   47764    7725
   4  12  30   55031   10251
   6  12  30   27878   15011
   1  13  30    6940    8522
   3  13  30   -1898    8272
   0  14  30  144394   20015
   2  14  30   25734   12131
   2   1  31   14198    3888
   4   1  31   -3868    3868
   6   1  31   -4319    4319
   8   1  31    -238    5704
   1   2  31   -3791    3791
   3   2  31   -3761    3761
   5   2  31   -4735    4735
   7   2  31   -5458    5458
   9   2  31   -7664    7664
   2   3  31   17199    4603
   4   3  31   -4942    4942
   6   3  31   -4936    4936
   8   3  31   -6818    6818
   1   4  31    3081    4802
   3   4  31   -4747    4747
   5   4  31   19697    7160
   7   4  31   -6121    6121
   9   4  31   -3574   15011
   2   5  31    3712    4928
   4   5  31    5957    6103
   6   5  31   -6595    6595
   1   6  31   15030    4916
   3   6  31   -4904    4904
   5   6  31   -7310    7310
   2   7  31    5219    4998
   4   7  31   -5294    5294
   6   7  31   14296   18585
   1   8  31    -915    4964
   3   8  31   -5154    5154
   5   8  31   45188   12882
   2   9  31   19765    7446
   4   9  31   -2876    9549
   1  10  31   -1940    7413
   3  10  31     232    8081
   2  11  31   22758   10697
   4  11  31    9293   15726
   1  12  31   22874   17871
   2  13  31   18585   19300
   0   0  32  475295   18562
   2   0  32  226465   14709
   4   0  32   -6561    6561
   6   0  32   13382    7678
   8   0  32  147572   12882
   1   1  32    2798    4347
   3   1  32   -2515    4093
   5   1  32   -5576    5576
   7   1  32   -8667    8667
   0   2  32   82464    7363
   2   2  32  459893    9493
   4   2  32   -5263    5263
   6   2  32   58815    7344
   8   2  32   75056   17156
   1   3  32    1158    4945
   3   3  32    1655    5972
   5   3  32   -6453    6453
   7   3  32  -15011   15011
   0   4  32  217557    9785
   2   4  32  148658    5813
   4   4  32   -8299    8299
   1   5  32   12545    5122
   3   5  32    -152    6130
   5   5  32   -5004   17871
   0   6  32  260406   42072
   2   6  32  328817   33697
   4   6  32   23926   12882
   1   7  32   39422   11769
   3   7  32   27906    8522
   0   8  32  359555   33597
   2   8  32  365047   22802
   1   9  32   57901   18585
   3   9  32   -3574   17871
   2  10  32  117946   20015
   2   1  33   41005    4919
   4   1  33   21366    7267
   1   2  33   10608    6641
   3   2  33    9414    6852
   2   3  33   75391    9010
   3   4  33  -10111   10111
   2   5  33   33358   10730
   1   6  33   17156   19300
   2   7  33   -3574   18585



;
_shelx_hkl_checksum              7619
_shelx_fab_file
;
    2    0    0    301.92      0.00
    4    0    0     74.14      0.00
    6    0    0     17.48      0.00
    8    0    0     29.36      0.00
   10    0    0     30.68      0.00
   12    0    0     16.12      0.00
   14    0    0      4.93      0.00
   16    0    0      5.63      0.00
   18    0    0      3.92      0.00
   20    0    0      0.72      0.00
   22    0    0     -0.06      0.00
   24    0    0     -0.88      0.00
    0    2    0   -356.66      0.00
    2    2    0   -251.32      0.00
    4    2    0   -106.48      0.00
    6    2    0    -43.93      0.00
    8    2    0    -32.73      0.00
   10    2    0    -25.39      0.00
   12    2    0    -12.85      0.00
   14    2    0     -7.78      0.00
   16    2    0     -7.85      0.00
   18    2    0     -3.09      0.00
   20    2    0     -1.07      0.00
   22    2    0     -0.35      0.00
   24    2    0      1.09      0.00
    0    4    0    136.77      0.00
    2    4    0    154.67      0.00
    4    4    0    139.63      0.00
    6    4    0     85.90      0.00
    8    4    0     39.28      0.00
   10    4    0     16.32      0.00
   12    4    0      8.02      0.00
   14    4    0      8.13      0.00
   16    4    0      7.68      0.00
   18    4    0      3.12      0.00
   20    4    0      1.14      0.00
   22    4    0     -0.22      0.00
   24    4    0     -0.54      0.00
    0    6    0    -39.40      0.00
    2    6    0    -83.14      0.00
    4    6    0   -116.44      0.00
    6    6    0    -92.71      0.00
    8    6    0    -44.41      0.00
   10    6    0    -18.74      0.00
   12    6    0     -9.68      0.00
   14    6    0     -4.94      0.00
   16    6    0     -2.64      0.00
   18    6    0     -2.17      0.00
   20    6    0      0.66      0.00
   22    6    0      2.43      0.00
   24    6    0      0.03      0.00
    0    8    0     24.89      0.00
    2    8    0     45.50      0.00
    4    8    0     69.46      0.00
    6    8    0     66.79      0.00
    8    8    0     44.79      0.00
   10    8    0     28.39      0.00
   12    8    0     15.00      0.00
   14    8    0      6.51      0.00
   16    8    0     -0.09      0.00
   18    8    0     -1.75      0.00
   20    8    0     -2.33      0.00
   22    8    0     -1.78      0.00
   24    8    0     -0.71      0.00
    0   10    0    -21.36      0.00
    2   10    0    -25.16      0.00
    4   10    0    -33.66      0.00
    6   10    0    -40.30      0.00
    8   10    0    -36.47      0.00
   10   10    0    -27.19      0.00
   12   10    0    -17.32      0.00
   14   10    0     -7.74      0.00
   16   10    0      0.23      0.00
   18   10    0      1.97      0.00
   20   10    0      1.89      0.00
   22   10    0     -0.10      0.00
   24   10    0      0.70      0.00
    0   12    0      6.11      0.00
    2   12    0      9.97      0.00
    4   12    0     19.27      0.00
    6   12    0     26.54      0.00
    8   12    0     22.78      0.00
   10   12    0     17.19      0.00
   12   12    0     15.40      0.00
   14   12    0      6.91      0.00
   16   12    0      1.10      0.00
   18   12    0      0.71      0.00
   20   12    0     -0.83      0.00
   22   12    0     -0.87      0.00
    0   14    0      4.72      0.00
    2   14    0     -2.02      0.00
    4   14    0    -13.02      0.00
    6   14    0    -14.96      0.00
    8   14    0    -11.72      0.00
   10   14    0     -8.24      0.00
   12   14    0    -10.83      0.00
   14   14    0     -8.30      0.00
   16   14    0     -3.74      0.00
   18   14    0     -2.43      0.00
   20   14    0     -0.65      0.00
   22   14    0      1.16      0.00
    0   16    0     -0.03      0.00
    2   16    0      1.05      0.00
    4   16    0      2.32      0.00
    6   16    0      2.88      0.00
    8   16    0      5.97      0.00
   10   16    0      4.52      0.00
   12   16    0      7.22      0.00
   14   16    0      7.18      0.00
   16   16    0      4.90      0.00
   18   16    0      4.92      0.00
   20   16    0      1.42      0.00
   22   16    0     -1.12      0.00
    0   18    0     -3.59      0.00
    2   18    0     -0.78      0.00
    4   18    0      4.88      0.00
    6   18    0      2.80      0.00
    8   18    0     -4.04      0.00
   10   18    0     -3.74      0.00
   12   18    0     -2.63      0.00
   14   18    0     -2.03      0.00
   16   18    0     -3.87      0.00
   18   18    0     -3.78      0.00
   20   18    0     -1.14      0.00
    0   20    0      1.20      0.00
    2   20    0     -0.33      0.00
    4   20    0     -4.64      0.00
    6   20    0     -2.94      0.00
    8   20    0      2.55      0.00
   10   20    0      1.76      0.00
   12   20    0     -0.93      0.00
   14   20    0     -0.33      0.00
   16   20    0      2.07      0.00
   18   20    0     -0.23      0.00
    0   22    0      3.77      0.00
    2   22    0      2.59      0.00
    4   22    0      1.68      0.00
    6   22    0      1.19      0.00
    8   22    0     -0.26      0.00
   10   22    0     -0.01      0.00
   12   22    0     -0.03      0.00
   14   22    0     -1.38      0.00
   16   22    0     -1.86      0.00
    0   24    0     -4.73      0.00
    2   24    0     -2.49      0.00
    4   24    0      0.89      0.00
    6   24    0      0.91      0.00
    8   24    0     -1.49      0.00
   10   24    0     -0.84      0.00
   12   24    0      0.70      0.00
   14   24    0      1.76      0.00
   16   24    0      0.81      0.00
    0   26    0     -0.29      0.00
    2   26    0     -1.42      0.00
    4   26    0     -0.99      0.00
    6   26    0      0.25      0.00
    8   26    0      1.93      0.00
   10   26    0     -0.31      0.00
   12   26    0     -1.09      0.00
   14   26    0      0.24      0.00
    0   28    0      3.32      0.00
    2   28    0      3.42      0.00
    4   28    0     -0.68      0.00
    6   28    0     -2.96      0.00
    8   28    0     -0.97      0.00
   10   28    0      1.15      0.00
   12   28    0      0.77      0.00
    0   30    0     -0.84      0.00
    2   30    0     -0.24      0.00
    4   30    0      0.88      0.00
    6   30    0      1.64      0.00
    8   30    0      0.86      0.00
   10   30    0      0.35      0.00
    0   32    0     -1.75      0.00
    2   32    0     -2.81      0.00
    4   32    0     -0.24      0.00
    2    1    1    -70.31      0.00
    4    1    1    -36.75      0.00
    6    1    1      1.77      0.00
    8    1    1      7.81      0.00
   10    1    1      1.88      0.00
   12    1    1     -4.07      0.00
   14    1    1     -3.49      0.00
   16    1    1     -0.92      0.00
   18    1    1     -0.48      0.00
   20    1    1     -0.54      0.00
   22    1    1      0.51      0.00
   24    1    1     -0.17      0.00
    1    2    1    -35.24      0.00
    3    2    1    -47.01      0.00
    5    2    1    -11.87      0.00
    7    2    1      5.34      0.00
    9    2    1      0.94      0.00
   11    2    1     -5.36      0.00
   13    2    1     -5.37      0.00
   15    2    1     -3.90      0.00
   17    2    1     -2.66      0.00
   19    2    1     -1.24      0.00
   21    2    1      1.19      0.00
   23    2    1      2.32      0.00
   25    2    1      0.77      0.00
    2    3    1    115.38      0.00
    4    3    1     69.56      0.00
    6    3    1      5.03      0.00
    8    3    1    -11.41      0.00
   10    3    1     -1.31      0.00
   12    3    1      7.29      0.00
   14    3    1      5.89      0.00
   16    3    1      4.43      0.00
   18    3    1      2.23      0.00
   20    3    1      0.53      0.00
   22    3    1     -0.14      0.00
   24    3    1      1.06      0.00
    1    4    1     33.79      0.00
    3    4    1     49.46      0.00
    5    4    1     16.28      0.00
    7    4    1     -4.48      0.00
    9    4    1      1.45      0.00
   11    4    1      9.21      0.00
   13    4    1      6.75      0.00
   15    4    1      5.28      0.00
   17    4    1      5.19      0.00
   19    4    1      2.02      0.00
   21    4    1     -1.91      0.00
   23    4    1     -2.86      0.00
   25    4    1     -1.60      0.00
    2    5    1    -50.08      0.00
    4    5    1    -46.85      0.00
    6    5    1    -22.35      0.00
    8    5    1     -6.78      0.00
   10    5    1     -6.06      0.00
   12    5    1     -5.05      0.00
   14    5    1     -3.16      0.00
   16    5    1     -4.70      0.00
   18    5    1     -2.27      0.00
   20    5    1     -0.29      0.00
   22    5    1     -0.86      0.00
   24    5    1     -1.83      0.00
    1    6    1    -15.04      0.00
    3    6    1    -25.61      0.00
    5    6    1    -11.35      0.00
    7    6    1     -2.15      0.00
    9    6    1     -8.00      0.00
   11    6    1    -12.20      0.00
   13    6    1     -8.13      0.00
   15    6    1     -4.66      0.00
   17    6    1     -4.05      0.00
   19    6    1     -1.72      0.00
   21    6    1      2.02      0.00
   23    6    1      2.90      0.00
   25    6    1      1.65      0.00
    2    7    1     -0.93      0.00
    4    7    1     17.61      0.00
    6    7    1     31.11      0.00
    8    7    1     24.85      0.00
   10    7    1     13.96      0.00
   12    7    1      6.58      0.00
   14    7    1      2.82      0.00
   16    7    1      1.28      0.00
   18    7    1      0.35      0.00
   20    7    1      0.98      0.00
   22    7    1      0.32      0.00
   24    7    1     -0.12      0.00
    1    8    1     -0.18      0.00
    3    8    1      1.39      0.00
    5    8    1      3.61      0.00
    7    8    1      8.62      0.00
    9    8    1     13.61      0.00
   11    8    1     14.33      0.00
   13    8    1     10.33      0.00
   15    8    1      5.25      0.00
   17    8    1      2.45      0.00
   19    8    1      1.06      0.00
   21    8    1     -1.15      0.00
   23    8    1     -2.83      0.00
   25    8    1     -1.69      0.00
    2    9    1      7.63      0.00
    4    9    1     -6.90      0.00
    6    9    1    -23.95      0.00
    8    9    1    -22.63      0.00
   10    9    1    -17.50      0.00
   12    9    1    -10.88      0.00
   14    9    1     -5.05      0.00
   16    9    1     -2.54      0.00
   18    9    1     -0.36      0.00
   20    9    1      0.27      0.00
   22    9    1      0.28      0.00
   24    9    1      1.28      0.00
    1   10    1      8.15      0.00
    3   10    1     12.23      0.00
    5   10    1      0.64      0.00
    7   10    1    -10.88      0.00
    9   10    1    -15.07      0.00
   11   10    1    -14.41      0.00
   13   10    1    -10.82      0.00
   15   10    1     -7.02      0.00
   17   10    1     -2.95      0.00
   19   10    1     -0.15      0.00
   21   10    1      0.67      0.00
   23   10    1      1.47      0.00
    2   11    1      2.79      0.00
    4   11    1      7.01      0.00
    6   11    1     10.89      0.00
    8   11    1     13.19      0.00
   10   11    1     15.97      0.00
   12   11    1     12.06      0.00
   14   11    1      6.95      0.00
   16   11    1      4.19      0.00
   18   11    1      1.27      0.00
   20   11    1     -1.39      0.00
   22   11    1     -0.06      0.00
   24   11    1      0.60      0.00
    1   12    1     -8.31      0.00
    3   12    1    -13.13      0.00
    5   12    1     -1.18      0.00
    7   12    1     10.92      0.00
    9   12    1     13.26      0.00
   11   12    1     11.73      0.00
   13   12    1     10.37      0.00
   15   12    1      7.66      0.00
   17   12    1      3.20      0.00
   19   12    1     -0.20      0.00
   21   12    1     -0.86      0.00
   23   12    1     -0.21      0.00
    2   13    1     -3.65      0.00
    4   13    1     -3.21      0.00
    6   13    1     -5.65      0.00
    8   13    1    -10.57      0.00
   10   13    1    -11.66      0.00
   12   13    1    -10.88      0.00
   14   13    1     -7.56      0.00
   16   13    1     -3.60      0.00
   18   13    1     -2.04      0.00
   20   13    1     -0.14      0.00
   22   13    1     -0.02      0.00
    1   14    1      5.26      0.00
    3   14    1      7.92      0.00
    5   14    1     -1.52      0.00
    7   14    1    -10.64      0.00
    9   14    1     -9.97      0.00
   11   14    1     -7.69      0.00
   13   14    1     -8.16      0.00
   15   14    1     -6.60      0.00
   17   14    1     -3.05      0.00
   19   14    1     -0.32      0.00
   21   14    1      0.28      0.00
   23   14    1     -0.08      0.00
    2   15    1     -3.78      0.00
    4   15    1     -1.02      0.00
    6   15    1      7.94      0.00
    8   15    1     10.68      0.00
   10   15    1      7.35      0.00
   12   15    1      6.31      0.00
   14   15    1      5.56      0.00
   16   15    1      4.77      0.00
   18   15    1      2.59      0.00
   20   15    1      1.26      0.00
   22   15    1      0.27      0.00
    1   16    1     -1.24      0.00
    3   16    1     -0.26      0.00
    5   16    1      5.74      0.00
    7   16    1      8.93      0.00
    9   16    1      6.43      0.00
   11   16    1      3.89      0.00
   13   16    1      4.21      0.00
   15   16    1      4.48      0.00
   17   16    1      2.45      0.00
   19   16    1      1.42      0.00
   21   16    1      1.26      0.00
    2   17    1      2.90      0.00
    4   17    1     -0.69      0.00
    6   17    1     -7.60      0.00
    8   17    1     -7.29      0.00
   10   17    1     -2.40      0.00
   12   17    1     -1.04      0.00
   14   17    1     -3.67      0.00
   16   17    1     -4.32      0.00
   18   17    1     -2.97      0.00
   20   17    1     -3.36      0.00
   22   17    1     -0.62      0.00
    1   18    1     -1.86      0.00
    3   18    1     -5.45      0.00
    5   18    1     -8.38      0.00
    7   18    1     -7.28      0.00
    9   18    1     -3.30      0.00
   11   18    1     -0.55      0.00
   13   18    1     -0.83      0.00
   15   18    1     -1.88      0.00
   17   18    1     -1.70      0.00
   19   18    1     -3.18      0.00
   21   18    1     -2.12      0.00
    2   19    1      2.50      0.00
    4   19    1      3.79      0.00
    6   19    1      3.35      0.00
    8   19    1      2.77      0.00
   10   19    1      0.33      0.00
   12   19    1      0.62      0.00
   14   19    1      2.44      0.00
   16   19    1      1.63      0.00
   18   19    1      3.02      0.00
   20   19    1      3.92      0.00
    1   20    1      2.56      0.00
    3   20    1      7.02      0.00
    5   20    1      8.95      0.00
    7   20    1      6.95      0.00
    9   20    1      2.10      0.00
   11   20    1     -1.31      0.00
   13   20    1     -1.76      0.00
   15   20    1     -0.49      0.00
   17   20    1      1.55      0.00
   19   20    1      2.78      0.00
    2   21    1     -5.08      0.00
    4   21    1     -5.22      0.00
    6   21    1     -0.88      0.00
    8   21    1     -1.13      0.00
   10   21    1     -1.37      0.00
   12   21    1     -1.70      0.00
   14   21    1     -1.17      0.00
   16   21    1     -1.07      0.00
   18   21    1     -1.90      0.00
    1   22    1     -2.50      0.00
    3   22    1     -6.62      0.00
    5   22    1     -7.19      0.00
    7   22    1     -4.87      0.00
    9   22    1     -1.21      0.00
   11   22    1      1.55      0.00
   13   22    1      2.73      0.00
   15   22    1      1.69      0.00
   17   22    1     -1.14      0.00
    2   23    1      2.70      0.00
    4   23    1      2.79      0.00
    6   23    1      0.55      0.00
    8   23    1      0.44      0.00
   10   23    1      0.51      0.00
   12   23    1     -0.08      0.00
   14   23    1     -0.39      0.00
   16   23    1      1.18      0.00
    1   24    1      2.04      0.00
    3   24    1      4.36      0.00
    5   24    1      3.72      0.00
    7   24    1      1.48      0.00
    9   24    1     -0.90      0.00
   11   24    1     -1.99      0.00
   13   24    1     -2.39      0.00
   15   24    1     -1.93      0.00
    2   25    1      1.32      0.00
    4   25    1      1.92      0.00
    6   25    1     -0.89      0.00
    8   25    1     -0.82      0.00
   10   25    1      0.62      0.00
   12   25    1      2.50      0.00
   14   25    1      2.30      0.00
    1   26    1     -1.02      0.00
    3   26    1     -1.32      0.00
    5   26    1     -0.71      0.00
    7   26    1      0.40      0.00
    9   26    1      2.30      0.00
   11   26    1      2.39      0.00
   13   26    1      1.62      0.00
   15   26    1      1.28      0.00
    2   27    1     -1.89      0.00
    4   27    1     -2.57      0.00
    6   27    1      0.81      0.00
    8   27    1      0.82      0.00
   10   27    1     -1.08      0.00
   12   27    1     -1.60      0.00
   14   27    1     -0.98      0.00
    1   28    1      0.25      0.00
    3   28    1     -0.02      0.00
    5   28    1     -1.11      0.00
    7   28    1     -2.01      0.00
    9   28    1     -2.30      0.00
   11   28    1     -1.18      0.00
   13   28    1     -0.13      0.00
    2   29    1     -0.02      0.00
    4   29    1     -1.11      0.00
    6   29    1      1.01      0.00
    8   29    1      0.77      0.00
   10   29    1      0.77      0.00
    1   30    1      0.01      0.00
    3   30    1      0.00      0.00
    5   30    1      1.62      0.00
    7   30    1      2.52      0.00
    9   30    1      0.88      0.00
    2   31    1      0.75      0.00
    4   31    1      1.94      0.00
    6   31    1     -1.76      0.00
    1   32    1      0.06      0.00
    3   32    1     -0.09      0.00
    5   32    1     -1.20      0.00
    0    0    2    -39.36      0.00
    2    0    2      0.52      0.00
    4    0    2      6.34      0.00
    6    0    2    -18.44      0.00
    8    0    2    -32.57      0.00
   10    0    2    -31.47      0.00
   12    0    2    -23.28      0.00
   14    0    2     -9.78      0.00
   16    0    2      0.28      0.00
   18    0    2      2.82      0.00
   20    0    2      1.36      0.00
   22    0    2      0.07      0.00
   24    0    2     -0.61      0.00
   26    0    2     -0.58      0.00
    1    1    2   -231.06      0.00
    3    1    2    -94.62      0.00
    5    1    2    -22.28      0.00
    7    1    2    -18.15      0.00
    9    1    2    -22.82      0.00
   11    1    2    -15.84      0.00
   13    1    2     -5.57      0.00
   15    1    2     -2.76      0.00
   17    1    2      0.68      0.00
   19    1    2      3.05      0.00
   21    1    2      3.80      0.00
   23    1    2      2.81      0.00
   25    1    2      1.69      0.00
    0    2    2     -9.51      0.00
    2    2    2     -5.74      0.00
    4    2    2     18.12      0.00
    6    2    2     29.23      0.00
    8    2    2     29.80      0.00
   10    2    2     25.06      0.00
   12    2    2     18.43      0.00
   14    2    2      9.90      0.00
   16    2    2      0.90      0.00
   18    2    2     -2.15      0.00
   20    2    2      0.50      0.00
   22    2    2      0.97      0.00
   24    2    2      0.91      0.00
    1    3    2    138.45      0.00
    3    3    2     94.07      0.00
    5    3    2     50.68      0.00
    7    3    2     30.23      0.00
    9    3    2     22.34      0.00
   11    3    2     11.76      0.00
   13    3    2      5.07      0.00
   15    3    2      5.17      0.00
   17    3    2      1.27      0.00
   19    3    2     -2.98      0.00
   21    3    2     -2.71      0.00
   23    3    2     -2.17      0.00
   25    3    2     -1.25      0.00
    0    4    2     54.16      0.00
    2    4    2      4.20      0.00
    4    4    2    -45.59      0.00
    6    4    2    -40.93      0.00
    8    4    2    -22.01      0.00
   10    4    2    -11.67      0.00
   12    4    2     -8.81      0.00
   14    4    2     -7.17      0.00
   16    4    2     -2.16      0.00
   18    4    2     -1.42      0.00
   20    4    2     -3.97      0.00
   22    4    2     -2.29      0.00
   24    4    2     -1.39      0.00
    1    5    2    -55.81      0.00
    3    5    2    -76.71      0.00
    5    5    2    -70.05      0.00
    7    5    2    -43.52      0.00
    9    5    2    -20.58      0.00
   11    5    2     -8.63      0.00
   13    5    2     -3.46      0.00
   15    5    2     -2.17      0.00
   17    5    2     -1.71      0.00
   19    5    2      1.10      0.00
   21    5    2      2.15      0.00
   23    5    2      1.27      0.00
   25    5    2     -0.32      0.00
    0    6    2    -16.05      0.00
    2    6    2     12.46      0.00
    4    6    2     34.45      0.00
    6    6    2     29.77      0.00
    8    6    2     14.41      0.00
   10    6    2      6.26      0.00
   12    6    2      2.89      0.00
   14    6    2      2.95      0.00
   16    6    2      2.73      0.00
   18    6    2      4.84      0.00
   20    6    2      5.05      0.00
   22    6    2      2.61      0.00
   24    6    2      1.62      0.00
    1    7    2     16.39      0.00
    3    7    2     52.45      0.00
    5    7    2     66.15      0.00
    7    7    2     44.85      0.00
    9    7    2     19.88      0.00
   11    7    2      9.03      0.00
   13    7    2      3.80      0.00
   15    7    2      0.25      0.00
   17    7    2      0.23      0.00
   19    7    2     -0.11      0.00
   21    7    2     -1.83      0.00
   23    7    2     -1.88      0.00
   25    7    2      0.73      0.00
    0    8    2    -33.90      0.00
    2    8    2    -25.77      0.00
    4    8    2     -9.51      0.00
    6    8    2     -7.41      0.00
    8    8    2    -10.56      0.00
   10    8    2     -8.61      0.00
   12    8    2     -1.31      0.00
   14    8    2     -2.58      0.00
   16    8    2     -4.34      0.00
   18    8    2     -4.54      0.00
   20    8    2     -3.60      0.00
   22    8    2     -3.46      0.00
   24    8    2     -1.37      0.00
    1    9    2     -5.81      0.00
    3    9    2    -33.33      0.00
    5    9    2    -46.20      0.00
    7    9    2    -34.36      0.00
    9    9    2    -17.97      0.00
   11    9    2     -9.48      0.00
   13    9    2     -5.38      0.00
   15    9    2     -1.16      0.00
   17    9    2      1.15      0.00
   19    9    2      0.34      0.00
   21    9    2     -0.13      0.00
   23    9    2      1.01      0.00
   25    9    2      0.57      0.00
    0   10    2     45.21      0.00
    2   10    2     25.97      0.00
    4   10    2     -1.56      0.00
    6   10    2     -2.33      0.00
    8   10    2      6.20      0.00
   10   10    2      5.57      0.00
   12   10    2      0.76      0.00
   14   10    2      2.44      0.00
   16   10    2      5.05      0.00
   18   10    2      4.63      0.00
   20   10    2      2.20      0.00
   22   10    2      2.62      0.00
   24   10    2      0.41      0.00
    1   11    2      8.87      0.00
    3   11    2     18.63      0.00
    5   11    2     24.58      0.00
    7   11    2     21.01      0.00
    9   11    2     12.06      0.00
   11   11    2      9.12      0.00
   13   11    2      6.31      0.00
   15   11    2      0.62      0.00
   17   11    2     -0.84      0.00
   19   11    2      0.46      0.00
   21   11    2      1.16      0.00
   23   11    2      0.77      0.00
    0   12    2    -26.84      0.00
    2   12    2    -17.75      0.00
    4   12    2     -4.68      0.00
    6   12    2     -1.83      0.00
    8   12    2     -0.73      0.00
   10   12    2      0.55      0.00
   12   12    2     -0.60      0.00
   14   12    2     -1.34      0.00
   16   12    2     -4.14      0.00
   18   12    2     -4.37      0.00
   20   12    2     -1.34      0.00
   22   12    2      0.27      0.00
   24   12    2      0.63      0.00
    1   13    2    -10.14      0.00
    3   13    2    -10.07      0.00
    5   13    2    -10.35      0.00
    7   13    2     -9.36      0.00
    9   13    2     -6.30      0.00
   11   13    2     -7.05      0.00
   13   13    2     -6.41      0.00
   15   13    2     -1.80      0.00
   17   13    2     -0.39      0.00
   19   13    2     -1.56      0.00
   21   13    2     -0.71      0.00
   23   13    2     -0.59      0.00
    0   14    2     10.61      0.00
    2   14    2     11.46      0.00
    4   14    2     11.57      0.00
    6   14    2      4.36      0.00
    8   14    2     -2.46      0.00
   10   14    2     -3.30      0.00
   12   14    2      1.33      0.00
   14   14    2      2.93      0.00
   16   14    2      3.31      0.00
   18   14    2      2.26      0.00
   20   14    2      1.18      0.00
   22   14    2     -0.70      0.00
    1   15    2      9.86      0.00
    3   15    2      5.71      0.00
    5   15    2      1.06      0.00
    7   15    2      1.51      0.00
    9   15    2      3.29      0.00
   11   15    2      3.87      0.00
   13   15    2      5.48      0.00
   15   15    2      3.39      0.00
   17   15    2      2.04      0.00
   19   15    2      2.28      0.00
   21   15    2     -0.04      0.00
    0   16    2     -9.42      0.00
    2   16    2     -9.07      0.00
    4   16    2     -7.59      0.00
    6   16    2     -1.40      0.00
    8   16    2      1.99      0.00
   10   16    2      1.33      0.00
   12   16    2     -3.22      0.00
   14   16    2     -3.40      0.00
   16   16    2     -2.29      0.00
   18   16    2     -1.94      0.00
   20   16    2     -1.18      0.00
   22   16    2      0.17      0.00
    1   17    2     -7.41      0.00
    3   17    2     -2.91      0.00
    5   17    2      2.34      0.00
    7   17    2      1.13      0.00
    9   17    2     -0.96      0.00
   11   17    2     -1.72      0.00
   13   17    2     -3.40      0.00
   15   17    2     -2.98      0.00
   17   17    2     -3.54      0.00
   19   17    2     -1.43      0.00
   21   17    2      1.25      0.00
    0   18    2      9.82      0.00
    2   18    2      6.69      0.00
    4   18    2      1.63      0.00
    6   18    2     -0.22      0.00
    8   18    2      0.92      0.00
   10   18    2      2.33      0.00
   12   18    2      3.06      0.00
   14   18    2      0.75      0.00
   16   18    2      0.93      0.00
   18   18    2      0.88      0.00
   20   18    2      0.70      0.00
    1   19    2      3.30      0.00
    3   19    2      1.59      0.00
    5   19    2     -1.40      0.00
    7   19    2     -0.27      0.00
    9   19    2     -0.29      0.00
   11   19    2     -0.39      0.00
   13   19    2      0.54      0.00
   15   19    2      2.29      0.00
   17   19    2      2.06      0.00
   19   19    2     -0.63      0.00
    0   20    2     -5.89      0.00
    2   20    2     -4.19      0.00
    4   20    2     -1.62      0.00
    6   20    2     -1.36      0.00
    8   20    2     -1.78      0.00
   10   20    2     -1.87      0.00
   12   20    2     -1.55      0.00
   14   20    2      0.02      0.00
   16   20    2     -0.32      0.00
   18   20    2      1.38      0.00
   20   20    2      0.09      0.00
    1   21    2     -0.12      0.00
    3   21    2      0.70      0.00
    5   21    2      1.48      0.00
    7   21    2     -0.65      0.00
    9   21    2     -1.17      0.00
   11   21    2     -0.22      0.00
   13   21    2      0.11      0.00
   15   21    2     -1.44      0.00
   17   21    2     -0.11      0.00
    0   22    2     -0.23      0.00
    2   22    2      1.37      0.00
    4   22    2      3.85      0.00
    6   22    2      3.53      0.00
    8   22    2      0.97      0.00
   10   22    2     -0.51      0.00
   12   22    2      0.45      0.00
   14   22    2      0.91      0.00
   16   22    2      1.15      0.00
    1   23    2     -2.44      0.00
    3   23    2     -2.69      0.00
    5   23    2     -1.21      0.00
    7   23    2      0.29      0.00
    9   23    2      1.87      0.00
   11   23    2      2.27      0.00
   13   23    2      1.27      0.00
   15   23    2      0.66      0.00
    0   24    2      2.65      0.00
    2   24    2      0.50      0.00
    4   24    2     -3.03      0.00
    6   24    2     -4.41      0.00
    8   24    2     -1.60      0.00
   10   24    2      0.46      0.00
   12   24    2      1.06      0.00
   14   24    2     -0.09      0.00
   16   24    2     -0.69      0.00
    1   25    2      2.13      0.00
    3   25    2      1.71      0.00
    5   25    2      0.02      0.00
    7   25    2      0.09      0.00
    9   25    2     -0.59      0.00
   11   25    2     -2.13      0.00
   13   25    2     -1.76      0.00
   15   25    2      0.36      0.00
    0   26    2     -0.75      0.00
    2   26    2     -0.23      0.00
    4   26    2      0.04      0.00
    6   26    2      2.51      0.00
    8   26    2      2.44      0.00
   10   26    2      1.86      0.00
   12   26    2     -0.14      0.00
   14   26    2     -0.80      0.00
    1   27    2      0.28      0.00
    3   27    2      0.23      0.00
    5   27    2     -0.70      0.00
    7   27    2      0.04      0.00
    9   27    2      0.60      0.00
   11   27    2      1.30      0.00
   13   27    2      0.88      0.00
    0   28    2     -0.53      0.00
    2   28    2     -0.26      0.00
    4   28    2      2.11      0.00
    6   28    2      0.44      0.00
    8   28    2     -2.86      0.00
   10   28    2     -2.88      0.00
   12   28    2     -0.99      0.00
    1   29    2     -1.23      0.00
    3   29    2     -0.87      0.00
    5   29    2      0.86      0.00
    7   29    2     -0.11      0.00
    9   29    2     -0.16      0.00
   11   29    2      0.40      0.00
    0   30    2      0.36      0.00
    2   30    2     -0.68      0.00
    4   30    2     -1.95      0.00
    6   30    2     -0.72      0.00
    8   30    2      2.07      0.00
   10   30    2      1.44      0.00
    1   31    2      0.18      0.00
    3   31    2     -0.13      0.00
    5   31    2      0.30      0.00
    7   31    2     -0.51      0.00
    0   32    2     -0.77      0.00
    2   32    2      1.01      0.00
    4   32    2      0.79      0.00
    6   32    2      0.44      0.00
    2    1    3      5.58      0.00
    4    1    3     -6.55      0.00
    6    1    3     -7.42      0.00
    8    1    3     -3.06      0.00
   10    1    3     -1.52      0.00
   12    1    3      1.13      0.00
   14    1    3      2.05      0.00
   16    1    3      1.12      0.00
   18    1    3      0.76      0.00
   20    1    3      0.35      0.00
   22    1    3      0.11      0.00
   24    1    3     -0.31      0.00
    1    2    3     48.23      0.00
    3    2    3     62.58      0.00
    5    2    3     23.46      0.00
    7    2    3      0.14      0.00
    9    2    3     -6.54      0.00
   11    2    3     -3.04      0.00
   13    2    3      1.38      0.00
   15    2    3      2.60      0.00
   17    2    3     -0.28      0.00
   19    2    3     -0.37      0.00
   21    2    3      2.19      0.00
   23    2    3      3.06      0.00
   25    2    3      1.73      0.00
    2    3    3     13.10      0.00
    4    3    3     25.00      0.00
    6    3    3     12.91      0.00
    8    3    3      3.34      0.00
   10    3    3      2.24      0.00
   12    3    3     -2.05      0.00
   14    3    3     -5.34      0.00
   16    3    3     -4.02      0.00
   18    3    3     -1.24      0.00
   20    3    3     -0.05      0.00
   22    3    3     -0.26      0.00
   24    3    3      0.11      0.00
    1    4    3    -40.92      0.00
    3    4    3    -64.51      0.00
    5    4    3    -38.25      0.00
    7    4    3     -6.59      0.00
    9    4    3      6.34      0.00
   11    4    3      3.88      0.00
   13    4    3      1.48      0.00
   15    4    3     -2.97      0.00
   17    4    3     -2.67      0.00
   19    4    3      0.28      0.00
   21    4    3     -1.96      0.00
   23    4    3     -4.35      0.00
   25    4    3     -1.76      0.00
    2    5    3    -49.54      0.00
    4    5    3    -39.11      0.00
    6    5    3     -4.25      0.00
    8    5    3      5.14      0.00
   10    5    3     -1.02      0.00
   12    5    3     -0.29      0.00
   14    5    3      5.78      0.00
   16    5    3      5.27      0.00
   18    5    3      0.11      0.00
   20    5    3     -0.11      0.00
   22    5    3      1.14      0.00
   24    5    3      1.08      0.00
    1    6    3     17.19      0.00
    3    6    3     39.15      0.00
    5    6    3     36.76      0.00
    7    6    3     18.30      0.00
    9    6    3      2.80      0.00
   11    6    3     -1.72      0.00
   13    6    3     -1.70      0.00
   15    6    3      0.66      0.00
   17    6    3      1.72      0.00
   19    6    3     -0.16      0.00
   21    6    3      0.52      0.00
   23    6    3      2.30      0.00
   25    6    3      1.56      0.00
    2    7    3     46.62      0.00
    4    7    3     30.26      0.00
    6    7    3     -3.71      0.00
    8    7    3     -8.22      0.00
   10    7    3      0.63      0.00
   12    7    3      1.61      0.00
   14    7    3     -3.78      0.00
   16    7    3     -3.35      0.00
   18    7    3      1.12      0.00
   20    7    3     -0.03      0.00
   22    7    3     -1.97      0.00
   24    7    3     -1.67      0.00
    1    8    3     -4.28      0.00
    3    8    3    -16.49      0.00
    5    8    3    -25.99      0.00
    7    8    3    -24.05      0.00
    9    8    3    -10.72      0.00
   11    8    3     -2.88      0.00
   13    8    3     -0.11      0.00
   15    8    3      1.03      0.00
   17    8    3     -0.69      0.00
   19    8    3     -0.97      0.00
   21    8    3     -0.93      0.00
   23    8    3      0.85      0.00
   25    8    3      0.36      0.00
    2    9    3    -10.80      0.00
    4    9    3     -6.06      0.00
    6    9    3      0.65      0.00
    8    9    3     -1.03      0.00
   10    9    3     -0.64      0.00
   12    9    3     -0.20      0.00
   14    9    3      0.99      0.00
   16    9    3      1.20      0.00
   18    9    3     -1.17      0.00
   20    9    3     -1.39      0.00
   22    9    3      1.24      0.00
   24    9    3      1.93      0.00
    1   10    3     -0.64      0.00
    3   10    3      4.85      0.00
    5   10    3     16.31      0.00
    7   10    3     18.77      0.00
    9   10    3     12.31      0.00
   11   10    3      7.09      0.00
   13   10    3     -0.26      0.00
   15   10    3     -1.54      0.00
   17   10    3      1.85      0.00
   19   10    3      1.32      0.00
   21   10    3      1.28      0.00
   23   10    3     -0.76      0.00
    2   11    3    -17.98      0.00
    4   11    3    -11.41      0.00
    6   11    3      5.58      0.00
    8   11    3      8.50      0.00
   10   11    3      0.87      0.00
   12   11    3      0.31      0.00
   14   11    3      2.01      0.00
   16   11    3      1.52      0.00
   18   11    3      0.60      0.00
   20   11    3      1.22      0.00
   22   11    3     -0.47      0.00
   24   11    3     -1.75      0.00
    1   12    3     -1.16      0.00
    3   12    3     -3.61      0.00
    5   12    3     -7.49      0.00
    7   12    3    -11.20      0.00
    9   12    3    -10.20      0.00
   11   12    3     -7.54      0.00
   13   12    3     -1.57      0.00
   15   12    3      1.39      0.00
   17   12    3     -0.83      0.00
   19   12    3     -1.22      0.00
   21   12    3     -0.81      0.00
   23   12    3     -0.71      0.00
    2   13    3     19.29      0.00
    4   13    3     11.73      0.00
    6   13    3     -5.26      0.00
    8   13    3     -6.46      0.00
   10   13    3     -0.36      0.00
   12   13    3     -0.75      0.00
   14   13    3     -3.72      0.00
   16   13    3     -3.66      0.00
   18   13    3     -0.45      0.00
   20   13    3      0.63      0.00
   22   13    3      0.69      0.00
    1   14    3      1.52      0.00
    3   14    3      1.24      0.00
    5   14    3      1.19      0.00
    7   14    3      6.11      0.00
    9   14    3      6.54      0.00
   11   14    3      5.42      0.00
   13   14    3      3.65      0.00
   15   14    3      0.63      0.00
   17   14    3      0.55      0.00
   19   14    3      0.70      0.00
   21   14    3      0.58      0.00
   23   14    3      1.01      0.00
    2   15    3     -6.24      0.00
    4   15    3     -4.52      0.00
    6   15    3      0.02      0.00
    8   15    3      0.84      0.00
   10   15    3      0.00      0.00
   12   15    3      1.60      0.00
   14   15    3      3.52      0.00
   16   15    3      2.22      0.00
   18   15    3      0.49      0.00
   20   15    3     -0.46      0.00
   22   15    3     -0.84      0.00
    1   16    3     -0.72      0.00
    3   16    3      0.35      0.00
    5   16    3      0.90      0.00
    7   16    3     -0.72      0.00
    9   16    3     -2.56      0.00
   11   16    3     -3.20      0.00
   13   16    3     -3.39      0.00
   15   16    3     -3.46      0.00
   17   16    3     -1.13      0.00
   19   16    3     -0.05      0.00
   21   16    3     -0.63      0.00
    2   17    3     -0.58      0.00
    4   17    3      0.79      0.00
    6   17    3      2.12      0.00
    8   17    3      1.52      0.00
   10   17    3     -0.84      0.00
   12   17    3     -2.27      0.00
   14   17    3     -1.81      0.00
   16   17    3     -0.44      0.00
   18   17    3     -0.73      0.00
   20   17    3      0.09      0.00
    1   18    3      0.50      0.00
    3   18    3     -0.80      0.00
    5   18    3     -2.23      0.00
    7   18    3     -2.98      0.00
    9   18    3     -0.86      0.00
   11   18    3      1.71      0.00
   13   18    3      3.71      0.00
   15   18    3      4.16      0.00
   17   18    3      1.19      0.00
   19   18    3      2.21      0.00
   21   18    3      0.96      0.00
    2   19    3     -1.02      0.00
    4   19    3     -0.63      0.00
    6   19    3      1.56      0.00
    8   19    3      0.99      0.00
   10   19    3      0.26      0.00
   12   19    3     -0.85      0.00
   14   19    3     -0.91      0.00
   16   19    3      0.15      0.00
   18   19    3      1.49      0.00
   20   19    3     -0.04      0.00
    1   20    3      0.55      0.00
    3   20    3      1.82      0.00
    5   20    3      2.85      0.00
    7   20    3      2.09      0.00
    9   20    3      0.08      0.00
   11   20    3     -2.00      0.00
   13   20    3     -3.09      0.00
   15   20    3     -3.12      0.00
   17   20    3     -2.36      0.00
   19   20    3     -2.38      0.00
    2   21    3      2.60      0.00
    4   21    3      0.68      0.00
    6   21    3     -3.60      0.00
    8   21    3     -2.85      0.00
   10   21    3     -0.04      0.00
   12   21    3      2.97      0.00
   14   21    3      3.54      0.00
   16   21    3      1.33      0.00
   18   21    3     -1.06      0.00
    1   22    3     -1.34      0.00
    3   22    3     -2.27      0.00
    5   22    3     -3.20      0.00
    7   22    3     -1.30      0.00
    9   22    3      2.34      0.00
   11   22    3      2.88      0.00
   13   22    3      2.12      0.00
   15   22    3      2.38      0.00
   17   22    3      3.02      0.00
    2   23    3      0.36      0.00
    4   23    3      0.68      0.00
    6   23    3      1.04      0.00
    8   23    3      1.08      0.00
   10   23    3      0.72      0.00
   12   23    3     -0.81      0.00
   14   23    3     -3.27      0.00
   16   23    3     -2.39      0.00
    1   24    3      1.84      0.00
    3   24    3      3.52      0.00
    5   24    3      3.76      0.00
    7   24    3      1.50      0.00
    9   24    3     -2.37      0.00
   11   24    3     -2.26      0.00
   13   24    3     -1.30      0.00
   15   24    3     -0.61      0.00
    2   25    3     -2.73      0.00
    4   25    3     -2.22      0.00
    6   25    3      1.01      0.00
    8   25    3      1.64      0.00
   10   25    3      0.94      0.00
   12   25    3     -0.48      0.00
   14   25    3      0.64      0.00
    1   26    3     -1.58      0.00
    3   26    3     -3.79      0.00
    5   26    3     -2.69      0.00
    7   26    3      0.60      0.00
    9   26    3      1.69      0.00
   11   26    3      0.46      0.00
   13   26    3      0.25      0.00
    2   27    3      1.73      0.00
    4   27    3      1.72      0.00
    6   27    3     -1.65      0.00
    8   27    3     -3.00      0.00
   10   27    3     -2.01      0.00
   12   27    3     -0.56      0.00
   14   27    3     -0.16      0.00
    1   28    3      0.66      0.00
    3   28    3      1.32      0.00
    5   28    3      0.64      0.00
    7   28    3     -1.18      0.00
    9   28    3     -0.53      0.00
   11   28    3      0.65      0.00
   13   28    3     -0.36      0.00
    2   29    3     -0.37      0.00
    4   29    3      0.49      0.00
    6   29    3      1.29      0.00
    8   29    3      2.52      0.00
   10   29    3      1.15      0.00
    1   30    3     -0.15      0.00
    3   30    3      1.09      0.00
    5   30    3      0.99      0.00
    7   30    3      0.47      0.00
    9   30    3      0.43      0.00
    2   31    3      0.06      0.00
    4   31    3     -0.91      0.00
    6   31    3     -0.23      0.00
    8   31    3     -1.24      0.00
    1   32    3     -0.06      0.00
    3   32    3     -0.82      0.00
    5   32    3     -1.16      0.00
    0    0    4     18.20      0.00
    2    0    4     13.30      0.00
    4    0    4     19.93      0.00
    6    0    4     17.07      0.00
    8    0    4      5.59      0.00
   10    0    4     -0.94      0.00
   12    0    4      1.92      0.00
   14    0    4      1.70      0.00
   16    0    4      4.48      0.00
   18    0    4      4.70      0.00
   20    0    4      2.65      0.00
   22    0    4      1.46      0.00
   24    0    4     -2.17      0.00
    1    1    4     24.77      0.00
    3    1    4     15.16      0.00
    5    1    4     21.81      0.00
    7    1    4     14.02      0.00
    9    1    4      9.48      0.00
   11    1    4     13.56      0.00
   13    1    4     12.28      0.00
   15    1    4      3.35      0.00
   17    1    4     -3.45      0.00
   19    1    4      1.62      0.00
   21    1    4      3.99      0.00
   23    1    4      1.02      0.00
   25    1    4     -1.05      0.00
    0    2    4     -3.14      0.00
    2    2    4    -10.17      0.00
    4    2    4    -23.26      0.00
    6    2    4    -17.40      0.00
    8    2    4     -3.50      0.00
   10    2    4      2.03      0.00
   12    2    4     -2.25      0.00
   14    2    4     -2.48      0.00
   16    2    4     -2.86      0.00
   18    2    4     -3.42      0.00
   20    2    4     -2.96      0.00
   22    2    4     -2.01      0.00
   24    2    4     -0.14      0.00
    1    3    4     -1.78      0.00
    3    3    4    -30.47      0.00
    5    3    4    -31.67      0.00
    7    3    4    -15.00      0.00
    9    3    4    -10.17      0.00
   11    3    4     -8.80      0.00
   13    3    4     -8.05      0.00
   15    3    4     -4.04      0.00
   17    3    4      1.25      0.00
   19    3    4     -1.02      0.00
   21    3    4     -3.89      0.00
   23    3    4     -2.53      0.00
   25    3    4     -1.09      0.00
    0    4    4     -8.79      0.00
    2    4    4      7.92      0.00
    4    4    4     20.40      0.00
    6    4    4     10.60      0.00
    8    4    4     -1.80      0.00
   10    4    4     -2.84      0.00
   12    4    4      2.98      0.00
   14    4    4      4.52      0.00
   16    4    4      1.58      0.00
   18    4    4      1.82      0.00
   20    4    4      2.92      0.00
   22    4    4      1.89      0.00
   24    4    4      1.98      0.00
    1    5    4      6.05      0.00
    3    5    4     30.17      0.00
    5    5    4     29.95      0.00
    7    5    4     16.71      0.00
    9    5    4      8.34      0.00
   11    5    4      3.88      0.00
   13    5    4      1.75      0.00
   15    5    4      0.41      0.00
   17    5    4      1.77      0.00
   19    5    4      3.02      0.00
   21    5    4      3.28      0.00
   23    5    4      3.71      0.00
   25    5    4      3.06      0.00
    0    6    4    -12.47      0.00
    2    6    4    -11.88      0.00
    4    6    4     -0.36      0.00
    6    6    4      6.93      0.00
    8    6    4      3.74      0.00
   10    6    4     -2.44      0.00
   12    6    4     -3.85      0.00
   14    6    4     -4.66      0.00
   16    6    4     -1.64      0.00
   18    6    4     -0.76      0.00
   20    6    4     -1.19      0.00
   22    6    4     -1.35      0.00
   24    6    4     -1.21      0.00
    1    7    4    -19.68      0.00
    3    7    4    -17.70      0.00
    5    7    4    -15.65      0.00
    7    7    4    -13.93      0.00
    9    7    4     -9.49      0.00
   11    7    4     -2.42      0.00
   13    7    4      1.99      0.00
   15    7    4     -0.43      0.00
   17    7    4     -4.46      0.00
   19    7    4     -3.77      0.00
   21    7    4     -1.72      0.00
   23    7    4     -1.96      0.00
   25    7    4     -3.36      0.00
    0    8    4     34.57      0.00
    2    8    4     13.10      0.00
    4    8    4    -19.60      0.00
    6    8    4    -18.95      0.00
    8    8    4     -0.11      0.00
   10    8    4      9.30      0.00
   12    8    4      4.75      0.00
   14    8    4      2.96      0.00
   16    8    4      1.43      0.00
   18    8    4     -0.08      0.00
   20    8    4     -1.55      0.00
   22    8    4      0.87      0.00
   24    8    4      0.68      0.00
    1    9    4     22.56      0.00
    3    9    4      7.58      0.00
    5    9    4      0.46      0.00
    7    9    4      8.38      0.00
    9    9    4     10.68      0.00
   11    9    4      1.82      0.00
   13    9    4     -2.18      0.00
   15    9    4      3.05      0.00
   17    9    4      5.61      0.00
   19    9    4      2.58      0.00
   21    9    4      1.17      0.00
   23    9    4      1.19      0.00
    0   10    4    -23.37      0.00
    2   10    4     -4.87      0.00
    4   10    4     19.33      0.00
    6   10    4     13.63      0.00
    8   10    4     -2.55      0.00
   10   10    4     -8.49      0.00
   12   10    4     -4.19      0.00
   14   10    4     -2.24      0.00
   16   10    4     -2.11      0.00
   18   10    4     -0.41      0.00
   20   10    4      2.90      0.00
   22   10    4      1.39      0.00
   24   10    4      0.45      0.00
    1   11    4    -18.26      0.00
    3   11    4     -1.25      0.00
    5   11    4      4.17      0.00
    7   11    4     -5.70      0.00
    9   11    4     -7.20      0.00
   11   11    4     -3.07      0.00
   13   11    4     -0.28      0.00
   15   11    4     -1.97      0.00
   17   11    4     -4.95      0.00
   19   11    4     -2.55      0.00
   21   11    4     -0.72      0.00
   23   11    4     -1.30      0.00
    0   12    4     -5.71      0.00
    2   12    4     -6.43      0.00
    4   12    4     -5.22      0.00
    6   12    4     -0.38      0.00
    8   12    4      3.22      0.00
   10   12    4      4.02      0.00
   12   12    4      2.11      0.00
   14   12    4      1.28      0.00
   16   12    4      2.07      0.00
   18   12    4      0.14      0.00
   20   12    4     -2.23      0.00
   22   12    4     -2.72      0.00
   24   12    4     -1.32      0.00
    1   13    4      8.19      0.00
    3   13    4      0.79      0.00
    5   13    4     -0.40      0.00
    7   13    4      3.50      0.00
    9   13    4      4.12      0.00
   11   13    4      4.65      0.00
   13   13    4      3.51      0.00
   15   13    4      2.02      0.00
   17   13    4      2.20      0.00
   19   13    4      2.02      0.00
   21   13    4      0.72      0.00
   23   13    4      0.55      0.00
    0   14    4     20.73      0.00
    2   14    4     11.68      0.00
    4   14    4     -3.96      0.00
    6   14    4     -7.11      0.00
    8   14    4     -3.05      0.00
   10   14    4     -0.90      0.00
   12   14    4     -1.32      0.00
   14   14    4     -0.82      0.00
   16   14    4     -1.22      0.00
   18   14    4      0.96      0.00
   20   14    4      1.27      0.00
   22   14    4      1.52      0.00
    1   15    4     -1.61      0.00
    3   15    4     -1.80      0.00
    5   15    4     -0.47      0.00
    7   15    4     -0.53      0.00
    9   15    4     -3.11      0.00
   11   15    4     -4.56      0.00
   13   15    4     -5.15      0.00
   15   15    4     -2.57      0.00
   17   15    4     -0.17      0.00
   19   15    4     -1.06      0.00
   21   15    4     -0.77      0.00
    0   16    4    -16.06      0.00
    2   16    4     -9.90      0.00
    4   16    4      1.82      0.00
    6   16    4      5.39      0.00
    8   16    4      3.07      0.00
   10   16    4      0.47      0.00
   12   16    4      1.08      0.00
   14   16    4      0.46      0.00
   16   16    4      0.62      0.00
   18   16    4     -0.53      0.00
   20   16    4      0.07      0.00
   22   16    4     -0.68      0.00
    1   17    4     -1.67      0.00
    3   17    4      0.27      0.00
    5   17    4     -0.07      0.00
    7   17    4      0.16      0.00
    9   17    4      2.10      0.00
   11   17    4      4.52      0.00
   13   17    4      4.27      0.00
   15   17    4      1.42      0.00
   17   17    4      1.41      0.00
   19   17    4      0.41      0.00
   21   17    4     -0.67      0.00
    0   18    4      6.07      0.00
    2   18    4      6.37      0.00
    4   18    4      4.29      0.00
    6   18    4     -0.01      0.00
    8   18    4     -3.86      0.00
   10   18    4     -2.99      0.00
   12   18    4     -0.58      0.00
   14   18    4      1.02      0.00
   16   18    4      0.56      0.00
   18   18    4     -0.03      0.00
   20   18    4     -1.43      0.00
    1   19    4      3.01      0.00
    3   19    4      0.25      0.00
    5   19    4     -1.49      0.00
    7   19    4     -2.04      0.00
    9   19    4     -0.38      0.00
   11   19    4     -1.89      0.00
   13   19    4     -1.93      0.00
   15   19    4     -1.53      0.00
   17   19    4     -1.25      0.00
   19   19    4      0.77      0.00
   21   19    4     -0.12      0.00
    0   20    4     -2.42      0.00
    2   20    4     -4.17      0.00
    4   20    4     -4.24      0.00
    6   20    4     -1.90      0.00
    8   20    4      1.30      0.00
   10   20    4      2.00      0.00
   12   20    4      0.71      0.00
   14   20    4     -0.56      0.00
   16   20    4     -0.65      0.00
   18   20    4     -0.20      0.00
   20   20    4      0.63      0.00
    1   21    4     -2.75      0.00
    3   21    4      0.23      0.00
    5   21    4      2.67      0.00
    7   21    4      2.74      0.00
    9   21    4     -0.82      0.00
   11   21    4     -1.23      0.00
   13   21    4      0.20      0.00
   15   21    4      1.57      0.00
   17   21    4      0.32      0.00
   19   21    4     -0.25      0.00
    0   22    4      3.78      0.00
    2   22    4      2.25      0.00
    4   22    4     -0.30      0.00
    6   22    4      0.35      0.00
    8   22    4      2.03      0.00
   10   22    4      2.50      0.00
   12   22    4      1.35      0.00
   14   22    4     -0.62      0.00
   16   22    4     -0.66      0.00
   18   22    4      0.07      0.00
    1   23    4      2.24      0.00
    3   23    4      0.00      0.00
    5   23    4     -2.59      0.00
    7   23    4     -1.40      0.00
    9   23    4      1.41      0.00
   11   23    4      2.58      0.00
   13   23    4      1.70      0.00
   15   23    4     -0.10      0.00
   17   23    4     -1.57      0.00
    0   24    4     -2.90      0.00
    2   24    4     -0.39      0.00
    4   24    4      1.27      0.00
    6   24    4      0.40      0.00
    8   24    4     -1.86      0.00
   10   24    4     -3.32      0.00
   12   24    4     -3.91      0.00
   14   24    4     -0.22      0.00
   16   24    4      0.95      0.00
    1   25    4      0.06      0.00
    3   25    4     -0.05      0.00
    5   25    4      1.56      0.00
    7   25    4      0.12      0.00
    9   25    4     -1.99      0.00
   11   25    4     -2.22      0.00
   13   25    4     -1.69      0.00
   15   25    4     -1.06      0.00
    0   26    4      0.74      0.00
    2   26    4     -0.53      0.00
    4   26    4     -0.17      0.00
    6   26    4      0.39      0.00
    8   26    4      1.92      0.00
   10   26    4      1.63      0.00
   12   26    4      2.57      0.00
   14   26    4      0.69      0.00
    1   27    4     -1.63      0.00
    3   27    4     -0.48      0.00
    5   27    4      0.68      0.00
    7   27    4      0.03      0.00
    9   27    4      0.44      0.00
   11   27    4     -0.38      0.00
   13   27    4     -1.06      0.00
    0   28    4     -0.76      0.00
    2   28    4      0.12      0.00
    4   28    4     -0.39      0.00
    6   28    4     -1.47      0.00
    8   28    4     -2.06      0.00
   10   28    4     -0.46      0.00
   12   28    4      0.14      0.00
    1   29    4      1.33      0.00
    3   29    4      0.86      0.00
    5   29    4     -1.45      0.00
    7   29    4      0.22      0.00
    9   29    4      1.23      0.00
   11   29    4      1.10      0.00
    0   30    4      1.67      0.00
    2   30    4      1.13      0.00
    4   30    4      0.69      0.00
    6   30    4      1.46      0.00
    8   30    4      0.65      0.00
   10   30    4     -0.86      0.00
    1   31    4     -0.54      0.00
    3   31    4     -0.07      0.00
    5   31    4      0.06      0.00
    7   31    4      0.27      0.00
    2   32    4     -1.24      0.00
    4   32    4      0.26      0.00
    2    1    5     -6.23      0.00
    4    1    5     -1.86      0.00
    6    1    5      2.59      0.00
    8    1    5     -0.29      0.00
   10    1    5     -3.44      0.00
   12    1    5     -1.81      0.00
   14    1    5      2.40      0.00
   16    1    5      2.68      0.00
   18    1    5     -0.83      0.00
   20    1    5     -1.18      0.00
   22    1    5     -0.53      0.00
   24    1    5      0.20      0.00
    1    2    5     -1.15      0.00
    3    2    5     16.49      0.00
    5    2    5     13.94      0.00
    7    2    5     -1.89      0.00
    9    2    5     -3.70      0.00
   11    2    5     -1.93      0.00
   13    2    5     -4.98      0.00
   15    2    5     -6.91      0.00
   17    2    5     -2.63      0.00
   19    2    5      0.15      0.00
   21    2    5      0.10      0.00
   23    2    5     -1.01      0.00
   25    2    5      1.44      0.00
    2    3    5      7.25      0.00
    4    3    5     -1.45      0.00
    6    3    5     -4.93      0.00
    8    3    5      4.39      0.00
   10    3    5      8.34      0.00
   12    3    5      4.05      0.00
   14    3    5     -4.26      0.00
   16    3    5     -6.70      0.00
   18    3    5      0.02      0.00
   20    3    5      2.07      0.00
   22    3    5      0.57      0.00
   24    3    5      0.67      0.00
    1    4    5    -18.26      0.00
    3    4    5    -38.22      0.00
    5    4    5    -15.40      0.00
    7    4    5      4.37      0.00
    9    4    5      6.36      0.00
   11    4    5      5.05      0.00
   13    4    5      7.68      0.00
   15    4    5     11.67      0.00
   17    4    5      5.93      0.00
   19    4    5     -0.90      0.00
   21    4    5     -1.73      0.00
   23    4    5      0.48      0.00
   25    4    5     -1.10      0.00
    2    5    5      8.40      0.00
    4    5    5     10.34      0.00
    6    5    5      1.52      0.00
    8    5    5     -8.94      0.00
   10    5    5     -7.23      0.00
   12    5    5     -1.37      0.00
   14    5    5      4.06      0.00
   16    5    5      6.60      0.00
   18    5    5      1.56      0.00
   20    5    5     -2.35      0.00
   22    5    5     -0.94      0.00
   24    5    5     -1.67      0.00
    1    6    5     25.85      0.00
    3    6    5     39.54      0.00
    5    6    5     10.58      0.00
    7    6    5     -8.91      0.00
    9    6    5     -9.33      0.00
   11    6    5     -6.99      0.00
   13    6    5    -10.92      0.00
   15    6    5    -12.04      0.00
   17    6    5     -4.12      0.00
   19    6    5      2.36      0.00
   21    6    5      2.18      0.00
   23    6    5     -0.54      0.00
   25    6    5     -1.71      0.00
    2    7    5    -14.03      0.00
    4    7    5     -8.69      0.00
    6    7    5      0.67      0.00
    8    7    5      4.35      0.00
   10    7    5      2.37      0.00
   12    7    5     -2.06      0.00
   14    7    5     -3.42      0.00
   16    7    5     -3.71      0.00
   18    7    5     -1.79      0.00
   20    7    5      1.36      0.00
   22    7    5      1.54      0.00
   24    7    5      1.40      0.00
    1    8    5    -14.70      0.00
    3    8    5    -21.90      0.00
    5    8    5     -5.47      0.00
    7    8    5      7.45      0.00
    9    8    5      9.27      0.00
   11    8    5     10.03      0.00
   13    8    5     12.62      0.00
   15    8    5      9.23      0.00
   17    8    5      1.89      0.00
   19    8    5     -2.57      0.00
   21    8    5     -0.78      0.00
   23    8    5      0.71      0.00
   25    8    5      2.36      0.00
    2    9    5     -1.91      0.00
    4    9    5     -1.61      0.00
    6    9    5      4.12      0.00
    8    9    5      5.25      0.00
   10    9    5      2.18      0.00
   12    9    5      1.44      0.00
   14    9    5     -0.48      0.00
   16    9    5      0.97      0.00
   18    9    5      1.68      0.00
   20    9    5      0.88      0.00
   22    9    5      0.00      0.00
   24    9    5     -1.13      0.00
    1   10    5      1.24      0.00
    3   10    5      0.98      0.00
    5   10    5      0.11      0.00
    7   10    5     -0.98      0.00
    9   10    5     -7.52      0.00
   11   10    5    -12.40      0.00
   13   10    5     -8.88      0.00
   15   10    5     -4.99      0.00
   17   10    5     -2.22      0.00
   19   10    5      1.49      0.00
   21   10    5      0.84      0.00
   23   10    5     -0.39      0.00
    2   11    5     12.30      0.00
    4   11    5      6.05      0.00
    6   11    5     -7.64      0.00
    8   11    5     -9.63      0.00
   10   11    5     -5.36      0.00
   12   11    5     -1.25      0.00
   14   11    5      3.46      0.00
   16   11    5      1.51      0.00
   18   11    5     -0.04      0.00
   20   11    5     -0.59      0.00
   22   11    5     -1.48      0.00
   24   11    5      0.03      0.00
    1   12    5      7.13      0.00
    3   12    5     11.39      0.00
    5   12    5      2.16      0.00
    7   12    5      0.10      0.00
    9   12    5      6.94      0.00
   11   12    5     10.12      0.00
   13   12    5      4.94      0.00
   15   12    5      1.00      0.00
   17   12    5      1.11      0.00
   19   12    5      0.82      0.00
   21   12    5     -0.58      0.00
   23   12    5      0.15      0.00
    2   13    5     -5.18      0.00
    4   13    5     -2.70      0.00
    6   13    5      4.85      0.00
    8   13    5      7.38      0.00
   10   13    5      4.57      0.00
   12   13    5      1.26      0.00
   14   13    5     -2.67      0.00
   16   13    5     -2.39      0.00
   18   13    5     -0.83      0.00
   20   13    5      0.09      0.00
   22   13    5      1.64      0.00
    1   14    5     -7.04      0.00
    3   14    5    -11.18      0.00
    5   14    5     -3.91      0.00
    7   14    5     -3.42      0.00
    9   14    5     -6.24      0.00
   11   14    5     -6.02      0.00
   13   14    5     -2.43      0.00
   15   14    5      0.11      0.00
   17   14    5     -0.48      0.00
   19   14    5     -1.62      0.00
   21   14    5     -1.24      0.00
   23   14    5     -1.07      0.00
    2   15    5     -5.29      0.00
    4   15    5     -2.73      0.00
    6   15    5      0.33      0.00
    8   15    5     -1.55      0.00
   10   15    5     -2.87      0.00
   12   15    5     -0.97      0.00
   14   15    5      0.95      0.00
   16   15    5      1.08      0.00
   18   15    5      0.99      0.00
   20   15    5     -0.35      0.00
   22   15    5     -1.57      0.00
    1   16    5      4.30      0.00
    3   16    5      9.03      0.00
    5   16    5      7.87      0.00
    7   16    5      4.93      0.00
    9   16    5      4.51      0.00
   11   16    5      2.28      0.00
   13   16    5     -0.09      0.00
   15   16    5      1.15      0.00
   17   16    5      0.56      0.00
   19   16    5      0.49      0.00
   21   16    5      2.33      0.00
    2   17    5      8.07      0.00
    4   17    5      4.30      0.00
    6   17    5     -3.11      0.00
    8   17    5     -3.34      0.00
   10   17    5      2.10      0.00
   12   17    5      2.48      0.00
   14   17    5      1.81      0.00
   16   17    5      0.60      0.00
   18   17    5     -0.96      0.00
   20   17    5     -0.13      0.00
    1   18    5     -3.14      0.00
    3   18    5     -8.00      0.00
    5   18    5     -8.67      0.00
    7   18    5     -3.60      0.00
    9   18    5     -1.01      0.00
   11   18    5     -0.18      0.00
   13   18    5     -0.02      0.00
   15   18    5     -1.43      0.00
   17   18    5      0.05      0.00
   19   18    5     -1.73      0.00
   21   18    5     -2.80      0.00
    2   19    5     -2.79      0.00
    4   19    5     -1.50      0.00
    6   19    5      0.62      0.00
    8   19    5      2.11      0.00
   10   19    5     -0.55      0.00
   12   19    5     -2.09      0.00
   14   19    5     -3.13      0.00
   16   19    5     -1.58      0.00
   18   19    5     -0.89      0.00
   20   19    5      0.46      0.00
    1   20    5      2.79      0.00
    3   20    5      6.50      0.00
    5   20    5      6.01      0.00
    7   20    5      2.00      0.00
    9   20    5     -1.50      0.00
   11   20    5     -0.74      0.00
   13   20    5      0.74      0.00
   15   20    5      1.70      0.00
   17   20    5      1.17      0.00
   19   20    5      1.92      0.00
    2   21    5     -2.16      0.00
    4   21    5     -0.48      0.00
    6   21    5      1.48      0.00
    8   21    5      1.52      0.00
   10   21    5      1.36      0.00
   12   21    5      0.75      0.00
   14   21    5      1.21      0.00
   16   21    5      1.64      0.00
   18   21    5      1.31      0.00
    1   22    5     -1.37      0.00
    3   22    5     -3.56      0.00
    5   22    5     -3.28      0.00
    7   22    5     -1.29      0.00
    9   22    5      1.42      0.00
   11   22    5      2.46      0.00
   13   22    5     -0.04      0.00
   15   22    5     -2.67      0.00
   17   22    5     -3.02      0.00
    2   23    5      2.42      0.00
    4   23    5      0.89      0.00
    6   23    5      0.29      0.00
    8   23    5     -1.57      0.00
   10   23    5     -2.61      0.00
   12   23    5     -1.64      0.00
   14   23    5     -0.30      0.00
   16   23    5     -1.29      0.00
   18   23    5     -0.41      0.00
    1   24    5     -0.56      0.00
    3   24    5      0.11      0.00
    5   24    5      1.22      0.00
    7   24    5      0.56      0.00
    9   24    5     -0.21      0.00
   11   24    5     -2.23      0.00
   13   24    5     -1.03      0.00
   15   24    5      0.36      0.00
   17   24    5      1.93      0.00
    2   25    5     -1.77      0.00
    4   25    5     -0.97      0.00
    6   25    5     -0.22      0.00
    8   25    5      1.36      0.00
   10   25    5      1.11      0.00
   12   25    5      1.36      0.00
   14   25    5      1.00      0.00
   16   25    5      0.80      0.00
    1   26    5      0.14      0.00
    3   26    5      0.53      0.00
    5   26    5     -0.05      0.00
    7   26    5     -1.23      0.00
    9   26    5     -0.97      0.00
   11   26    5      0.30      0.00
   13   26    5      1.02      0.00
   15   26    5      1.94      0.00
    2   27    5      1.26      0.00
    4   27    5      0.67      0.00
    6   27    5     -0.91      0.00
    8   27    5     -1.89      0.00
   10   27    5      0.07      0.00
   12   27    5      0.29      0.00
   14   27    5     -1.37      0.00
    1   28    5      0.71      0.00
    3   28    5      0.27      0.00
    5   28    5     -0.42      0.00
    7   28    5      1.64      0.00
    9   28    5      0.90      0.00
   11   28    5      0.25      0.00
   13   28    5      0.21      0.00
    2   29    5     -0.36      0.00
    4   29    5     -0.27      0.00
    6   29    5      1.05      0.00
    8   29    5      1.40      0.00
   10   29    5     -0.03      0.00
    1   30    5     -0.38      0.00
    3   30    5     -0.74      0.00
    5   30    5      0.20      0.00
    7   30    5     -0.49      0.00
    9   30    5     -0.73      0.00
    2   31    5     -0.15      0.00
    4   31    5     -0.42      0.00
    6   31    5     -1.99      0.00
    8   31    5     -1.75      0.00
    0    0    6     -9.41      0.00
    2    0    6      7.73      0.00
    4    0    6     23.25      0.00
    6    0    6      3.37      0.00
    8    0    6    -20.91      0.00
   10    0    6    -14.45      0.00
   12    0    6      1.19      0.00
   14    0    6      5.46      0.00
   16    0    6     -6.11      0.00
   18    0    6     -7.89      0.00
   20    0    6     -2.05      0.00
   22    0    6     -1.55      0.00
   24    0    6     -1.92      0.00
    1    1    6    -52.06      0.00
    3    1    6    -39.98      0.00
    5    1    6    -41.96      0.00
    7    1    6    -31.54      0.00
    9    1    6    -13.54      0.00
   11    1    6     -6.84      0.00
   13    1    6     -4.08      0.00
   15    1    6     -1.72      0.00
   17    1    6      0.69      0.00
   19    1    6      1.61      0.00
   21    1    6      0.90      0.00
   23    1    6      2.05      0.00
   25    1    6      3.54      0.00
    0    2    6     -1.47      0.00
    2    2    6    -11.97      0.00
    4    2    6    -17.00      0.00
    6    2    6      2.09      0.00
    8    2    6     17.08      0.00
   10    2    6     10.79      0.00
   12    2    6      1.05      0.00
   14    2    6     -2.96      0.00
   16    2    6      4.13      0.00
   18    2    6      6.54      0.00
   20    2    6      2.84      0.00
   22    2    6      2.25      0.00
   24    2    6      2.72      0.00
    1    3    6     33.25      0.00
    3    3    6     43.07      0.00
    5    3    6     38.30      0.00
    7    3    6     24.24      0.00
    9    3    6     14.67      0.00
   11    3    6      8.41      0.00
   13    3    6      5.77      0.00
   15    3    6      2.78      0.00
   17    3    6     -1.03      0.00
   19    3    6     -2.30      0.00
   21    3    6     -0.47      0.00
   23    3    6      1.22      0.00
   25    3    6      0.23      0.00
    0    4    6     21.98      0.00
    2    4    6     15.44      0.00
    4    4    6      2.82      0.00
    6    4    6     -6.48      0.00
    8    4    6     -7.74      0.00
   10    4    6     -4.97      0.00
   12    4    6     -4.47      0.00
   14    4    6     -4.27      0.00
   16    4    6     -3.29      0.00
   18    4    6     -3.49      0.00
   20    4    6     -2.70      0.00
   22    4    6     -1.37      0.00
   24    4    6     -1.10      0.00
    1    5    6    -27.42      0.00
    3    5    6    -33.86      0.00
    5    5    6    -25.81      0.00
    7    5    6    -15.58      0.00
    9    5    6    -12.85      0.00
   11    5    6     -9.98      0.00
   13    5    6     -6.45      0.00
   15    5    6     -1.58      0.00
   17    5    6      0.45      0.00
   19    5    6      0.35      0.00
   21    5    6     -1.02      0.00
   23    5    6     -2.40      0.00
   25    5    6     -1.10      0.00
    0    6    6    -19.90      0.00
    2    6    6     -7.05      0.00
    4    6    6      4.71      0.00
    6    6    6      1.62      0.00
    8    6    6      0.05      0.00
   10    6    6      2.43      0.00
   12    6    6      5.66      0.00
   14    6    6      8.80      0.00
   16    6    6      2.67      0.00
   18    6    6      0.01      0.00
   20    6    6      0.79      0.00
   22    6    6      0.44      0.00
   24    6    6     -1.76      0.00
    1    7    6     30.10      0.00
    3    7    6     18.46      0.00
    5    7    6      8.33      0.00
    7    7    6      8.63      0.00
    9    7    6     12.68      0.00
   11    7    6     10.11      0.00
   13    7    6      4.59      0.00
   15    7    6      1.24      0.00
   17    7    6      0.63      0.00
   19    7    6      0.58      0.00
   21    7    6      0.86      0.00
   23    7    6      0.18      0.00
    0    8    6     -1.79      0.00
    2    8    6     -4.54      0.00
    4    8    6     -3.66      0.00
    6    8    6      0.78      0.00
    8    8    6      2.86      0.00
   10    8    6     -0.96      0.00
   12    8    6     -6.14      0.00
   14    8    6     -6.82      0.00
   16    8    6      0.52      0.00
   18    8    6      1.56      0.00
   20    8    6      0.43      0.00
   22    8    6     -0.84      0.00
   24    8    6      1.90      0.00
    1    9    6    -26.04      0.00
    3    9    6     -8.71      0.00
    5    9    6      1.57      0.00
    7    9    6     -4.51      0.00
    9    9    6     -9.44      0.00
   11    9    6     -6.23      0.00
   13    9    6     -3.21      0.00
   15    9    6     -3.31      0.00
   17    9    6     -2.14      0.00
   19    9    6      0.45      0.00
   21    9    6      1.08      0.00
   23    9    6      1.29      0.00
    0   10    6      8.53      0.00
    2   10    6      9.12      0.00
    4   10    6      7.53      0.00
    6   10    6      2.19      0.00
    8   10    6     -4.14      0.00
   10   10    6     -1.69      0.00
   12   10    6      3.56      0.00
   14   10    6      3.82      0.00
   16   10    6     -0.68      0.00
   18   10    6     -0.86      0.00
   20   10    6      0.32      0.00
   22   10    6      0.04      0.00
   24   10    6     -1.65      0.00
    1   11    6     13.25      0.00
    3   11    6      4.38      0.00
    5   11    6      1.24      0.00
    7   11    6      3.37      0.00
    9   11    6      2.20      0.00
   11   11    6      2.36      0.00
   13   11    6      3.40      0.00
   15   11    6      4.32      0.00
   17   11    6      3.56      0.00
   19   11    6      0.24      0.00
   21   11    6     -2.19      0.00
   23   11    6     -1.96      0.00
    0   12    6     -4.19      0.00
    2   12    6     -9.86      0.00
    4   12    6    -13.87      0.00
    6   12    6     -4.95      0.00
    8   12    6      3.78      0.00
   10   12    6      3.75      0.00
   12   12    6      1.87      0.00
   14   12    6     -0.10      0.00
   16   12    6     -0.52      0.00
   18   12    6     -0.12      0.00
   20   12    6     -2.12      0.00
   22   12    6     -0.44      0.00
    1   13    6     -0.57      0.00
    3   13    6     -3.61      0.00
    5   13    6     -5.52      0.00
    7   13    6     -1.57      0.00
    9   13    6      1.43      0.00
   11   13    6     -0.68      0.00
   13   13    6     -3.14      0.00
   15   13    6     -4.23      0.00
   17   13    6     -2.67      0.00
   19   13    6     -1.27      0.00
   21   13    6      0.89      0.00
   23   13    6      2.45      0.00
    0   14    6      4.77      0.00
    2   14    6      9.47      0.00
    4   14    6     14.42      0.00
    6   14    6      7.17      0.00
    8   14    6     -2.48      0.00
   10   14    6     -4.59      0.00
   12   14    6     -3.23      0.00
   14   14    6     -2.28      0.00
   16   14    6      1.62      0.00
   18   14    6      2.08      0.00
   20   14    6      2.52      0.00
   22   14    6      1.03      0.00
    1   15    6     -3.09      0.00
    3   15    6      3.08      0.00
    5   15    6      3.16      0.00
    7   15    6     -1.57      0.00
    9   15    6     -2.71      0.00
   11   15    6     -1.03      0.00
   13   15    6      1.97      0.00
   15   15    6      3.18      0.00
   17   15    6      1.57      0.00
   19   15    6      1.48      0.00
   21   15    6     -0.01      0.00
    0   16    6    -10.09      0.00
    2   16    6    -10.09      0.00
    4   16    6    -10.11      0.00
    6   16    6     -5.90      0.00
    8   16    6      0.86      0.00
   10   16    6      4.50      0.00
   12   16    6      2.79      0.00
   14   16    6      1.06      0.00
   16   16    6     -2.64      0.00
   18   16    6     -2.54      0.00
   20   16    6     -2.71      0.00
    1   17    6      2.26      0.00
    3   17    6      0.20      0.00
    5   17    6      1.68      0.00
    7   17    6      2.81      0.00
    9   17    6      2.13      0.00
   11   17    6      0.86      0.00
   13   17    6      0.02      0.00
   15   17    6     -1.21      0.00
   17   17    6     -2.34      0.00
   19   17    6     -1.47      0.00
   21   17    6      1.06      0.00
    0   18    6     14.75      0.00
    2   18    6     10.52      0.00
    4   18    6      4.42      0.00
    6   18    6      1.13      0.00
    8   18    6      1.07      0.00
   10   18    6     -1.36      0.00
   12   18    6     -2.24      0.00
   14   18    6     -0.61      0.00
   16   18    6      0.37      0.00
   18   18    6      0.38      0.00
   20   18    6      2.58      0.00
    1   19    6     -1.57      0.00
    3   19    6     -3.37      0.00
    5   19    6     -3.82      0.00
    7   19    6     -1.88      0.00
    9   19    6     -0.64      0.00
   11   19    6      0.09      0.00
   13   19    6     -0.41      0.00
   15   19    6      0.97      0.00
   17   19    6      1.31      0.00
   19   19    6     -0.08      0.00
    0   20    6    -13.54      0.00
    2   20    6     -8.12      0.00
    4   20    6     -1.86      0.00
    6   20    6      1.26      0.00
    8   20    6     -0.43      0.00
   10   20    6     -2.18      0.00
   12   20    6     -0.42      0.00
   14   20    6      1.46      0.00
   16   20    6      1.92      0.00
   18   20    6      0.69      0.00
   20   20    6      0.17      0.00
    1   21    6      3.51      0.00
    3   21    6      3.90      0.00
    5   21    6      2.34      0.00
    7   21    6      0.63      0.00
    9   21    6      0.48      0.00
   11   21    6      0.55      0.00
   13   21    6     -0.42      0.00
   15   21    6     -1.70      0.00
   17   21    6      0.11      0.00
   19   21    6      1.25      0.00
    0   22    6      9.30      0.00
    2   22    6      5.87      0.00
    4   22    6      1.81      0.00
    6   22    6     -0.61      0.00
    8   22    6     -0.01      0.00
   10   22    6      3.21      0.00
   12   22    6      1.58      0.00
   14   22    6     -1.09      0.00
   16   22    6     -1.94      0.00
   18   22    6     -0.94      0.00
    1   23    6     -5.51      0.00
    3   23    6     -3.85      0.00
    5   23    6     -1.50      0.00
    7   23    6     -0.51      0.00
    9   23    6      0.26      0.00
   11   23    6     -1.29      0.00
   13   23    6     -1.25      0.00
   15   23    6      0.99      0.00
   17   23    6      1.04      0.00
    0   24    6     -4.81      0.00
    2   24    6     -4.00      0.00
    4   24    6     -0.75      0.00
    6   24    6     -0.19      0.00
    8   24    6     -2.70      0.00
   10   24    6     -4.81      0.00
   12   24    6     -1.40      0.00
   14   24    6      0.29      0.00
   16   24    6      1.10      0.00
    1   25    6      4.05      0.00
    3   25    6      3.83      0.00
    5   25    6      2.01      0.00
    7   25    6      1.23      0.00
    9   25    6     -0.07      0.00
   11   25    6      0.43      0.00
   13   25    6      1.72      0.00
   15   25    6     -0.02      0.00
    0   26    6      0.77      0.00
    2   26    6      1.79      0.00
    4   26    6      0.49      0.00
    6   26    6      1.15      0.00
    8   26    6      3.78      0.00
   10   26    6      4.53      0.00
   12   26    6      0.55      0.00
   14   26    6     -0.81      0.00
    1   27    6     -2.71      0.00
    3   27    6     -2.08      0.00
    5   27    6     -1.81      0.00
    7   27    6     -1.24      0.00
    9   27    6     -0.92      0.00
   11   27    6      0.59      0.00
   13   27    6      0.50      0.00
    0   28    6      1.01      0.00
    2   28    6     -0.11      0.00
    4   28    6     -0.75      0.00
    6   28    6     -1.95      0.00
    8   28    6     -2.38      0.00
   10   28    6     -1.36      0.00
   12   28    6      0.67      0.00
    1   29    6      2.14      0.00
    3   29    6      0.18      0.00
    5   29    6      1.54      0.00
    7   29    6      0.91      0.00
    9   29    6      0.20      0.00
   11   29    6     -0.25      0.00
    0   30    6     -1.22      0.00
    2   30    6     -1.01      0.00
    4   30    6     -0.17      0.00
    6   30    6      1.15      0.00
    8   30    6      1.23      0.00
    1   31    6     -1.55      0.00
    3   31    6      0.10      0.00
    5   31    6     -0.47      0.00
    2    1    7      8.45      0.00
    4    1    7      5.01      0.00
    6    1    7     -6.12      0.00
    8    1    7     -7.68      0.00
   10    1    7     -0.20      0.00
   12    1    7      1.47      0.00
   14    1    7     -1.94      0.00
   16    1    7     -2.32      0.00
   18    1    7      0.57      0.00
   20    1    7      1.12      0.00
   22    1    7     -0.23      0.00
   24    1    7     -0.91      0.00
    1    2    7     19.11      0.00
    3    2    7     20.34      0.00
    5    2    7      3.63      0.00
    7    2    7      2.82      0.00
    9    2    7      5.20      0.00
   11    2    7      3.18      0.00
   13    2    7     -2.17      0.00
   15    2    7     -5.92      0.00
   17    2    7     -2.61      0.00
   19    2    7      3.24      0.00
   21    2    7      4.07      0.00
   23    2    7      4.30      0.00
    2    3    7    -18.77      0.00
    4    3    7     -5.64      0.00
    6    3    7     14.98      0.00
    8    3    7     14.06      0.00
   10    3    7      1.91      0.00
   12    3    7     -2.61      0.00
   14    3    7      2.93      0.00
   16    3    7      6.08      0.00
   18    3    7      0.70      0.00
   20    3    7     -1.78      0.00
   22    3    7      0.41      0.00
   24    3    7      0.11      0.00
    1    4    7    -15.93      0.00
    3    4    7    -20.53      0.00
    5    4    7     -7.82      0.00
    7    4    7     -5.07      0.00
    9    4    7     -6.93      0.00
   11    4    7     -3.72      0.00
   13    4    7      3.90      0.00
   15    4    7      7.46      0.00
   17    4    7      2.51      0.00
   19    4    7     -4.06      0.00
   21    4    7     -3.61      0.00
   23    4    7     -3.63      0.00
    2    5    7     10.23      0.00
    4    5    7     -3.13      0.00
    6    5    7    -15.16      0.00
    8    5    7    -11.65      0.00
   10    5    7     -5.08      0.00
   12    5    7     -0.87      0.00
   14    5    7     -3.54      0.00
   16    5    7     -5.49      0.00
   18    5    7     -1.03      0.00
   20    5    7      2.01      0.00
   22    5    7      0.27      0.00
   24    5    7      0.55      0.00
    1    6    7      4.69      0.00
    3    6    7     11.03      0.00
    5    6    7     10.34      0.00
    7    6    7      6.91      0.00
    9    6    7      4.36      0.00
   11    6    7     -0.28      0.00
   13    6    7     -4.40      0.00
   15    6    7     -6.07      0.00
   17    6    7     -2.26      0.00
   19    6    7      2.57      0.00
   21    6    7      2.46      0.00
   23    6    7      1.97      0.00
    2    7    7      2.99      0.00
    4    7    7      5.33      0.00
    6    7    7      9.44      0.00
    8    7    7      9.71      0.00
   10    7    7      6.68      0.00
   12    7    7      6.28      0.00
   14    7    7      5.95      0.00
   16    7    7      2.15      0.00
   18    7    7     -0.76      0.00
   20    7    7     -1.06      0.00
   22    7    7     -0.03      0.00
   24    7    7      0.98      0.00
    1    8    7     -2.17      0.00
    3    8    7     -8.49      0.00
    5    8    7     -9.11      0.00
    7    8    7     -2.63      0.00
    9    8    7      0.32      0.00
   11    8    7      2.15      0.00
   13    8    7      2.21      0.00
   15    8    7      3.49      0.00
   17    8    7      2.46      0.00
   19    8    7     -0.29      0.00
   21    8    7     -2.01      0.00
   23    8    7     -0.86      0.00
    2    9    7     -2.57      0.00
    4    9    7     -3.10      0.00
    6    9    7     -5.71      0.00
    8    9    7     -7.11      0.00
   10    9    7     -7.67      0.00
   12    9    7     -8.61      0.00
   14    9    7     -4.73      0.00
   16    9    7     -1.21      0.00
   18    9    7      0.24      0.00
   20    9    7     -0.49      0.00
   22    9    7     -0.97      0.00
   24    9    7     -0.55      0.00
    1   10    7      4.95      0.00
    3   10    7     10.82      0.00
    5   10    7      5.41      0.00
    7   10    7     -2.82      0.00
    9   10    7     -3.38      0.00
   11   10    7     -2.64      0.00
   13   10    7     -0.96      0.00
   15   10    7     -0.53      0.00
   17   10    7     -1.06      0.00
   19   10    7     -0.02      0.00
   21   10    7      0.66      0.00
   23   10    7     -0.52      0.00
    2   11    7      0.32      0.00
    4   11    7      2.47      0.00
    6   11    7      4.33      0.00
    8   11    7      5.66      0.00
   10   11    7      8.26      0.00
   12   11    7      8.23      0.00
   14   11    7      3.07      0.00
   16   11    7      1.58      0.00
   18   11    7      1.24      0.00
   20   11    7      0.13      0.00
   22   11    7      0.13      0.00
    1   12    7     -3.82      0.00
    3   12    7     -6.39      0.00
    5   12    7     -0.64      0.00
    7   12    7      2.42      0.00
    9   12    7      3.89      0.00
   11   12    7      3.79      0.00
   13   12    7      1.26      0.00
   15   12    7     -1.06      0.00
   17   12    7     -0.72      0.00
   19   12    7     -1.18      0.00
   21   12    7      0.51      0.00
   23   12    7      1.51      0.00
    2   13    7     -2.68      0.00
    4   13    7     -1.33      0.00
    6   13    7     -2.68      0.00
    8   13    7     -5.36      0.00
   10   13    7     -5.40      0.00
   12   13    7     -5.71      0.00
   14   13    7     -3.60      0.00
   16   13    7     -2.22      0.00
   18   13    7     -3.31      0.00
   20   13    7     -1.76      0.00
   22   13    7      0.10      0.00
    1   14    7     -1.23      0.00
    3   14    7     -2.98      0.00
    5   14    7     -2.63      0.00
    7   14    7     -0.76      0.00
    9   14    7     -3.17      0.00
   11   14    7     -2.82      0.00
   13   14    7     -0.22      0.00
   15   14    7      1.80      0.00
   17   14    7      1.34      0.00
   19   14    7      0.37      0.00
   21   14    7     -1.41      0.00
    2   15    7      6.03      0.00
    4   15    7      3.93      0.00
    6   15    7      1.57      0.00
    8   15    7      2.64      0.00
   10   15    7      3.16      0.00
   12   15    7      2.14      0.00
   14   15    7      2.69      0.00
   16   15    7      3.62      0.00
   18   15    7      3.05      0.00
   20   15    7      2.81      0.00
   22   15    7      1.65      0.00
    1   16    7      4.84      0.00
    3   16    7      8.09      0.00
    5   16    7      2.46      0.00
    7   16    7     -0.50      0.00
    9   16    7      1.63      0.00
   11   16    7      2.52      0.00
   13   16    7     -0.03      0.00
   15   16    7     -1.63      0.00
   17   16    7     -0.61      0.00
   19   16    7      0.69      0.00
   21   16    7      1.84      0.00
    2   17    7     -6.92      0.00
    4   17    7     -6.42      0.00
    6   17    7     -1.22      0.00
    8   17    7      1.13      0.00
   10   17    7     -1.75      0.00
   12   17    7     -1.13      0.00
   14   17    7     -2.37      0.00
   16   17    7     -2.86      0.00
   18   17    7     -1.12      0.00
   20   17    7     -2.06      0.00
    1   18    7     -4.63      0.00
    3   18    7     -6.93      0.00
    5   18    7     -1.74      0.00
    7   18    7      0.28      0.00
    9   18    7     -0.80      0.00
   11   18    7     -1.74      0.00
   13   18    7     -0.61      0.00
   15   18    7     -0.55      0.00
   17   18    7     -1.12      0.00
   19   18    7      0.27      0.00
    2   19    7      4.05      0.00
    4   19    7      3.88      0.00
    6   19    7      1.11      0.00
    8   19    7     -2.77      0.00
   10   19    7     -1.52      0.00
   12   19    7      1.14      0.00
   14   19    7      2.36      0.00
   16   19    7      0.25      0.00
   18   19    7      1.94      0.00
   20   19    7      2.26      0.00
    1   20    7      1.08      0.00
    3   20    7      2.40      0.00
    5   20    7      2.18      0.00
    7   20    7      1.49      0.00
    9   20    7      1.11      0.00
   11   20    7     -0.28      0.00
   13   20    7     -0.22      0.00
   15   20    7      1.05      0.00
   17   20    7      1.02      0.00
   19   20    7     -0.75      0.00
    2   21    7     -1.17      0.00
    4   21    7     -1.16      0.00
    6   21    7      0.29      0.00
    8   21    7      2.16      0.00
   10   21    7      2.25      0.00
   12   21    7      0.16      0.00
   14   21    7     -0.74      0.00
   16   21    7      0.01      0.00
   18   21    7     -1.65      0.00
    1   22    7      1.04      0.00
    3   22    7     -0.51      0.00
    5   22    7     -2.43      0.00
    7   22    7     -1.04      0.00
    9   22    7      0.27      0.00
   11   22    7      0.64      0.00
   13   22    7      1.10      0.00
   15   22    7      0.58      0.00
   17   22    7      0.78      0.00
    2   23    7     -1.51      0.00
    4   23    7     -1.20      0.00
    6   23    7     -2.69      0.00
    8   23    7     -1.70      0.00
   10   23    7     -0.44      0.00
   12   23    7     -0.56      0.00
   14   23    7     -0.75      0.00
   16   23    7      0.81      0.00
    1   24    7     -0.54      0.00
    3   24    7      0.81      0.00
    5   24    7      2.15      0.00
    7   24    7      0.85      0.00
    9   24    7     -1.96      0.00
   11   24    7     -1.57      0.00
   13   24    7     -0.84      0.00
   15   24    7      0.23      0.00
    2   25    7      2.92      0.00
    4   25    7      2.97      0.00
    6   25    7      2.36      0.00
    8   25    7      0.30      0.00
   10   25    7     -0.73      0.00
   12   25    7      0.29      0.00
   14   25    7      1.95      0.00
    1   26    7      0.62      0.00
    3   26    7     -0.11      0.00
    5   26    7     -1.88      0.00
    7   26    7     -1.73      0.00
    9   26    7      0.30      0.00
   11   26    7      2.05      0.00
   13   26    7      0.64      0.00
   15   26    7     -1.53      0.00
    2   27    7     -1.66      0.00
    4   27    7     -2.86      0.00
    6   27    7     -0.98      0.00
    8   27    7      1.19      0.00
   10   27    7      0.46      0.00
   12   27    7     -0.55      0.00
    1   28    7     -0.31      0.00
    3   28    7      0.24      0.00
    5   28    7      1.34      0.00
    7   28    7      0.85      0.00
    9   28    7      1.42      0.00
   11   28    7     -0.40      0.00
    2   29    7      0.34      0.00
    4   29    7      1.52      0.00
    6   29    7      0.79      0.00
    8   29    7     -0.22      0.00
   10   29    7      0.41      0.00
    1   30    7     -0.40      0.00
    3   30    7     -0.43      0.00
    5   30    7     -0.75      0.00
    7   30    7     -0.56      0.00
    2   31    7     -0.14      0.00
    0    0    8      3.69      0.00
    2    0    8      2.92      0.00
    4    0    8     -7.00      0.00
    6    0    8    -14.91      0.00
    8    0    8     -6.34      0.00
   10    0    8      1.05      0.00
   12    0    8      3.44      0.00
   14    0    8      2.38      0.00
   16    0    8      4.65      0.00
   18    0    8      3.96      0.00
   20    0    8      0.67      0.00
   22    0    8     -3.21      0.00
   24    0    8     -0.56      0.00
    1    1    8     29.40      0.00
    3    1    8     -2.23      0.00
    5    1    8     -3.63      0.00
    7    1    8     14.52      0.00
    9    1    8     15.83      0.00
   11    1    8      5.52      0.00
   13    1    8     -2.39      0.00
   15    1    8      2.37      0.00
   17    1    8     10.46      0.00
   19    1    8      8.16      0.00
   21    1    8      2.95      0.00
   23    1    8      1.09      0.00
    0    2    8     -3.43      0.00
    2    2    8     -0.55      0.00
    4    2    8      5.05      0.00
    6    2    8      8.42      0.00
    8    2    8      7.17      0.00
   10    2    8      2.32      0.00
   12    2    8     -3.70      0.00
   14    2    8     -2.72      0.00
   16    2    8     -2.96      0.00
   18    2    8     -3.59      0.00
   20    2    8     -2.14      0.00
   22    2    8      1.16      0.00
   24    2    8      0.17      0.00
    1    3    8    -12.38      0.00
    3    3    8     -7.23      0.00
    5    3    8     -6.82      0.00
    7    3    8    -12.52      0.00
    9    3    8    -12.71      0.00
   11    3    8     -6.78      0.00
   13    3    8     -3.45      0.00
   15    3    8     -4.62      0.00
   17    3    8     -7.04      0.00
   19    3    8     -5.12      0.00
   21    3    8     -3.12      0.00
   23    3    8     -3.61      0.00
    0    4    8     -0.69      0.00
    2    4    8     -1.11      0.00
    4    4    8      0.41      0.00
    6    4    8     -1.28      0.00
    8    4    8     -7.45      0.00
   10    4    8     -5.75      0.00
   12    4    8      1.67      0.00
   14    4    8      4.45      0.00
   16    4    8      2.56      0.00
   18    4    8      2.60      0.00
   20    4    8      2.32      0.00
   22    4    8      0.14      0.00
   24    4    8     -0.34      0.00
    1    5    8      1.31      0.00
    3    5    8     15.68      0.00
    5    5    8     14.51      0.00
    7    5    8      7.90      0.00
    9    5    8      7.42      0.00
   11    5    8      7.53      0.00
   13    5    8      9.24      0.00
   15    5    8      6.93      0.00
   17    5    8      3.65      0.00
   19    5    8      2.29      0.00
   21    5    8      2.90      0.00
   23    5    8      2.46      0.00
    0    6    8      1.30      0.00
    2    6    8     -1.56      0.00
    4    6    8     -3.08      0.00
    6    6    8      0.78      0.00
    8    6    8      4.90      0.00
   10    6    8      4.82      0.00
   12    6    8      1.79      0.00
   14    6    8     -4.58      0.00
   16    6    8     -2.62      0.00
   18    6    8     -1.18      0.00
   20    6    8      0.05      0.00
   22    6    8     -0.43      0.00
   24    6    8     -0.14      0.00
    1    7    8     -6.16      0.00
    3    7    8    -15.70      0.00
    5    7    8    -12.39      0.00
    7    7    8     -5.83      0.00
    9    7    8     -5.16      0.00
   11    7    8     -7.26      0.00
   13    7    8    -10.14      0.00
   15    7    8     -5.41      0.00
   17    7    8     -0.25      0.00
   19    7    8     -0.16      0.00
   21    7    8     -1.47      0.00
   23    7    8      0.01      0.00
    0    8    8      2.86      0.00
    2    8    8      1.51      0.00
    4    8    8     -0.41      0.00
    6    8    8      0.75      0.00
    8    8    8     -0.19      0.00
   10    8    8     -1.07      0.00
   12    8    8     -0.75      0.00
   14    8    8      1.19      0.00
   16    8    8     -0.04      0.00
   18    8    8      1.02      0.00
   20    8    8     -0.83      0.00
   22    8    8      1.12      0.00
   24    8    8      0.98      0.00
    1    9    8     11.77      0.00
    3    9    8     12.37      0.00
    5    9    8      9.88      0.00
    7    9    8      6.85      0.00
    9    9    8      3.85      0.00
   11    9    8      5.69      0.00
   13    9    8      8.31      0.00
   15    9    8      3.56      0.00
   17    9    8     -0.91      0.00
   19    9    8     -0.64      0.00
   21    9    8     -0.40      0.00
   23    9    8     -0.55      0.00
    0   10    8     -1.11      0.00
    2   10    8      1.15      0.00
    4   10    8      3.32      0.00
    6   10    8     -0.94      0.00
    8   10    8     -4.59      0.00
   10   10    8     -4.05      0.00
   12   10    8     -1.05      0.00
   14   10    8      1.62      0.00
   16   10    8      1.25      0.00
   18   10    8     -0.54      0.00
   20   10    8      0.09      0.00
   22   10    8     -0.11      0.00
    1   11    8     -9.04      0.00
    3   11    8    -11.76      0.00
    5   11    8    -12.09      0.00
    7   11    8     -7.85      0.00
    9   11    8     -4.16      0.00
   11   11    8     -4.23      0.00
   13   11    8     -4.38      0.00
   15   11    8     -2.74      0.00
   17   11    8      0.02      0.00
   19   11    8     -0.42      0.00
   21   11    8     -0.37      0.00
   23   11    8     -0.28      0.00
    0   12    8     -3.39      0.00
    2   12    8     -2.61      0.00
    4   12    8     -2.31      0.00
    6   12    8      1.15      0.00
    8   12    8      6.96      0.00
   10   12    8      6.04      0.00
   12   12    8      0.74      0.00
   14   12    8     -2.55      0.00
   16   12    8     -1.70      0.00
   18   12    8     -2.11      0.00
   20   12    8     -0.59      0.00
   22   12    8      0.06      0.00
    1   13    8      5.32      0.00
    3   13    8     12.02      0.00
    5   13    8     13.55      0.00
    7   13    8      8.38      0.00
    9   13    8      6.47      0.00
   11   13    8      4.48      0.00
   13   13    8      0.87      0.00
   15   13    8      0.65      0.00
   17   13    8      0.23      0.00
   19   13    8      1.56      0.00
   21   13    8      2.65      0.00
   23   13    8      1.35      0.00
    0   14    8      6.67      0.00
    2   14    8      5.14      0.00
    4   14    8     -0.03      0.00
    6   14    8     -5.77      0.00
    8   14    8     -7.07      0.00
   10   14    8     -5.72      0.00
   12   14    8     -2.94      0.00
   14   14    8      1.76      0.00
   16   14    8      1.39      0.00
   18   14    8      2.97      0.00
   20   14    8      2.71      0.00
   22   14    8      0.17      0.00
    1   15    8     -4.94      0.00
    3   15    8    -10.93      0.00
    5   15    8    -11.65      0.00
    7   15    8     -7.63      0.00
    9   15    8     -5.28      0.00
   11   15    8     -3.69      0.00
   13   15    8     -0.50      0.00
   15   15    8      0.14      0.00
   17   15    8     -1.24      0.00
   19   15    8     -2.15      0.00
   21   15    8     -2.45      0.00
    0   16    8     -5.03      0.00
    2   16    8     -4.39      0.00
    4   16    8      1.22      0.00
    6   16    8      7.38      0.00
    8   16    8      7.17      0.00
   10   16    8      4.70      0.00
   12   16    8      3.97      0.00
   14   16    8      0.64      0.00
   16   16    8     -0.72      0.00
   18   16    8     -3.12      0.00
   20   16    8     -2.19      0.00
    1   17    8      7.41      0.00
    3   17    8      8.28      0.00
    5   17    8      6.68      0.00
    7   17    8      5.47      0.00
    9   17    8      3.78      0.00
   11   17    8      1.88      0.00
   13   17    8      0.06      0.00
   15   17    8      0.42      0.00
   17   17    8      1.66      0.00
   19   17    8      2.37      0.00
   21   17    8      1.28      0.00
    0   18    8      1.15      0.00
    2   18    8      0.86      0.00
    4   18    8     -1.75      0.00
    6   18    8     -4.65      0.00
    8   18    8     -6.22      0.00
   10   18    8     -2.73      0.00
   12   18    8     -2.10      0.00
   14   18    8     -1.47      0.00
   16   18    8      1.89      0.00
   18   18    8      3.09      0.00
   20   18    8     -0.34      0.00
    1   19    8    -10.08      0.00
    3   19    8     -4.93      0.00
    5   19    8     -2.71      0.00
    7   19    8     -3.44      0.00
    9   19    8     -3.57      0.00
   11   19    8     -1.93      0.00
   13   19    8     -0.10      0.00
   15   19    8     -0.38      0.00
   17   19    8     -0.13      0.00
   19   19    8     -0.66      0.00
    0   20    8      0.61      0.00
    2   20    8      0.47      0.00
    4   20    8      1.90      0.00
    6   20    8      1.94      0.00
    8   20    8      1.91      0.00
   10   20    8      1.40      0.00
   12   20    8      1.36      0.00
   14   20    8     -0.10      0.00
   16   20    8     -1.87      0.00
   18   20    8      0.05      0.00
    1   21    8      8.93      0.00
    3   21    8      3.45      0.00
    5   21    8      2.74      0.00
    7   21    8      2.48      0.00
    9   21    8      1.94      0.00
   11   21    8      1.22      0.00
   13   21    8      0.16      0.00
   15   21    8     -0.31      0.00
   17   21    8     -0.50      0.00
   19   21    8     -1.38      0.00
    0   22    8     -3.89      0.00
    2   22    8     -2.43      0.00
    4   22    8     -1.34      0.00
    6   22    8     -0.03      0.00
    8   22    8      2.37      0.00
   10   22    8      0.43      0.00
   12   22    8     -0.86      0.00
   14   22    8      0.40      0.00
   16   22    8      1.21      0.00
   18   22    8     -1.49      0.00
    1   23    8     -6.04      0.00
    3   23    8     -3.24      0.00
    5   23    8     -1.97      0.00
    7   23    8     -1.03      0.00
    9   23    8     -1.52      0.00
   11   23    8     -0.12      0.00
   13   23    8      1.55      0.00
   15   23    8      1.31      0.00
   17   23    8     -0.10      0.00
    0   24    8      4.97      0.00
    2   24    8      4.34      0.00
    4   24    8      1.61      0.00
    6   24    8     -0.21      0.00
    8   24    8     -2.29      0.00
   10   24    8     -1.89      0.00
   12   24    8     -0.21      0.00
   14   24    8      0.76      0.00
   16   24    8     -1.17      0.00
    1   25    8      3.86      0.00
    3   25    8      2.70      0.00
    5   25    8      0.45      0.00
    7   25    8     -0.64      0.00
    9   25    8      1.42      0.00
   11   25    8      1.00      0.00
   13   25    8     -1.53      0.00
   15   25    8     -0.99      0.00
    0   26    8     -3.02      0.00
    2   26    8     -3.95      0.00
    4   26    8     -2.24      0.00
    6   26    8     -0.61      0.00
    8   26    8      0.25      0.00
   10   26    8      1.74      0.00
   12   26    8      1.56      0.00
   14   26    8     -0.19      0.00
    1   27    8     -1.77      0.00
    3   27    8     -3.01      0.00
    5   27    8     -1.44      0.00
    7   27    8     -0.28      0.00
    9   27    8      0.12      0.00
   11   27    8     -0.28      0.00
   13   27    8      0.42      0.00
    0   28    8      1.93      0.00
    2   28    8      1.91      0.00
    4   28    8      1.36      0.00
    6   28    8      1.41      0.00
    8   28    8      0.54      0.00
   10   28    8     -0.96      0.00
   12   28    8     -1.07      0.00
    1   29    8      0.80      0.00
    3   29    8      2.54      0.00
    5   29    8      1.52      0.00
    7   29    8      1.57      0.00
    9   29    8     -0.12      0.00
    0   30    8     -1.12      0.00
    2   30    8      0.05      0.00
    4   30    8     -0.05      0.00
    6   30    8     -1.33      0.00
    8   30    8     -0.38      0.00
    2    1    9      6.61      0.00
    4    1    9      0.82      0.00
    6    1    9     -1.71      0.00
    8    1    9      1.11      0.00
   10    1    9     -0.33      0.00
   12    1    9     -0.25      0.00
   14    1    9     -0.43      0.00
   16    1    9     -1.30      0.00
   18    1    9     -0.87      0.00
   20    1    9     -0.05      0.00
   22    1    9      1.14      0.00
   24    1    9      1.62      0.00
    1    2    9     -6.26      0.00
    3    2    9     -1.57      0.00
    5    2    9     11.02      0.00
    7    2    9     10.44      0.00
    9    2    9      2.07      0.00
   11    2    9     -3.82      0.00
   13    2    9     -2.15      0.00
   15    2    9      2.49      0.00
   17    2    9      1.95      0.00
   19    2    9     -1.51      0.00
   21    2    9     -0.48      0.00
   23    2    9     -0.47      0.00
    2    3    9    -13.69      0.00
    4    3    9     -4.62      0.00
    6    3    9      4.68      0.00
    8    3    9      1.24      0.00
   10    3    9     -1.46      0.00
   12    3    9     -0.57      0.00
   14    3    9      2.50      0.00
   16    3    9      2.55      0.00
   18    3    9      0.12      0.00
   20    3    9     -0.71      0.00
   22    3    9     -1.41      0.00
   24    3    9     -1.52      0.00
    1    4    9      3.30      0.00
    3    4    9     -4.68      0.00
    5    4    9    -17.20      0.00
    7    4    9    -12.79      0.00
    9    4    9     -2.01      0.00
   11    4    9      4.71      0.00
   13    4    9      4.38      0.00
   15    4    9     -1.20      0.00
   17    4    9     -2.14      0.00
   19    4    9      0.68      0.00
   21    4    9     -0.71      0.00
   23    4    9      0.36      0.00
    2    5    9     12.41      0.00
    4    5    9      6.22      0.00
    6    5    9     -6.09      0.00
    8    5    9     -5.07      0.00
   10    5    9      3.47      0.00
   12    5    9      2.29      0.00
   14    5    9     -3.06      0.00
   16    5    9     -2.65      0.00
   18    5    9      1.10      0.00
   20    5    9      0.83      0.00
   22    5    9     -0.34      0.00
   24    5    9      0.18      0.00
    1    6    9      6.03      0.00
    3    6    9     12.87      0.00
    5    6    9     12.69      0.00
    7    6    9      8.58      0.00
    9    6    9      2.08      0.00
   11    6    9     -2.35      0.00
   13    6    9     -3.28      0.00
   15    6    9     -1.30      0.00
   17    6    9     -0.83      0.00
   19    6    9     -0.07      0.00
   21    6    9      1.03      0.00
   23    6    9     -0.17      0.00
    2    7    9     -7.12      0.00
    4    7    9     -1.95      0.00
    6    7    9      6.53      0.00
    8    7    9      5.49      0.00
   10    7    9     -1.48      0.00
   12    7    9     -3.02      0.00
   14    7    9      0.81      0.00
   16    7    9      2.67      0.00
   18    7    9     -0.24      0.00
   20    7    9     -0.91      0.00
   22    7    9      0.27      0.00
   24    7    9     -0.37      0.00
    1    8    9     -7.81      0.00
    3    8    9    -11.07      0.00
    5    8    9     -5.07      0.00
    7    8    9     -3.85      0.00
    9    8    9     -0.65      0.00
   11    8    9      0.48      0.00
   13    8    9      1.98      0.00
   15    8    9      3.57      0.00
   17    8    9      2.67      0.00
   19    8    9     -0.72      0.00
   21    8    9     -1.83      0.00
   23    8    9     -0.71      0.00
    2    9    9      1.63      0.00
    4    9    9      0.28      0.00
    6    9    9     -5.23      0.00
    8    9    9     -5.08      0.00
   10    9    9     -1.09      0.00
   12    9    9      1.21      0.00
   14    9    9     -0.48      0.00
   16    9    9     -1.59      0.00
   18    9    9     -0.65      0.00
   20    9    9      0.82      0.00
   22    9    9      0.84      0.00
    1   10    9      2.10      0.00
    3   10    9      2.90      0.00
    5   10    9      1.70      0.00
    7   10    9      0.01      0.00
    9   10    9     -1.29      0.00
   11   10    9      1.43      0.00
   13   10    9     -1.03      0.00
   15   10    9     -4.19      0.00
   17   10    9     -1.94      0.00
   19   10    9      0.18      0.00
   21   10    9      2.06      0.00
   23   10    9      1.55      0.00
    2   11    9      2.16      0.00
    4   11    9      0.47      0.00
    6   11    9      0.94      0.00
    8   11    9      1.58      0.00
   10   11    9      2.69      0.00
   12   11    9      2.32      0.00
   14   11    9      0.95      0.00
   16   11    9      0.15      0.00
   18   11    9      1.11      0.00
   20   11    9      1.07      0.00
   22   11    9      0.17      0.00
    1   12    9      1.54      0.00
    3   12    9      3.12      0.00
    5   12    9      0.81      0.00
    7   12    9      1.59      0.00
    9   12    9      2.07      0.00
   11   12    9     -0.69      0.00
   13   12    9     -1.77      0.00
   15   12    9      0.93      0.00
   17   12    9      0.13      0.00
   19   12    9     -0.43      0.00
   21   12    9     -1.04      0.00
    2   13    9     -4.17      0.00
    4   13    9     -3.55      0.00
    6   13    9      1.90      0.00
    8   13    9      1.30      0.00
   10   13    9     -3.60      0.00
   12   13    9     -3.11      0.00
   14   13    9      0.12      0.00
   16   13    9      0.69      0.00
   18   13    9     -0.47      0.00
   20   13    9     -1.31      0.00
   22   13    9     -1.45      0.00
    1   14    9     -1.33      0.00
    3   14    9     -3.74      0.00
    5   14    9     -2.27      0.00
    7   14    9     -1.18      0.00
    9   14    9     -2.60      0.00
   11   14    9     -2.64      0.00
   13   14    9      1.77      0.00
   15   14    9      2.16      0.00
   17   14    9      2.05      0.00
   19   14    9      2.64      0.00
   21   14    9      1.13      0.00
    2   15    9      2.90      0.00
    4   15    9      1.88      0.00
    6   15    9     -2.18      0.00
    8   15    9     -0.90      0.00
   10   15    9      1.68      0.00
   12   15    9      2.02      0.00
   14   15    9     -0.64      0.00
   16   15    9     -1.35      0.00
   18   15    9      1.26      0.00
   20   15    9      1.48      0.00
   22   15    9      1.02      0.00
    1   16    9     -0.99      0.00
    3   16    9     -0.20      0.00
    5   16    9      1.58      0.00
    7   16    9      1.92      0.00
    9   16    9      2.81      0.00
   11   16    9      2.58      0.00
   13   16    9      0.34      0.00
   15   16    9     -2.38      0.00
   17   16    9     -2.55      0.00
   19   16    9     -1.95      0.00
   21   16    9     -1.30      0.00
    2   17    9     -2.29      0.00
    4   17    9      0.42      0.00
    6   17    9      2.29      0.00
    8   17    9      0.54      0.00
   10   17    9     -0.25      0.00
   12   17    9     -1.52      0.00
   14   17    9      0.07      0.00
   16   17    9     -0.25      0.00
   18   17    9     -2.23      0.00
   20   17    9     -1.53      0.00
    1   18    9      2.16      0.00
    3   18    9      1.41      0.00
    5   18    9     -1.72      0.00
    7   18    9     -2.13      0.00
    9   18    9     -3.00      0.00
   11   18    9     -1.69      0.00
   13   18    9     -0.08      0.00
   15   18    9      1.29      0.00
   17   18    9      1.68      0.00
   19   18    9      1.38      0.00
    2   19    9      1.24      0.00
    4   19    9     -0.50      0.00
    6   19    9     -1.95      0.00
    8   19    9      0.43      0.00
   10   19    9      1.69      0.00
   12   19    9      0.58      0.00
   14   19    9      0.71      0.00
   16   19    9      2.98      0.00
   18   19    9      0.28      0.00
    1   20    9     -0.43      0.00
    3   20    9      0.76      0.00
    5   20    9      2.15      0.00
    7   20    9      1.08      0.00
    9   20    9      1.45      0.00
   11   20    9      1.00      0.00
   13   20    9     -0.15      0.00
   15   20    9      1.06      0.00
   17   20    9      0.24      0.00
   19   20    9     -1.70      0.00
    2   21    9      2.24      0.00
    4   21    9      2.21      0.00
    6   21    9      1.79      0.00
    8   21    9      0.35      0.00
   10   21    9     -1.01      0.00
   12   21    9     -0.06      0.00
   14   21    9     -0.60      0.00
   16   21    9     -1.52      0.00
   18   21    9      0.88      0.00
    1   22    9     -1.48      0.00
    3   22    9     -1.69      0.00
    5   22    9     -1.93      0.00
    7   22    9     -1.64      0.00
    9   22    9      0.19      0.00
   11   22    9      1.22      0.00
   13   22    9     -0.34      0.00
   15   22    9     -2.28      0.00
   17   22    9     -2.08      0.00
    2   23    9     -2.07      0.00
    4   23    9     -2.36      0.00
    6   23    9     -2.03      0.00
    8   23    9     -3.00      0.00
   10   23    9     -2.61      0.00
   12   23    9     -0.39      0.00
   14   23    9      0.50      0.00
   16   23    9     -1.22      0.00
    1   24    9      2.00      0.00
    3   24    9      2.68      0.00
    5   24    9      2.32      0.00
    7   24    9      1.74      0.00
    9   24    9     -0.48      0.00
   11   24    9     -1.76      0.00
   13   24    9      0.51      0.00
   15   24    9      1.34      0.00
    2   25    9      0.52      0.00
    4   25    9      0.67      0.00
    6   25    9      1.46      0.00
    8   25    9      2.52      0.00
   10   25    9      3.51      0.00
   12   25    9      1.55      0.00
   14   25    9     -1.09      0.00
    1   26    9     -1.76      0.00
    3   26    9     -3.63      0.00
    5   26    9     -2.52      0.00
    7   26    9     -0.05      0.00
    9   26    9      1.89      0.00
   11   26    9      0.60      0.00
   13   26    9     -1.22      0.00
    2   27    9     -0.48      0.00
    4   27    9      0.70      0.00
    6   27    9     -0.13      0.00
    8   27    9      0.02      0.00
   10   27    9     -0.29      0.00
   12   27    9     -1.38      0.00
    1   28    9      0.68      0.00
    3   28    9      2.18      0.00
    5   28    9      1.72      0.00
    7   28    9      0.23      0.00
    9   28    9     -1.13      0.00
   11   28    9      0.32      0.00
    2   29    9     -0.25      0.00
    4   29    9     -0.69      0.00
    6   29    9     -0.29      0.00
    8   29    9     -0.85      0.00
   10   29    9     -1.77      0.00
    1   30    9      0.20      0.00
    3   30    9     -0.33      0.00
    5   30    9     -0.29      0.00
    7   30    9     -0.92      0.00
    0    0   10     35.26      0.00
    2    0   10     15.49      0.00
    4    0   10     -6.11      0.00
    6    0   10     -0.99      0.00
    8    0   10      2.77      0.00
   10    0   10      1.80      0.00
   12    0   10     -0.92      0.00
   14    0   10     -0.78      0.00
   16    0   10      2.46      0.00
   18    0   10      5.07      0.00
   20    0   10      1.02      0.00
   22    0   10      1.07      0.00
    1    1   10    -23.17      0.00
    3    1   10    -24.11      0.00
    5    1   10    -22.51      0.00
    7    1   10    -16.91      0.00
    9    1   10    -12.12      0.00
   11    1   10    -11.09      0.00
   13    1   10     -8.95      0.00
   15    1   10     -4.25      0.00
   17    1   10     -2.10      0.00
   19    1   10     -1.55      0.00
   21    1   10      1.01      0.00
   23    1   10     -0.59      0.00
    0    2   10    -27.61      0.00
    2    2   10    -15.39      0.00
    4    2   10      1.18      0.00
    6    2   10      0.50      0.00
    8    2   10     -3.78      0.00
   10    2   10     -2.54      0.00
   12    2   10      1.55      0.00
   14    2   10      0.46      0.00
   16    2   10     -2.66      0.00
   18    2   10     -3.85      0.00
   20    2   10     -0.35      0.00
   22    2   10     -0.39      0.00
    1    3   10     21.65      0.00
    3    3   10     25.65      0.00
    5    3   10     24.32      0.00
    7    3   10     15.83      0.00
    9    3   10      8.93      0.00
   11    3   10      9.98      0.00
   13    3   10     10.00      0.00
   15    3   10      3.98      0.00
   17    3   10      0.74      0.00
   19    3   10      1.49      0.00
   21    3   10      1.79      0.00
   23    3   10      2.10      0.00
    0    4   10     12.64      0.00
    2    4   10     13.22      0.00
    4    4   10      8.66      0.00
    6    4   10      3.18      0.00
    8    4   10      3.60      0.00
   10    4   10      1.89      0.00
   12    4   10      0.10      0.00
   14    4   10      0.86      0.00
   16    4   10      2.13      0.00
   18    4   10      1.18      0.00
   20    4   10      0.46      0.00
   22    4   10      0.72      0.00
    1    5   10    -20.82      0.00
    3    5   10    -26.65      0.00
    5    5   10    -20.80      0.00
    7    5   10    -10.80      0.00
    9    5   10     -7.09      0.00
   11    5   10     -7.00      0.00
   13    5   10     -8.31      0.00
   15    5   10     -4.97      0.00
   17    5   10     -1.10      0.00
   19    5   10     -0.89      0.00
   21    5   10     -2.55      0.00
   23    5   10     -0.58      0.00
    0    6   10     -4.07      0.00
    2    6   10     -9.94      0.00
    4    6   10    -13.48      0.00
    6    6   10     -7.07      0.00
    8    6   10     -2.38      0.00
   10    6   10     -0.54      0.00
   12    6   10     -4.09      0.00
   14    6   10     -2.72      0.00
   16    6   10     -1.17      0.00
   18    6   10      0.69      0.00
   20    6   10     -1.51      0.00
   22    6   10     -0.71      0.00
    1    7   10     23.07      0.00
    3    7   10     19.81      0.00
    5    7   10     12.76      0.00
    7    7   10      8.71      0.00
    9    7   10      6.53      0.00
   11    7   10      3.67      0.00
   13    7   10      4.56      0.00
   15    7   10      2.77      0.00
   17    7   10      1.01      0.00
   19    7   10      0.45      0.00
   21    7   10      1.13      0.00
   23    7   10     -0.05      0.00
    0    8   10      4.03      0.00
    2    8   10      8.18      0.00
    4    8   10     11.62      0.00
    6    8   10      7.38      0.00
    8    8   10      2.55      0.00
   10    8   10      0.71      0.00
   12    8   10      5.12      0.00
   14    8   10      4.12      0.00
   16    8   10      0.42      0.00
   18    8   10     -1.63      0.00
   20    8   10      1.21      0.00
   22    8   10     -0.61      0.00
    1    9   10    -22.20      0.00
    3    9   10     -9.90      0.00
    5    9   10     -5.83      0.00
    7    9   10     -8.75      0.00
    9    9   10     -5.89      0.00
   11    9   10     -2.33      0.00
   13    9   10     -1.67      0.00
   15    9   10     -1.16      0.00
   17    9   10     -2.46      0.00
   19    9   10     -1.68      0.00
   21    9   10      0.90      0.00
   23    9   10      0.23      0.00
    0   10   10     -2.73      0.00
    2   10   10     -4.81      0.00
    4   10   10     -9.30      0.00
    6   10   10     -8.45      0.00
    8   10   10     -3.54      0.00
   10   10   10     -2.31      0.00
   12   10   10     -4.13      0.00
   14   10   10     -3.97      0.00
   16   10   10      0.39      0.00
   18   10   10      2.02      0.00
   20   10   10      0.38      0.00
   22   10   10      0.43      0.00
    1   11   10     16.37      0.00
    3   11   10      6.12      0.00
    5   11   10      2.16      0.00
    7   11   10      6.76      0.00
    9   11   10      6.65      0.00
   11   11   10      1.19      0.00
   13   11   10     -1.34      0.00
   15   11   10      2.74      0.00
   17   11   10      3.86      0.00
   19   11   10      2.52      0.00
   21   11   10     -0.19      0.00
   23   11   10     -0.65      0.00
    0   12   10     -0.77      0.00
    2   12   10      1.14      0.00
    4   12   10      7.04      0.00
    6   12   10      8.56      0.00
    8   12   10      6.56      0.00
   10   12   10      6.33      0.00
   12   12   10      3.63      0.00
   14   12   10      1.91      0.00
   16   12   10     -1.00      0.00
   18   12   10     -1.69      0.00
   20   12   10     -1.74      0.00
   22   12   10     -0.18      0.00
    1   13   10     -7.40      0.00
    3   13   10     -4.85      0.00
    5   13   10     -3.80      0.00
    7   13   10     -5.90      0.00
    9   13   10     -6.11      0.00
   11   13   10     -2.06      0.00
   13   13   10      1.01      0.00
   15   13   10     -2.53      0.00
   17   13   10     -2.66      0.00
   19   13   10     -1.00      0.00
   21   13   10     -0.99      0.00
    0   14   10      2.19      0.00
    2   14   10     -0.73      0.00
    4   14   10     -4.70      0.00
    6   14   10     -6.15      0.00
    8   14   10     -8.64      0.00
   10   14   10     -7.46      0.00
   12   14   10     -2.63      0.00
   14   14   10     -0.17      0.00
   16   14   10      1.88      0.00
   18   14   10      1.65      0.00
   20   14   10      1.70      0.00
   22   14   10     -0.05      0.00
    1   15   10     -0.12      0.00
    3   15   10      2.85      0.00
    5   15   10      6.14      0.00
    7   15   10      5.48      0.00
    9   15   10      3.51      0.00
   11   15   10      4.14      0.00
   13   15   10      2.29      0.00
   15   15   10      1.27      0.00
   17   15   10      1.23      0.00
   19   15   10     -0.68      0.00
   21   15   10     -0.44      0.00
    0   16   10     -3.36      0.00
    2   16   10     -0.13      0.00
    4   16   10      2.96      0.00
    6   16   10      4.76      0.00
    8   16   10      6.59      0.00
   10   16   10      5.21      0.00
   12   16   10      1.60      0.00
   14   16   10     -0.43      0.00
   16   16   10     -1.05      0.00
   18   16   10     -0.10      0.00
   20   16   10     -1.35      0.00
    1   17   10      0.26      0.00
    3   17   10     -1.94      0.00
    5   17   10     -3.78      0.00
    7   17   10     -3.46      0.00
    9   17   10     -2.28      0.00
   11   17   10     -2.84      0.00
   13   17   10     -2.80      0.00
   15   17   10     -0.81      0.00
   17   17   10      1.59      0.00
   19   17   10      0.44      0.00
    0   18   10      0.01      0.00
    2   18   10      0.26      0.00
    4   18   10      0.00      0.00
    6   18   10     -2.64      0.00
    8   18   10     -3.31      0.00
   10   18   10     -4.41      0.00
   12   18   10     -1.79      0.00
   14   18   10     -0.06      0.00
   16   18   10     -1.24      0.00
   18   18   10     -1.67      0.00
   20   18   10      0.89      0.00
    1   19   10      1.21      0.00
    3   19   10      0.42      0.00
    5   19   10      1.18      0.00
    7   19   10      0.86      0.00
    9   19   10      0.94      0.00
   11   19   10      2.21      0.00
   13   19   10      2.95      0.00
   15   19   10      0.71      0.00
   17   19   10     -2.39      0.00
   19   19   10      0.13      0.00
    0   20   10      4.67      0.00
    2   20   10      1.86      0.00
    4   20   10     -0.71      0.00
    6   20   10      1.41      0.00
    8   20   10      1.81      0.00
   10   20   10      1.72      0.00
   12   20   10      1.35      0.00
   14   20   10      1.89      0.00
   16   20   10      1.82      0.00
   18   20   10      0.14      0.00
    1   21   10     -1.13      0.00
    3   21   10      1.11      0.00
    5   21   10     -0.34      0.00
    7   21   10      1.24      0.00
    9   21   10      1.65      0.00
   11   21   10     -2.25      0.00
   13   21   10     -3.14      0.00
   15   21   10     -0.35      0.00
   17   21   10     -0.33      0.00
    0   22   10     -2.53      0.00
    2   22   10     -2.26      0.00
    4   22   10     -1.96      0.00
    6   22   10     -2.06      0.00
    8   22   10     -1.03      0.00
   10   22   10      2.28      0.00
   12   22   10      0.93      0.00
   14   22   10     -1.72      0.00
   16   22   10     -1.70      0.00
    1   23   10      1.89      0.00
    3   23   10     -0.38      0.00
    5   23   10     -0.69      0.00
    7   23   10     -2.16      0.00
    9   23   10     -2.44      0.00
   11   23   10      0.34      0.00
   13   23   10      1.65      0.00
   15   23   10     -0.64      0.00
    0   24   10      0.61      0.00
    2   24   10      1.40      0.00
    4   24   10      2.10      0.00
    6   24   10      0.22      0.00
    8   24   10     -1.06      0.00
   10   24   10     -2.25      0.00
   12   24   10     -1.46      0.00
   14   24   10     -0.32      0.00
    1   25   10     -1.76      0.00
    3   25   10     -0.60      0.00
    5   25   10      0.80      0.00
    7   25   10      1.14      0.00
    9   25   10      0.69      0.00
   11   25   10      0.45      0.00
   13   25   10     -0.43      0.00
    0   26   10     -1.41      0.00
    2   26   10     -1.05      0.00
    4   26   10     -0.66      0.00
    6   26   10      1.44      0.00
    8   26   10      2.49      0.00
   10   26   10      0.81      0.00
   12   26   10     -0.30      0.00
    1   27   10      0.61      0.00
    3   27   10      0.51      0.00
    5   27   10      0.51      0.00
    7   27   10      1.88      0.00
    9   27   10      1.01      0.00
   11   27   10     -0.63      0.00
    0   28   10      1.27      0.00
    2   28   10      1.42      0.00
    4   28   10      1.07      0.00
    6   28   10     -0.67      0.00
    8   28   10     -1.66      0.00
   10   28   10     -0.92      0.00
    1   29   10      0.15      0.00
    3   29   10      0.18      0.00
    5   29   10     -0.99      0.00
    7   29   10     -3.17      0.00
    9   29   10     -1.43      0.00
    0   30   10     -1.02      0.00
    2   30   10     -1.22      0.00
    4   30   10     -0.52      0.00
    6   30   10      0.22      0.00
    2    1   11     -2.50      0.00
    4    1   11      0.79      0.00
    6    1   11      2.14      0.00
    8    1   11      0.21      0.00
   10    1   11      1.06      0.00
   12    1   11      0.21      0.00
   14    1   11     -0.08      0.00
   16    1   11      0.52      0.00
   18    1   11     -0.35      0.00
   20    1   11     -0.29      0.00
   22    1   11      0.46      0.00
    1    2   11     -2.72      0.00
    3    2   11     -2.73      0.00
    5    2   11      4.30      0.00
    7    2   11      6.27      0.00
    9    2   11      2.92      0.00
   11    2   11     -0.52      0.00
   13    2   11     -2.19      0.00
   15    2   11     -1.08      0.00
   17    2   11      1.19      0.00
   19    2   11      2.26      0.00
   21    2   11      0.90      0.00
   23    2   11     -1.05      0.00
    2    3   11      4.42      0.00
    4    3   11     -1.88      0.00
    6    3   11     -4.35      0.00
    8    3   11      0.12      0.00
   10    3   11      0.09      0.00
   12    3   11      0.59      0.00
   14    3   11      0.09      0.00
   16    3   11     -1.33      0.00
   18    3   11      0.53      0.00
   20    3   11      0.64      0.00
   22    3   11     -1.19      0.00
    1    4   11      3.57      0.00
    3    4   11      3.85      0.00
    5    4   11     -6.40      0.00
    7    4   11    -12.09      0.00
    9    4   11     -3.52      0.00
   11    4   11      4.56      0.00
   13    4   11      2.80      0.00
   15    4   11      0.56      0.00
   17    4   11     -0.25      0.00
   19    4   11     -0.77      0.00
   21    4   11     -1.00      0.00
   23    4   11     -0.40      0.00
    2    5   11      1.06      0.00
    4    5   11      2.34      0.00
    6    5   11      0.49      0.00
    8    5   11     -2.32      0.00
   10    5   11     -2.74      0.00
   12    5   11     -1.58      0.00
   14    5   11     -0.24      0.00
   16    5   11      0.72      0.00
   18    5   11     -0.42      0.00
   20    5   11      0.37      0.00
   22    5   11      0.87      0.00
   24    5   11     -1.05      0.00
    1    6   11     -4.04      0.00
    3    6   11     -1.70      0.00
    5    6   11      9.80      0.00
    7    6   11     11.02      0.00
    9    6   11      0.33      0.00
   11    6   11     -6.50      0.00
   13    6   11     -3.88      0.00
   15    6   11     -0.85      0.00
   17    6   11     -0.57      0.00
   19    6   11     -0.87      0.00
   21    6   11      2.05      0.00
   23    6   11      2.61      0.00
    2    7   11     -5.82      0.00
    4    7   11     -0.46      0.00
    6    7   11      5.06      0.00
    8    7   11      5.04      0.00
   10    7   11      3.00      0.00
   12    7   11      1.67      0.00
   14    7   11      1.31      0.00
   16    7   11      1.36      0.00
   18    7   11      0.98      0.00
   20    7   11     -1.70      0.00
   22    7   11     -0.22      0.00
    1    8   11      1.74      0.00
    3    8   11     -1.31      0.00
    5    8   11     -9.12      0.00
    7    8   11     -6.35      0.00
    9    8   11      1.04      0.00
   11    8   11      4.32      0.00
   13    8   11      2.52      0.00
   15    8   11      0.19      0.00
   17    8   11      1.79      0.00
   19    8   11      2.02      0.00
   21    8   11     -1.17      0.00
   23    8   11     -3.14      0.00
    2    9   11      1.40      0.00
    4    9   11     -4.08      0.00
    6    9   11     -6.79      0.00
    8    9   11     -7.07      0.00
   10    9   11     -2.56      0.00
   12    9   11     -1.03      0.00
   14    9   11     -2.81      0.00
   16    9   11     -2.77      0.00
   18    9   11     -1.14      0.00
   20    9   11      1.54      0.00
   22    9   11      0.32      0.00
    1   10   11      1.97      0.00
    3   10   11      2.46      0.00
    5   10   11      2.61      0.00
    7   10   11      2.03      0.00
    9   10   11     -0.94      0.00
   11   10   11     -1.88      0.00
   13   10   11      0.96      0.00
   15   10   11      0.98      0.00
   17   10   11     -2.05      0.00
   19   10   11      0.24      0.00
   21   10   11      0.48      0.00
    2   11   11      4.11      0.00
    4   11   11      5.97      0.00
    6   11   11      6.56      0.00
    8   11   11      7.56      0.00
   10   11   11      2.76      0.00
   12   11   11      0.32      0.00
   14   11   11      2.18      0.00
   16   11   11      2.25      0.00
   18   11   11      0.67      0.00
   20   11   11     -0.67      0.00
   22   11   11     -0.47      0.00
    1   12   11     -3.45      0.00
    3   12   11     -4.52      0.00
    5   12   11      1.12      0.00
    7   12   11      2.74      0.00
    9   12   11      0.55      0.00
   11   12   11     -0.96      0.00
   13   12   11      0.01      0.00
   15   12   11      0.67      0.00
   17   12   11      0.36      0.00
   19   12   11     -2.28      0.00
   21   12   11     -1.44      0.00
    2   13   11     -5.18      0.00
    4   13   11     -4.64      0.00
    6   13   11     -4.28      0.00
    8   13   11     -4.60      0.00
   10   13   11     -4.61      0.00
   12   13   11     -2.33      0.00
   14   13   11     -0.39      0.00
   16   13   11     -0.97      0.00
   18   13   11     -0.43      0.00
   20   13   11     -0.32      0.00
   22   13   11     -0.10      0.00
    1   14   11      1.75      0.00
    3   14   11      2.82      0.00
    5   14   11     -2.57      0.00
    7   14   11     -4.15      0.00
    9   14   11      0.07      0.00
   11   14   11      1.46      0.00
   13   14   11     -2.55      0.00
   15   14   11     -2.46      0.00
   17   14   11      1.03      0.00
   19   14   11      1.59      0.00
   21   14   11      1.06      0.00
    2   15   11      2.66      0.00
    4   15   11      2.57      0.00
    6   15   11      1.16      0.00
    8   15   11      2.08      0.00
   10   15   11      6.15      0.00
   12   15   11      4.33      0.00
   14   15   11      1.01      0.00
   16   15   11      0.83      0.00
   18   15   11      0.09      0.00
   20   15   11      0.69      0.00
    1   16   11      0.78      0.00
    3   16   11      2.28      0.00
    5   16   11      4.19      0.00
    7   16   11      2.91      0.00
    9   16   11      1.02      0.00
   11   16   11      0.52      0.00
   13   16   11      1.35      0.00
   15   16   11      2.13      0.00
   17   16   11     -1.56      0.00
   19   16   11     -2.67      0.00
   21   16   11     -0.11      0.00
    2   17   11      2.35      0.00
    4   17   11      0.75      0.00
    6   17   11      0.59      0.00
    8   17   11     -2.13      0.00
   10   17   11     -5.68      0.00
   12   17   11     -3.52      0.00
   14   17   11     -1.44      0.00
   16   17   11     -0.07      0.00
   18   17   11      0.04      0.00
   20   17   11     -0.39      0.00
    1   18   11     -1.29      0.00
    3   18   11     -2.52      0.00
    5   18   11     -3.04      0.00
    7   18   11     -2.11      0.00
    9   18   11      0.60      0.00
   11   18   11      0.83      0.00
   13   18   11      0.16      0.00
   15   18   11     -0.30      0.00
   17   18   11      0.75      0.00
   19   18   11      0.72      0.00
    2   19   11     -2.51      0.00
    4   19   11     -1.80      0.00
    6   19   11     -2.03      0.00
    8   19   11     -0.30      0.00
   10   19   11      2.92      0.00
   12   19   11      2.72      0.00
   14   19   11      0.81      0.00
   16   19   11     -1.15      0.00
   18   19   11      0.11      0.00
    1   20   11      1.49      0.00
    3   20   11      2.63      0.00
    5   20   11      2.31      0.00
    7   20   11      1.46      0.00
    9   20   11     -2.68      0.00
   11   20   11     -2.71      0.00
   13   20   11     -0.63      0.00
   15   20   11     -1.12      0.00
   17   20   11      0.16      0.00
    2   21   11     -1.27      0.00
    4   21   11      0.39      0.00
    6   21   11      2.58      0.00
    8   21   11      2.68      0.00
   10   21   11      0.65      0.00
   12   21   11     -1.47      0.00
   14   21   11     -1.70      0.00
   16   21   11     -0.74      0.00
    1   22   11     -1.30      0.00
    3   22   11     -3.99      0.00
    5   22   11     -3.67      0.00
    7   22   11     -1.84      0.00
    9   22   11      0.35      0.00
   11   22   11      1.38      0.00
   13   22   11      1.40      0.00
   15   22   11      0.13      0.00
   17   22   11     -0.39      0.00
    2   23   11      0.65      0.00
    4   23   11     -0.39      0.00
    6   23   11     -0.81      0.00
    8   23   11     -0.65      0.00
   10   23   11     -1.14      0.00
   12   23   11     -0.82      0.00
   14   23   11      1.37      0.00
   16   23   11      2.44      0.00
    1   24   11      0.39      0.00
    3   24   11      2.30      0.00
    5   24   11      2.80      0.00
    7   24   11      1.57      0.00
    9   24   11      1.95      0.00
   11   24   11      0.98      0.00
   13   24   11     -1.36      0.00
   15   24   11      0.24      0.00
    2   25   11      1.08      0.00
    4   25   11      0.46      0.00
    6   25   11     -0.96      0.00
    8   25   11     -0.32      0.00
   10   25   11      0.40      0.00
   12   25   11      1.19      0.00
   14   25   11      0.19      0.00
    1   26   11     -0.22      0.00
    3   26   11     -0.11      0.00
    5   26   11      0.01      0.00
    7   26   11      0.31      0.00
    9   26   11     -1.59      0.00
   11   26   11     -1.79      0.00
   13   26   11      0.31      0.00
    2   27   11     -0.44      0.00
    4   27   11     -0.08      0.00
    6   27   11      0.37      0.00
    8   27   11     -0.80      0.00
   10   27   11     -0.53      0.00
    1   28   11     -0.03      0.00
    3   28   11     -0.87      0.00
    5   28   11     -0.96      0.00
    7   28   11     -1.31      0.00
    9   28   11     -0.49      0.00
    2   29   11      0.40      0.00
    4   29   11     -0.34      0.00
    6   29   11     -0.07      0.00
    8   29   11     -0.49      0.00
    1   30   11      0.55      0.00
    3   30   11      0.88      0.00
    5   30   11     -0.23      0.00
    0    0   12     -7.42      0.00
    2    0   12    -12.53      0.00
    4    0   12    -18.65      0.00
    6    0   12    -18.88      0.00
    8    0   12    -10.88      0.00
   10    0   12     -7.07      0.00
   12    0   12     -7.81      0.00
   14    0   12     -5.29      0.00
   16    0   12     -0.70      0.00
   18    0   12      0.30      0.00
   20    0   12      1.09      0.00
   22    0   12     -2.98      0.00
    1    1   12     -7.50      0.00
    3    1   12      2.66      0.00
    5    1   12      6.92      0.00
    7    1   12      1.88      0.00
    9    1   12     -1.55      0.00
   11    1   12     -1.61      0.00
   13    1   12      0.84      0.00
   15    1   12      3.90      0.00
   17    1   12      3.86      0.00
   19    1   12      3.21      0.00
   21    1   12      0.56      0.00
   23    1   12     -0.25      0.00
    0    2   12      7.44      0.00
    2    2   12     13.05      0.00
    4    2   12     19.13      0.00
    6    2   12     18.41      0.00
    8    2   12     10.69      0.00
   10    2   12      6.21      0.00
   12    2   12      6.32      0.00
   14    2   12      4.02      0.00
   16    2   12     -0.23      0.00
   18    2   12     -0.42      0.00
   20    2   12     -0.36      0.00
   22    2   12      1.89      0.00
    1    3   12      2.94      0.00
    3    3   12      0.04      0.00
    5    3   12     -2.28      0.00
    7    3   12     -0.18      0.00
    9    3   12      1.37      0.00
   11    3   12     -2.07      0.00
   13    3   12     -3.20      0.00
   15    3   12     -2.58      0.00
   17    3   12     -3.20      0.00
   19    3   12     -3.27      0.00
   21    3   12     -2.98      0.00
   23    3   12     -1.60      0.00
    0    4   12     -7.02      0.00
    2    4   12    -14.36      0.00
    4    4   12    -19.41      0.00
    6    4   12    -14.16      0.00
    8    4   12     -8.85      0.00
   10    4   12     -5.41      0.00
   12    4   12     -4.45      0.00
   14    4   12     -2.54      0.00
   16    4   12      0.15      0.00
   18    4   12      0.84      0.00
   20    4   12     -0.32      0.00
   22    4   12      0.00      0.00
    1    5   12      0.76      0.00
    3    5   12     -2.38      0.00
    5    5   12     -4.63      0.00
    7    5   12     -2.61      0.00
    9    5   12      2.72      0.00
   11    5   12      4.55      0.00
   13    5   12      2.73      0.00
   15    5   12      1.38      0.00
   17    5   12      3.00      0.00
   19    5   12      2.86      0.00
   21    5   12      3.24      0.00
   23    5   12      1.01      0.00
    0    6   12     12.18      0.00
    2    6   12     15.33      0.00
    4    6   12     13.79      0.00
    6    6   12      6.98      0.00
    8    6   12      6.93      0.00
   10    6   12      5.19      0.00
   12    6   12      3.74      0.00
   14    6   12      1.78      0.00
   16    6   12      0.93      0.00
   18    6   12     -0.96      0.00
   20    6   12     -0.22      0.00
   22    6   12     -1.31      0.00
    1    7   12     -0.08      0.00
    3    7   12      4.73      0.00
    5    7   12      5.57      0.00
    7    7   12      1.27      0.00
    9    7   12     -4.81      0.00
   11    7   12     -4.15      0.00
   13    7   12     -1.63      0.00
   15    7   12      0.30      0.00
   17    7   12     -1.31      0.00
   19    7   12     -0.92      0.00
   21    7   12     -1.30      0.00
   23    7   12     -1.38      0.00
    0    8   12    -20.71      0.00
    2    8   12    -13.91      0.00
    4    8   12     -4.47      0.00
    6    8   12     -3.05      0.00
    8    8   12     -5.75      0.00
   10    8   12     -3.82      0.00
   12    8   12     -2.50      0.00
   14    8   12     -0.71      0.00
   16    8   12     -0.90      0.00
   18    8   12     -0.61      0.00
   20    8   12      0.16      0.00
   22    8   12      1.83      0.00
    1    9   12     -1.52      0.00
    3    9   12     -4.89      0.00
    5    9   12     -3.03      0.00
    7    9   12      1.50      0.00
    9    9   12      3.36      0.00
   11    9   12      3.40      0.00
   13    9   12      2.04      0.00
   15    9   12      0.63      0.00
   17    9   12      1.27      0.00
   19    9   12     -0.62      0.00
   21    9   12     -1.85      0.00
    0   10   12     20.21      0.00
    2   10   12     10.47      0.00
    4   10   12      0.58      0.00
    6   10   12      1.90      0.00
    8   10   12      4.46      0.00
   10   10   12      2.75      0.00
   12   10   12     -1.34      0.00
   14   10   12     -0.42      0.00
   16   10   12      2.35      0.00
   18   10   12      2.85      0.00
   20   10   12      1.21      0.00
   22   10   12     -1.18      0.00
    1   11   12     -0.11      0.00
    3   11   12      1.34      0.00
    5   11   12      2.31      0.00
    7   11   12     -1.58      0.00
    9   11   12     -1.57      0.00
   11   11   12     -0.52      0.00
   13   11   12     -1.03      0.00
   15   11   12     -3.59      0.00
   17   11   12     -1.98      0.00
   19   11   12      0.24      0.00
   21   11   12      1.56      0.00
    0   12   12    -13.02      0.00
    2   12   12     -7.72      0.00
    4   12   12     -1.70      0.00
    6   12   12     -1.41      0.00
    8   12   12     -4.35      0.00
   10   12   12     -2.51      0.00
   12   12   12      4.19      0.00
   14   12   12      1.05      0.00
   16   12   12     -3.60      0.00
   18   12   12     -3.45      0.00
   20   12   12     -2.14      0.00
   22   12   12      0.21      0.00
    1   13   12      0.30      0.00
    3   13   12      0.85      0.00
    5   13   12     -0.03      0.00
    7   13   12      0.44      0.00
    9   13   12     -1.21      0.00
   11   13   12     -1.39      0.00
   13   13   12      0.30      0.00
   15   13   12      3.43      0.00
   17   13   12      1.85      0.00
   19   13   12      0.69      0.00
   21   13   12      0.61      0.00
    0   14   12      5.19      0.00
    2   14   12      5.00      0.00
    4   14   12      3.75      0.00
    6   14   12      2.54      0.00
    8   14   12      2.97      0.00
   10   14   12      0.73      0.00
   12   14   12     -1.59      0.00
   14   14   12      0.00      0.00
   16   14   12      2.20      0.00
   18   14   12      2.85      0.00
   20   14   12      1.14      0.00
    1   15   12     -0.69      0.00
    3   15   12     -1.15      0.00
    5   15   12     -1.29      0.00
    7   15   12      1.18      0.00
    9   15   12      2.24      0.00
   11   15   12      0.07      0.00
   13   15   12     -0.06      0.00
   15   15   12     -0.44      0.00
   17   15   12     -1.37      0.00
   19   15   12     -1.20      0.00
   21   15   12     -0.03      0.00
    0   16   12     -1.08      0.00
    2   16   12     -2.65      0.00
    4   16   12     -3.79      0.00
    6   16   12     -2.60      0.00
    8   16   12      0.03      0.00
   10   16   12      1.05      0.00
   12   16   12     -0.37      0.00
   14   16   12     -1.15      0.00
   16   16   12     -1.12      0.00
   18   16   12     -2.18      0.00
   20   16   12     -0.11      0.00
    1   17   12      3.39      0.00
    3   17   12      3.08      0.00
    5   17   12      1.37      0.00
    7   17   12     -0.60      0.00
    9   17   12     -1.12      0.00
   11   17   12     -1.83      0.00
   13   17   12     -1.82      0.00
   15   17   12     -1.69      0.00
   17   17   12     -1.66      0.00
   19   17   12      1.61      0.00
    0   18   12      3.45      0.00
    2   18   12      2.36      0.00
    4   18   12      1.20      0.00
    6   18   12     -0.30      0.00
    8   18   12     -2.77      0.00
   10   18   12     -0.13      0.00
   12   18   12      1.13      0.00
   14   18   12      1.72      0.00
   16   18   12      0.79      0.00
   18   18   12      1.10      0.00
    1   19   12     -2.12      0.00
    3   19   12     -3.39      0.00
    5   19   12     -2.94      0.00
    7   19   12     -1.34      0.00
    9   19   12      0.38      0.00
   11   19   12      2.94      0.00
   13   19   12      3.06      0.00
   15   19   12      1.82      0.00
   17   19   12      1.64      0.00
   19   19   12     -1.64      0.00
    0   20   12     -4.35      0.00
    2   20   12     -1.92      0.00
    4   20   12      0.15      0.00
    6   20   12      1.72      0.00
    8   20   12      3.86      0.00
   10   20   12     -0.81      0.00
   12   20   12     -3.87      0.00
   14   20   12     -2.84      0.00
   16   20   12     -0.48      0.00
   18   20   12      0.39      0.00
    1   21   12      0.97      0.00
    3   21   12      0.57      0.00
    5   21   12      1.44      0.00
    7   21   12      0.61      0.00
    9   21   12      0.55      0.00
   11   21   12      0.46      0.00
   13   21   12     -2.47      0.00
   15   21   12     -2.20      0.00
   17   21   12      1.40      0.00
    0   22   12      0.29      0.00
    2   22   12      0.65      0.00
    4   22   12      1.23      0.00
    6   22   12     -0.26      0.00
    8   22   12     -2.50      0.00
   10   22   12     -0.37      0.00
   12   22   12      3.43      0.00
   14   22   12      2.21      0.00
   16   22   12      0.31      0.00
    1   23   12     -2.14      0.00
    3   23   12      0.44      0.00
    5   23   12      0.73      0.00
    7   23   12      1.00      0.00
    9   23   12     -0.11      0.00
   11   23   12     -1.74      0.00
   13   23   12      0.48      0.00
   15   23   12      2.51      0.00
    0   24   12      1.73      0.00
    2   24   12      0.35      0.00
    4   24   12     -1.10      0.00
    6   24   12     -0.38      0.00
    8   24   12      0.19      0.00
   10   24   12     -0.09      0.00
   12   24   12     -1.13      0.00
   14   24   12     -0.24      0.00
    1   25   12      1.33      0.00
    3   25   12      0.60      0.00
    5   25   12      0.11      0.00
    7   25   12     -1.20      0.00
    9   25   12     -1.32      0.00
   11   25   12     -0.31      0.00
   13   25   12      0.44      0.00
    0   26   12     -0.28      0.00
    2   26   12     -1.11      0.00
    4   26   12     -1.04      0.00
    6   26   12      0.70      0.00
    8   26   12      2.54      0.00
   10   26   12      1.76      0.00
   12   26   12      0.38      0.00
    1   27   12     -0.36      0.00
    3   27   12     -0.36      0.00
    5   27   12     -0.23      0.00
    7   27   12      0.38      0.00
    9   27   12      0.82      0.00
   11   27   12      1.58      0.00
    0   28   12     -0.93      0.00
    2   28   12      0.52      0.00
    4   28   12      0.75      0.00
    6   28   12     -1.80      0.00
    8   28   12     -3.12      0.00
    1   29   12      0.17      0.00
    3   29   12     -0.30      0.00
    5   29   12     -0.41      0.00
    2    1   13     -1.32      0.00
    4    1   13     -0.13      0.00
    6    1   13      1.12      0.00
    8    1   13      1.40      0.00
   10    1   13     -0.08      0.00
   12    1   13     -1.15      0.00
   14    1   13     -0.95      0.00
   16    1   13      0.18      0.00
   18    1   13      0.22      0.00
   20    1   13     -0.58      0.00
   22    1   13     -1.47      0.00
    1    2   13      2.78      0.00
    3    2   13      5.23      0.00
    5    2   13      3.58      0.00
    7    2   13      1.23      0.00
    9    2   13     -2.27      0.00
   11    2   13     -3.09      0.00
   13    2   13     -0.48      0.00
   15    2   13     -0.11      0.00
   17    2   13     -0.08      0.00
   19    2   13     -0.10      0.00
   21    2   13     -0.51      0.00
   23    2   13      0.34      0.00
    2    3   13      3.79      0.00
    4    3   13      2.27      0.00
    6    3   13     -3.51      0.00
    8    3   13     -5.92      0.00
   10    3   13      0.07      0.00
   12    3   13      3.51      0.00
   14    3   13      1.88      0.00
   16    3   13      0.50      0.00
   18    3   13      0.96      0.00
   20    3   13      1.46      0.00
   22    3   13      2.44      0.00
    1    4   13     -2.43      0.00
    3    4   13     -5.51      0.00
    5    4   13     -6.05      0.00
    7    4   13     -3.08      0.00
    9    4   13      0.95      0.00
   11    4   13      2.40      0.00
   13    4   13      1.67      0.00
   15    4   13      0.68      0.00
   17    4   13      0.50      0.00
   19    4   13     -0.11      0.00
   21    4   13     -0.04      0.00
   23    4   13      0.15      0.00
    2    5   13     -7.91      0.00
    4    5   13     -3.56      0.00
    6    5   13      5.38      0.00
    8    5   13      6.20      0.00
   10    5   13     -1.28      0.00
   12    5   13     -4.73      0.00
   14    5   13     -2.62      0.00
   16    5   13     -1.52      0.00
   18    5   13     -1.65      0.00
   20    5   13     -1.04      0.00
   22    5   13      0.41      0.00
    1    6   13     -0.11      0.00
    3    6   13      1.72      0.00
    5    6   13      6.41      0.00
    7    6   13      7.43      0.00
    9    6   13      2.32      0.00
   11    6   13     -2.39      0.00
   13    6   13     -2.16      0.00
   15    6   13     -0.02      0.00
   17    6   13      0.09      0.00
   19    6   13     -0.57      0.00
   21    6   13     -1.30      0.00
   23    6   13     -0.49      0.00
    2    7   13      8.23      0.00
    4    7   13      0.78      0.00
    6    7   13     -3.09      0.00
    8    7   13      0.33      0.00
   10    7   13      3.05      0.00
   12    7   13      3.63      0.00
   14    7   13      2.38      0.00
   16    7   13      1.16      0.00
   18    7   13      0.48      0.00
   20    7   13      0.27      0.00
   22    7   13     -3.24      0.00
    1    8   13      0.65      0.00
    3    8   13     -2.28      0.00
    5    8   13     -6.59      0.00
    7    8   13     -8.66      0.00
    9    8   13     -3.51      0.00
   11    8   13      2.55      0.00
   13    8   13      1.89      0.00
   15    8   13      0.02      0.00
   17    8   13     -1.39      0.00
   19    8   13      0.40      0.00
   21    8   13      1.38      0.00
    2    9   13     -1.82      0.00
    4    9   13      0.41      0.00
    6    9   13     -2.16      0.00
    8    9   13     -4.60      0.00
   10    9   13     -4.94      0.00
   12    9   13     -2.09      0.00
   14    9   13      1.26      0.00
   16    9   13     -0.38      0.00
   18    9   13     -0.19      0.00
   20    9   13      0.47      0.00
   22    9   13      2.70      0.00
    1   10   13      1.37      0.00
    3   10   13      5.68      0.00
    5   10   13      6.23      0.00
    7   10   13      6.01      0.00
    9   10   13      3.85      0.00
   11   10   13     -0.01      0.00
   13   10   13     -1.74      0.00
   15   10   13     -1.40      0.00
   17   10   13      0.41      0.00
   19   10   13     -1.44      0.00
   21   10   13      0.54      0.00
    2   11   13     -2.79      0.00
    4   11   13      0.63      0.00
    6   11   13      5.01      0.00
    8   11   13      5.47      0.00
   10   11   13      4.56      0.00
   12   11   13      1.19      0.00
   14   11   13     -1.79      0.00
   16   11   13      0.18      0.00
   18   11   13      0.05      0.00
   20   11   13     -0.97      0.00
   22   11   13     -0.91      0.00
    1   12   13     -2.44      0.00
    3   12   13     -4.15      0.00
    5   12   13     -3.42      0.00
    7   12   13     -3.14      0.00
    9   12   13     -2.79      0.00
   11   12   13     -2.65      0.00
   13   12   13     -0.15      0.00
   15   12   13      2.18      0.00
   17   12   13      1.19      0.00
   19   12   13      0.97      0.00
   21   12   13     -1.56      0.00
    2   13   13      2.64      0.00
    4   13   13     -0.60      0.00
    6   13   13     -4.79      0.00
    8   13   13     -4.39      0.00
   10   13   13     -0.28      0.00
   12   13   13     -0.77      0.00
   14   13   13     -2.49      0.00
   16   13   13     -0.26      0.00
   18   13   13     -0.15      0.00
   20   13   13     -0.08      0.00
    1   14   13      2.05      0.00
    3   14   13      1.89      0.00
    5   14   13      0.89      0.00
    7   14   13      0.04      0.00
    9   14   13      1.45      0.00
   11   14   13      4.29      0.00
   13   14   13      2.77      0.00
   15   14   13     -1.11      0.00
   17   14   13     -0.83      0.00
   19   14   13      1.51      0.00
   21   14   13      1.81      0.00
    2   15   13      0.76      0.00
    4   15   13      1.88      0.00
    6   15   13      3.37      0.00
    8   15   13      1.72      0.00
   10   15   13     -0.80      0.00
   12   15   13      1.27      0.00
   14   15   13      3.10      0.00
   16   15   13      0.47      0.00
   18   15   13      0.02      0.00
   20   15   13      0.26      0.00
    1   16   13     -0.19      0.00
    3   16   13      0.17      0.00
    5   16   13      0.80      0.00
    7   16   13      0.68      0.00
    9   16   13     -3.52      0.00
   11   16   13     -4.41      0.00
   13   16   13     -1.71      0.00
   15   16   13     -0.06      0.00
   17   16   13      0.18      0.00
   19   16   13     -0.92      0.00
    2   17   13     -2.97      0.00
    4   17   13     -2.70      0.00
    6   17   13     -2.33      0.00
    8   17   13      0.11      0.00
   10   17   13      0.42      0.00
   12   17   13     -1.63      0.00
   14   17   13     -1.94      0.00
   16   17   13     -1.58      0.00
   18   17   13     -0.06      0.00
    1   18   13     -1.22      0.00
    3   18   13     -2.88      0.00
    5   18   13     -3.02      0.00
    7   18   13     -0.59      0.00
    9   18   13      3.09      0.00
   11   18   13      2.88      0.00
   13   18   13     -0.31      0.00
   15   18   13     -1.81      0.00
   17   18   13     -0.56      0.00
   19   18   13      1.02      0.00
    2   19   13      1.05      0.00
    4   19   13      0.67      0.00
    6   19   13      1.03      0.00
    8   19   13     -0.80      0.00
   10   19   13     -2.03      0.00
   12   19   13      0.94      0.00
   14   19   13      2.43      0.00
   16   19   13      2.43      0.00
   18   19   13      1.68      0.00
    1   20   13     -0.25      0.00
    3   20   13      1.17      0.00
    5   20   13      3.19      0.00
    7   20   13      2.09      0.00
    9   20   13      0.83      0.00
   11   20   13     -1.42      0.00
   13   20   13     -0.76      0.00
   15   20   13      2.30      0.00
   17   20   13      1.47      0.00
    2   21   13      1.05      0.00
    4   21   13      0.68      0.00
    6   21   13      0.05      0.00
    8   21   13      0.05      0.00
   10   21   13      1.05      0.00
   12   21   13      0.48      0.00
   14   21   13     -1.10      0.00
   16   21   13     -1.25      0.00
    1   22   13      0.13      0.00
    3   22   13     -0.10      0.00
    5   22   13     -1.02      0.00
    7   22   13     -0.70      0.00
    9   22   13     -0.96      0.00
   11   22   13     -0.36      0.00
   13   22   13      1.05      0.00
   15   22   13      0.97      0.00
    2   23   13     -0.48      0.00
    4   23   13     -0.64      0.00
    6   23   13     -1.21      0.00
    8   23   13      0.19      0.00
   10   23   13      0.82      0.00
   12   23   13     -1.10      0.00
   14   23   13     -0.80      0.00
    1   24   13      2.04      0.00
    3   24   13      2.22      0.00
    5   24   13     -0.63      0.00
    7   24   13     -1.68      0.00
    9   24   13     -1.01      0.00
   11   24   13      1.25      0.00
   13   24   13      0.95      0.00
    2   25   13     -1.17      0.00
    4   25   13      0.18      0.00
    6   25   13      2.75      0.00
    8   25   13      0.24      0.00
   10   25   13     -1.67      0.00
   12   25   13      0.44      0.00
    1   26   13     -1.78      0.00
    3   26   13     -2.03      0.00
    5   26   13      0.19      0.00
    7   26   13      0.24      0.00
    9   26   13      1.13      0.00
   11   26   13     -0.25      0.00
    2   27   13      1.03      0.00
    4   27   13      1.05      0.00
    6   27   13     -0.66      0.00
    8   27   13      0.67      0.00
   10   27   13      1.15      0.00
    1   28   13      0.42      0.00
    3   28   13      0.59      0.00
    5   28   13      0.54      0.00
    7   28   13      1.18      0.00
    9   28   13     -0.71      0.00
    2   29   13     -0.13      0.00
    4   29   13     -1.61      0.00
    6   29   13     -2.23      0.00
    0    0   14      2.05      0.00
    2    0   14      2.22      0.00
    4    0   14      1.39      0.00
    6    0   14      2.05      0.00
    8    0   14     -0.49      0.00
   10    0   14     -3.18      0.00
   12    0   14     -2.21      0.00
   14    0   14      2.17      0.00
   16    0   14      5.78      0.00
   18    0   14      4.62      0.00
   20    0   14      1.95      0.00
   22    0   14      2.10      0.00
    1    1   14      0.14      0.00
    3    1   14      3.12      0.00
    5    1   14      0.62      0.00
    7    1   14     -4.60      0.00
    9    1   14     -7.57      0.00
   11    1   14     -4.15      0.00
   13    1   14     -1.11      0.00
   15    1   14     -0.42      0.00
   17    1   14      1.25      0.00
   19    1   14      1.12      0.00
   21    1   14      2.75      0.00
    0    2   14     -0.96      0.00
    2    2   14     -0.98      0.00
    4    2   14     -1.01      0.00
    6    2   14     -2.45      0.00
    8    2   14      1.46      0.00
   10    2   14      3.76      0.00
   12    2   14      1.25      0.00
   14    2   14     -1.56      0.00
   16    2   14     -4.00      0.00
   18    2   14     -4.21      0.00
   20    2   14     -2.86      0.00
   22    2   14     -2.87      0.00
    1    3   14      2.34      0.00
    3    3   14     -1.78      0.00
    5    3   14     -1.35      0.00
    7    3   14      2.78      0.00
    9    3   14      5.43      0.00
   11    3   14      4.56      0.00
   13    3   14      2.59      0.00
   15    3   14      1.73      0.00
   17    3   14      0.32      0.00
   19    3   14     -0.99      0.00
   21    3   14     -0.66      0.00
   23    3   14      1.33      0.00
    0    4   14     -1.45      0.00
    2    4   14     -0.12      0.00
    4    4   14     -0.61      0.00
    6    4   14     -1.80      0.00
    8    4   14     -2.07      0.00
   10    4   14     -0.64      0.00
   12    4   14      0.91      0.00
   14    4   14      0.88      0.00
   16    4   14      2.37      0.00
   18    4   14      3.21      0.00
   20    4   14      3.34      0.00
   22    4   14      3.20      0.00
    1    5   14     -2.60      0.00
    3    5   14      0.65      0.00
    5    5   14     -0.35      0.00
    7    5   14     -1.72      0.00
    9    5   14     -2.47      0.00
   11    5   14     -2.19      0.00
   13    5   14     -2.49      0.00
   15    5   14     -1.50      0.00
   17    5   14     -1.20      0.00
   19    5   14     -0.76      0.00
   21    5   14     -0.80      0.00
    0    6   14     -0.30      0.00
    2    6   14     -0.02      0.00
    4    6   14      3.81      0.00
    6    6   14      6.88      0.00
    8    6   14      0.21      0.00
   10    6   14     -4.38      0.00
   12    6   14     -3.52      0.00
   14    6   14     -1.17      0.00
   16    6   14     -1.22      0.00
   18    6   14     -1.43      0.00
   20    6   14     -1.91      0.00
   22    6   14     -2.45      0.00
    1    7   14     -1.88      0.00
    3    7   14      1.45      0.00
    5    7   14      4.86      0.00
    7    7   14      1.18      0.00
    9    7   14     -1.44      0.00
   11    7   14     -0.94      0.00
   13    7   14      2.10      0.00
   15    7   14      0.85      0.00
   17    7   14      0.02      0.00
   19    7   14      0.78      0.00
   21    7   14      1.00      0.00
    0    8   14      2.92      0.00
    2    8   14     -1.51      0.00
    4    8   14     -4.88      0.00
    6    8   14     -3.76      0.00
    8    8   14      0.99      0.00
   10    8   14      4.78      0.00
   12    8   14      6.50      0.00
   14    8   14      2.62      0.00
   16    8   14     -0.31      0.00
   18    8   14      0.08      0.00
   20    8   14     -0.15      0.00
   22    8   14      0.91      0.00
    1    9   14      3.21      0.00
    3    9   14     -4.27      0.00
    5    9   14     -5.68      0.00
    7    9   14      0.09      0.00
    9    9   14      4.26      0.00
   11    9   14      0.77      0.00
   13    9   14     -3.27      0.00
   15    9   14     -1.55      0.00
   17    9   14      0.83      0.00
   19    9   14      0.97      0.00
   21    9   14     -0.05      0.00
    0   10   14      0.49      0.00
    2   10   14      2.87      0.00
    4   10   14      1.80      0.00
    6   10   14     -0.93      0.00
    8   10   14     -1.47      0.00
   10   10   14     -2.98      0.00
   12   10   14     -4.46      0.00
   14   10   14     -3.70      0.00
   16   10   14     -1.19      0.00
   18   10   14      0.67      0.00
   20   10   14      0.93      0.00
   22   10   14      0.70      0.00
    1   11   14      0.74      0.00
    3   11   14      4.72      0.00
    5   11   14      2.40      0.00
    7   11   14     -0.84      0.00
    9   11   14     -4.46      0.00
   11   11   14      0.35      0.00
   13   11   14      3.99      0.00
   15   11   14      1.61      0.00
   17   11   14     -1.58      0.00
   19   11   14     -0.73      0.00
   21   11   14      1.49      0.00
    0   12   14     -5.46      0.00
    2   12   14     -2.85      0.00
    4   12   14      1.46      0.00
    6   12   14      3.16      0.00
    8   12   14      2.61      0.00
   10   12   14      0.40      0.00
   12   12   14     -0.70      0.00
   14   12   14      2.84      0.00
   16   12   14      2.22      0.00
   18   12   14     -1.22      0.00
   20   12   14      0.23      0.00
    1   13   14     -2.51      0.00
    3   13   14     -1.90      0.00
    5   13   14      0.18      0.00
    7   13   14      1.30      0.00
    9   13   14      2.24      0.00
   11   13   14     -0.90      0.00
   13   13   14     -1.92      0.00
   15   13   14     -0.59      0.00
   17   13   14      1.26      0.00
   19   13   14     -0.25      0.00
   21   13   14     -3.38      0.00
    0   14   14      7.62      0.00
    2   14   14      3.51      0.00
    4   14   14     -1.98      0.00
    6   14   14     -3.57      0.00
    8   14   14     -1.84      0.00
   10   14   14      0.36      0.00
   12   14   14     -0.20      0.00
   14   14   14     -0.99      0.00
   16   14   14     -0.30      0.00
   18   14   14     -0.29      0.00
   20   14   14     -0.18      0.00
    1   15   14      2.12      0.00
    3   15   14     -0.80      0.00
    5   15   14     -1.89      0.00
    7   15   14     -1.61      0.00
    9   15   14      1.53      0.00
   11   15   14      2.81      0.00
   13   15   14     -0.37      0.00
   15   15   14     -0.99      0.00
   17   15   14     -0.72      0.00
   19   15   14      0.04      0.00
    0   16   14     -4.11      0.00
    2   16   14     -2.25      0.00
    4   16   14      0.38      0.00
    6   16   14      1.62      0.00
    8   16   14      1.36      0.00
   10   16   14      1.01      0.00
   12   16   14      0.59      0.00
   14   16   14     -0.84      0.00
   16   16   14     -1.25      0.00
   18   16   14      1.41      0.00
    1   17   14     -0.48      0.00
    3   17   14      1.09      0.00
    5   17   14      1.44      0.00
    7   17   14     -0.95      0.00
    9   17   14     -3.62      0.00
   11   17   14     -2.90      0.00
   13   17   14      0.14      0.00
   15   17   14      1.60      0.00
   17   17   14      2.52      0.00
   19   17   14      0.34      0.00
    0   18   14     -0.60      0.00
    2   18   14     -0.15      0.00
    4   18   14     -0.21      0.00
    6   18   14     -0.94      0.00
    8   18   14     -1.19      0.00
   10   18   14     -0.68      0.00
   12   18   14      2.34      0.00
   14   18   14      1.60      0.00
   16   18   14      0.79      0.00
   18   18   14     -1.08      0.00
    1   19   14     -2.12      0.00
    3   19   14     -1.26      0.00
    5   19   14      0.21      0.00
    7   19   14      3.70      0.00
    9   19   14      3.05      0.00
   11   19   14     -0.10      0.00
   13   19   14     -0.73      0.00
   15   19   14     -0.14      0.00
   17   19   14     -1.27      0.00
    0   20   14      1.31      0.00
    2   20   14      0.30      0.00
    4   20   14      0.46      0.00
    6   20   14      0.96      0.00
    8   20   14     -0.11      0.00
   10   20   14      0.69      0.00
   12   20   14     -1.49      0.00
   14   20   14     -1.71      0.00
   16   20   14      0.93      0.00
    1   21   14      1.06      0.00
    3   21   14      2.56      0.00
    5   21   14      1.07      0.00
    7   21   14     -2.54      0.00
    9   21   14     -1.87      0.00
   11   21   14      1.46      0.00
   13   21   14      2.37      0.00
   15   21   14      0.01      0.00
    0   22   14     -0.75      0.00
    2   22   14     -0.19      0.00
    4   22   14     -0.38      0.00
    6   22   14     -0.46      0.00
    8   22   14      1.29      0.00
   10   22   14     -0.17      0.00
   12   22   14     -0.33      0.00
   14   22   14      1.60      0.00
   16   22   14     -0.81      0.00
    1   23   14      0.90      0.00
    3   23   14     -2.35      0.00
    5   23   14     -1.86      0.00
    7   23   14      0.31      0.00
    9   23   14     -0.19      0.00
   11   23   14     -1.10      0.00
   13   23   14     -1.17      0.00
    0   24   14      0.07      0.00
    2   24   14      0.07      0.00
    4   24   14      1.12      0.00
    6   24   14      0.85      0.00
    8   24   14     -2.15      0.00
   10   24   14     -1.52      0.00
   12   24   14      0.68      0.00
   14   24   14     -0.34      0.00
    1   25   14     -0.10      0.00
    3   25   14     -0.44      0.00
    5   25   14     -0.64      0.00
    7   25   14      1.26      0.00
    9   25   14      2.75      0.00
   11   25   14      1.35      0.00
    0   26   14     -0.19      0.00
    2   26   14      0.82      0.00
    4   26   14      0.22      0.00
    6   26   14     -0.55      0.00
    8   26   14      0.57      0.00
   10   26   14      0.93      0.00
    1   27   14     -0.95      0.00
    3   27   14      1.92      0.00
    5   27   14      1.80      0.00
    7   27   14     -1.88      0.00
    9   27   14     -2.15      0.00
    0   28   14      0.43      0.00
    2   28   14     -1.02      0.00
    4   28   14     -1.48      0.00
    6   28   14     -0.36      0.00
    8   28   14      0.94      0.00
    3   29   14     -0.63      0.00
    5   29   14     -0.51      0.00
    2    1   15     -0.63      0.00
    4    1   15      0.43      0.00
    6    1   15      2.41      0.00
    8    1   15      1.13      0.00
   10    1   15     -1.27      0.00
   12    1   15     -0.79      0.00
   14    1   15      0.52      0.00
   16    1   15      0.14      0.00
   18    1   15     -0.48      0.00
   20    1   15     -1.45      0.00
   22    1   15      0.30      0.00
    1    2   15      1.13      0.00
    3    2   15      1.66      0.00
    5    2   15      0.31      0.00
    7    2   15     -0.64      0.00
    9    2   15     -0.64      0.00
   11    2   15      1.02      0.00
   13    2   15      1.22      0.00
   15    2   15      0.84      0.00
   17    2   15     -0.51      0.00
   19    2   15      2.02      0.00
   21    2   15      1.19      0.00
    2    3   15      0.76      0.00
    4    3   15     -3.26      0.00
    6    3   15     -4.75      0.00
    8    3   15      0.53      0.00
   10    3   15      2.72      0.00
   12    3   15      1.26      0.00
   14    3   15     -0.49      0.00
   16    3   15     -1.01      0.00
   18    3   15      0.14      0.00
   20    3   15      2.05      0.00
   22    3   15     -0.60      0.00
    1    4   15     -2.86      0.00
    3    4   15     -5.92      0.00
    5    4   15     -2.59      0.00
    7    4   15      2.79      0.00
    9    4   15      2.72      0.00
   11    4   15     -1.60      0.00
   13    4   15     -1.75      0.00
   15    4   15     -0.77      0.00
   17    4   15     -0.86      0.00
   19    4   15     -2.42      0.00
   21    4   15      0.30      0.00
    2    5   15      1.03      0.00
    4    5   15      4.33      0.00
    6    5   15      4.04      0.00
    8    5   15     -1.59      0.00
   10    5   15     -2.86      0.00
   12    5   15     -1.95      0.00
   14    5   15      0.35      0.00
   16    5   15      2.11      0.00
   18    5   15     -0.02      0.00
   20    5   15     -0.65      0.00
   22    5   15     -0.28      0.00
    1    6   15      5.09      0.00
    3    6   15      7.31      0.00
    5    6   15      2.67      0.00
    7    6   15     -1.35      0.00
    9    6   15     -1.53      0.00
   11    6   15      1.41      0.00
   13    6   15      1.38      0.00
   15    6   15      0.30      0.00
   17    6   15      0.20      0.00
   19    6   15      0.71      0.00
   21    6   15     -0.72      0.00
    2    7   15     -0.54      0.00
    4    7   15     -0.71      0.00
    6    7   15     -3.30      0.00
    8    7   15     -1.41      0.00
   10    7   15      3.15      0.00
   12    7   15      3.17      0.00
   14    7   15     -0.35      0.00
   16    7   15     -2.20      0.00
   18    7   15      0.26      0.00
   20    7   15     -0.78      0.00
   22    7   15      0.87      0.00
    1    8   15     -3.25      0.00
    3    8   15     -1.56      0.00
    5    8   15     -1.22      0.00
    7    8   15     -3.41      0.00
    9    8   15     -2.46      0.00
   11    8   15     -1.61      0.00
   13    8   15      0.33      0.00
   15    8   15      0.66      0.00
   17    8   15      1.07      0.00
   19    8   15      1.10      0.00
   21    8   15      0.22      0.00
    2    9   15     -2.22      0.00
    4    9   15     -1.43      0.00
    6    9   15      1.74      0.00
    8    9   15      2.29      0.00
   10    9   15     -0.10      0.00
   12    9   15     -1.89      0.00
   14    9   15     -2.07      0.00
   16    9   15      1.21      0.00
   18    9   15     -0.24      0.00
   20    9   15      0.78      0.00
    1   10   15     -0.72      0.00
    3   10   15     -2.88      0.00
    5   10   15      1.77      0.00
    7   10   15      6.05      0.00
    9   10   15      4.83      0.00
   11   10   15      1.81      0.00
   13   10   15     -1.63      0.00
   15   10   15     -1.62      0.00
   17   10   15      0.00      0.00
   19   10   15      0.35      0.00
   21   10   15     -0.51      0.00
    2   11   15      2.64      0.00
    4   11   15      2.09      0.00
    6   11   15      0.86      0.00
    8   11   15     -1.75      0.00
   10   11   15     -3.46      0.00
   12   11   15     -0.43      0.00
   14   11   15      3.10      0.00
   16   11   15      0.79      0.00
   18   11   15      1.11      0.00
   20   11   15      0.13      0.00
    1   12   15      1.51      0.00
    3   12   15      1.32      0.00
    5   12   15     -2.55      0.00
    7   12   15     -5.69      0.00
    9   12   15     -4.12      0.00
   11   12   15      0.08      0.00
   13   12   15      0.63      0.00
   15   12   15      0.35      0.00
   17   12   15     -0.28      0.00
   19   12   15     -1.91      0.00
    2   13   15     -0.47      0.00
    4   13   15     -2.21      0.00
    6   13   15     -2.69      0.00
    8   13   15     -1.14      0.00
   10   13   15      1.30      0.00
   12   13   15      2.04      0.00
   14   13   15     -0.57      0.00
   16   13   15     -2.45      0.00
   18   13   15     -0.06      0.00
   20   13   15      1.05      0.00
    1   14   15      0.21      0.00
    3   14   15      1.46      0.00
    5   14   15      2.06      0.00
    7   14   15      3.19      0.00
    9   14   15      1.34      0.00
   11   14   15     -0.93      0.00
   13   14   15     -0.21      0.00
   15   14   15      0.07      0.00
   17   14   15     -0.25      0.00
   19   14   15      1.29      0.00
    2   15   15     -2.61      0.00
    4   15   15     -0.16      0.00
    6   15   15      2.82      0.00
    8   15   15      3.18      0.00
   10   15   15     -0.24      0.00
   12   15   15     -1.72      0.00
   14   15   15      0.67      0.00
   16   15   15      2.04      0.00
   18   15   15     -0.82      0.00
    1   16   15     -1.81      0.00
    3   16   15     -2.94      0.00
    5   16   15     -1.82      0.00
    7   16   15     -0.54      0.00
    9   16   15      1.17      0.00
   11   16   15     -1.12      0.00
   13   16   15     -0.48      0.00
   15   16   15      0.86      0.00
   17   16   15     -0.26      0.00
   19   16   15     -0.76      0.00
    2   17   15      2.73      0.00
    4   17   15      1.32      0.00
    6   17   15     -0.52      0.00
    8   17   15     -0.57      0.00
   10   17   15      0.89      0.00
   12   17   15     -0.60      0.00
   14   17   15     -3.29      0.00
   16   17   15     -1.69      0.00
   18   17   15      0.35      0.00
    1   18   15      1.19      0.00
    3   18   15      1.65      0.00
    5   18   15      0.62      0.00
    7   18   15     -0.87      0.00
    9   18   15     -1.65      0.00
   11   18   15      2.20      0.00
   13   18   15      3.75      0.00
   15   18   15      1.80      0.00
   17   18   15      1.24      0.00
    2   19   15     -1.71      0.00
    4   19   15     -1.15      0.00
    6   19   15     -0.87      0.00
    8   19   15     -0.43      0.00
   10   19   15      0.67      0.00
   12   19   15      0.88      0.00
   14   19   15      2.92      0.00
   16   19   15      2.76      0.00
    1   20   15      0.51      0.00
    3   20   15      1.09      0.00
    5   20   15      2.02      0.00
    7   20   15      2.09      0.00
    9   20   15      0.47      0.00
   11   20   15     -1.64      0.00
   13   20   15     -4.19      0.00
   15   20   15     -3.54      0.00
   17   20   15     -2.08      0.00
    2   21   15      1.26      0.00
    4   21   15      1.30      0.00
    6   21   15      1.16      0.00
    8   21   15      0.67      0.00
   10   21   15     -1.16      0.00
   12   21   15     -0.61      0.00
   14   21   15     -0.01      0.00
   16   21   15     -2.25      0.00
    1   22   15     -0.26      0.00
    3   22   15     -1.41      0.00
    5   22   15     -3.41      0.00
    7   22   15     -2.79      0.00
    9   22   15      0.41      0.00
   11   22   15      1.18      0.00
   13   22   15      1.10      0.00
    2   23   15      0.49      0.00
    4   23   15     -0.41      0.00
    6   23   15     -1.52      0.00
    8   23   15     -1.51      0.00
   10   23   15      0.88      0.00
   12   23   15      1.54      0.00
   14   23   15     -1.37      0.00
    1   24   15     -1.23      0.00
    3   24   15     -0.23      0.00
    5   24   15      3.13      0.00
    7   24   15      2.23      0.00
    9   24   15     -1.14      0.00
   11   24   15     -0.75      0.00
   13   24   15      0.69      0.00
    2   25   15     -0.88      0.00
    4   25   15      0.18      0.00
    6   25   15     -0.41      0.00
    8   25   15     -0.12      0.00
   10   25   15     -0.11      0.00
    1   26   15      1.34      0.00
    3   26   15      1.59      0.00
    5   26   15     -0.18      0.00
    7   26   15      0.98      0.00
    9   26   15      2.18      0.00
    2   27   15      0.48      0.00
    4   27   15     -0.53      0.00
    6   27   15      1.41      0.00
    8   27   15      0.97      0.00
    1   28   15     -0.37      0.00
    3   28   15     -2.07      0.00
    5   28   15     -3.43      0.00
    7   28   15     -4.01      0.00
    0    0   16     -1.97      0.00
    2    0   16     -0.53      0.00
    4    0   16      0.73      0.00
    6    0   16     -6.88      0.00
    8    0   16    -14.62      0.00
   10    0   16    -13.52      0.00
   12    0   16     -8.42      0.00
   14    0   16     -3.38      0.00
   16    0   16      0.84      0.00
   18    0   16      0.53      0.00
   20    0   16      3.79      0.00
   22    0   16      1.82      0.00
    1    1   16      7.55      0.00
    3    1   16      6.55      0.00
    5    1   16      3.23      0.00
    7    1   16     -1.33      0.00
    9    1   16      1.42      0.00
   11    1   16      3.98      0.00
   13    1   16      1.39      0.00
   15    1   16     -1.46      0.00
   17    1   16     -1.18      0.00
   19    1   16      1.11      0.00
   21    1   16     -1.94      0.00
    0    2   16      1.48      0.00
    2    2   16      1.09      0.00
    4    2   16      1.82      0.00
    6    2   16      8.64      0.00
    8    2   16     12.18      0.00
   10    2   16     10.31      0.00
   12    2   16      7.44      0.00
   14    2   16      3.24      0.00
   16    2   16     -0.42      0.00
   18    2   16     -0.64      0.00
   20    2   16     -2.82      0.00
   22    2   16     -0.38      0.00
    1    3   16     -9.56      0.00
    3    3   16     -7.44      0.00
    5    3   16     -2.54      0.00
    7    3   16     -0.04      0.00
    9    3   16     -4.21      0.00
   11    3   16     -4.23      0.00
   13    3   16     -1.05      0.00
   15    3   16     -0.39      0.00
   17    3   16      0.16      0.00
   19    3   16     -0.11      0.00
   21    3   16      1.30      0.00
    0    4   16     -1.34      0.00
    2    4   16     -3.39      0.00
    4    4   16     -6.35      0.00
    6    4   16     -8.51      0.00
    8    4   16     -7.63      0.00
   10    4   16     -5.93      0.00
   12    4   16     -5.05      0.00
   14    4   16     -3.19      0.00
   16    4   16     -1.08      0.00
   18    4   16      0.56      0.00
   20    4   16      1.06      0.00
   22    4   16     -0.47      0.00
    1    5   16      7.12      0.00
    3    5   16      5.14      0.00
    5    5   16      6.92      0.00
    7    5   16      5.15      0.00
    9    5   16      3.28      0.00
   11    5   16      1.69      0.00
   13    5   16      0.99      0.00
   15    5   16      0.03      0.00
   17    5   16     -0.26      0.00
   19    5   16      0.83      0.00
   21    5   16      0.00      0.00
    0    6   16      4.35      0.00
    2    6   16      5.91      0.00
    4    6   16      7.84      0.00
    6    6   16      5.21      0.00
    8    6   16      3.90      0.00
   10    6   16      2.85      0.00
   12    6   16      2.87      0.00
   14    6   16      3.34      0.00
   16    6   16      1.51      0.00
   18    6   16     -0.53      0.00
   20    6   16      0.35      0.00
   22    6   16     -0.38      0.00
    1    7   16     -0.67      0.00
    3    7   16     -3.77      0.00
    5    7   16    -10.10      0.00
    7    7   16     -8.31      0.00
    9    7   16     -2.62      0.00
   11    7   16      1.09      0.00
   13    7   16      0.88      0.00
   15    7   16      0.19      0.00
   17    7   16     -0.02      0.00
   19    7   16     -0.50      0.00
   21    7   16     -0.62      0.00
    0    8   16     -7.53      0.00
    2    8   16     -6.58      0.00
    4    8   16     -6.65      0.00
    6    8   16     -2.46      0.00
    8    8   16      0.55      0.00
   10    8   16      0.06      0.00
   12    8   16     -3.39      0.00
   14    8   16     -3.50      0.00
   16    8   16     -0.88      0.00
   18    8   16      0.15      0.00
   20    8   16     -0.34      0.00
    1    9   16      0.95      0.00
    3    9   16      5.07      0.00
    5    9   16      6.77      0.00
    7    9   16      7.50      0.00
    9    9   16      4.03      0.00
   11    9   16     -0.69      0.00
   13    9   16     -2.50      0.00
   15    9   16      0.18      0.00
   17    9   16      1.44      0.00
   19    9   16     -0.71      0.00
   21    9   16     -0.24      0.00
    0   10   16      7.37      0.00
    2   10   16      6.63      0.00
    4   10   16      4.96      0.00
    6   10   16     -0.02      0.00
    8   10   16     -3.33      0.00
   10   10   16     -1.36      0.00
   12   10   16      2.88      0.00
   14   10   16      3.01      0.00
   16   10   16      0.70      0.00
   18   10   16     -0.33      0.00
   20   10   16      0.71      0.00
    1   11   16     -6.99      0.00
    3   11   16     -4.97      0.00
    5   11   16     -2.01      0.00
    7   11   16     -4.98      0.00
    9   11   16     -4.54      0.00
   11   11   16     -3.18      0.00
   13   11   16      0.15      0.00
   15   11   16      0.79      0.00
   17   11   16     -1.59      0.00
   19   11   16      0.02      0.00
    0   12   16     -5.19      0.00
    2   12   16     -5.67      0.00
    4   12   16     -3.68      0.00
    6   12   16     -0.25      0.00
    8   12   16      2.05      0.00
   10   12   16      2.76      0.00
   12   12   16      1.19      0.00
   14   12   16     -1.41      0.00
   16   12   16      0.18      0.00
   18   12   16      1.20      0.00
   20   12   16     -2.73      0.00
    1   13   16     10.18      0.00
    3   13   16      3.73      0.00
    5   13   16     -0.65      0.00
    7   13   16      1.75      0.00
    9   13   16      5.05      0.00
   11   13   16      4.70      0.00
   13   13   16      0.81      0.00
   15   13   16     -0.20      0.00
   17   13   16      0.96      0.00
   19   13   16     -0.47      0.00
    0   14   16      3.15      0.00
    2   14   16      3.48      0.00
    4   14   16      2.62      0.00
    6   14   16      1.33      0.00
    8   14   16     -0.31      0.00
   10   14   16     -1.38      0.00
   12   14   16     -1.87      0.00
   14   14   16     -0.52      0.00
   16   14   16     -0.52      0.00
   18   14   16     -0.08      0.00
    1   15   16     -8.16      0.00
    3   15   16     -3.90      0.00
    5   15   16     -0.77      0.00
    7   15   16     -0.61      0.00
    9   15   16     -3.14      0.00
   11   15   16     -1.91      0.00
   13   15   16      0.53      0.00
   15   15   16     -0.70      0.00
   17   15   16      0.28      0.00
   19   15   16      1.87      0.00
    0   16   16     -3.75      0.00
    2   16   16     -2.63      0.00
    4   16   16     -0.88      0.00
    6   16   16     -0.85      0.00
    8   16   16     -1.88      0.00
   10   16   16     -2.67      0.00
   12   16   16     -0.22      0.00
   14   16   16      0.88      0.00
   16   16   16      0.43      0.00
   18   16   16     -0.40      0.00
    1   17   16      3.39      0.00
    3   17   16      3.89      0.00
    5   17   16      3.26      0.00
    7   17   16      2.00      0.00
    9   17   16      0.17      0.00
   11   17   16      0.73      0.00
   13   17   16      0.79      0.00
   15   17   16     -0.11      0.00
   17   17   16     -2.13      0.00
    0   18   16      3.98      0.00
    2   18   16      2.19      0.00
    4   18   16      0.09      0.00
    6   18   16      1.33      0.00
    8   18   16      2.94      0.00
   10   18   16      2.78      0.00
   12   18   16     -0.01      0.00
   14   18   16      0.38      0.00
   16   18   16      0.54      0.00
    1   19   16     -1.68      0.00
    3   19   16     -2.89      0.00
    5   19   16     -2.53      0.00
    7   19   16     -2.77      0.00
    9   19   16     -0.08      0.00
   11   19   16     -0.27      0.00
   13   19   16     -1.77      0.00
   15   19   16     -0.28      0.00
   17   19   16      1.79      0.00
    0   20   16     -2.86      0.00
    2   20   16     -1.11      0.00
    4   20   16      0.85      0.00
    6   20   16     -0.29      0.00
    8   20   16     -1.20      0.00
   10   20   16     -1.10      0.00
   12   20   16      1.12      0.00
   14   20   16      0.09      0.00
   16   20   16     -2.66      0.00
    1   21   16      2.59      0.00
    3   21   16      2.57      0.00
    5   21   16      1.52      0.00
    7   21   16      1.84      0.00
    9   21   16      0.48      0.00
   11   21   16     -0.89      0.00
   13   21   16      0.88      0.00
   15   21   16      0.74      0.00
    0   22   16      2.17      0.00
    2   22   16      0.43      0.00
    4   22   16     -1.87      0.00
    6   22   16     -1.26      0.00
    8   22   16     -0.54      0.00
   10   22   16     -0.38      0.00
   12   22   16     -1.26      0.00
   14   22   16     -1.25      0.00
    1   23   16     -2.25      0.00
    3   23   16     -2.29      0.00
    5   23   16     -0.62      0.00
    7   23   16     -0.56      0.00
    9   23   16     -0.59      0.00
   11   23   16      0.74      0.00
   13   23   16     -0.30      0.00
    0   24   16     -0.78      0.00
    2   24   16      0.02      0.00
    4   24   16      0.47      0.00
    6   24   16      0.34      0.00
    8   24   16      1.85      0.00
   10   24   16      2.00      0.00
   12   24   16      0.10      0.00
    1   25   16      1.29      0.00
    3   25   16      2.30      0.00
    5   25   16     -0.20      0.00
    7   25   16     -1.44      0.00
    9   25   16     -0.40      0.00
    0   26   16      0.27      0.00
    2   26   16      0.32      0.00
    4   26   16      0.86      0.00
    6   26   16     -0.18      0.00
    8   26   16     -1.59      0.00
    1   27   16     -0.68      0.00
    3   27   16     -1.98      0.00
    5   27   16      0.01      0.00
    7   27   16      2.82      0.00
    0   28   16      0.02      0.00
    4   28   16     -1.31      0.00
    2    1   17      1.44      0.00
    4    1   17      0.67      0.00
    6    1   17     -1.98      0.00
    8    1   17     -2.22      0.00
   10    1   17     -0.54      0.00
   12    1   17      0.50      0.00
   14    1   17      0.98      0.00
   16    1   17      0.09      0.00
   18    1   17     -0.58      0.00
   20    1   17      0.85      0.00
    1    2   17      1.43      0.00
    3    2   17      1.86      0.00
    5    2   17     -1.97      0.00
    7    2   17     -3.58      0.00
    9    2   17      0.90      0.00
   11    2   17      1.58      0.00
   13    2   17     -0.44      0.00
   15    2   17     -2.15      0.00
   17    2   17      0.97      0.00
   19    2   17      1.94      0.00
   21    2   17      1.64      0.00
    2    3   17     -2.52      0.00
    4    3   17     -0.85      0.00
    6    3   17      3.70      0.00
    8    3   17      3.58      0.00
   10    3   17      1.26      0.00
   12    3   17     -0.61      0.00
   14    3   17     -1.40      0.00
   16    3   17      0.35      0.00
   18    3   17      0.78      0.00
   20    3   17     -0.93      0.00
   22    3   17      4.04      0.00
    1    4   17     -0.99      0.00
    3    4   17      1.62      0.00
    5    4   17      5.62      0.00
    7    4   17      0.68      0.00
    9    4   17     -3.42      0.00
   11    4   17     -0.28      0.00
   13    4   17     -0.16      0.00
   15    4   17      1.52      0.00
   17    4   17      0.47      0.00
   19    4   17     -0.93      0.00
   21    4   17     -1.01      0.00
    2    5   17      0.15      0.00
    4    5   17     -0.59      0.00
    6    5   17     -1.79      0.00
    8    5   17     -1.49      0.00
   10    5   17     -1.40      0.00
   12    5   17     -0.55      0.00
   14    5   17      0.04      0.00
   16    5   17     -0.69      0.00
   18    5   17      0.49      0.00
   20    5   17      0.06      0.00
    1    6   17     -1.30      0.00
    3    6   17     -2.42      0.00
    5    6   17     -4.09      0.00
    7    6   17     -0.17      0.00
    9    6   17      3.15      0.00
   11    6   17      0.94      0.00
   13    6   17      0.38      0.00
   15    6   17     -0.95      0.00
   17    6   17     -0.02      0.00
   19    6   17     -0.09      0.00
   21    6   17     -2.40      0.00
    2    7   17      2.54      0.00
    4    7   17      3.02      0.00
    6    7   17      0.06      0.00
    8    7   17     -1.03      0.00
   10    7   17     -0.22      0.00
   12    7   17      1.81      0.00
   14    7   17      1.12      0.00
   16    7   17      0.14      0.00
   18    7   17     -0.48      0.00
   20    7   17      0.39      0.00
    1    8   17     -0.02      0.00
    3    8   17     -3.19      0.00
    5    8   17     -0.92      0.00
    7    8   17      1.22      0.00
    9    8   17     -0.77      0.00
   11    8   17     -0.80      0.00
   13    8   17     -0.16      0.00
   15    8   17      1.12      0.00
   17    8   17     -0.24      0.00
   19    8   17     -0.45      0.00
   21    8   17      4.14      0.00
    2    9   17     -2.77      0.00
    4    9   17     -3.98      0.00
    6    9   17     -0.01      0.00
    8    9   17      1.61      0.00
   10    9   17      1.25      0.00
   12    9   17     -1.79      0.00
   14    9   17     -1.47      0.00
   16    9   17     -0.31      0.00
   18    9   17      0.31      0.00
   20    9   17      0.18      0.00
    1   10   17      3.24      0.00
    3   10   17      6.89      0.00
    5   10   17      3.48      0.00
    7   10   17     -0.59      0.00
    9   10   17     -2.94      0.00
   11   10   17     -2.54      0.00
   13   10   17      0.22      0.00
   15   10   17     -0.64      0.00
   17   10   17     -0.95      0.00
   19   10   17      1.02      0.00
   21   10   17     -1.79      0.00
    2   11   17      0.93      0.00
    4   11   17      1.43      0.00
    6   11   17      0.25      0.00
    8   11   17      0.27      0.00
   10   11   17      0.21      0.00
   12   11   17      0.41      0.00
   14   11   17      0.66      0.00
   16   11   17      0.57      0.00
   18   11   17     -1.23      0.00
   20   11   17     -1.24      0.00
    1   12   17     -3.00      0.00
    3   12   17     -5.34      0.00
    5   12   17     -4.03      0.00
    7   12   17     -0.45      0.00
    9   12   17      3.20      0.00
   11   12   17      2.97      0.00
   13   12   17      1.66      0.00
   15   12   17      1.18      0.00
   17   12   17      0.13      0.00
   19   12   17     -0.34      0.00
    2   13   17      1.03      0.00
    4   13   17      1.05      0.00
    6   13   17     -0.47      0.00
    8   13   17     -0.66      0.00
   10   13   17     -0.59      0.00
   12   13   17     -0.39      0.00
   14   13   17     -0.17      0.00
   16   13   17      0.35      0.00
   18   13   17      0.30      0.00
    1   14   17     -0.45      0.00
    3   14   17      0.04      0.00
    5   14   17      2.86      0.00
    7   14   17      3.94      0.00
    9   14   17      1.70      0.00
   11   14   17     -1.91      0.00
   13   14   17     -2.46      0.00
   15   14   17     -1.06      0.00
   17   14   17     -0.03      0.00
   19   14   17     -0.75      0.00
    2   15   17     -1.35      0.00
    4   15   17     -1.57      0.00
    6   15   17     -0.21      0.00
    8   15   17      0.39      0.00
   10   15   17      0.47      0.00
   12   15   17      1.10      0.00
   14   15   17      1.17      0.00
   16   15   17     -0.50      0.00
   18   15   17     -0.59      0.00
    1   16   17      2.45      0.00
    3   16   17      3.68      0.00
    5   16   17      0.46      0.00
    7   16   17     -3.17      0.00
    9   16   17     -2.87      0.00
   11   16   17      1.27      0.00
   13   16   17     -0.34      0.00
   15   16   17     -0.89      0.00
   17   16   17      1.30      0.00
    2   17   17      1.17      0.00
    4   17   17      1.33      0.00
    6   17   17      0.27      0.00
    8   17   17     -1.30      0.00
   10   17   17     -0.44      0.00
   12   17   17      0.25      0.00
   14   17   17     -0.39      0.00
   16   17   17      0.71      0.00
   18   17   17      1.71      0.00
    1   18   17     -1.07      0.00
    3   18   17     -2.53      0.00
    5   18   17     -2.78      0.00
    7   18   17     -2.08      0.00
    9   18   17      0.18      0.00
   11   18   17      0.79      0.00
   13   18   17      1.30      0.00
   15   18   17      1.42      0.00
   17   18   17     -0.96      0.00
    2   19   17     -1.23      0.00
    4   19   17     -0.13      0.00
    6   19   17      1.06      0.00
    8   19   17      0.99      0.00
   10   19   17     -0.50      0.00
   12   19   17     -1.61      0.00
   14   19   17     -1.36      0.00
   16   19   17     -2.04      0.00
    1   20   17      0.44      0.00
    3   20   17      2.16      0.00
    5   20   17      2.60      0.00
    7   20   17      3.20      0.00
    9   20   17      1.41      0.00
   11   20   17     -1.85      0.00
   13   20   17     -0.83      0.00
   15   20   17     -0.85      0.00
    2   21   17      1.73      0.00
    4   21   17     -0.04      0.00
    6   21   17     -1.63      0.00
    8   21   17     -0.68      0.00
   10   21   17      1.13      0.00
   12   21   17      2.09      0.00
   14   21   17      0.43      0.00
    1   22   17     -1.02      0.00
    3   22   17     -2.45      0.00
    5   22   17     -1.95      0.00
    7   22   17     -2.60      0.00
    9   22   17     -1.73      0.00
   11   22   17      1.86      0.00
   13   22   17      1.36      0.00
    2   23   17     -1.94      0.00
    4   23   17     -0.74      0.00
    6   23   17      0.97      0.00
    8   23   17      0.04      0.00
   10   23   17     -1.68      0.00
   12   23   17     -1.76      0.00
    1   24   17      0.90      0.00
    3   24   17      1.39      0.00
    5   24   17      0.97      0.00
    7   24   17      1.12      0.00
    9   24   17      0.93      0.00
   11   24   17     -1.07      0.00
    2   25   17      1.17      0.00
    4   25   17      0.44      0.00
    6   25   17      0.48      0.00
    8   25   17      2.00      0.00
   10   25   17      1.36      0.00
    1   26   17     -0.08      0.00
    3   26   17     -0.61      0.00
    5   26   17     -0.56      0.00
    7   26   17      0.78      0.00
    2   27   17     -1.20      0.00
    4   27   17     -0.93      0.00
    6   27   17     -1.63      0.00
    0    0   18     17.70      0.00
    2    0   18     15.41      0.00
    4    0   18      7.95      0.00
    6    0   18      0.56      0.00
    8    0   18     -0.62      0.00
   10    0   18      2.52      0.00
   12    0   18      3.21      0.00
   14    0   18      2.84      0.00
   16    0   18      0.24      0.00
   18    0   18      4.54      0.00
   20    0   18      1.72      0.00
    1    1   18      1.52      0.00
    3    1   18     -1.01      0.00
    5    1   18     -1.62      0.00
    7    1   18      5.93      0.00
    9    1   18      8.09      0.00
   11    1   18      4.74      0.00
   13    1   18      2.32      0.00
   15    1   18     -0.34      0.00
   17    1   18      1.94      0.00
   19    1   18      0.40      0.00
   21    1   18     -3.26      0.00
    0    2   18    -15.25      0.00
    2    2   18    -14.12      0.00
    4    2   18     -8.75      0.00
    6    2   18     -2.30      0.00
    8    2   18     -0.51      0.00
   10    2   18     -2.66      0.00
   12    2   18     -2.24      0.00
   14    2   18     -2.29      0.00
   16    2   18     -1.43      0.00
   18    2   18     -3.25      0.00
   20    2   18     -0.88      0.00
    1    3   18      0.45      0.00
    3    3   18     -0.50      0.00
    5    3   18     -4.41      0.00
    7    3   18     -6.78      0.00
    9    3   18     -3.54      0.00
   11    3   18     -4.29      0.00
   13    3   18     -3.98      0.00
   15    3   18      0.80      0.00
   17    3   18      0.37      0.00
   19    3   18      1.28      0.00
   21    3   18      1.23      0.00
    0    4   18      9.50      0.00
    2    4   18      9.74      0.00
    4    4   18     10.07      0.00
    6    4   18      6.94      0.00
    8    4   18      2.76      0.00
   10    4   18      2.59      0.00
   12    4   18      1.81      0.00
   14    4   18      1.89      0.00
   16    4   18      1.99      0.00
   18    4   18      0.37      0.00
   20    4   18      0.26      0.00
    1    5   18      0.90      0.00
    3    5   18      4.97      0.00
    5    5   18      5.41      0.00
    7    5   18      4.10      0.00
    9    5   18      2.96      0.00
   11    5   18      3.97      0.00
   13    5   18      3.35      0.00
   15    5   18      1.61      0.00
   17    5   18     -0.78      0.00
   19    5   18     -3.05      0.00
   21    5   18     -0.29      0.00
    0    6   18     -4.69      0.00
    2    6   18     -4.61      0.00
    4    6   18     -9.16      0.00
    6    6   18    -10.49      0.00
    8    6   18     -6.45      0.00
   10    6   18     -3.37      0.00
   12    6   18     -1.85      0.00
   14    6   18     -1.19      0.00
   16    6   18     -0.26      0.00
   18    6   18      1.99      0.00
   20    6   18     -1.19      0.00
    1    7   18     -5.46      0.00
    3    7   18     -5.98      0.00
    5    7   18     -3.04      0.00
    7    7   18     -1.08      0.00
    9    7   18     -2.19      0.00
   11    7   18     -2.67      0.00
   13    7   18     -2.07      0.00
   15    7   18     -2.82      0.00
   17    7   18     -0.97      0.00
   19    7   18      0.51      0.00
   21    7   18      0.21      0.00
    0    8   18      4.45      0.00
    2    8   18      3.80      0.00
    4    8   18      6.49      0.00
    6    8   18      8.93      0.00
    8    8   18      9.63      0.00
   10    8   18      5.91      0.00
   12    8   18      0.94      0.00
   14    8   18     -1.11      0.00
   16    8   18      0.34      0.00
   18    8   18     -1.26      0.00
   20    8   18      0.41      0.00
    1    9   18      5.80      0.00
    3    9   18      2.77      0.00
    5    9   18      1.31      0.00
    7    9   18     -0.99      0.00
    9    9   18      0.65      0.00
   11    9   18      2.27      0.00
   13    9   18      1.76      0.00
   15    9   18      1.70      0.00
   17    9   18      2.15      0.00
   19    9   18      2.99      0.00
    0   10   18     -7.43      0.00
    2   10   18     -6.22      0.00
    4   10   18     -4.55      0.00
    6   10   18     -5.63      0.00
    8   10   18     -9.14      0.00
   10   10   18     -7.61      0.00
   12   10   18     -1.90      0.00
   14   10   18      2.01      0.00
   16   10   18     -1.05      0.00
   18   10   18     -0.66      0.00
   20   10   18      1.16      0.00
    1   11   18     -2.33      0.00
    3   11   18     -1.39      0.00
    5   11   18     -1.24      0.00
    7   11   18      0.22      0.00
    9   11   18     -1.00      0.00
   11   11   18     -0.07      0.00
   13   11   18      0.26      0.00
   15   11   18     -0.99      0.00
   17   11   18     -0.62      0.00
   19   11   18     -2.28      0.00
    0   12   18      8.95      0.00
    2   12   18      6.94      0.00
    4   12   18      3.33      0.00
    6   12   18      4.01      0.00
    8   12   18      7.02      0.00
   10   12   18      6.90      0.00
   12   12   18      3.16      0.00
   14   12   18      0.15      0.00
   16   12   18      0.49      0.00
   18   12   18      0.20      0.00
    1   13   18     -0.60      0.00
    3   13   18      2.15      0.00
    5   13   18      4.05      0.00
    7   13   18      3.23      0.00
    9   13   18      0.43      0.00
   11   13   18     -2.02      0.00
   13   13   18     -1.43      0.00
   15   13   18     -0.44      0.00
   17   13   18     -1.33      0.00
   19   13   18      1.12      0.00
    0   14   18     -7.05      0.00
    2   14   18     -5.99      0.00
    4   14   18     -3.72      0.00
    6   14   18     -3.23      0.00
    8   14   18     -4.37      0.00
   10   14   18     -4.84      0.00
   12   14   18     -2.29      0.00
   14   14   18     -1.86      0.00
   16   14   18     -1.29      0.00
   18   14   18      0.75      0.00
    1   15   18     -0.02      0.00
    3   15   18     -1.61      0.00
    5   15   18     -3.24      0.00
    7   15   18     -3.59      0.00
    9   15   18     -2.52      0.00
   11   15   18     -0.84      0.00
   13   15   18      0.37      0.00
   15   15   18      0.77      0.00
   17   15   18      0.61      0.00
    0   16   18      3.72      0.00
    2   16   18      4.48      0.00
    4   16   18      4.73      0.00
    6   16   18      4.24      0.00
    8   16   18      2.65      0.00
   10   16   18      2.38      0.00
   12   16   18      1.66      0.00
   14   16   18      1.51      0.00
   16   16   18      0.85      0.00
    1   17   18      2.84      0.00
    3   17   18      0.83      0.00
    5   17   18      0.58      0.00
    7   17   18      1.41      0.00
    9   17   18      4.49      0.00
   11   17   18      2.33      0.00
   13   17   18      0.05      0.00
   15   17   18      1.16      0.00
   17   17   18      0.85      0.00
    0   18   18     -2.31      0.00
    2   18   18     -2.99      0.00
    4   18   18     -3.58      0.00
    6   18   18     -5.15      0.00
    8   18   18     -2.66      0.00
   10   18   18     -0.63      0.00
   12   18   18     -1.19      0.00
   14   18   18     -0.76      0.00
   16   18   18      0.33      0.00
    1   19   18     -2.28      0.00
    3   19   18     -1.53      0.00
    5   19   18     -1.45      0.00
    7   19   18      0.31      0.00
    9   19   18     -1.50      0.00
   11   19   18     -1.06      0.00
   13   19   18      0.11      0.00
   15   19   18     -1.60      0.00
    0   20   18      2.59      0.00
    2   20   18      3.00      0.00
    4   20   18      2.80      0.00
    6   20   18      3.67      0.00
    8   20   18      1.88      0.00
   10   20   18     -0.05      0.00
   12   20   18     -0.22      0.00
   14   20   18     -0.17      0.00
    1   21   18      0.90      0.00
    3   21   18      1.51      0.00
    5   21   18      0.69      0.00
    7   21   18     -1.10      0.00
    9   21   18     -0.63      0.00
   11   21   18      0.29      0.00
   13   21   18     -0.45      0.00
    0   22   18     -1.32      0.00
    2   22   18     -3.00      0.00
    4   22   18     -4.08      0.00
    6   22   18     -2.71      0.00
    8   22   18     -0.77      0.00
   10   22   18      0.90      0.00
   12   22   18      0.75      0.00
    1   23   18     -1.55      0.00
    3   23   18     -0.71      0.00
    5   23   18      0.44      0.00
    7   23   18      0.73      0.00
    9   23   18      1.21      0.00
   11   23   18      0.52      0.00
    0   24   18      0.05      0.00
    2   24   18      1.99      0.00
    4   24   18      3.91      0.00
    6   24   18      2.02      0.00
    8   24   18     -0.04      0.00
   10   24   18     -1.51      0.00
    1   25   18      2.30      0.00
    3   25   18      0.40      0.00
    5   25   18     -0.04      0.00
    7   25   18      0.10      0.00
    9   25   18     -0.76      0.00
    0   26   18     -0.55      0.00
    2   26   18     -1.35      0.00
    4   26   18     -1.77      0.00
    6   26   18      0.15      0.00
    1   27   18     -1.81      0.00
    3   27   18     -0.95      0.00
    2    1   19     -1.56      0.00
    4    1   19     -2.64      0.00
    6    1   19     -2.16      0.00
    8    1   19     -0.20      0.00
   10    1   19      1.44      0.00
   12    1   19      0.91      0.00
   14    1   19     -0.17      0.00
   16    1   19      0.54      0.00
   18    1   19      2.19      0.00
   20    1   19      0.48      0.00
    1    2   19     -0.65      0.00
    3    2   19     -2.29      0.00
    5    2   19      1.28      0.00
    7    2   19      5.30      0.00
    9    2   19      0.89      0.00
   11    2   19     -0.65      0.00
   13    2   19     -0.14      0.00
   15    2   19      0.59      0.00
   17    2   19      0.85      0.00
   19    2   19     -0.99      0.00
   21    2   19     -0.84      0.00
    2    3   19      3.76      0.00
    4    3   19      7.68      0.00
    6    3   19      4.84      0.00
    8    3   19     -0.73      0.00
   10    3   19     -2.02      0.00
   12    3   19     -1.24      0.00
   14    3   19     -1.68      0.00
   16    3   19     -1.75      0.00
   18    3   19     -3.04      0.00
   20    3   19     -0.64      0.00
    1    4   19      0.05      0.00
    3    4   19     -0.62      0.00
    5    4   19     -4.21      0.00
    7    4   19     -3.57      0.00
    9    4   19     -0.63      0.00
   11    4   19     -1.49      0.00
   13    4   19      0.91      0.00
   15    4   19      0.25      0.00
   17    4   19     -1.53      0.00
   19    4   19      1.27      0.00
   21    4   19      0.53      0.00
    2    5   19     -3.22      0.00
    4    5   19     -7.54      0.00
    6    5   19     -6.18      0.00
    8    5   19      0.32      0.00
   10    5   19      1.90      0.00
   12    5   19      1.58      0.00
   14    5   19      3.14      0.00
   16    5   19      1.91      0.00
   18    5   19      0.62      0.00
   20    5   19     -0.66      0.00
    1    6   19      2.70      0.00
    3    6   19      4.34      0.00
    5    6   19      4.04      0.00
    7    6   19      1.35      0.00
    9    6   19      0.86      0.00
   11    6   19      2.12      0.00
   13    6   19     -0.44      0.00
   15    6   19     -1.70      0.00
   17    6   19     -0.95      0.00
   19    6   19     -1.20      0.00
    2    7   19     -0.05      0.00
    4    7   19      0.80      0.00
    6    7   19      5.45      0.00
    8    7   19      2.10      0.00
   10    7   19     -1.93      0.00
   12    7   19     -2.29      0.00
   14    7   19     -0.50      0.00
   16    7   19     -0.04      0.00
   18    7   19     -0.82      0.00
   20    7   19      0.83      0.00
    1    8   19     -3.25      0.00
    3    8   19     -4.47      0.00
    5    8   19     -2.52      0.00
    7    8   19     -0.68      0.00
    9    8   19      0.33      0.00
   11    8   19     -0.73      0.00
   13    8   19     -1.18      0.00
   15    8   19      1.18      0.00
   17    8   19      1.81      0.00
   19    8   19      0.29      0.00
    2    9   19      2.91      0.00
    4    9   19      3.27      0.00
    6    9   19     -2.42      0.00
    8    9   19     -2.57      0.00
   10    9   19     -1.60      0.00
   12    9   19     -0.15      0.00
   14    9   19     -0.87      0.00
   16    9   19     -0.88      0.00
   18    9   19      1.68      0.00
   20    9   19      0.75      0.00
    1   10   19      1.01      0.00
    3   10   19      2.30      0.00
    5   10   19      2.29      0.00
    7   10   19      1.92      0.00
    9   10   19      0.65      0.00
   11   10   19     -0.07      0.00
   13   10   19      0.74      0.00
   15   10   19      0.71      0.00
   17   10   19      0.06      0.00
   19   10   19      0.05      0.00
    2   11   19     -2.97      0.00
    4   11   19     -2.24      0.00
    6   11   19      0.97      0.00
    8   11   19      2.99      0.00
   10   11   19      4.68      0.00
   12   11   19      3.65      0.00
   14   11   19      0.83      0.00
   16   11   19     -0.39      0.00
   18   11   19     -1.11      0.00
    1   12   19      0.68      0.00
    3   12   19      0.19      0.00
    5   12   19     -2.19      0.00
    7   12   19     -4.28      0.00
    9   12   19     -2.30      0.00
   11   12   19      0.81      0.00
   13   12   19      0.39      0.00
   15   12   19     -0.55      0.00
   17   12   19      0.31      0.00
   19   12   19     -0.67      0.00
    2   13   19      0.29      0.00
    4   13   19      0.59      0.00
    6   13   19      0.38      0.00
    8   13   19     -1.67      0.00
   10   13   19     -3.86      0.00
   12   13   19     -4.78      0.00
   14   13   19     -2.25      0.00
   16   13   19      0.42      0.00
   18   13   19      1.05      0.00
    1   14   19     -0.17      0.00
    3   14   19      0.02      0.00
    5   14   19      1.63      0.00
    7   14   19      2.37      0.00
    9   14   19      0.35      0.00
   11   14   19     -0.12      0.00
   13   14   19     -0.23      0.00
   15   14   19     -1.26      0.00
   17   14   19     -1.25      0.00
    2   15   19      2.08      0.00
    4   15   19      1.55      0.00
    6   15   19     -0.81      0.00
    8   15   19     -1.67      0.00
   10   15   19      2.01      0.00
   12   15   19      3.57      0.00
   14   15   19      1.81      0.00
   16   15   19      1.02      0.00
    1   16   19     -0.47      0.00
    3   16   19     -0.57      0.00
    5   16   19     -0.57      0.00
    7   16   19     -0.89      0.00
    9   16   19      0.15      0.00
   11   16   19     -0.57      0.00
   13   16   19     -0.11      0.00
   15   16   19      1.68      0.00
   17   16   19      1.30      0.00
    2   17   19     -0.61      0.00
    4   17   19     -2.11      0.00
    6   17   19     -1.75      0.00
    8   17   19      0.65      0.00
   10   17   19     -0.59      0.00
   12   17   19     -1.35      0.00
   14   17   19     -1.00      0.00
   16   17   19     -1.81      0.00
    1   18   19     -0.80      0.00
    3   18   19     -1.02      0.00
    5   18   19     -0.37      0.00
    7   18   19      1.06      0.00
    9   18   19      0.08      0.00
   11   18   19     -0.50      0.00
   13   18   19      1.22      0.00
   15   18   19     -0.63      0.00
    2   19   19     -0.21      0.00
    4   19   19      0.87      0.00
    6   19   19      1.93      0.00
    8   19   19      2.07      0.00
   10   19   19     -0.02      0.00
   12   19   19     -0.25      0.00
   14   19   19      0.92      0.00
    1   20   19      1.13      0.00
    3   20   19      0.97      0.00
    5   20   19      1.59      0.00
    7   20   19      2.19      0.00
    9   20   19      1.41      0.00
   11   20   19      1.23      0.00
   13   20   19     -1.43      0.00
    2   21   19     -1.92      0.00
    4   21   19     -1.12      0.00
    6   21   19     -0.42      0.00
    8   21   19     -2.21      0.00
   10   21   19     -0.25      0.00
   12   21   19      0.70      0.00
    1   22   19      0.09      0.00
    3   22   19     -0.35      0.00
    5   22   19     -2.76      0.00
    7   22   19     -3.89      0.00
    9   22   19     -2.36      0.00
   11   22   19     -2.01      0.00
    2   23   19      1.59      0.00
    4   23   19      1.38      0.00
    6   23   19      1.12      0.00
    8   23   19      2.09      0.00
   10   23   19      0.68      0.00
    1   24   19     -0.62      0.00
    3   24   19      0.51      0.00
    5   24   19      2.11      0.00
    7   24   19      2.61      0.00
    9   24   19      2.36      0.00
    2   25   19      0.51      0.00
    4   25   19     -0.56      0.00
    6   25   19     -1.58      0.00
    8   25   19     -1.81      0.00
    1   26   19     -0.19      0.00
    3   26   19     -0.78      0.00
    5   26   19     -0.07      0.00
    2   27   19     -1.08      0.00
    0    0   20     -0.35      0.00
    2    0   20      0.91      0.00
    4    0   20      0.53      0.00
    6    0   20      2.32      0.00
    8    0   20      2.93      0.00
   10    0   20     -1.00      0.00
   12    0   20     -0.62      0.00
   14    0   20     -0.39      0.00
   16    0   20      3.24      0.00
   18    0   20      3.04      0.00
   20    0   20      0.94      0.00
    1    1   20    -13.83      0.00
    3    1   20    -10.94      0.00
    5    1   20     -3.63      0.00
    7    1   20     -3.11      0.00
    9    1   20     -3.99      0.00
   11    1   20     -1.90      0.00
   13    1   20     -3.99      0.00
   15    1   20     -3.19      0.00
   17    1   20     -1.93      0.00
   19    1   20     -3.09      0.00
    0    2   20     -0.64      0.00
    2    2   20     -0.91      0.00
    4    2   20     -1.26      0.00
    6    2   20     -2.98      0.00
    8    2   20     -1.41      0.00
   10    2   20      1.48      0.00
   12    2   20     -1.50      0.00
   14    2   20     -0.54      0.00
   16    2   20     -0.80      0.00
   18    2   20     -1.78      0.00
   20    2   20     -1.01      0.00
    1    3   20      9.57      0.00
    3    3   20      8.64      0.00
    5    3   20      7.51      0.00
    7    3   20      4.91      0.00
    9    3   20      2.72      0.00
   11    3   20      2.87      0.00
   13    3   20      3.18      0.00
   15    3   20      1.67      0.00
   17    3   20      1.25      0.00
   19    3   20      0.34      0.00
    0    4   20      2.44      0.00
    2    4   20      2.59      0.00
    4    4   20      1.64      0.00
    6    4   20      0.65      0.00
    8    4   20      0.64      0.00
   10    4   20      0.26      0.00
   12    4   20      2.22      0.00
   14    4   20      1.31      0.00
   16    4   20     -0.65      0.00
   18    4   20     -0.14      0.00
   20    4   20     -0.25      0.00
    1    5   20     -5.26      0.00
    3    5   20     -7.73      0.00
    5    5   20     -9.25      0.00
    7    5   20     -5.65      0.00
    9    5   20     -3.74      0.00
   11    5   20     -3.54      0.00
   13    5   20     -1.80      0.00
   15    5   20     -1.22      0.00
   17    5   20      1.15      0.00
   19    5   20      2.54      0.00
    0    6   20     -3.56      0.00
    2    6   20     -4.20      0.00
    4    6   20     -1.20      0.00
    6    6   20      2.39      0.00
    8    6   20     -0.21      0.00
   10    6   20     -1.39      0.00
   12    6   20      0.36      0.00
   14    6   20     -1.12      0.00
   16    6   20     -2.20      0.00
   18    6   20     -0.74      0.00
   20    6   20      2.24      0.00
    1    7   20      4.95      0.00
    3    7   20      6.34      0.00
    5    7   20      7.32      0.00
    7    7   20      6.60      0.00
    9    7   20      6.00      0.00
   11    7   20      2.21      0.00
   13    7   20     -1.23      0.00
   15    7   20     -0.31      0.00
   17    7   20     -2.80      0.00
   19    7   20     -2.07      0.00
    0    8   20      1.82      0.00
    2    8   20      1.36      0.00
    4    8   20      0.55      0.00
    6    8   20     -0.37      0.00
    8    8   20     -1.73      0.00
   10    8   20     -0.45      0.00
   12    8   20     -0.05      0.00
   14    8   20      1.67      0.00
   16    8   20      3.10      0.00
   18    8   20      2.81      0.00
    1    9   20     -6.36      0.00
    3    9   20     -4.15      0.00
    5    9   20     -3.73      0.00
    7    9   20     -5.58      0.00
    9    9   20     -6.74      0.00
   11    9   20     -2.26      0.00
   13    9   20      2.72      0.00
   15    9   20      1.83      0.00
   17    9   20      1.46      0.00
   19    9   20      1.14      0.00
    0   10   20      1.44      0.00
    2   10   20      1.85      0.00
    4   10   20      0.12      0.00
    6   10   20     -1.70      0.00
    8   10   20      0.43      0.00
   10   10   20     -0.50      0.00
   12   10   20     -0.69      0.00
   14   10   20     -1.38      0.00
   16   10   20     -1.73      0.00
   18   10   20     -2.10      0.00
    1   11   20      6.23      0.00
    3   11   20      2.99      0.00
    5   11   20      1.67      0.00
    7   11   20      3.45      0.00
    9   11   20      4.84      0.00
   11   11   20      2.76      0.00
   13   11   20     -0.53      0.00
   15   11   20     -0.80      0.00
   17   11   20     -1.05      0.00
   19   11   20     -2.19      0.00
    0   12   20     -3.07      0.00
    2   12   20     -1.84      0.00
    4   12   20      1.46      0.00
    6   12   20      3.31      0.00
    8   12   20      2.08      0.00
   10   12   20      1.40      0.00
   12   12   20     -0.71      0.00
   14   12   20     -1.07      0.00
   16   12   20      0.39      0.00
   18   12   20      0.58      0.00
    1   13   20     -4.27      0.00
    3   13   20     -3.36      0.00
    5   13   20     -2.70      0.00
    7   13   20     -2.12      0.00
    9   13   20     -1.11      0.00
   11   13   20     -1.29      0.00
   13   13   20     -1.33      0.00
   15   13   20     -0.81      0.00
   17   13   20      1.07      0.00
    0   14   20      2.72      0.00
    2   14   20      2.00      0.00
    4   14   20     -1.74      0.00
    6   14   20     -4.08      0.00
    8   14   20     -2.62      0.00
   10   14   20     -1.10      0.00
   12   14   20      0.82      0.00
   14   14   20      2.70      0.00
   16   14   20      1.15      0.00
    1   15   20      2.91      0.00
    3   15   20      4.02      0.00
    5   15   20      3.31      0.00
    7   15   20      0.53      0.00
    9   15   20     -0.51      0.00
   11   15   20     -0.16      0.00
   13   15   20      0.22      0.00
   15   15   20      1.61      0.00
   17   15   20      0.72      0.00
    0   16   20     -0.34      0.00
    2   16   20     -1.94      0.00
    4   16   20     -0.90      0.00
    6   16   20      0.47      0.00
    8   16   20      1.79      0.00
   10   16   20      2.00      0.00
   12   16   20     -0.95      0.00
   14   16   20     -1.76      0.00
   16   16   20     -0.24      0.00
    1   17   20     -2.91      0.00
    3   17   20     -3.08      0.00
    5   17   20     -3.52      0.00
    7   17   20     -0.95      0.00
    9   17   20      0.91      0.00
   11   17   20      1.99      0.00
   13   17   20      1.58      0.00
   15   17   20     -1.10      0.00
    0   18   20     -0.06      0.00
    2   18   20      0.50      0.00
    4   18   20     -0.81      0.00
    6   18   20      1.42      0.00
    8   18   20      1.01      0.00
   10   18   20     -0.81      0.00
   12   18   20      1.14      0.00
   14   18   20      0.38      0.00
    1   19   20      1.67      0.00
    3   19   20      1.99      0.00
    5   19   20      4.28      0.00
    7   19   20      2.26      0.00
    9   19   20     -1.75      0.00
   11   19   20     -2.70      0.00
   13   19   20     -2.29      0.00
    0   20   20     -0.93      0.00
    2   20   20      0.72      0.00
    4   20   20      3.45      0.00
    6   20   20     -0.11      0.00
    8   20   20     -2.24      0.00
   10   20   20     -0.77      0.00
   12   20   20      0.04      0.00
    1   21   20      0.00      0.00
    3   21   20     -1.91      0.00
    5   21   20     -2.91      0.00
    7   21   20     -2.04      0.00
    9   21   20      0.51      0.00
   11   21   20      1.18      0.00
    0   22   20     -1.17      0.00
    2   22   20     -1.61      0.00
    4   22   20     -1.28      0.00
    6   22   20     -0.12      0.00
    8   22   20      0.70      0.00
   10   22   20      0.56      0.00
    1   23   20     -0.02      0.00
    3   23   20      1.11      0.00
    5   23   20      0.83      0.00
    7   23   20      1.57      0.00
    9   23   20      0.73      0.00
    0   24   20      2.77      0.00
    2   24   20      1.96      0.00
    4   24   20     -0.37      0.00
    6   24   20      0.47      0.00
    8   24   20      0.13      0.00
    1   25   20     -0.97      0.00
    3   25   20      0.21      0.00
    5   25   20      0.30      0.00
    7   25   20     -0.91      0.00
    0   26   20     -1.93      0.00
    2   26   20     -1.68      0.00
    2    1   21      0.29      0.00
    4    1   21     -0.44      0.00
    6    1   21      0.56      0.00
    8    1   21      0.01      0.00
   10    1   21     -1.59      0.00
   12    1   21     -0.25      0.00
   14    1   21      0.67      0.00
   16    1   21      0.76      0.00
   18    1   21     -0.12      0.00
    1    2   21      1.70      0.00
    3    2   21      6.32      0.00
    5    2   21      6.00      0.00
    7    2   21      0.34      0.00
    9    2   21     -0.24      0.00
   11    2   21     -1.91      0.00
   13    2   21     -3.44      0.00
   15    2   21     -1.39      0.00
   17    2   21     -2.05      0.00
   19    2   21     -1.16      0.00
    2    3   21     -0.67      0.00
    4    3   21     -0.85      0.00
    6    3   21     -0.26      0.00
    8    3   21      1.62      0.00
   10    3   21      1.16      0.00
   12    3   21     -0.56      0.00
   14    3   21      0.91      0.00
   16    3   21     -1.53      0.00
   18    3   21     -0.91      0.00
   20    3   21      0.71      0.00
    1    4   21     -2.61      0.00
    3    4   21     -7.41      0.00
    5    4   21     -6.44      0.00
    7    4   21     -1.28      0.00
    9    4   21      0.82      0.00
   11    4   21      2.19      0.00
   13    4   21      3.49      0.00
   15    4   21      2.79      0.00
   17    4   21      2.58      0.00
   19    4   21      0.27      0.00
    2    5   21      0.97      0.00
    4    5   21      1.13      0.00
    6    5   21      0.38      0.00
    8    5   21     -0.40      0.00
   10    5   21      1.18      0.00
   12    5   21      0.43      0.00
   14    5   21     -3.29      0.00
   16    5   21      0.02      0.00
   18    5   21      1.19      0.00
    1    6   21      1.10      0.00
    3    6   21      2.92      0.00
    5    6   21      4.14      0.00
    7    6   21      3.12      0.00
    9    6   21     -2.16      0.00
   11    6   21     -2.97      0.00
   13    6   21     -1.53      0.00
   15    6   21     -0.93      0.00
   17    6   21     -0.59      0.00
   19    6   21      0.22      0.00
    2    7   21     -0.87      0.00
    4    7   21      1.92      0.00
    6    7   21     -1.12      0.00
    8    7   21     -2.53      0.00
   10    7   21     -0.46      0.00
   12    7   21      0.80      0.00
   14    7   21      1.09      0.00
   16    7   21      1.72      0.00
   18    7   21      1.20      0.00
    1    8   21      0.50      0.00
    3    8   21      1.13      0.00
    5    8   21     -1.68      0.00
    7    8   21     -3.54      0.00
    9    8   21      0.62      0.00
   11    8   21      1.10      0.00
   13    8   21     -0.21      0.00
   15    8   21     -0.94      0.00
   17    8   21      0.21      0.00
   19    8   21      1.96      0.00
    2    9   21      0.77      0.00
    4    9   21     -1.58      0.00
    6    9   21      0.28      0.00
    8    9   21      0.61      0.00
   10    9   21      0.15      0.00
   12    9   21      0.57      0.00
   14    9   21      1.43      0.00
   16    9   21     -1.16      0.00
   18    9   21     -1.87      0.00
    1   10   21     -0.20      0.00
    3   10   21     -0.78      0.00
    5   10   21      1.06      0.00
    7   10   21      2.51      0.00
    9   10   21      2.23      0.00
   11   10   21      3.13      0.00
   13   10   21      1.42      0.00
   15   10   21     -1.00      0.00
   17   10   21     -1.46      0.00
    2   11   21     -0.51      0.00
    4   11   21     -0.59      0.00
    6   11   21     -1.03      0.00
    8   11   21     -0.12      0.00
   10   11   21     -0.22      0.00
   12   11   21     -1.40      0.00
   14   11   21     -1.10      0.00
   16   11   21      0.75      0.00
   18   11   21      0.59      0.00
    1   12   21     -0.86      0.00
    3   12   21     -1.00      0.00
    5   12   21     -1.16      0.00
    7   12   21     -2.11      0.00
    9   12   21     -3.26      0.00
   11   12   21     -4.17      0.00
   13   12   21     -2.19      0.00
   15   12   21      1.32      0.00
   17   12   21      1.00      0.00
    2   13   21      0.48      0.00
    4   13   21      0.77      0.00
    6   13   21      1.62      0.00
    8   13   21      0.57      0.00
   10   13   21     -1.02      0.00
   12   13   21     -0.18      0.00
   14   13   21     -0.28      0.00
   16   13   21     -1.00      0.00
    1   14   21      0.87      0.00
    3   14   21      1.03      0.00
    5   14   21      0.97      0.00
    7   14   21      1.72      0.00
    9   14   21      2.51      0.00
   11   14   21      2.49      0.00
   13   14   21      2.26      0.00
   15   14   21      1.04      0.00
    2   15   21     -0.98      0.00
    4   15   21     -1.22      0.00
    6   15   21     -1.28      0.00
    8   15   21      0.45      0.00
   10   15   21      1.32      0.00
   12   15   21      2.02      0.00
   14   15   21      1.88      0.00
   16   15   21      0.49      0.00
    1   16   21      0.44      0.00
    3   16   21     -0.26      0.00
    5   16   21     -2.47      0.00
    7   16   21     -0.58      0.00
    9   16   21     -0.34      0.00
   11   16   21     -1.61      0.00
   13   16   21     -1.47      0.00
   15   16   21     -1.68      0.00
    2   17   21     -0.63      0.00
    4   17   21      0.89      0.00
    6   17   21      2.38      0.00
    8   17   21      0.83      0.00
   10   17   21     -1.61      0.00
   12   17   21     -2.43      0.00
   14   17   21     -1.00      0.00
    1   18   21     -0.56      0.00
    3   18   21      0.19      0.00
    5   18   21      2.81      0.00
    7   18   21      0.62      0.00
    9   18   21     -0.14      0.00
   11   18   21      1.09      0.00
   13   18   21     -0.04      0.00
    2   19   21      0.84      0.00
    4   19   21     -0.18      0.00
    6   19   21      0.11      0.00
    8   19   21      0.13      0.00
   10   19   21      2.06      0.00
   12   19   21      0.79      0.00
    1   20   21     -0.47      0.00
    3   20   21     -0.22      0.00
    5   20   21     -0.55      0.00
    7   20   21     -2.04      0.00
    9   20   21     -1.39      0.00
   11   20   21     -0.42      0.00
    2   21   21      1.77      0.00
    4   21   21     -0.02      0.00
    6   21   21     -4.30      0.00
    8   21   21     -2.75      0.00
   10   21   21     -1.47      0.00
    1   22   21     -0.09      0.00
    3   22   21     -0.43      0.00
    5   22   21     -0.53      0.00
    7   22   21      2.35      0.00
    9   22   21      2.16      0.00
    2   23   21     -1.58      0.00
    4   23   21      0.92      0.00
    6   23   21      3.49      0.00
    8   23   21      2.00      0.00
    1   24   21      1.07      0.00
    3   24   21      0.92      0.00
    5   24   21      0.10      0.00
    2   25   21     -0.40      0.00
    4   25   21     -0.90      0.00
    0    0   22     -4.46      0.00
    2    0   22     -7.40      0.00
    4    0   22     -5.43      0.00
    6    0   22     -4.53      0.00
    8    0   22     -5.69      0.00
   10    0   22     -2.83      0.00
   12    0   22     -0.80      0.00
   14    0   22     -0.65      0.00
   16    0   22      0.74      0.00
   18    0   22      1.34      0.00
    1    1   22      0.80      0.00
    3    1   22     -1.76      0.00
    5    1   22     -5.73      0.00
    7    1   22     -4.41      0.00
    9    1   22      0.28      0.00
   11    1   22     -0.17      0.00
   13    1   22     -1.87      0.00
   15    1   22     -1.22      0.00
   17    1   22     -3.02      0.00
   19    1   22     -2.16      0.00
    0    2   22      4.81      0.00
    2    2   22      5.99      0.00
    4    2   22      5.54      0.00
    6    2   22      5.18      0.00
    8    2   22      4.18      0.00
   10    2   22      2.30      0.00
   12    2   22      1.95      0.00
   14    2   22      0.50      0.00
   16    2   22     -0.98      0.00
   18    2   22     -0.48      0.00
    1    3   22      1.20      0.00
    3    3   22      3.25      0.00
    5    3   22      2.74      0.00
    7    3   22      1.84      0.00
    9    3   22     -1.09      0.00
   11    3   22     -1.53      0.00
   13    3   22      1.84      0.00
   15    3   22      1.59      0.00
   17    3   22      0.95      0.00
   19    3   22      2.49      0.00
    0    4   22     -4.63      0.00
    2    4   22     -4.69      0.00
    4    4   22     -5.06      0.00
    6    4   22     -3.06      0.00
    8    4   22     -3.39      0.00
   10    4   22     -3.64      0.00
   12    4   22     -1.96      0.00
   14    4   22     -0.44      0.00
   16    4   22     -0.25      0.00
   18    4   22      0.01      0.00
    1    5   22     -3.51      0.00
    3    5   22     -2.99      0.00
    5    5   22      2.01      0.00
    7    5   22      0.14      0.00
    9    5   22     -0.81      0.00
   11    5   22      2.47      0.00
   13    5   22      0.95      0.00
   15    5   22     -1.20      0.00
   17    5   22     -0.78      0.00
   19    5   22     -1.56      0.00
    0    6   22      4.15      0.00
    2    6   22      4.61      0.00
    4    6   22      4.07      0.00
    6    6   22      0.84      0.00
    8    6   22      4.15      0.00
   10    6   22      3.89      0.00
   12    6   22     -0.87      0.00
   14    6   22      0.16      0.00
   16    6   22      1.68      0.00
   18    6   22     -0.69      0.00
    1    7   22      2.52      0.00
    3    7   22      1.05      0.00
    5    7   22     -2.59      0.00
    7    7   22     -1.53      0.00
    9    7   22     -0.21      0.00
   11    7   22     -1.22      0.00
   13    7   22     -0.82      0.00
   15    7   22      1.24      0.00
   17    7   22      1.70      0.00
    0    8   22     -3.70      0.00
    2    8   22     -3.43      0.00
    4    8   22     -2.95      0.00
    6    8   22     -3.10      0.00
    8    8   22     -3.46      0.00
   10    8   22     -0.96      0.00
   12    8   22      1.63      0.00
   14    8   22      0.24      0.00
   16    8   22     -0.10      0.00
   18    8   22      1.09      0.00
    1    9   22      0.89      0.00
    3    9   22      1.12      0.00
    5    9   22      0.20      0.00
    7    9   22      1.36      0.00
    9    9   22      1.89      0.00
   11    9   22     -0.58      0.00
   13    9   22     -1.41      0.00
   15    9   22     -0.60      0.00
   17    9   22     -0.07      0.00
    0   10   22      3.72      0.00
    2   10   22      2.73      0.00
    4   10   22      1.12      0.00
    6   10   22      3.30      0.00
    8   10   22      2.86      0.00
   10   10   22      1.26      0.00
   12   10   22      0.25      0.00
   14   10   22      0.09      0.00
   16   10   22     -1.58      0.00
   18   10   22     -1.88      0.00
    1   11   22     -1.71      0.00
    3   11   22     -1.65      0.00
    5   11   22      0.47      0.00
    7   11   22     -0.40      0.00
    9   11   22     -0.09      0.00
   11   11   22      0.88      0.00
   13   11   22     -0.72      0.00
   15   11   22     -1.35      0.00
   17   11   22     -0.72      0.00
    0   12   22     -4.25      0.00
    2   12   22     -2.95      0.00
    4   12   22     -0.59      0.00
    6   12   22     -1.32      0.00
    8   12   22     -1.78      0.00
   10   12   22     -2.49      0.00
   12   12   22     -1.46      0.00
   14   12   22      0.13      0.00
   16   12   22      1.54      0.00
    1   13   22      0.37      0.00
    3   13   22      1.63      0.00
    5   13   22     -0.72      0.00
    7   13   22     -0.35      0.00
    9   13   22     -0.01      0.00
   11   13   22      0.44      0.00
   13   13   22      3.43      0.00
   15   13   22      2.79      0.00
    0   14   22      3.45      0.00
    2   14   22      1.93      0.00
    4   14   22      0.70      0.00
    6   14   22     -0.26      0.00
    8   14   22     -0.09      0.00
   10   14   22      1.89      0.00
   12   14   22      0.90      0.00
   14   14   22     -1.13      0.00
   16   14   22     -0.81      0.00
    1   15   22     -0.31      0.00
    3   15   22     -2.76      0.00
    5   15   22      0.60      0.00
    7   15   22      0.74      0.00
    9   15   22     -1.87      0.00
   11   15   22     -2.01      0.00
   13   15   22     -3.20      0.00
   15   15   22     -2.72      0.00
    0   16   22     -2.47      0.00
    2   16   22     -0.74      0.00
    4   16   22      0.12      0.00
    6   16   22      1.40      0.00
    8   16   22      0.80      0.00
   10   16   22     -0.23      0.00
   12   16   22      1.45      0.00
   14   16   22      0.91      0.00
    1   17   22      1.37      0.00
    3   17   22      1.50      0.00
    5   17   22      0.01      0.00
    7   17   22      1.09      0.00
    9   17   22      2.29      0.00
   11   17   22      2.25      0.00
   13   17   22      2.55      0.00
    0   18   22      0.58      0.00
    2   18   22     -0.10      0.00
    4   18   22      1.19      0.00
    6   18   22      0.63      0.00
    8   18   22     -1.61      0.00
   10   18   22     -2.90      0.00
   12   18   22     -2.52      0.00
    1   19   22     -0.89      0.00
    3   19   22      1.57      0.00
    5   19   22      0.08      0.00
    7   19   22     -3.05      0.00
    9   19   22     -1.60      0.00
   11   19   22     -1.08      0.00
    0   20   22      1.49      0.00
    2   20   22      0.54      0.00
    4   20   22     -1.91      0.00
    6   20   22     -1.53      0.00
    8   20   22      1.32      0.00
   10   20   22      2.82      0.00
    1   21   22     -1.26      0.00
    3   21   22     -1.35      0.00
    5   21   22      0.20      0.00
    7   21   22      2.02      0.00
    9   21   22      0.70      0.00
    0   22   22     -0.33      0.00
    2   22   22     -0.06      0.00
    4   22   22     -0.97      0.00
    6   22   22     -0.59      0.00
    8   22   22      0.62      0.00
    1   23   22      1.20      0.00
    3   23   22     -0.50      0.00
    5   23   22     -0.31      0.00
    7   23   22      0.23      0.00
    0   24   22     -1.42      0.00
    2   24   22     -0.20      0.00
    4   24   22      2.67      0.00
    1   25   22      0.61      0.00
    2    1   23      0.06      0.00
    4    1   23      0.87      0.00
    6    1   23     -0.60      0.00
    8    1   23     -0.84      0.00
   10    1   23      0.23      0.00
   12    1   23     -0.78      0.00
   14    1   23     -0.06      0.00
   16    1   23      0.97      0.00
   18    1   23      0.12      0.00
    1    2   23     -0.22      0.00
    3    2   23     -0.14      0.00
    5    2   23     -0.18      0.00
    7    2   23      2.11      0.00
    9    2   23     -0.25      0.00
   11    2   23     -0.31      0.00
   13    2   23      0.94      0.00
   15    2   23     -0.69      0.00
   17    2   23     -0.82      0.00
    2    3   23     -0.11      0.00
    4    3   23     -0.20      0.00
    6    3   23      0.64      0.00
    8    3   23      0.46      0.00
   10    3   23      0.17      0.00
   12    3   23      1.53      0.00
   14    3   23     -0.72      0.00
   16    3   23     -0.90      0.00
   18    3   23      0.09      0.00
    1    4   23      0.44      0.00
    3    4   23      0.68      0.00
    5    4   23     -0.77      0.00
    7    4   23     -3.60      0.00
    9    4   23      0.63      0.00
   11    4   23      2.91      0.00
   13    4   23     -0.54      0.00
   15    4   23     -0.64      0.00
   17    4   23      1.40      0.00
    2    5   23     -0.55      0.00
    4    5   23     -1.28      0.00
    6    5   23     -0.10      0.00
    8    5   23     -0.63      0.00
   10    5   23     -1.06      0.00
   12    5   23     -0.31      0.00
   14    5   23      1.26      0.00
   16    5   23     -0.17      0.00
   18    5   23      0.30      0.00
    1    6   23     -0.20      0.00
    3    6   23      1.03      0.00
    5    6   23      1.54      0.00
    7    6   23     -1.16      0.00
    9    6   23     -0.57      0.00
   11    6   23     -0.24      0.00
   13    6   23      0.57      0.00
   15    6   23      1.05      0.00
   17    6   23     -0.63      0.00
    2    7   23      1.44      0.00
    4    7   23      0.87      0.00
    6    7   23      0.28      0.00
    8    7   23      1.86      0.00
   10    7   23      0.47      0.00
   12    7   23     -1.36      0.00
   14    7   23      0.01      0.00
   16    7   23      0.03      0.00
   18    7   23     -0.89      0.00
    1    8   23     -0.06      0.00
    3    8   23     -2.48      0.00
    5    8   23     -2.05      0.00
    7    8   23      3.64      0.00
    9    8   23     -0.01      0.00
   11    8   23     -1.97      0.00
   13    8   23     -0.28      0.00
   15    8   23     -0.47      0.00
   17    8   23     -1.36      0.00
    2    9   23     -1.69      0.00
    4    9   23     -1.24      0.00
    6    9   23     -0.28      0.00
    8    9   23      0.10      0.00
   10    9   23      0.90      0.00
   12    9   23      1.34      0.00
   14    9   23     -0.91      0.00
   16    9   23     -0.36      0.00
    1   10   23     -0.62      0.00
    3   10   23      0.89      0.00
    5   10   23      1.47      0.00
    7   10   23     -0.77      0.00
    9   10   23      0.52      0.00
   11   10   23     -0.48      0.00
   13   10   23     -0.38      0.00
   15   10   23      1.72      0.00
   17   10   23      1.99      0.00
    2   11   23      1.08      0.00
    4   11   23      1.48      0.00
    6   11   23      0.15      0.00
    8   11   23     -2.00      0.00
   10   11   23     -1.64      0.00
   12   11   23     -0.16      0.00
   14   11   23      0.30      0.00
   16   11   23     -0.06      0.00
    1   12   23      0.94      0.00
    3   12   23     -0.31      0.00
    5   12   23     -0.92      0.00
    7   12   23      0.33      0.00
    9   12   23     -0.16      0.00
   11   12   23      0.26      0.00
   13   12   23     -0.24      0.00
   15   12   23     -1.98      0.00
    2   13   23     -0.34      0.00
    4   13   23     -0.63      0.00
    6   13   23      0.72      0.00
    8   13   23      2.47      0.00
   10   13   23      1.22      0.00
   12   13   23     -0.48      0.00
   14   13   23      0.85      0.00
    1   14   23     -0.03      0.00
    3   14   23      1.21      0.00
    5   14   23      0.83      0.00
    7   14   23     -0.66      0.00
    9   14   23     -0.35      0.00
   11   14   23      1.84      0.00
   13   14   23      2.03      0.00
    2   15   23      0.45      0.00
    4   15   23     -0.67      0.00
    6   15   23     -1.81      0.00
    8   15   23     -1.35      0.00
   10   15   23     -0.26      0.00
   12   15   23     -0.83      0.00
   14   15   23     -1.07      0.00
    1   16   23     -1.10      0.00
    3   16   23     -1.10      0.00
    5   16   23      1.16      0.00
    7   16   23     -0.03      0.00
    9   16   23     -0.32      0.00
   11   16   23     -2.18      0.00
   13   16   23     -2.70      0.00
    2   17   23      0.31      0.00
    4   17   23      2.50      0.00
    6   17   23      1.74      0.00
    8   17   23     -0.90      0.00
   10   17   23      0.56      0.00
   12   17   23      2.00      0.00
    1   18   23      0.53      0.00
    3   18   23     -0.38      0.00
    5   18   23     -2.09      0.00
    7   18   23      1.12      0.00
    9   18   23      1.97      0.00
   11   18   23      1.84      0.00
    2   19   23     -1.12      0.00
    4   19   23     -1.74      0.00
    6   19   23     -2.13      0.00
    8   19   23     -0.60      0.00
   10   19   23     -1.36      0.00
    1   20   23      1.05      0.00
    3   20   23      1.81      0.00
    5   20   23     -0.73      0.00
    7   20   23     -2.70      0.00
    9   20   23     -2.34      0.00
    2   21   23     -0.48      0.00
    4   21   23     -0.90      0.00
    6   21   23      2.32      0.00
    8   21   23      2.80      0.00
    1   22   23     -0.34      0.00
    3   22   23     -0.52      0.00
    5   22   23      2.84      0.00
    7   22   23      1.98      0.00
    2   23   23      1.68      0.00
    4   23   23      1.32      0.00
    1   24   23     -0.99      0.00
    0    0   24     -1.39      0.00
    2    0   24     -1.50      0.00
    4    0   24     -5.09      0.00
    6    0   24     -4.20      0.00
    8    0   24      0.53      0.00
   10    0   24      3.77      0.00
   12    0   24      1.68      0.00
   14    0   24      2.08      0.00
   16    0   24      0.17      0.00
   18    0   24     -2.05      0.00
    1    1   24      1.93      0.00
    3    1   24      2.37      0.00
    5    1   24      1.92      0.00
    7    1   24     -0.07      0.00
    9    1   24      0.86      0.00
   11    1   24      1.52      0.00
   13    1   24     -0.86      0.00
   15    1   24     -3.15      0.00
   17    1   24     -1.31      0.00
    0    2   24      0.62      0.00
    2    2   24      1.85      0.00
    4    2   24      3.63      0.00
    6    2   24      2.31      0.00
    8    2   24     -0.26      0.00
   10    2   24     -3.43      0.00
   12    2   24     -1.93      0.00
   14    2   24     -0.51      0.00
   16    2   24      0.57      0.00
   18    2   24      1.68      0.00
    1    3   24     -0.61      0.00
    3    3   24     -1.78      0.00
    5    3   24     -1.14      0.00
    7    3   24      0.25      0.00
    9    3   24      0.04      0.00
   11    3   24     -0.36      0.00
   13    3   24     -0.18      0.00
   15    3   24      1.06      0.00
   17    3   24     -0.03      0.00
    0    4   24      0.25      0.00
    2    4   24     -2.08      0.00
    4    4   24     -1.16      0.00
    6    4   24     -0.71      0.00
    8    4   24     -0.75      0.00
   10    4   24      2.29      0.00
   12    4   24      1.99      0.00
   14    4   24     -0.83      0.00
   16    4   24     -0.59      0.00
   18    4   24     -1.14      0.00
    1    5   24     -0.02      0.00
    3    5   24      1.35      0.00
    5    5   24     -2.27      0.00
    7    5   24      0.38      0.00
    9    5   24      4.01      0.00
   11    5   24      0.30      0.00
   13    5   24     -1.34      0.00
   15    5   24      1.22      0.00
   17    5   24      1.46      0.00
    0    6   24     -0.03      0.00
    2    6   24      1.85      0.00
    4    6   24      0.39      0.00
    6    6   24      0.92      0.00
    8    6   24      1.45      0.00
   10    6   24     -0.17      0.00
   12    6   24     -0.97      0.00
   14    6   24      0.49      0.00
   16    6   24     -0.02      0.00
    1    7   24      0.03      0.00
    3    7   24     -1.38      0.00
    5    7   24      1.45      0.00
    7    7   24     -1.23      0.00
    9    7   24     -2.97      0.00
   11    7   24      0.39      0.00
   13    7   24      1.31      0.00
   15    7   24     -2.17      0.00
   17    7   24     -2.03      0.00
    0    8   24     -0.61      0.00
    2    8   24     -0.92      0.00
    4    8   24     -0.29      0.00
    6    8   24      0.03      0.00
    8    8   24     -0.88      0.00
   10    8   24     -1.49      0.00
   12    8   24     -0.35      0.00
   14    8   24     -0.29      0.00
   16    8   24     -0.12      0.00
    1    9   24     -0.43      0.00
    3    9   24      0.91      0.00
    5    9   24      1.71      0.00
    7    9   24      1.40      0.00
    9    9   24     -1.42      0.00
   11    9   24     -1.24      0.00
   13    9   24      0.89      0.00
   15    9   24      1.21      0.00
    0   10   24      0.98      0.00
    2   10   24     -0.98      0.00
    4   10   24     -1.33      0.00
    6   10   24     -1.48      0.00
    8   10   24      0.17      0.00
   10   10   24      1.52      0.00
   12   10   24      0.37      0.00
   14   10   24     -1.18      0.00
   16   10   24     -0.34      0.00
    1   11   24     -0.86      0.00
    3   11   24      0.11      0.00
    5   11   24     -0.59      0.00
    7   11   24     -0.26      0.00
    9   11   24      0.34      0.00
   11   11   24      0.07      0.00
   13   11   24     -0.47      0.00
   15   11   24      0.44      0.00
    0   12   24     -1.44      0.00
    2   12   24      1.77      0.00
    4   12   24      3.35      0.00
    6   12   24      1.95      0.00
    8   12   24      0.11      0.00
   10   12   24     -0.59      0.00
   12   12   24      0.50      0.00
   14   12   24      2.43      0.00
    1   13   24      2.14      0.00
    3   13   24     -1.05      0.00
    5   13   24     -0.87      0.00
    7   13   24     -0.71      0.00
    9   13   24      1.33      0.00
   11   13   24      1.88      0.00
   13   13   24     -0.64      0.00
    0   14   24      1.86      0.00
    2   14   24     -1.22      0.00
    4   14   24     -3.16      0.00
    6   14   24      0.01      0.00
    8   14   24     -0.66      0.00
   10   14   24     -1.29      0.00
   12   14   24     -0.54      0.00
    1   15   24     -0.79      0.00
    3   15   24      1.67      0.00
    5   15   24      0.51      0.00
    7   15   24     -0.19      0.00
    9   15   24     -1.26      0.00
   11   15   24     -1.80      0.00
    0   16   24     -0.18      0.00
    2   16   24      1.22      0.00
    4   16   24      0.98      0.00
    6   16   24     -1.72      0.00
    8   16   24      1.14      0.00
   10   16   24      1.83      0.00
    1   17   24     -1.23      0.00
    3   17   24     -0.82      0.00
    5   17   24      0.70      0.00
    7   17   24      1.15      0.00
    9   17   24      0.41      0.00
    0   18   24     -1.76      0.00
    2   18   24     -0.86      0.00
    4   18   24      0.34      0.00
    6   18   24     -0.58      0.00
    8   18   24     -1.04      0.00
    1   19   24      1.43      0.00
    3   19   24     -0.49      0.00
    5   19   24     -1.00      0.00
    7   19   24      0.09      0.00
    0   20   24      0.26      0.00
    2   20   24      0.04      0.00
    4   20   24      0.45      0.00
    6   20   24      2.48      0.00
    1   21   24      0.42      0.00
    3   21   24      0.02      0.00
    5   21   24     -1.32      0.00
    7   21   24     -1.71      0.00
    0   22   24      0.96      0.00
    2   22   24     -0.41      0.00
    4   22   24     -1.00      0.00
    2    1   25      0.23      0.00
    4    1   25      0.05      0.00
    6    1   25      1.51      0.00
    8    1   25      1.18      0.00
   10    1   25     -0.36      0.00
   12    1   25      0.33      0.00
   14    1   25      0.08      0.00
   16    1   25     -0.94      0.00
    1    2   25      1.34      0.00
    3    2   25      1.36      0.00
    5    2   25      3.26      0.00
    7    2   25      1.56      0.00
    9    2   25      2.31      0.00
   11    2   25     -1.27      0.00
   13    2   25     -2.18      0.00
   15    2   25     -1.31      0.00
   17    2   25     -0.97      0.00
    2    3   25     -0.59      0.00
    4    3   25     -0.40      0.00
    6    3   25     -3.08      0.00
    8    3   25     -2.54      0.00
   10    3   25      1.48      0.00
   12    3   25      1.10      0.00
   14    3   25      0.82      0.00
   16    3   25      1.74      0.00
    1    4   25     -1.62      0.00
    3    4   25     -3.60      0.00
    5    4   25     -3.77      0.00
    7    4   25      1.00      0.00
    9    4   25     -1.47      0.00
   11    4   25     -0.35      0.00
   13    4   25      2.03      0.00
   15    4   25      1.94      0.00
    2    5   25      0.03      0.00
    4    5   25      0.39      0.00
    6    5   25      1.37      0.00
    8    5   25      1.74      0.00
   10    5   25     -1.07      0.00
   12    5   25     -2.25      0.00
   14    5   25     -1.46      0.00
   16    5   25     -1.34      0.00
    1    6   25      1.43      0.00
    3    6   25      3.92      0.00
    5    6   25      2.43      0.00
    7    6   25      0.92      0.00
    9    6   25     -0.36      0.00
   11    6   25     -1.51      0.00
   13    6   25     -1.32      0.00
   15    6   25     -1.15      0.00
    2    7   25      1.37      0.00
    4    7   25     -0.42      0.00
    6    7   25      0.56      0.00
    8    7   25     -0.29      0.00
   10    7   25     -1.33      0.00
   12    7   25      0.60      0.00
   14    7   25      0.57      0.00
   16    7   25      0.72      0.00
    1    8   25     -1.59      0.00
    3    8   25     -3.37      0.00
    5    8   25     -1.31      0.00
    7    8   25     -2.88      0.00
    9    8   25      1.61      0.00
   11    8   25      2.77      0.00
   13    8   25      0.34      0.00
   15    8   25     -0.54      0.00
    2    9   25     -2.32      0.00
    4    9   25      1.05      0.00
    6    9   25      0.55      0.00
    8    9   25      0.49      0.00
   10    9   25      1.78      0.00
   12    9   25     -0.29      0.00
   14    9   25      0.09      0.00
    1   10   25      2.72      0.00
    3   10   25      4.13      0.00
    5   10   25      1.35      0.00
    7   10   25      0.28      0.00
    9   10   25     -2.41      0.00
   11   10   25      0.24      0.00
   13   10   25      1.35      0.00
   15   10   25      0.49      0.00
    2   11   25      1.59      0.00
    4   11   25     -1.45      0.00
    6   11   25     -1.25      0.00
    8   11   25     -0.44      0.00
   10   11   25     -0.43      0.00
   12   11   25      0.58      0.00
   14   11   25     -0.18      0.00
    1   12   25     -2.38      0.00
    3   12   25     -2.89      0.00
    5   12   25     -1.07      0.00
    7   12   25      1.25      0.00
    9   12   25      2.19      0.00
   11   12   25     -1.66      0.00
   13   12   25     -2.27      0.00
    2   13   25      0.91      0.00
    4   13   25      2.10      0.00
    6   13   25     -0.22      0.00
    8   13   25     -1.52      0.00
   10   13   25     -0.13      0.00
   12   13   25      0.65      0.00
    1   14   25     -0.08      0.00
    3   14   25     -0.22      0.00
    5   14   25     -0.50      0.00
    7   14   25     -1.52      0.00
    9   14   25     -0.59      0.00
   11   14   25      0.73      0.00
    2   15   25     -3.26      0.00
    4   15   25     -2.00      0.00
    6   15   25      0.85      0.00
    8   15   25      1.69      0.00
   10   15   25      0.24      0.00
    1   16   25      1.43      0.00
    3   16   25      2.27      0.00
    5   16   25      1.61      0.00
    7   16   25      0.96      0.00
    9   16   25     -1.01      0.00
    2   17   25      2.90      0.00
    4   17   25      0.20      0.00
    6   17   25     -0.12      0.00
    8   17   25      0.87      0.00
    1   18   25     -0.97      0.00
    3   18   25     -2.23      0.00
    5   18   25     -1.01      0.00
    7   18   25     -0.46      0.00
    2   19   25     -0.09      0.00
    4   19   25      0.37      0.00
    6   19   25     -0.98      0.00
    1   20   25      0.22      0.00
    3   20   25      0.29      0.00
    5   20   25     -0.03      0.00
    2   21   25     -0.36      0.00
    4   21   25      1.23      0.00
    0    0   26      0.59      0.00
    2    0   26     -0.35      0.00
    4    0   26     -0.77      0.00
    6    0   26     -1.89      0.00
    8    0   26     -2.61      0.00
   10    0   26     -0.23      0.00
   12    0   26      0.15      0.00
   14    0   26     -2.34      0.00
   16    0   26     -0.19      0.00
    1    1   26      0.68      0.00
    3    1   26      2.31      0.00
    5    1   26      0.47      0.00
    7    1   26     -1.12      0.00
    9    1   26     -4.65      0.00
   11    1   26     -4.30      0.00
   13    1   26     -2.35      0.00
   15    1   26     -2.22      0.00
    0    2   26      0.35      0.00
    2    2   26      1.23      0.00
    4    2   26      1.70      0.00
    6    2   26      1.97      0.00
    8    2   26      2.18      0.00
   10    2   26      1.15      0.00
   12    2   26      0.04      0.00
   14    2   26      1.05      0.00
   16    2   26      0.01      0.00
    1    3   26      0.69      0.00
    3    3   26     -0.71      0.00
    5    3   26      1.34      0.00
    7    3   26      0.92      0.00
    9    3   26      0.47      0.00
   11    3   26      1.06      0.00
   13    3   26      2.08      0.00
   15    3   26      1.09      0.00
    0    4   26     -3.16      0.00
    2    4   26     -2.11      0.00
    4    4   26     -2.44      0.00
    6    4   26     -2.14      0.00
    8    4   26      0.57      0.00
   10    4   26      0.29      0.00
   12    4   26     -0.16      0.00
   14    4   26     -0.05      0.00
   16    4   26     -0.84      0.00
    1    5   26     -1.62      0.00
    3    5   26     -0.17      0.00
    5    5   26      0.80      0.00
    7    5   26      0.07      0.00
    9    5   26     -0.03      0.00
   11    5   26      0.71      0.00
   13    5   26     -0.19      0.00
   15    5   26     -0.67      0.00
    0    6   26      4.42      0.00
    2    6   26      0.84      0.00
    4    6   26      0.59      0.00
    6    6   26      1.70      0.00
    8    6   26     -2.40      0.00
   10    6   26     -2.67      0.00
   12    6   26      0.07      0.00
   14    6   26      0.26      0.00
    1    7   26      1.00      0.00
    3    7   26      0.04      0.00
    5    7   26     -2.54      0.00
    7    7   26     -1.42      0.00
    9    7   26     -0.81      0.00
   11    7   26     -0.66      0.00
   13    7   26     -0.64      0.00
   15    7   26      0.59      0.00
    0    8   26     -2.59      0.00
    2    8   26      0.41      0.00
    4    8   26      1.55      0.00
    6    8   26     -0.69      0.00
    8    8   26     -0.37      0.00
   10    8   26      0.29      0.00
   12    8   26      0.17      0.00
   14    8   26      0.45      0.00
    1    9   26     -0.10      0.00
    3    9   26     -0.52      0.00
    5    9   26      1.13      0.00
    7    9   26      1.93      0.00
    9    9   26      2.53      0.00
   11    9   26      0.58      0.00
   13    9   26     -0.68      0.00
    0   10   26      0.46      0.00
    2   10   26      0.44      0.00
    4   10   26     -0.25      0.00
    6   10   26      1.13      0.00
    8   10   26      2.46      0.00
   10   10   26      1.78      0.00
   12   10   26     -0.06      0.00
   14   10   26     -0.20      0.00
    1   11   26      1.62      0.00
    3   11   26      1.06      0.00
    5   11   26     -0.24      0.00
    7   11   26     -1.73      0.00
    9   11   26     -1.39      0.00
   11   11   26     -0.16      0.00
   13   11   26      1.20      0.00
    0   12   26      0.76      0.00
    2   12   26     -1.06      0.00
    4   12   26     -1.96      0.00
    6   12   26     -1.88      0.00
    8   12   26     -1.55      0.00
   10   12   26     -0.30      0.00
    1   13   26     -2.97      0.00
    3   13   26     -0.85      0.00
    5   13   26      0.48      0.00
    7   13   26      1.70      0.00
    9   13   26     -0.03      0.00
   11   13   26     -0.97      0.00
    0   14   26     -0.68      0.00
    2   14   26      0.31      0.00
    4   14   26      0.98      0.00
    6   14   26     -0.13      0.00
    8   14   26      0.38      0.00
   10   14   26     -0.92      0.00
    1   15   26      1.79      0.00
    3   15   26      0.80      0.00
    5   15   26     -1.35      0.00
    7   15   26     -1.62      0.00
    9   15   26      0.65      0.00
    0   16   26     -0.26      0.00
    2   16   26      0.38      0.00
    4   16   26      1.41      0.00
    6   16   26      2.71      0.00
    8   16   26      0.95      0.00
    1   17   26     -1.03      0.00
    3   17   26     -0.66      0.00
    5   17   26      1.19      0.00
    7   17   26      0.50      0.00
    0   18   26      0.81      0.00
    2   18   26     -0.57      0.00
    4   18   26     -2.57      0.00
    6   18   26     -2.20      0.00
    1   19   26      1.00      0.00
    3   19   26      0.39      0.00
    5   19   26      0.26      0.00
    0   20   26      0.48      0.00
    2   20   26      0.54      0.00
    4   20   26      1.30      0.00
    2    1   27      0.81      0.00
    4    1   27      0.88      0.00
    6    1   27      0.67      0.00
    8    1   27      1.32      0.00
   10    1   27      0.33      0.00
   12    1   27     -1.18      0.00
   14    1   27     -0.18      0.00
    1    2   27     -1.14      0.00
    3    2   27      0.08      0.00
    5    2   27     -2.44      0.00
    7    2   27     -2.69      0.00
    9    2   27     -2.98      0.00
   11    2   27      1.16      0.00
   13    2   27     -0.35      0.00
   15    2   27     -0.33      0.00
    2    3   27     -0.64      0.00
    4    3   27     -2.56      0.00
    6    3   27     -1.34      0.00
    8    3   27     -1.03      0.00
   10    3   27     -1.05      0.00
   12    3   27      0.63      0.00
   14    3   27      0.17      0.00
    1    4   27      0.96      0.00
    3    4   27      0.71      0.00
    5    4   27      2.30      0.00
    7    4   27      0.98      0.00
    9    4   27      2.65      0.00
   11    4   27     -0.45      0.00
   13    4   27     -0.13      0.00
   15    4   27     -1.26      0.00
    2    5   27      0.22      0.00
    4    5   27      3.29      0.00
    6    5   27      2.47      0.00
    8    5   27     -0.20      0.00
   10    5   27     -0.23      0.00
   12    5   27      0.04      0.00
   14    5   27     -1.52      0.00
    1    6   27      1.06      0.00
    3    6   27     -0.34      0.00
    5    6   27     -1.34      0.00
    7    6   27     -0.82      0.00
    9    6   27     -0.55      0.00
   11    6   27      0.55      0.00
   13    6   27      0.82      0.00
   15    6   27      2.59      0.00
    2    7   27     -1.66      0.00
    4    7   27     -2.10      0.00
    6    7   27     -3.44      0.00
    8    7   27     -0.95      0.00
   10    7   27      2.81      0.00
   12    7   27      2.18      0.00
   14    7   27      3.06      0.00
    1    8   27     -2.44      0.00
    3    8   27     -0.43      0.00
    5    8   27      1.22      0.00
    7    8   27      2.31      0.00
    9    8   27     -0.10      0.00
   11    8   27     -0.81      0.00
   13    8   27     -1.71      0.00
    2    9   27      3.18      0.00
    4    9   27      0.66      0.00
    6    9   27      1.50      0.00
    8    9   27      0.57      0.00
   10    9   27     -2.03      0.00
   12    9   27     -1.51      0.00
    1   10   27      0.80      0.00
    3   10   27     -0.06      0.00
    5   10   27     -0.83      0.00
    7   10   27     -1.89      0.00
    9   10   27     -0.50      0.00
   11   10   27      0.34      0.00
   13   10   27      2.00      0.00
    2   11   27     -2.78      0.00
    4   11   27     -0.21      0.00
    6   11   27      0.33      0.00
    8   11   27      0.68      0.00
   10   11   27     -0.34      0.00
    1   12   27      0.65      0.00
    3   12   27      0.37      0.00
    5   12   27     -0.05      0.00
    7   12   27      0.06      0.00
    9   12   27      0.54      0.00
   11   12   27     -0.33      0.00
    2   13   27      0.18      0.00
    4   13   27     -0.15      0.00
    6   13   27     -0.34      0.00
    8   13   27     -0.62      0.00
   10   13   27      0.55      0.00
    1   14   27      0.02      0.00
    3   14   27     -0.64      0.00
    5   14   27      0.22      0.00
    7   14   27      1.37      0.00
    9   14   27     -0.15      0.00
    2   15   27      1.33      0.00
    4   15   27      0.52      0.00
    6   15   27      1.01      0.00
    8   15   27      0.35      0.00
    1   16   27      0.40      0.00
    3   16   27      1.50      0.00
    5   16   27     -0.06      0.00
    7   16   27     -0.88      0.00
    2   17   27     -0.90      0.00
    4   17   27     -0.50      0.00
    6   17   27     -1.11      0.00
    1   18   27     -1.30      0.00
    3   18   27     -1.23      0.00
    5   18   27     -0.19      0.00
    2   19   27      0.01      0.00
    0    0   28     -0.38      0.00
    2    0   28     -0.65      0.00
    4    0   28      0.32      0.00
    6    0   28     -0.95      0.00
    8    0   28     -1.82      0.00
   10    0   28     -3.70      0.00
   12    0   28     -0.62      0.00
   14    0   28     -0.05      0.00
    1    1   28     -1.59      0.00
    3    1   28     -0.23      0.00
    5    1   28      0.09      0.00
    7    1   28     -0.91      0.00
    9    1   28      1.42      0.00
   11    1   28      1.66      0.00
   13    1   28      0.98      0.00
    0    2   28      2.28      0.00
    2    2   28      0.51      0.00
    4    2   28     -0.69      0.00
    6    2   28      1.42      0.00
    8    2   28      1.38      0.00
   10    2   28      0.87      0.00
   12    2   28      0.47      0.00
   14    2   28      1.25      0.00
    1    3   28      1.12      0.00
    3    3   28     -0.33      0.00
    5    3   28     -1.49      0.00
    7    3   28      0.15      0.00
    9    3   28      0.01      0.00
   11    3   28     -1.19      0.00
   13    3   28     -1.65      0.00
    0    4   28     -3.06      0.00
    2    4   28     -0.43      0.00
    4    4   28      0.87      0.00
    6    4   28     -0.54      0.00
    8    4   28     -1.90      0.00
   10    4   28      0.90      0.00
   12    4   28     -0.34      0.00
   14    4   28     -2.26      0.00
    1    5   28      0.33      0.00
    3    5   28     -0.83      0.00
    5    5   28      0.68      0.00
    7    5   28      1.34      0.00
    9    5   28     -0.16      0.00
   11    5   28      0.02      0.00
   13    5   28      0.69      0.00
    0    6   28      1.04      0.00
    2    6   28      0.70      0.00
    4    6   28     -0.68      0.00
    6    6   28     -2.09      0.00
    8    6   28      1.57      0.00
   10    6   28      0.48      0.00
   12    6   28      0.01      0.00
    1    7   28     -0.28      0.00
    3    7   28      1.37      0.00
    5    7   28      0.27      0.00
    7    7   28     -1.64      0.00
    9    7   28     -0.16      0.00
   11    7   28      0.36      0.00
    0    8   28      0.28      0.00
    2    8   28     -0.31      0.00
    4    8   28      1.08      0.00
    6    8   28      3.44      0.00
    8    8   28      1.99      0.00
   10    8   28      0.77      0.00
    1    9   28     -1.10      0.00
    3    9   28      0.30      0.00
    5    9   28      0.47      0.00
    7    9   28      0.58      0.00
    9    9   28     -0.06      0.00
   11    9   28     -0.68      0.00
    0   10   28      0.66      0.00
    2   10   28     -0.65      0.00
    4   10   28     -2.64      0.00
    6   10   28     -3.42      0.00
    8   10   28     -3.73      0.00
   10   10   28     -2.12      0.00
    1   11   28      0.90      0.00
    3   11   28     -0.73      0.00
    5   11   28     -1.26      0.00
    7   11   28     -0.08      0.00
    9   11   28      0.86      0.00
   11   11   28      1.34      0.00
    0   12   28     -3.05      0.00
    2   12   28      0.75      0.00
    4   12   28      3.61      0.00
    6   12   28      2.43      0.00
    8   12   28      2.30      0.00
   10   12   28      1.23      0.00
    1   13   28     -0.37      0.00
    3   13   28     -0.94      0.00
    5   13   28      0.96      0.00
    7   13   28      0.72      0.00
    9   13   28     -1.32      0.00
    0   14   28      2.51      0.00
    2   14   28      0.24      0.00
    4   14   28     -2.06      0.00
    6   14   28     -1.26      0.00
    8   14   28     -1.31      0.00
    1   15   28      1.56      0.00
    3   15   28      1.36      0.00
    5   15   28     -0.20      0.00
    7   15   28     -1.14      0.00
    0   16   28     -0.63      0.00
    2   16   28     -1.21      0.00
    4   16   28      0.65      0.00
    6   16   28      0.96      0.00
    1   17   28     -1.74      0.00
    3   17   28     -0.91      0.00
    5   17   28     -0.34      0.00
    0   18   28      0.56      0.00
    2    1   29     -0.58      0.00
    4    1   29      0.31      0.00
    6    1   29      0.21      0.00
    8    1   29     -1.49      0.00
   10    1   29     -0.29      0.00
   12    1   29      0.95      0.00
    1    2   29     -0.15      0.00
    3    2   29     -1.40      0.00
    5    2   29     -0.24      0.00
    7    2   29     -0.08      0.00
    9    2   29      1.57      0.00
   11    2   29     -0.67      0.00
    2    3   29     -0.08      0.00
    4    3   29     -0.05      0.00
    6    3   29     -0.66      0.00
    8    3   29      1.50      0.00
   10    3   29      1.06      0.00
   12    3   29     -0.21      0.00
    1    4   29     -1.20      0.00
    3    4   29      0.12      0.00
    5    4   29      1.56      0.00
    7    4   29      0.78      0.00
    9    4   29     -3.41      0.00
   11    4   29     -0.11      0.00
   13    4   29      0.91      0.00
    2    5   29      1.30      0.00
    4    5   29     -1.02      0.00
    6    5   29     -0.13      0.00
    8    5   29      0.32      0.00
   10    5   29     -0.43      0.00
   12    5   29     -1.45      0.00
    1    6   29      0.32      0.00
    3    6   29      0.83      0.00
    5    6   29     -0.99      0.00
    7    6   29     -0.63      0.00
    9    6   29      2.79      0.00
   11    6   29      1.29      0.00
    2    7   29     -1.03      0.00
    4    7   29      1.05      0.00
    6    7   29      1.45      0.00
    8    7   29     -0.17      0.00
   10    7   29     -1.39      0.00
    1    8   29      1.20      0.00
    3    8   29     -0.81      0.00
    5    8   29     -0.61      0.00
    7    8   29     -0.21      0.00
    9    8   29     -0.74      0.00
    2    9   29     -0.25      0.00
    4    9   29      0.11      0.00
    6    9   29     -0.57      0.00
    8    9   29     -0.42      0.00
   10    9   29      0.85      0.00
    1   10   29     -0.03      0.00
    3   10   29      0.77      0.00
    5   10   29      0.51      0.00
    7   10   29      0.60      0.00
    9   10   29     -0.56      0.00
    2   11   29      0.81      0.00
    4   11   29     -1.22      0.00
    6   11   29     -0.80      0.00
    8   11   29      0.86      0.00
    1   12   29     -1.11      0.00
    3   12   29     -0.40      0.00
    5   12   29      0.24      0.00
    7   12   29     -0.18      0.00
    2   13   29      1.29      0.00
    4   13   29      0.89      0.00
    1   14   29     -0.37      0.00
    3   14   29     -0.40      0.00
    5   14   29      0.15      0.00
    2   15   29     -1.98      0.00
    4   15   29      0.23      0.00
    1   16   29      1.23      0.00
    3   16   29      0.28      0.00
    0    0   30     -1.50      0.00
    2    0   30      0.38      0.00
    4    0   30     -0.82      0.00
    6    0   30     -2.97      0.00
    8    0   30     -4.63      0.00
   10    0   30     -0.12      0.00
    1    1   30     -0.77      0.00
    3    1   30     -0.02      0.00
    5    1   30     -1.09      0.00
    7    1   30      0.62      0.00
    9    1   30     -0.18      0.00
   11    1   30     -1.42      0.00
    0    2   30      1.27      0.00
    2    2   30      0.80      0.00
    4    2   30      0.99      0.00
    6    2   30      1.87      0.00
    8    2   30      3.67      0.00
   10    2   30      1.33      0.00
    1    3   30     -1.14      0.00
    3    3   30      1.47      0.00
    5    3   30      1.76      0.00
    7    3   30     -1.65      0.00
    9    3   30     -1.01      0.00
   11    3   30      1.07      0.00
    0    4   30     -1.34      0.00
    2    4   30     -2.32      0.00
    4    4   30     -0.73      0.00
    6    4   30     -0.17      0.00
    8    4   30     -0.35      0.00
   10    4   30     -1.54      0.00
    1    5   30      0.03      0.00
    3    5   30     -0.98      0.00
    5    5   30     -1.85      0.00
    7    5   30     -0.15      0.00
    9    5   30      1.50      0.00
   11    5   30      0.63      0.00
    0    6   30      1.17      0.00
    2    6   30      1.47      0.00
    4    6   30     -0.46      0.00
    6    6   30     -0.36      0.00
    8    6   30     -1.84      0.00
   10    6   30     -0.16      0.00
    1    7   30      1.95      0.00
    3    7   30      1.76      0.00
    5    7   30      2.50      0.00
    7    7   30      2.73      0.00
    0    8   30     -1.61      0.00
    2    8   30      0.33      0.00
    4    8   30      1.64      0.00
    6    8   30     -0.36      0.00
    1    9   30     -2.31      0.00
    3    9   30     -4.01      0.00
    5    9   30     -3.08      0.00
    9    9   30     -2.48      0.00
    0   10   30      2.00      0.00
    2   10   30     -0.13      0.00
    4   10   30     -0.86      0.00
    6   10   30      1.09      0.00
    8   10   30      2.45      0.00
    1   11   30      1.74      0.00
    3   11   30      3.63      0.00
    5   11   30      2.16      0.00
    7   11   30      1.89      0.00
    0   12   30     -0.24      0.00
    2   12   30     -1.61      0.00
    4   12   30     -1.17      0.00
    6   12   30     -0.03      0.00
    1   13   30     -1.33      0.00
    3   13   30     -1.04      0.00
    0   14   30      0.38      0.00
    2   14   30      1.88      0.00
    2    1   31     -0.65      0.00
    4    1   31     -0.56      0.00
    6    1   31     -0.36      0.00
    8    1   31      0.97      0.00
    1    2   31      0.92      0.00
    3    2   31     -0.10      0.00
    5    2   31     -2.05      0.00
    7    2   31     -0.45      0.00
    9    2   31      0.80      0.00
    2    3   31      0.83      0.00
    4    3   31      0.60      0.00
    6    3   31      0.93      0.00
    8    3   31     -1.92      0.00
    1    4   31      0.62      0.00
    3    4   31      0.84      0.00
    5    4   31      0.48      0.00
    7    4   31     -0.37      0.00
    9    4   31     -0.01      0.00
    2    5   31      0.35      0.00
    4    5   31      1.12      0.00
    6    5   31      0.03      0.00
    1    6   31     -0.54      0.00
    3    6   31     -0.53      0.00
    5    6   31      0.34      0.00
    2    7   31     -0.63      0.00
    4    7   31     -2.16      0.00
    6    7   31     -1.40      0.00
    1    8   31     -0.21      0.00
    3    8   31      0.40      0.00
    5    8   31      0.27      0.00
    2    9   31      0.74      0.00
    4    9   31      0.42      0.00
    1   10   31     -0.41      0.00
    3   10   31     -0.75      0.00
    2   11   31     -1.31      0.00
    4   11   31      1.69      0.00
    1   12   31      1.42      0.00
    2   13   31     -0.05      0.00
    0    0   32     -2.03      0.00
    2    0   32      0.24      0.00
    4    0   32      0.62      0.00
    6    0   32     -1.33      0.00
    8    0   32      0.19      0.00
    1    1   32     -1.17      0.00
    3    1   32     -1.11      0.00
    5    1   32      1.47      0.00
    7    1   32      3.62      0.00
    0    2   32      0.14      0.00
    2    2   32     -0.77      0.00
    4    2   32     -0.04      0.00
    6    2   32      0.77      0.00
    8    2   32     -0.92      0.00
    1    3   32      0.88      0.00
    3    3   32     -0.67      0.00
    5    3   32     -1.18      0.00
    7    3   32     -1.30      0.00
    0    4   32      1.30      0.00
    2    4   32      1.20      0.00
    4    4   32     -0.64      0.00
    1    5   32      0.24      0.00
    3    5   32     -0.13      0.00
    5    5   32     -0.18      0.00
    0    6   32      1.12      0.00
    2    6   32      0.72      0.00
    4    6   32      1.47      0.00
    1    7   32     -0.46      0.00
    3    7   32      0.89      0.00
    0    8   32     -3.02      0.00
    2    8   32     -3.77      0.00
    1    9   32      0.80      0.00
    3    9   32     -0.28      0.00
    2   10   32      3.51      0.00
    2    1   33      0.78      0.00
    4    1   33     -0.89      0.00
    1    2   33      0.30      0.00
    3    2   33      1.09      0.00
    2    3   33     -0.79      0.00
    3    4   33     -1.27      0.00
    2    5   33      0.02      0.00
    1    6   33      0.62      0.00
    2    7   33     -0.17      0.00
    0    0    0      0.00      0.00
# SQUEEZE RESULTS (Version = 290617)
# Note: Data are Listed for all Voids in the P1 Unit Cell
# i.e. Centre of Gravity, Solvent Accessible Volume,
# Recovered number of Electrons in the Void and
# Details about the Squeezed Material
loop_
  _platon_squeeze_void_nr
  _platon_squeeze_void_average_x
  _platon_squeeze_void_average_y
  _platon_squeeze_void_average_z
  _platon_squeeze_void_volume
  _platon_squeeze_void_count_electrons
  _platon_squeeze_void_content
   1  0.000  0.250  0.131       289        57 ' '
   2  0.000  0.250  0.631       289        57 ' '
   3  0.000  0.750  0.369       289        57 ' '
   4  0.000  0.750  0.869       289        57 ' '
   5  0.500  0.250  0.869       289        57 ' '
   6  0.500  0.250  0.369       289        57 ' '
   7  0.500  0.750  0.131       289        57 ' '
   8  0.500  0.750  0.631       289        57 ' '
_platon_squeeze_void_probe_radius                  1.20
_platon_squeeze_details
)
TITL mors8
CELL   17.6350   22.3450   22.9440     90.00     90.00     90.00
SPGR Ibca
# Solvent Accessible Volume =      2311
# Electrons Found in S.A.V. =       458
# Note: Atoms in Void are Labelled as Cxxx and Qxxx for all Others
C101 1.000 0.252 0.211 !       5.72 eA-3
C102 0.500 0.751 0.109 !       3.75 eA-3
C103 0.481 0.734 0.172 !       2.69 eA-3
C104 0.443 0.789-0.002 !       2.30 eA-3
C105 0.021 0.228 0.025 !       2.14 eA-3
Q106 0.554 0.993 0.048 !       2.14 eA-3
C107 0.112 0.205 0.084 !       2.11 eA-3
C108 0.578 0.182 0.330 !       2.02 eA-3
C109 0.448 0.303 0.439 !       1.92 eA-3
C110 0.572 0.798 0.111 !       1.73 eA-3
C111 0.096 0.819 0.389 !       1.56 eA-3
C112 0.608 0.850 0.221 !       1.45 eA-3
Q113 0.167 0.494 0.049 !       1.19 eA-3
C114 0.098 0.852 0.237 !       1.02 eA-3
Q115 0.052 0.502 0.141 !       0.56 eA-3
Q116 0.669 0.992 0.320 !       0.52 eA-3
Q117 0.515 0.574 0.070 !       0.50 eA-3
)
;
_shelx_fab_checksum              84453
loop_
_space_group_symop_operation_xyz
'x, y, z'
'-x, -y+1/2, z'
'x, -y, -z+1/2'
'-x+1/2, y, -z'
'x+1/2, y+1/2, z+1/2'
'-x+1/2, -y+1, z+1/2'
'x+1/2, -y+1/2, -z+1'
'-x+1, y+1/2, -z+1/2'
'-x, -y, -z'
'x, y-1/2, -z'
'-x, y, z-1/2'
'x-1/2, -y, z'
'-x+1/2, -y+1/2, -z+1/2'
'x+1/2, y, -z+1/2'
'-x+1/2, y+1/2, z'
'x, -y+1/2, z+1/2'
loop_
_atom_site_label
_atom_site_type_symbol
_atom_site_fract_x
_atom_site_fract_y
_atom_site_fract_z
_atom_site_U_iso_or_equiv
_atom_site_adp_type
_atom_site_occupancy
_atom_site_site_symmetry_order
_atom_site_calc_flag
_atom_site_refinement_flags_posn
_atom_site_refinement_flags_adp
Zn1 Zn 0.05591(2) 0.00521(2) 0.04800(2) 0.03414(8) Uani 1 1 d . .
O5 O -0.29695(13) 0.22130(10) 0.17206(9) 0.0638(6) Uani 1 1 d . .
N2 N 0.39928(12) 0.02595(14) 0.19401(10) 0.0591(7) Uani 1 1 d . .
H2B H 0.404604 0.006968 0.163702 0.071 Uiso 1 1 calc R U
O3 O -0.02669(12) 0.05296(10) 0.08994(9) 0.0578(5) Uani 1 1 d . .
C3 C 0.06196(14) 0.16809(11) -0.13204(11) 0.0420(5) Uani 1 1 d . .
H3 H 0.017573 0.152224 -0.147534 0.050 Uiso 1 1 calc R U
C13 C -0.14388(16) 0.10402(11) 0.09531(11) 0.0438(5) Uani 1 1 d . .
C4 C 0.15687(15) 0.16988(11) -0.05701(11) 0.0436(5) Uani 1 1 d . .
H4 H 0.175648 0.155619 -0.021765 0.052 Uiso 1 1 calc R U
O4 O 0.10726(13) -0.04479(10) -0.01561(9) 0.0619(5) Uani 1 1 d . .
C1 C 0.05237(13) 0.09453(10) -0.04936(10) 0.0356(4) Uani 1 1 d . .
N1 N 0.14238(11) 0.00874(9) 0.10603(9) 0.0385(4) Uani 1 1 d . .
O2 O 0.07898(10) 0.07889(8) -0.00099(8) 0.0453(4) Uani 1 1 d . .
C7 C 0.16644(16) 0.23595(12) -0.13864(11) 0.0472(6) Uani 1 1 d . .
O1 O 0.00274(11) -0.07043(8) 0.07503(8) 0.0501(5) Uani 1 1 d . .
C19 C 0.26522(12) 0.00965(11) 0.18367(10) 0.0367(5) Uani 1 1 d . .
C2 C 0.09016(13) 0.14595(10) -0.07958(10) 0.0369(5) Uani 1 1 d . .
C20 C 0.33238(13) 0.00848(12) 0.22128(10) 0.0394(5) Uani 1 1 d . .
C5 C 0.09952(16) 0.21365(12) -0.16141(11) 0.0475(6) Uani 1 1 d . .
H5 H 0.079930 0.228971 -0.195961 0.057 Uiso 1 1 calc R U
C8 C -0.24612(17) 0.18264(12) 0.14475(11) 0.0479(6) Uani 1 1 d . .
C15 C 0.14838(13) -0.03200(10) 0.14881(10) 0.0360(4) Uani 1 1 d . .
H15 H 0.110859 -0.061034 0.152236 0.043 Uiso 1 1 calc R U
C14 C -0.08857(17) 0.06404(12) 0.06473(12) 0.0486(6) Uani 1 1 d . .
C17 C 0.20791(13) -0.03261(10) 0.18797(10) 0.0360(4) Uani 1 1 d . .
H17 H 0.209539 -0.061389 0.217223 0.043 Uiso 1 1 calc R U
C18 C 0.25915(17) 0.05061(15) 0.13872(13) 0.0594(8) Uani 1 1 d . .
H18 H 0.296331 0.079685 0.133801 0.071 Uiso 1 1 calc R U
C11 C -0.12518(15) 0.13528(12) 0.14532(12) 0.0466(6) Uani 1 1 d . .
H11 H -0.077794 0.129749 0.162263 0.056 Uiso 1 1 calc R U
C6 C 0.19557(16) 0.21447(13) -0.08618(12) 0.0500(6) Uani 1 1 d . .
H6 H 0.240393 0.229951 -0.071058 0.060 Uiso 1 1 calc R U
C12 C -0.21553(19) 0.11163(14) 0.07200(13) 0.0584(7) Uani 1 1 d . .
H12 H -0.229435 0.089727 0.039231 0.070 Uiso 1 1 calc R U
C9 C -0.17615(17) 0.17471(12) 0.17044(12) 0.0484(6) Uani 1 1 d . .
H9 H -0.163393 0.195525 0.204144 0.058 Uiso 1 1 calc R U
C10 C -0.26673(19) 0.15090(15) 0.09624(14) 0.0608(8) Uani 1 1 d . .
H10 H -0.314595 0.155800 0.079906 0.073 Uiso 1 1 calc R U
C16 C 0.19808(18) 0.04847(15) 0.10115(14) 0.0622(9) Uani 1 1 d . .
H16 H 0.195814 0.076183 0.070954 0.075 Uiso 1 1 calc R U
C21 C 0.46644(19) 0.0261(3) 0.22958(15) 0.0998(18) Uani 1 1 d . .
H21A H 0.468741 0.062974 0.251767 0.120 Uiso 1 1 calc R U
H21B H 0.510946 0.024196 0.204812 0.120 Uiso 1 1 calc R U
loop_
_atom_site_aniso_label
_atom_site_aniso_U_11
_atom_site_aniso_U_22
_atom_site_aniso_U_33
_atom_site_aniso_U_23
_atom_site_aniso_U_13
_atom_site_aniso_U_12
Zn1 0.03432(14) 0.03877(14) 0.02934(13) 0.00909(10) -0.00517(9) -0.00379(10)
O5 0.0798(15) 0.0660(13) 0.0457(10) 0.0195(10) 0.0030(10) 0.0361(11)
N2 0.0338(10) 0.105(2) 0.0386(11) -0.0191(13) 0.0063(9) -0.0150(12)
O3 0.0580(12) 0.0650(13) 0.0504(11) 0.0133(10) 0.0109(9) 0.0142(10)
C3 0.0409(12) 0.0432(12) 0.0418(12) 0.0114(10) -0.0017(10) -0.0073(10)
C13 0.0540(14) 0.0366(11) 0.0407(12) 0.0105(9) 0.0015(10) 0.0036(10)
C4 0.0456(13) 0.0425(12) 0.0426(12) 0.0122(10) -0.0041(10) -0.0094(10)
O4 0.0724(14) 0.0583(12) 0.0551(12) -0.0082(10) 0.0067(11) 0.0036(11)
C1 0.0374(11) 0.0327(10) 0.0367(11) 0.0061(8) 0.0006(9) -0.0021(8)
N1 0.0356(9) 0.0455(11) 0.0345(9) 0.0121(8) -0.0051(7) -0.0055(8)
O2 0.0511(10) 0.0426(9) 0.0421(9) 0.0164(7) -0.0077(8) -0.0107(8)
C7 0.0546(15) 0.0449(13) 0.0421(12) 0.0113(10) 0.0024(11) -0.0136(11)
O1 0.0533(10) 0.0477(10) 0.0493(10) 0.0182(8) -0.0122(8) -0.0192(8)
C19 0.0301(10) 0.0499(13) 0.0300(9) -0.0021(9) 0.0015(8) -0.0037(9)
C2 0.0396(11) 0.0338(10) 0.0375(11) 0.0082(8) 0.0009(9) -0.0033(9)
C20 0.0277(9) 0.0585(14) 0.0321(10) -0.0092(10) 0.0014(8) -0.0025(9)
C5 0.0517(14) 0.0499(14) 0.0409(12) 0.0143(11) -0.0036(11) -0.0075(11)
C8 0.0581(15) 0.0434(12) 0.0423(12) 0.0135(10) -0.0006(11) 0.0152(11)
C15 0.0359(11) 0.0369(11) 0.0352(10) 0.0041(8) -0.0020(9) -0.0034(8)
C14 0.0583(16) 0.0386(12) 0.0490(14) 0.0130(11) 0.0107(12) 0.0022(11)
C17 0.0348(10) 0.0366(11) 0.0366(11) 0.0047(8) -0.0044(8) -0.0011(8)
C18 0.0518(15) 0.0724(19) 0.0540(16) 0.0204(14) -0.0101(13) -0.0272(14)
C11 0.0460(13) 0.0460(13) 0.0479(13) 0.0070(11) -0.0028(11) 0.0006(11)
C6 0.0491(14) 0.0509(14) 0.0499(14) 0.0124(12) -0.0058(11) -0.0167(11)
C12 0.0707(19) 0.0571(16) 0.0475(15) 0.0005(13) -0.0166(14) 0.0142(14)
C9 0.0583(15) 0.0425(13) 0.0443(13) 0.0033(10) -0.0031(12) 0.0024(11)
C10 0.0610(18) 0.0628(18) 0.0588(17) 0.0086(14) -0.0180(14) 0.0184(14)
C16 0.0639(18) 0.0709(19) 0.0518(16) 0.0318(15) -0.0162(13) -0.0278(15)
C21 0.0385(15) 0.210(6) 0.0514(18) -0.019(3) 0.0032(13) -0.029(2)
loop_
_atom_type_symbol
_atom_type_description
_atom_type_scat_dispersion_real
_atom_type_scat_dispersion_imag
_atom_type_scat_source
C C 0.0033 0.0016 'International Tables Vol C Tables 4.2.6.8 and 6.1.1.4'
H H 0.0000 0.0000 'International Tables Vol C Tables 4.2.6.8 and 6.1.1.4'
N N 0.0061 0.0033 'International Tables Vol C Tables 4.2.6.8 and 6.1.1.4'
O O 0.0106 0.0060 'International Tables Vol C Tables 4.2.6.8 and 6.1.1.4'
Zn Zn 0.2839 1.4301 'International Tables Vol C Tables 4.2.6.8 and 6.1.1.4'
loop_
_geom_angle_atom_site_label_1
_geom_angle_atom_site_label_2
_geom_angle_atom_site_label_3
_geom_angle
_geom_angle_site_symmetry_1
_geom_angle_site_symmetry_3
N1 Zn1 O1 100.33(7) . .
N1 Zn1 O2 100.43(7) . .
O1 Zn1 O2 159.22(7) . .
N1 Zn1 O3 101.92(9) . .
O1 Zn1 O3 87.80(9) . .
O2 Zn1 O3 88.86(8) . .
N1 Zn1 O4 99.01(9) . .
O1 Zn1 O4 88.15(9) . .
O2 Zn1 O4 87.67(9) . .
O3 Zn1 O4 159.06(9) . .
N1 Zn1 Zn1 172.61(6) . 9
O1 Zn1 Zn1 81.63(5) . 9
O2 Zn1 Zn1 77.65(5) . 9
O3 Zn1 Zn1 85.23(6) . 9
O4 Zn1 Zn1 73.86(7) . 9
C7 O5 C8 118.6(2) 7_454 .
C20 N2 C21 116.3(2) . .
C20 N2 H2B 109.5 . .
C21 N2 H2B 112.8 . .
C14 O3 Zn1 120.22(19) . .
C5 C3 C2 120.6(2) . .
C5 C3 H3 119.7 . .
C2 C3 H3 119.7 . .
C12 C13 C11 118.5(3) . .
C12 C13 C14 119.2(3) . .
C11 C13 C14 122.3(3) . .
C6 C4 C2 121.0(2) . .
C6 C4 H4 119.5 . .
C2 C4 H4 119.5 . .
C14 O4 Zn1 135.5(2) 9 .
O2 C1 O1 125.7(2) . 9
O2 C1 C2 117.2(2) . .
O1 C1 C2 117.1(2) 9 .
C16 N1 C15 117.1(2) . .
C16 N1 Zn1 121.81(17) . .
C15 N1 Zn1 120.88(16) . .
C1 O2 Zn1 129.73(16) . .
C5 C7 O5 115.9(2) . 7_554
C5 C7 C6 121.1(2) . .
O5 C7 C6 122.9(2) 7_554 .
C1 O1 Zn1 124.77(15) 9 .
C18 C19 C17 116.6(2) . .
C18 C19 C20 120.9(2) . .
C17 C19 C20 122.3(2) . .
C4 C2 C3 119.1(2) . .
C4 C2 C1 119.9(2) . .
C3 C2 C1 120.9(2) . .
C20 C20 N2 120.64(14) 3 .
C20 C20 C19 124.81(14) 3 .
N2 C20 C19 114.5(2) . .
C7 C5 C3 119.2(2) . .
C7 C5 H5 120.4 . .
C3 C5 H5 120.4 . .
C10 C8 C9 121.2(3) . .
C10 C8 O5 121.1(3) . .
C9 C8 O5 117.6(3) . .
N1 C15 C17 122.8(2) . .
N1 C15 H15 118.6 . .
C17 C15 H15 118.6 . .
O4 C14 O3 125.1(3) 9 .
O4 C14 C13 117.1(3) 9 .
O3 C14 C13 117.8(3) . .
C15 C17 C19 120.0(2) . .
C15 C17 H17 120.0 . .
C19 C17 H17 120.0 . .
C16 C18 C19 120.2(2) . .
C16 C18 H18 119.9 . .
C19 C18 H18 119.9 . .
C13 C11 C9 120.8(3) . .
C13 C11 H11 119.6 . .
C9 C11 H11 119.6 . .
C4 C6 C7 119.0(2) . .
C4 C6 H6 120.5 . .
C7 C6 H6 120.5 . .
C10 C12 C13 121.4(3) . .
C10 C12 H12 119.3 . .
C13 C12 H12 119.3 . .
C8 C9 C11 119.0(3) . .
C8 C9 H9 120.5 . .
C11 C9 H9 120.5 . .
C8 C10 C12 119.0(3) . .
C8 C10 H10 120.5 . .
C12 C10 H10 120.5 . .
N1 C16 C18 123.2(2) . .
N1 C16 H16 118.4 . .
C18 C16 H16 118.4 . .
N2 C21 C21 110.7(3) . 3
N2 C21 H21A 109.5 . .
C21 C21 H21A 109.5 3 .
N2 C21 H21B 109.5 . .
C21 C21 H21B 109.5 3 .
H21A C21 H21B 108.1 . .
loop_
_geom_bond_atom_site_label_1
_geom_bond_atom_site_label_2
_geom_bond_distance
_geom_bond_site_symmetry_2
Zn1 N1 2.0259(19) .
Zn1 O1 2.0300(17) .
Zn1 O2 2.0346(16) .
Zn1 O3 2.046(2) .
Zn1 O4 2.049(2) .
Zn1 Zn1 2.9657(5) 9
O5 C7 1.385(3) 7_454
O5 C8 1.394(3) .
N2 C20 1.391(3) .
N2 C21 1.438(4) .
N2 H2B 0.8200 .
O3 C14 1.260(4) .
C3 C5 1.389(3) .
C3 C2 1.393(3) .
C3 H3 0.9300 .
C13 C12 1.382(4) .
C13 C11 1.383(4) .
C13 C14 1.497(4) .
C4 C6 1.381(3) .
C4 C2 1.392(3) .
C4 H4 0.9300 .
O4 C14 1.250(4) 9
C1 O2 1.255(3) .
C1 O1 1.257(3) 9
C1 C2 1.498(3) .
N1 C16 1.329(3) .
N1 C15 1.343(3) .
C7 C5 1.383(4) .
C7 C6 1.394(4) .
C19 C18 1.383(4) .
C19 C17 1.387(3) .
C19 C20 1.466(3) .
C20 C20 1.371(5) 3
C5 H5 0.9300 .
C8 C10 1.369(4) .
C8 C9 1.379(4) .
C15 C17 1.382(3) .
C15 H15 0.9300 .
C17 H17 0.9300 .
C18 C16 1.380(4) .
C18 H18 0.9300 .
C11 C9 1.384(4) .
C11 H11 0.9300 .
C6 H6 0.9300 .
C12 C10 1.377(4) .
C12 H12 0.9300 .
C9 H9 0.9300 .
C10 H10 0.9300 .
C16 H16 0.9300 .
C21 C21 1.495(10) 3
C21 H21A 0.9700 .
C21 H21B 0.9700 .
