#------------------------------------------------------------------------------
#$Date: 2019-11-02 04:53:22 +0200 (Sat, 02 Nov 2019) $
#$Revision: 220633 $
#$URL: file:///home/coder/svn-repositories/cod/cif/4/12/73/4127349.cif $
#------------------------------------------------------------------------------
#
# This file is available in the Crystallography Open Database (COD),
# http://www.crystallography.net/
#
# All data on this site have been placed in the public domain by the
# contributors.
#
data_4127349
loop_
_publ_author_name
'Zhang, Xiang'
'Dong, Xia'
'Lu, Weigang'
'Luo, Dong'
'Zhu, Xiao-Wei'
'Li, Xue'
'Zhou, Xiao-Ping'
'Li, Dan'
_publ_section_title
;
 Fine-Tuning Apertures of Metal-Organic Cages: Encapsulation of Carbon
 Dioxide in Solution and Solid State.
;
_journal_issue                   29
_journal_name_full               'Journal of the American Chemical Society'
_journal_page_first              11621
_journal_page_last               11627
_journal_paper_doi               10.1021/jacs.9b04520
_journal_volume                  141
_journal_year                    2019
_chemical_formula_sum            'C144 H192 N76 Ni14 O12'
_chemical_formula_weight         4001.66
_space_group_crystal_system      tetragonal
_space_group_IT_number           89
_space_group_name_Hall           'P 4 2'
_space_group_name_H-M_alt        'P 4 2 2'
_symmetry_space_group_name_Hall  'P 4 2'
_symmetry_space_group_name_H-M   'P 4 2 2'
_atom_sites_solution_hydrogens   geom
_audit_creation_method           SHELXL-2017/1
_cell_angle_alpha                90
_cell_angle_beta                 90
_cell_angle_gamma                90
_cell_formula_units_Z            2
_cell_length_a                   25.8521(6)
_cell_length_b                   25.8521(6)
_cell_length_c                   16.8589(6)
_cell_measurement_reflns_used    2909
_cell_measurement_temperature    293(2)
_cell_measurement_theta_max      61.2510
_cell_measurement_theta_min      3.5390
_cell_volume                     11267.3(5)
_computing_cell_refinement
;
CrysAlisPro, Agilent Technologies,
Version 1.171.37.35 (release 13-08-2014 CrysAlis171 .NET)
(compiled Aug 13 2014,18:06:01)
;
_computing_data_collection
;
CrysAlisPro, Agilent Technologies,
Version 1.171.37.35 (release 13-08-2014 CrysAlis171 .NET)
(compiled Aug 13 2014,18:06:01)
;
_computing_data_reduction
;
CrysAlisPro, Agilent Technologies,
Version 1.171.37.35 (release 13-08-2014 CrysAlis171 .NET)
(compiled Aug 13 2014,18:06:01)
;
_computing_structure_refinement  'SHELXL-2017/1 (Sheldrick, 2017)'
_diffrn_ambient_temperature      293(2)
_diffrn_detector_area_resol_mean 10.4098
_diffrn_measured_fraction_theta_full 0.996
_diffrn_measured_fraction_theta_max 0.996
_diffrn_measurement_device_type  'Xcalibur, Atlas, Gemini'
_diffrn_radiation_type           CuK\a
_diffrn_radiation_wavelength     1.54178
_diffrn_reflns_av_R_equivalents  0.0494
_diffrn_reflns_av_unetI/netI     0.0686
_diffrn_reflns_Laue_measured_fraction_full 0.996
_diffrn_reflns_Laue_measured_fraction_max 0.996
_diffrn_reflns_limit_h_max       29
_diffrn_reflns_limit_h_min       -21
_diffrn_reflns_limit_k_max       30
_diffrn_reflns_limit_k_min       -21
_diffrn_reflns_limit_l_max       19
_diffrn_reflns_limit_l_min       -9
_diffrn_reflns_number            19550
_diffrn_reflns_point_group_measured_fraction_full 0.998
_diffrn_reflns_point_group_measured_fraction_max 0.998
_diffrn_reflns_theta_full        65.083
_diffrn_reflns_theta_max         65.083
_diffrn_reflns_theta_min         3.419
_diffrn_source                   'Enhance (Cu) X-ray Source'
_exptl_absorpt_coefficient_mu    1.713
_exptl_absorpt_correction_T_max  1.00000
_exptl_absorpt_correction_T_min  0.93854
_exptl_absorpt_correction_type   multi-scan
_exptl_absorpt_process_details
;
CrysAlisPro, Agilent Technologies,
Version 1.171.37.35 (release 13-08-2014 CrysAlis171 .NET)
(compiled Aug 13 2014,18:06:01)
;
_exptl_crystal_colour            yellow
_exptl_crystal_density_diffrn    1.180
_exptl_crystal_description       block
_exptl_crystal_F_000             4152
_exptl_crystal_size_max          0.28
_exptl_crystal_size_mid          0.23
_exptl_crystal_size_min          0.20
_refine_diff_density_max         0.828
_refine_diff_density_min         -0.288
_refine_diff_density_rms         0.044
_refine_ls_abs_structure_details
;
 Refined as an inversion twin.
;
_refine_ls_abs_structure_Flack   0.43(6)
_refine_ls_extinction_method     none
_refine_ls_goodness_of_fit_ref   0.937
_refine_ls_hydrogen_treatment    constr
_refine_ls_matrix_type           full
_refine_ls_number_parameters     556
_refine_ls_number_reflns         9617
_refine_ls_number_restraints     4
_refine_ls_restrained_S_all      0.945
_refine_ls_R_factor_all          0.0863
_refine_ls_R_factor_gt           0.0516
_refine_ls_shift/su_max          0.000
_refine_ls_shift/su_mean         0.000
_refine_ls_structure_factor_coef Fsqd
_refine_ls_weighting_details
'w=1/[\s^2^(Fo^2^)+(0.0497P)^2^] where P=(Fo^2^+2Fc^2^)/3'
_refine_ls_weighting_scheme      calc
_refine_ls_wR_factor_gt          0.1147
_refine_ls_wR_factor_ref         0.1336
_reflns_Friedel_coverage         0.786
_reflns_Friedel_fraction_full    1.000
_reflns_Friedel_fraction_max     1.000
_reflns_number_gt                6000
_reflns_number_total             9617
_reflns_threshold_expression     'I > 2\s(I)'
_cod_data_source_file            ja9b04520_si_002.cif
_cod_data_source_block           Cage2
_cod_original_cell_volume        11267.3(7)
_cod_database_code               4127349
_shelx_shelxl_version_number     2017/1
_shelx_space_group_comment
;
The symmetry employed for this shelxl refinement is uniquely defined
by the following loop, which should always be used as a source of
symmetry information in preference to the above space-group names.
They are only intended as comments.
;
_shelx_res_file
;
TITL b in P422
    b_sq.res
    created by SHELXL-2017/1 at 16:19:44 on 23-Mar-2019
CELL 1.54178  25.8521  25.8521  16.8589  90.000  90.000  90.000
ZERR  2.00   0.0006   0.0006   0.0006   0.000   0.000   0.000
LATT -1
SYMM -X, -Y, Z
SYMM -Y, X, Z
SYMM Y, -X, Z
SYMM -X, Y, -Z
SYMM X, -Y, -Z
SYMM Y, X, -Z
SYMM -Y, -X, -Z
SFAC C  H  N  O  Ni
UNIT 288  384  152  24  28
L.S. 100
ACTA
FMAP 2
PLAN 1
conf
twin
abin
eadp O3 O4
eadp O1 O2
DFIX  1.25 0.01 N19 O1 N19 O2
DFIX 1.25 0.01 N20 O3 N20 O4
WGHT    0.049700
BASF   0.43325
FVAR       0.10119
O1    4    0.337381    0.337381    0.000000    10.50000    0.22871    0.22871 =
         0.42806   -0.15602    0.15602   -0.04830
C38   1    0.304945    0.647501    0.334038    11.00000    0.06681    0.06842 =
         0.07379    0.00059   -0.00185    0.00312
AFIX  43
H38   2    0.308218    0.682131    0.319974    11.00000   -1.20000
AFIX   0
N18   3    0.313127    0.627243    0.407928    11.00000    0.06524    0.06822 =
         0.05441    0.00538   -0.00183    0.00237
N19   3    0.304290    0.304290    0.000000    10.50000    0.08829    0.08829 =
         0.14486   -0.02190    0.02190   -0.00507
MOLE 1
NI1   5    0.341014    0.341014    0.500000    10.50000    0.06386    0.06386 =
         0.05332    0.00160   -0.00160    0.00124
NI4   5    0.272763    0.499606    0.258777    11.00000    0.07021    0.06478 =
         0.06402    0.00043   -0.01312    0.00550
NI6   5    0.500000    0.500000    0.168909    10.25000    0.07472    0.07472 =
         0.07934    0.00000    0.00000    0.00000
N3    3    0.292087    0.562810    0.327328    11.00000    0.06635    0.06354 =
         0.06318   -0.00280   -0.00686    0.00545
N6    3    0.261920    0.439478    0.173358    11.00000    0.07806    0.08620 =
         0.09655   -0.01837   -0.02289   -0.00921
C1    1    0.318274    0.415959    0.378318    11.00000    0.06137    0.07165 =
         0.07313   -0.00967   -0.00072    0.00584
AFIX  43
H1A   2    0.352544    0.415516    0.361552    11.00000   -1.20000
AFIX   0
N4    3    0.262264    0.561202    0.175166    11.00000    0.09666    0.06790 =
         0.05789    0.00330   -0.02048    0.01387
N2    3    0.195693    0.495655    0.309383    11.00000    0.07443    0.09180 =
         0.07927    0.00232   -0.01580    0.02027
N1    3    0.282818    0.446590    0.347859    11.00000    0.06274    0.06771 =
         0.07608    0.00783   -0.00800    0.00729
N5    3    0.346289    0.491248    0.216027    11.00000    0.07309    0.07172 =
         0.06628   -0.00544   -0.01584    0.00418
N16   3    0.299407    0.384777    0.437343    11.00000    0.07098    0.07414 =
         0.04613    0.00569   -0.00405    0.00461
C2    1    0.291282    0.608469    0.285022    11.00000    0.06832    0.06876 =
         0.05615    0.00897   -0.00560    0.01495
C3    1    0.192836    0.464067    0.366987    11.00000    0.06369    0.10121 =
         0.08267    0.01074   -0.00448    0.01272
AFIX  43
H3    2    0.162017    0.459608    0.394608    11.00000   -1.20000
AFIX   0
C4    1    0.393637    0.509753    0.221313    11.00000    0.08522    0.05946 =
         0.05903   -0.00594   -0.00258   -0.00659
AFIX  43
H4    2    0.402496    0.536218    0.256121    11.00000   -1.20000
AFIX   0
C5    1    0.350288    0.453252    0.157993    11.00000    0.07254    0.07477 =
         0.06617   -0.01889   -0.00991    0.00639
C6    1    0.277729    0.604103    0.200340    11.00000    0.08489    0.07457 =
         0.06338    0.00767   -0.01803    0.01438
AFIX  43
H6    2    0.280577    0.632398    0.166555    11.00000   -1.20000
AFIX   0
C7    1    0.400484    0.451003    0.130716    11.00000    0.08344    0.09014 =
         0.07877   -0.03026   -0.01037    0.01787
AFIX  43
H7    2    0.412943    0.428965    0.091524    11.00000   -1.20000
AFIX   0
C8    1    0.305184    0.575627    0.397868    11.00000    0.06088    0.06097 =
         0.06345   -0.00015    0.00034    0.00269
AFIX  43
H8    2    0.308944    0.551733    0.438700    11.00000   -1.20000
AFIX   0
C9    1    0.214761    0.410638    0.154406    11.00000    0.11260    0.10403 =
         0.12640   -0.03037   -0.02034   -0.01058
AFIX  23
H9A   2    0.184935    0.433055    0.160484    11.00000   -1.20000
H9B   2    0.216056    0.399164    0.099662    11.00000   -1.20000
AFIX   0
C10   1    0.248002    0.397548    0.442616    11.00000    0.07072    0.08604 =
         0.06828   -0.00352    0.00074    0.00416
AFIX  43
H10   2    0.224011    0.382944    0.477084    11.00000   -1.20000
AFIX   0
N7    3    0.428775    0.487024    0.171630    11.00000    0.07745    0.07142 =
         0.07986   -0.00414    0.00119   -0.00300
C11   1    0.238343    0.435424    0.388396    11.00000    0.05691    0.08496 =
         0.07054   -0.00082   -0.01328    0.00582
C12   1    0.150176    0.528342    0.291781    11.00000    0.07411    0.13625 =
         0.12996    0.02144   -0.01562    0.02706
AFIX  23
H12A  2    0.119088    0.510702    0.309276    11.00000   -1.20000
H12B  2    0.147627    0.533412    0.234907    11.00000   -1.20000
AFIX   0
C13   1    0.252796    0.558400    0.087593    11.00000    0.17005    0.09679 =
         0.06150   -0.00027   -0.04303    0.00440
AFIX  23
H13A  2    0.270498    0.528794    0.064957    11.00000   -1.20000
H13B  2    0.265315    0.589484    0.061709    11.00000   -1.20000
AFIX   0
C14   1    0.209738    0.368478    0.203602    11.00000    0.16151    0.12676 =
         0.16812    0.01178   -0.00323   -0.05169
AFIX 137
H14A  2    0.234285    0.342420    0.188470    11.00000   -1.50000
H14B  2    0.175337    0.354788    0.199241    11.00000   -1.50000
H14C  2    0.216087    0.378807    0.257425    11.00000   -1.50000
AFIX   0
C16   1    0.303790    0.426045    0.139071    11.00000    0.08207    0.08441 =
         0.09913   -0.02650   -0.00505   -0.00683
AFIX  43
H16   2    0.304052    0.399104    0.102518    11.00000   -1.20000
AFIX   0
MOLE 2
NI2   5    0.217685    1.000000    0.000000    10.50000    0.07689    0.05649 =
         0.04618   -0.00322    0.00000    0.00000
NI3   5    0.157783    0.840705    0.248049    11.00000    0.06587    0.06379 =
         0.05055    0.00428   -0.01074    0.00615
NI5   5    0.000000    1.000000    0.351826    10.25000    0.06813    0.06813 =
         0.05641    0.00000    0.00000    0.00000
N15   3    0.210717    0.788318    0.192144    11.00000    0.07850    0.05993 =
         0.07073    0.00664   -0.01468    0.01668
N9    3    0.122242    0.785246    0.327135    11.00000    0.07532    0.08291 =
         0.05534    0.01744   -0.01492   -0.00972
N12   3    0.211048    0.873850    0.332430    11.00000    0.06760    0.08670 =
         0.06483    0.00494   -0.00986    0.00797
N8    3    0.099417    0.812992    0.179759    11.00000    0.06541    0.07071 =
         0.04532   -0.00036   -0.00702    0.00336
C17   1    0.080573    0.815783    0.106424    11.00000    0.06433    0.06245 =
         0.04833    0.00508    0.00161   -0.00415
AFIX  43
H17   2    0.093837    0.837915    0.067985    11.00000   -1.20000
AFIX   0
N13   3    0.187160    0.886406    0.157543    11.00000    0.06003    0.06154 =
         0.04947    0.00296   -0.00332    0.00833
N10   3    0.113005    0.897632    0.298320    11.00000    0.05918    0.07030 =
         0.05356   -0.00146   -0.00773    0.00326
C18   1    0.191979    0.910781    0.370478    11.00000    0.08504    0.08769 =
         0.07185    0.00136   -0.01716   -0.00477
AFIX  43
H18   2    0.211899    0.928998    0.406943    11.00000   -1.20000
AFIX   0
C19   1    0.183852    0.932065    0.127023    11.00000    0.07357    0.06085 =
         0.04562   -0.00246    0.00135    0.00881
AFIX  43
H19   2    0.161930    0.957356    0.147243    11.00000   -1.20000
AFIX   0
N14   3    0.214934    0.940469    0.062835    11.00000    0.08187    0.05803 =
         0.05220    0.00028    0.00185    0.01476
N17   3    0.216217    0.959265   -0.093036    11.00000    0.07970    0.06963 =
         0.05026   -0.00278    0.00344   -0.00138
C21   1    0.069097    0.776463    0.216939    11.00000    0.07249    0.07480 =
         0.04908    0.01175    0.00017    0.00244
C22   1    0.222939    0.860837    0.113301    11.00000    0.05803    0.06178 =
         0.06358   -0.00017   -0.00335    0.01037
C23   1    0.138311    0.924791    0.356887    11.00000    0.06886    0.06987 =
         0.06213   -0.00162   -0.01339    0.00163
C24   1    0.105401    0.962293    0.385437    11.00000    0.08556    0.07795 =
         0.05901   -0.01059   -0.02333   -0.00055
AFIX  43
H24   2    0.113363    0.986978    0.423661    11.00000   -1.20000
AFIX   0
N11   3    0.058941    0.956806    0.347626    11.00000    0.07780    0.06665 =
         0.06052   -0.00850   -0.00960    0.00066
C25   1    0.233477    0.807702    0.131223    11.00000    0.07832    0.07042 =
         0.05962   -0.00118   -0.01363    0.01002
AFIX  43
H25   2    0.255809    0.788092    0.100140    11.00000   -1.20000
AFIX   0
C26   1    0.218229    0.731800    0.205781    11.00000    0.10489    0.06581 =
         0.10673    0.02013   -0.00178    0.02895
AFIX  23
H26A  2    0.252486    0.721853    0.187938    11.00000   -1.20000
H26B  2    0.215953    0.724611    0.262144    11.00000   -1.20000
AFIX   0
C27   1    0.239627    0.893738    0.054567    11.00000    0.08411    0.07321 =
         0.05488   -0.00392    0.00547    0.01034
AFIX  43
H27   2    0.263737    0.885658    0.015547    11.00000   -1.20000
AFIX   0
C28   1    0.081447    0.765049    0.298514    11.00000    0.08891    0.07683 =
         0.06804    0.01948   -0.00787   -0.00957
AFIX  43
H28   2    0.060381    0.743732    0.329026    11.00000   -1.20000
AFIX   0
C29   1    0.066373    0.918176    0.296397    11.00000    0.07487    0.06710 =
         0.05248    0.00138   -0.01091   -0.00821
AFIX  43
H29   2    0.040681    0.906663    0.262056    11.00000   -1.20000
AFIX   0
C30   1    0.266870    0.862508    0.342868    11.00000    0.08947    0.11548 =
         0.10828   -0.00828   -0.03395    0.02583
AFIX  23
H30A  2    0.273979    0.827558    0.324998    11.00000   -1.20000
H30B  2    0.275642    0.864593    0.398718    11.00000   -1.20000
AFIX   0
C32   1    0.133999    0.774503    0.412113    11.00000    0.13595    0.10198 =
         0.06370    0.01409   -0.01688   -0.01461
AFIX  23
H32A  2    0.103662    0.760159    0.437853    11.00000   -1.20000
H32B  2    0.142979    0.806495    0.438836    11.00000   -1.20000
AFIX   0
C33   1    0.179306    0.700962    0.163417    11.00000    0.10368    0.06071 =
         0.22473   -0.01121   -0.00990    0.00103
AFIX 137
H33A  2    0.146881    0.719062    0.163446    11.00000   -1.50000
H33B  2    0.175189    0.668174    0.189391    11.00000   -1.50000
H33C  2    0.190412    0.695500    0.109730    11.00000   -1.50000
AFIX   0
C36   1    0.194162    0.553142    0.076558    11.00000    0.23310    0.17506 =
         0.12804   -0.03158   -0.09349   -0.01235
AFIX 137
H36A  2    0.182901    0.520475    0.097418    11.00000   -1.50000
H36B  2    0.185913    0.554998    0.021110    11.00000   -1.50000
H36C  2    0.176958    0.580659    0.104235    11.00000   -1.50000
AFIX   0
C35   1    0.153513    0.579456    0.331495    11.00000    0.11404    0.11193 =
         0.33813    0.00997    0.00481    0.04824
AFIX 137
H35A  2    0.149007    0.575105    0.387623    11.00000   -1.50000
H35B  2    0.126916    0.601770    0.311286    11.00000   -1.50000
H35C  2    0.186773    0.594564    0.321271    11.00000   -1.50000
AFIX   0
C34   1    0.178354    0.736810    0.418381    11.00000    0.23139    0.23795 =
         0.11596    0.06956   -0.06004    0.06357
AFIX 137
H34A  2    0.168598    0.704491    0.394663    11.00000   -1.50000
H34B  2    0.186732    0.731386    0.473229    11.00000   -1.50000
H34C  2    0.207959    0.750566    0.391241    11.00000   -1.50000
AFIX   0
C37   1    0.241364    0.966453   -0.163712    11.00000    0.08543    0.06399 =
         0.05120   -0.00768    0.00660   -0.00312
AFIX  43
H37   2    0.266425    0.991417   -0.173751    11.00000   -1.20000
AFIX   0
N20   3    0.288470    1.000000    0.500000    10.50000    0.25638    0.14694 =
         0.16656    0.04556    0.00000    0.00000
O2    4    0.267773    0.312880    0.034631    11.00000    0.22871    0.22871 =
         0.42806   -0.15602    0.15602   -0.04830
C39   1    0.299409    0.899428    0.297528    11.00000    0.11294    0.22992 =
         0.20833    0.00314    0.01558   -0.01385
AFIX 137
H39A  2    0.293510    0.894754    0.241767    11.00000   -1.50000
H39B  2    0.335218    0.893225    0.309226    11.00000   -1.50000
H39C  2    0.290546    0.934184    0.312266    11.00000   -1.50000
AFIX   0
O4    4    0.311560    0.975042    0.548778    11.00000    0.32338    0.34716 =
         0.29785    0.17461   -0.08272   -0.06665
O3    4    0.240858    1.000000    0.500000    10.50000    0.32338    0.34716 =
         0.29785    0.17461   -0.08272   -0.06665
HKLF 4




REM  b in P422
REM R1 =  0.0516 for    6000 Fo > 4sig(Fo)  and  0.0863 for all    9617 data
REM    556 parameters refined using      4 restraints

END

WGHT      0.0497      0.0000

REM Highest difference peak  0.828,  deepest hole -0.288,  1-sigma level  0.044
Q1    1   0.3060  0.3071  0.0699  11.00000  0.05    0.83
;
_shelx_res_checksum              92536
_shelx_hkl_file
;
   0   0   2 3515.07   15.87
   0   0   3    1.10    0.69
   0   0   4  228.86    5.84
   0   0   5   25.49    2.32
   0   0   6  440.93   10.03
   0   0   7   -0.01    1.18
   0   0  13    4.02    1.08
   0   0  14   -0.66    0.92
   0   0  15   -0.68    1.08
   0   0  16   53.90    3.30
   0   0  17    4.57    1.38
   0   0  18    7.13    1.41
   0   0  19    1.08    0.90
   0   1   2   29.69    1.60
   0  -1   2   30.78    1.45
  -1   0   2   31.63    1.66
  -1   0   3 1185.91   11.78
   1   0   3 1201.71   10.89
   0  -1   3 1220.60   10.98
   0   1   3 1216.65   11.94
   1   0   4   44.85    2.58
   0  -1   4   46.58    2.68
  -1   0   4   43.17    2.71
   0   1   4   43.19    2.72
   0   1   5  130.15    5.08
  -1   0   5  126.51    5.03
   1   0   5  133.32    4.87
   0  -1   5  130.27    4.84
   0   1   6    0.90    1.16
   0  -1   6    0.91    1.09
  -1   0   6    1.00    1.17
   0  -1   7    9.15    1.73
  -1   0   7    9.06    1.95
   0  -1   8   25.22    2.92
  -1   0   8   22.32    3.01
   0   1  13    4.28    0.99
   1   0  13    6.43    1.35
  -1   0  13    4.12    1.06
   0  -1  13    3.89    0.90
   0  -1  14   -1.26    1.22
   1   0  14   -0.13    1.05
  -1   0  14   -1.12    1.11
   0   1  14    0.16    0.89
   1   0  15   -0.41    0.94
  -1   0  15   -0.53    0.93
   0  -1  15   -0.36    1.02
   0   1  15   -1.43    1.07
   0   1  16    2.94    1.22
   0  -1  16    1.38    0.93
   1   0  16    1.31    0.98
  -1   0  16    0.70    1.02
  -1   0  17   32.27    2.51
   0  -1  17   29.72    2.47
   0   1  17   33.31    2.58
   1   0  17   31.33    2.54
   1   0  18    3.31    1.21
   0  -1  18    4.39    1.22
   0   1  18    3.01    1.15
  -1   0  18    4.40    1.20
  -1   0  19    1.09    0.86
   1   0  19    1.31    0.91
   0   1  19    0.03    0.79
   0  -1  19    1.94    0.90
  -1  -1   1   50.60    1.60
  -1   1   1   45.51    1.59
   1  -1   2  488.00    5.05
  -1  -1   2  468.12    6.14
  -1   1   2  476.77    6.57
  -1   1   3   10.52    1.36
   1  -1   3    9.76    1.07
  -1  -1   3   10.48    1.30
   1  -1   4  174.37    4.75
  -1   1   4  182.90    5.55
  -1  -1   4  173.43    5.13
   1  -1   5   72.00    3.50
  -1   1   5   71.56    3.92
  -1  -1   5   70.35    3.74
  -1   1   6   59.97    4.00
   1  -1   6   62.79    3.68
  -1  -1   6   65.19    3.93
  -1  -1   7    5.82    1.58
  -1   1   7    6.38    1.72
  -1  -1   8   54.72    4.35
  -1  -1   9    3.10    1.65
   1  -1  13    1.78    0.97
  -1  -1  13    1.41    0.88
   1   1  13    0.13    0.78
  -1   1  13    0.61    0.95
  -1  -1  14   -2.62    1.25
   1   1  14   -0.40    1.12
  -1   1  14   -0.04    0.96
   1  -1  14   -2.23    1.31
  -1  -1  15    1.14    0.91
   1   1  15    1.94    0.97
  -1   1  15    2.48    1.05
   1  -1  15    2.26    0.96
   1   1  16   -0.38    1.10
  -1  -1  16    0.99    0.96
  -1   1  16    0.34    0.92
   1  -1  16    0.06    0.92
  -1   1  17    5.20    1.36
   1   1  17    7.03    1.45
   1  -1  17    5.42    1.34
  -1  -1  17    5.47    1.36
   1  -1  18    0.54    0.87
  -1  -1  18    1.93    1.03
  -1   1  18    1.74    1.08
   1   1  18    2.49    1.03
   1  -1  19    1.06    0.93
   1   1  19   -0.32    0.77
  -1   1  19   -0.44    0.83
  -1  -1  19    1.47    0.84
  -2   1   0   48.56    1.29
  -2   1   1  257.34    4.15
  -1  -2   1  258.42    3.97
  -2   1   2   60.38    2.52
  -1  -2   2   65.06    2.31
  -1  -2   3  872.95    9.93
  -2   1   3  839.29   10.75
  -2   1   4   40.46    2.79
  -1  -2   4   46.27    2.73
  -1  -2   5   73.22    3.71
  -2   1   5   66.74    3.93
  -1  -2   6   11.21    1.91
  -2   1   6    9.69    1.95
  -1  -2   7   31.92    3.08
  -2   1   7   33.10    3.29
  -1  -2   8    8.76    1.98
  -2   1   8    8.33    1.97
  -2   1   9   66.61    5.29
  -1  -2   9   71.06    5.18
   1   2  12    2.64    1.04
  -2   1  12    2.25    0.81
   2  -1  12    4.89    1.02
   1   2  13   30.17    2.42
   2  -1  13   26.66    2.32
  -2   1  13   26.23    2.29
  -1  -2  13   26.95    2.27
  -2   1  14    0.49    1.05
   1   2  14    0.76    0.98
  -1  -2  14    1.55    0.92
   2  -1  14    1.05    0.91
   2  -1  15    1.46    1.01
   1   2  15    1.01    0.86
  -2   1  15    2.12    1.05
  -1  -2  15    0.30    0.88
   1   2  16   -0.12    0.92
   2  -1  16   -0.84    1.08
  -2   1  16    1.08    0.92
  -1  -2  16    0.75    0.98
   2  -1  17    2.20    1.03
  -1  -2  17    3.24    1.14
   1   2  17    3.39    1.22
  -2   1  17    3.53    1.15
  -2   1  18    3.08    1.12
   1   2  18    2.99    1.11
   2  -1  18    3.49    1.14
  -1  -2  18    2.09    1.05
  -1  -2  19    4.11    1.07
   2  -1  19    2.11    0.93
   1   2  19    2.73    1.02
  -2   1  19    2.80    1.02
  -2   0   0  493.79    4.56
   0  -2   1   82.94    1.81
  -2   0   1   78.19    2.23
   0  -2   2    0.60    0.40
  -2   0   2    0.72    0.55
   0  -2   3   42.25    2.09
  -2   0   3   40.95    2.42
  -2   0   4   75.53    3.66
   0  -2   4   75.97    3.21
   0  -2   5   39.42    2.70
  -2   0   5   43.06    3.11
  -2   0   6   39.88    3.38
   0  -2   6   41.51    3.08
   0  -2   7    0.06    0.94
  -2   0   7   -0.65    1.34
   0  -2   8    1.80    1.31
  -2   0   8    1.25    1.19
  -2   0   9    5.76    1.80
  -2   0  12   18.89    1.84
   0   2  12   17.41    1.82
   2   0  12   16.78    1.76
  -2   0  13    8.09    1.43
   0   2  13    5.66    1.27
   2   0  13    9.93    1.49
   0  -2  13    7.22    1.27
   0   2  14    3.64    0.93
   0  -2  14    3.22    1.10
   2   0  14    6.70    1.42
  -2   0  14    3.37    1.15
  -2   0  15    5.59    1.34
   0   2  15    4.30    1.26
   2   0  15    2.47    0.96
   0  -2  15    2.20    1.01
   2   0  16   12.98    1.81
  -2   0  16   12.30    1.79
   0   2  16   13.16    1.83
   0  -2  16   13.38    1.76
   2   0  17    2.85    1.08
  -2   0  17    2.47    1.06
   0   2  17    3.71    1.16
   0  -2  17    2.99    1.07
  -2   0  18    0.11    0.88
   0   2  18    0.52    0.96
   0  -2  18    0.98    0.94
   2   0  18    0.56    0.95
   2   0  19   -0.05    0.86
   0   2  19    0.02    0.77
   0  -2  19    0.17    0.71
  -2   0  19    1.03    0.87
  -2  -1   0   51.54    1.73
  -1   2   1  262.27    4.13
  -2  -1   1  265.99    4.30
  -2  -1   2   64.07    2.53
   1  -2   2   63.46    1.71
  -1   2   2   65.12    2.61
   1  -2   3  858.46    8.36
  -2  -1   3  868.09   10.71
  -1   2   3  859.87   10.80
  -2  -1   4   43.33    2.81
   1  -2   4   42.81    2.31
  -1   2   4   39.98    2.82
  -1   2   5   73.46    4.04
  -2  -1   5   68.88    3.82
   1  -2   5   69.27    3.35
   1  -2   6    9.28    1.57
  -2  -1   6    8.77    1.78
  -1   2   6    8.06    1.78
   1  -2   7   35.13    3.02
  -2  -1   7   40.12    3.57
  -2  -1   8    9.37    2.03
  -2  -1   9   71.84    5.39
  -2  -1  10    3.86    1.61
   2   1  12    4.82    1.06
  -1   2  12    1.60    0.81
  -1   2  13   24.44    2.21
   2   1  13   28.55    2.39
  -2  -1  13   24.17    2.17
   1  -2  13   25.26    2.22
  -1   2  14    1.03    0.91
   2   1  14    3.22    1.04
   1  -2  14   -0.49    1.00
  -2  -1  14    0.90    0.87
   1  -2  15    1.18    0.88
  -2  -1  15    2.12    1.04
   2   1  15    1.20    0.86
  -1   2  15    1.30    1.01
  -1   2  16    0.36    0.90
   2   1  16   -0.71    1.01
   1  -2  16    0.02    0.99
  -2  -1  16   -0.36    0.83
   2   1  17    2.82    1.10
   1  -2  17    3.04    1.15
  -1   2  17    3.90    1.30
  -2  -1  17    3.60    1.19
  -2  -1  18    4.24    1.21
   2   1  18    3.62    1.14
  -1   2  18    3.42    1.15
   1  -2  18    3.02    1.07
   2   1  19    2.41    0.97
  -1   2  19    1.83    0.99
  -2  -1  19    2.39    0.94
   1  -2  19    2.29    0.91
  -2   2   0 1537.60    7.60
  -2   2   1   37.06    1.70
  -2  -2   1   37.02    1.77
  -2   2   2   36.84    2.10
  -2  -2   2   34.71    1.92
  -2  -2   3  167.80    4.76
  -2   2   3  161.27    4.90
   2  -2   3  165.83    3.35
   2  -2   4  120.28    3.56
  -2  -2   4  119.30    4.51
  -2   2   4  120.26    4.78
  -2   2   5  108.14    5.05
  -2  -2   5  112.48    4.82
  -2  -2   6   95.02    4.84
  -2   2   6   86.64    4.95
  -2   2   7   61.66    4.57
  -2  -2   7   64.49    4.42
  -2  -2   8   50.21    4.19
  -2   2   8   47.05    4.31
  -2  -2   9   12.29    2.43
  -2  -2  10    1.20    1.68
   2  -2  12   37.12    2.57
  -2  -2  12   35.91    2.50
  -2   2  12   35.73    2.49
   2   2  12   38.08    2.57
  -2  -2  13   20.60    2.07
  -2   2  13   19.45    1.98
   2  -2  13   20.21    2.04
   2   2  13   21.48    2.10
   2  -2  14    2.23    1.08
  -2   2  14    0.35    0.96
   2   2  14    1.24    1.00
  -2  -2  14    0.99    1.01
  -2  -2  15    9.83    1.60
   2  -2  15    9.07    1.55
   2   2  15    9.42    1.54
  -2   2  15   10.61    1.65
  -2   2  16    6.85    1.45
   2   2  16    5.99    1.39
  -2  -2  16    8.33    1.50
   2  -2  16    6.45    1.42
   2   2  17    4.67    1.28
  -2  -2  17    4.09    1.25
   2  -2  17    2.01    0.88
   2   2  18    3.91    1.26
   2  -2  18    3.45    1.13
  -2  -2  18    5.52    1.27
  -2   2  18    4.10    1.24
   2  -2  19   11.40    1.43
  -2  -2  19   11.30    1.40
   2   2  19   12.56    1.51
  -2   2  19   11.61    1.49
  -3   2   0  316.88    4.09
  -2  -3   1  240.75    4.88
  -3   2   1  233.96    4.48
  -2  -3   2 1641.77   13.62
  -3   2   2 1677.57   14.11
  -2  -3   3  163.48    4.72
  -3   2   3  167.32    5.20
  -2  -3   4   48.81    2.95
  -3   2   4   42.73    3.06
  -2  -3   5   70.71    3.87
  -3   2   5   67.84    4.16
  -2  -3   6  336.03    8.98
  -3   2   6  320.32    9.62
  -2  -3   7   31.47    3.15
  -3   2   7   35.88    3.56
  -2  -3   8   47.80    4.17
  -3   2   8   42.27    4.10
  -3   2   9  119.05    7.18
  -2  -3   9  128.96    7.07
  -2  -3  10  246.31   10.39
   2   3  12    0.62    0.72
  -2  -3  12   -0.24    0.88
  -3   2  12    0.79    0.76
   3  -2  12    1.56    0.81
   2   3  13   58.41    3.34
   3  -2  13   55.39    3.24
  -2  -3  13   55.28    3.20
  -3   2  13   57.00    3.26
  -3   2  14   30.98    2.53
   2   3  14   31.01    2.55
   3  -2  14   32.08    2.58
  -2  -3  14   29.39    2.43
   2   3  15    4.50    1.25
  -2  -3  15    5.20    1.32
   3  -2  15    4.37    1.18
  -3   2  15    5.78    1.37
  -3   2  16   -0.63    0.90
  -2  -3  16   -0.69    0.90
   2   3  16   -0.77    1.03
   3  -2  16   -0.95    1.07
   2   3  17    1.53    0.98
  -3   2  17    3.72    1.23
  -2  -3  17    4.58    1.23
   3  -2  17    0.77    0.84
   2   3  18   11.81    1.59
  -3   2  18   13.09    1.65
   3  -2  18   14.98    1.76
  -2  -3  18   14.13    1.68
  -3   2  19    3.80    1.07
  -2  -3  19    1.35    0.86
   2   3  19    1.43    0.89
   3  -2  19    1.04    0.86
  -3   1   0 1163.24    7.78
  -3   1  -1    4.58    0.50
  -3   1   1    4.13    0.70
  -1  -3   1    4.97    0.75
  -3   1   2    4.63    1.02
  -1  -3   2    4.32    0.85
  -3   1   3    0.49    0.92
  -1  -3   3    0.23    0.69
  -3   1   4  827.73   12.51
  -1  -3   4  836.32   11.22
  -1  -3   5    4.88    1.23
  -3   1   5    3.06    1.44
  -1  -3   6  112.66    5.08
  -3   1   6  110.09    5.57
  -3   1   7    2.70    1.50
  -1  -3   7    2.71    1.28
  -1  -3   8  104.10    5.80
  -3   1   8   92.27    5.95
  -3   1   9   -0.73    1.53
  -1  -3   9    0.26    1.05
  -1  -3  10    1.07    1.44
   1   3  12   37.03    2.56
  -3   1  12   38.17    2.61
   3  -1  12   36.48    2.57
  -3   1  13    0.48    0.84
  -1  -3  13   -0.38    0.96
   1   3  13   -1.22    0.90
   3  -1  13    0.86    0.83
   3  -1  14   19.42    2.10
  -3   1  14   19.36    2.10
  -1  -3  14   19.07    2.03
   1   3  14   14.88    1.83
  -3   1  15    1.73    1.10
  -1  -3  15   -0.38    0.86
   1   3  15   -1.14    1.11
   3  -1  15   -1.45    1.19
   3  -1  16   12.22    1.76
  -3   1  16   16.93    1.99
  -1  -3  16   17.12    1.92
   1   3  16   16.75    1.99
   1   3  17    0.38    0.94
  -3   1  17    2.13    1.14
  -1  -3  17    2.90    1.02
   3  -1  17    0.58    0.90
  -1  -3  18    4.35    1.21
   1   3  18    1.64    1.09
  -3   1  18    1.97    1.06
   3  -1  18    1.74    0.93
   3  -1  19    0.82    0.80
  -1  -3  19    1.14    0.80
   1   3  19    0.30    0.80
  -3   1  19    0.36    0.86
  -3   0   0  744.47    6.88
  -3   0   1  417.86    5.89
   0  -3   1  421.47    4.79
   0  -3   2 3916.12   16.18
  -3   0   2 3858.36   21.06
   0  -3   3   49.28    2.24
  -3   0   3   50.17    2.84
   0  -3   4   33.57    2.19
  -3   0   4   33.55    2.67
  -3   0   5    3.83    1.42
   0  -3   5    4.44    1.10
  -3   0   6  335.00    9.47
   0  -3   6  336.90    8.36
  -3   0   7   47.65    4.06
   0  -3   7   49.92    3.67
  -3   0   8    1.33    1.32
   0  -3   8    0.73    0.94
   0  -3   9    0.15    1.06
  -3   0   9    1.33    1.16
  -3   0  10  132.74    8.06
  -3   0  12   11.48    1.53
   0   3  12   12.86    1.60
   3   0  12   15.40    1.73
   0  -3  13   13.19    1.64
  -3   0  13   17.10    1.91
   0   3  13   13.38    1.72
   3   0  13   16.08    1.85
   3   0  14  143.59    5.20
  -3   0  14  135.64    5.08
   0  -3  14  138.14    5.13
   0   3  14  137.53    5.13
   3   0  15   -0.44    0.93
   0  -3  15   -0.80    1.00
   0   3  15    0.44    0.89
  -3   0  15    0.65    0.93
   0  -3  16   11.98    1.70
   0   3  16    8.49    1.54
   3   0  16    9.71    1.63
  -3   0  16   11.03    1.70
   3   0  17    1.61    0.99
   0  -3  17    2.74    1.05
  -3   0  17    3.23    1.19
   0   3  17    3.77    1.24
   0   3  18   14.81    1.79
   3   0  18   17.15    1.83
  -3   0  18   15.59    1.78
   0  -3  18   16.28    1.78
   0   3  19    3.04    1.00
  -3   0  19    3.75    1.04
   0  -3  19    4.02    0.98
   3   0  19    3.07    1.00
  -3  -1   0 1139.80    9.44
  -3  -1   1    3.90    0.78
   1  -3   1    5.49    0.48
   1  -3   2    3.77    0.51
  -3  -1   2    4.05    0.99
  -3  -1   3    0.66    0.89
  -1   3   3    0.44    0.87
   1  -3   3    1.09    0.45
   1  -3   4  885.97    9.93
  -1   3   4  873.23   12.75
  -3  -1   4  874.45   12.64
  -3  -1   5    3.29    1.31
   1  -3   5    3.82    0.99
   1  -3   6  118.19    4.74
  -3  -1   6  119.61    5.67
  -3  -1   7    3.60    1.69
   1  -3   7    1.21    0.89
   1  -3   8  106.39    5.46
  -3  -1   8   97.12    6.01
  -3  -1   9   -0.28    1.24
  -3  -1  10    2.83    1.73
   1  -3  12   35.09    2.45
  -1   3  12   38.20    2.59
   3   1  12   36.92    2.61
  -3  -1  12   36.94    2.54
  -3  -1  13    0.28    0.92
   1  -3  13    0.84    0.95
   3   1  13   -0.30    0.69
  -1   3  13    0.09    0.94
   3   1  14   18.81    2.05
  -3  -1  14   18.70    2.04
  -1   3  14   16.07    1.95
   1  -3  14   18.88    2.01
  -1   3  15   -0.53    1.04
   1  -3  15   -0.48    1.02
   3   1  15   -0.54    0.96
  -3  -1  15    1.80    1.05
  -3  -1  16   15.58    1.92
   3   1  16   14.55    1.89
  -1   3  16   13.36    1.76
   1  -3  16   15.23    1.88
  -1   3  17    1.76    1.11
  -3  -1  17    2.62    1.04
   1  -3  17    1.43    0.85
   3   1  17    0.35    0.95
   3   1  18    2.10    1.16
   1  -3  18    1.48    0.94
  -3  -1  18    2.27    1.05
  -1   3  18    2.14    1.09
   3   1  19   -0.03    0.78
  -3  -1  19    1.30    0.88
  -1   3  19    0.98    0.87
   1  -3  19    1.84    0.86
  -3  -2   0  316.04    5.50
  -2   3   1  233.84    4.44
  -3  -2   1  239.18    4.96
  -3  -2   2 1671.48   14.21
  -2   3   2 1647.93   13.97
  -3  -2   3  164.17    5.01
   2  -3   3  174.12    3.22
  -2   3   3  169.91    5.19
   2  -3   4   44.64    2.11
  -3  -2   4   42.48    2.94
  -2   3   4   45.44    3.09
  -2   3   5   68.58    4.15
  -3  -2   5   70.95    4.08
   2  -3   5   67.87    3.07
  -2   3   6  341.16    9.73
   2  -3   6  345.54    7.70
  -3  -2   6  336.52    9.35
  -2   3   7   33.66    3.63
  -3  -2   7   30.39    3.16
  -3  -2   8   40.28    3.93
  -3  -2   9  127.97    7.28
  -3  -2  10  225.44   10.24
  -3  -2  11   13.02    2.77
   2  -3  12    0.93    0.72
   3   2  12    1.64    0.85
  -3  -2  12    0.05    0.76
  -2   3  12    0.85    0.84
   2  -3  13   60.51    3.31
   3   2  13   58.85    3.29
  -2   3  13   58.00    3.29
  -3  -2  13   59.23    3.31
  -3  -2  14   32.85    2.61
   3   2  14   38.18    2.78
   2  -3  14   37.15    2.73
  -2   3  14   31.84    2.55
  -3  -2  15    6.05    1.38
   3   2  15    3.47    1.18
  -2   3  15    6.03    1.40
   2  -3  15    4.69    1.27
  -2   3  16   -0.95    0.95
   3   2  16   -2.02    1.19
   2  -3  16   -0.50    0.98
  -3  -2  16    0.47    0.87
   2  -3  17    1.89    0.98
  -3  -2  17    3.73    1.17
  -2   3  17    2.12    1.10
   3   2  17    1.69    1.01
  -3  -2  18   10.97    1.53
   2  -3  18   13.32    1.61
  -2   3  18   11.77    1.64
   3   2  18   15.87    1.83
   3   2  19    1.63    0.91
   2  -3  19    3.16    1.01
  -3  -2  19    0.85    0.76
  -2   3  19    1.30    0.94
  -3   3   0 2255.05   11.17
  -3   3   1  700.10    8.08
  -3  -3   1  705.38    9.16
  -3  -3   2    1.05    0.94
  -3   3   2    0.74    0.84
  -3  -3   3   21.66    1.98
  -3   3   3   21.52    2.07
  -3  -3   4   31.84    2.59
  -3   3   4   34.49    2.81
  -3   3   5  187.74    6.84
  -3  -3   5  198.22    6.65
  -3  -3   6   30.95    3.05
  -3   3   6   33.44    3.33
  -3  -3   7   34.96    3.43
  -3   3   7   32.61    3.50
  -3  -3   8    6.17    1.73
  -3   3   8    4.45    1.66
  -3  -3   9   41.48    4.31
  -3  -3  10   23.39    3.49
  -3  -3  11   32.76    4.33
  -3   3  12   83.30    3.75
   3  -3  12   84.63    3.84
  -3  -3  12   81.21    3.71
   3   3  12   82.71    3.80
  -3   3  13   19.76    2.01
  -3  -3  13   19.96    2.03
   3  -3  13   17.65    1.94
   3   3  13   20.37    1.91
   3   3  13   16.42    1.86
  -3  -3  14    9.05    1.51
   3   3  14    9.58    1.58
   3  -3  14   11.10    1.58
  -3   3  14    8.24    1.44
   3   3  15   26.52    2.44
   3  -3  15   24.86    2.29
  -3  -3  15   27.31    2.40
  -3   3  15   27.69    2.44
   3  -3  16   10.40    1.60
  -3  -3  16   11.44    1.69
   3   3  16   10.07    1.58
  -3   3  16   12.31    1.80
  -3  -3  17    1.69    0.96
   3  -3  17    0.29    0.90
   3   3  17   -0.02    0.95
  -3   3  17    1.79    1.09
  -3  -3  18    2.71    1.05
   3  -3  18    3.38    1.10
   3   3  18    3.67    1.16
  -3   3  18    3.92    1.19
   3  -3  19    8.57    1.25
   3   3  19    8.63    1.33
  -3   3  19    8.08    1.28
  -3  -3  19    7.89    1.21
  -4   3   0    5.11    0.72
  -3  -4   1  174.15    4.87
  -4   3   1  170.83    4.23
  -4   3  -1  168.36    2.37
  -4   3   2  310.60    6.63
  -3  -4   2  308.62    6.81
  -3  -4   3   47.14    2.93
  -4   3   3   44.96    2.94
  -3  -4   4  160.93    5.62
  -4   3   4  165.69    6.06
  -4   3   5   26.11    2.81
  -3  -4   5   32.18    2.86
  -3  -4   6   50.05    3.76
  -4   3   6   51.40    4.11
  -3  -4   7   31.90    3.24
  -4   3   7   28.28    3.35
  -3  -4   8   30.53    3.48
  -4   3   8   29.43    3.59
  -3  -4   9  110.98    6.78
  -4   3   9  117.95    7.41
  -3  -4  10   96.32    6.74
  -3  -4  11    2.96    1.76
   4  -3  12    1.40    0.86
  -3  -4  12   -0.65    0.99
   3   4  12    0.62    0.73
   3   4  12   -0.32    0.71
  -4   3  12   -0.43    0.78
   3   4  13   14.25    1.60
   3   4  13   11.94    1.66
  -4   3  13   11.17    1.58
  -3  -4  13   12.74    1.61
   4  -3  13   11.86    1.61
   3   4  14    2.28    0.99
  -4   3  14    3.78    1.23
  -3  -4  14    4.92    1.20
   3   4  14    5.83    1.20
   4  -3  14    4.55    1.20
   3   4  15   -1.49    1.24
   4  -3  15    2.03    0.98
  -4   3  15    1.92    1.12
  -3  -4  15    0.18    0.88
   3   4  15    0.23    0.72
  -3  -4  16    1.03    0.82
  -4   3  16    1.46    1.01
   4  -3  16   -0.22    0.82
   3   4  16    0.14    0.98
   3   4  17    3.10    1.15
  -3  -4  17    5.66    1.26
  -4   3  17    4.13    1.26
   4  -3  17    2.82    1.06
   3   4  18    3.09    1.10
   4  -3  18    3.34    1.11
  -4   3  18    5.45    1.30
  -3  -4  18    3.46    1.07
   4  -3  19    0.13    0.72
   3   4  19    0.62    0.79
  -4   2   0 1443.05    9.97
  -2  -4   1   74.81    2.95
  -4   2  -1   76.19    1.83
  -4   2   1   76.97    2.82
  -4   2   2   64.93    3.07
  -2  -4   2   61.98    2.87
  -4   2   3   19.89    2.07
  -2  -4   3   20.72    1.86
  -4   2   4  154.87    5.77
  -2  -4   4  152.00    5.19
  -2  -4   5   14.73    1.95
  -4   2   5   11.11    2.01
  -4   2   6   71.30    4.80
  -2  -4   6   79.33    4.52
  -4   2   7    9.05    2.28
  -2  -4   7    8.19    1.87
  -4   2   8   28.22    3.50
  -2  -4   8   30.68    3.37
  -4   2   9   17.14    3.20
  -2  -4   9   11.05    2.30
  -2  -4  10   44.24    4.45
  -2  -4  11    1.61    1.36
  -4   2  12   53.87    3.09
   4  -2  12   56.64    3.20
   2   4  12   55.52    3.07
  -2  -4  12   51.15    2.93
   2   4  13    8.25    1.34
   2   4  13    8.98    1.46
  -4   2  13    6.58    1.35
  -2  -4  13    9.68    1.49
   4  -2  13    7.67    1.45
   2   4  14   11.79    1.57
   2   4  14    5.86    1.26
   4  -2  14    9.54    1.55
  -4   2  14    8.11    1.45
  -2  -4  14    7.61    1.43
  -4   2  15    2.24    1.14
   4  -2  15    2.87    0.99
   2   4  15    1.52    1.06
  -2  -4  15    3.79    1.21
  -2  -4  16    1.45    0.89
   4  -2  16   -1.07    1.13
   2   4  16    0.32    0.90
  -4   2  16    3.06    1.17
  -4   2  17    0.57    0.98
  -2  -4  17    1.68    0.94
   2   4  17    0.41    0.93
   4  -2  17    0.88    0.89
   2   4  18    2.58    1.06
   4  -2  18    1.92    0.95
  -4   2  18    2.03    0.99
  -2  -4  18    0.69    0.81
  -2  -4  19    1.55    0.87
   4  -2  19    1.41    0.88
   2   4  19    1.09    0.86
  -4   1   0  196.68    3.83
  -4   1   1   11.50    1.20
  -1  -4   1   10.45    1.10
  -4   1  -1   10.90    0.89
  -1  -4   2  701.09    8.54
  -4   1   2  692.69    9.60
  -1  -4   3  259.00    5.63
  -4   1   3  262.31    6.63
  -4   1   4  143.36    5.49
  -1  -4   4  146.41    4.79
  -4   1   5   87.24    4.70
  -1  -4   5   96.33    4.28
  -1  -4   6  161.78    6.01
  -4   1   6  149.79    6.66
  -4   1   7   43.07    4.06
  -1  -4   7   43.44    3.55
  -1  -4   8   21.31    2.71
  -4   1   8   16.12    2.73
  -1  -4   9  178.92    8.06
  -4   1   9  175.86    8.83
  -1  -4  10   78.82    5.67
  -4   1  10   77.61    6.31
   4  -1  12    7.55    1.39
  -4   1  12    5.42    1.24
   1   4  12    8.46    1.41
  -1  -4  12    5.41    0.99
   1   4  13   26.84    2.14
  -4   1  13   27.90    2.34
   1   4  13   28.12    2.30
   4  -1  13   28.76    2.41
  -1  -4  13   26.93    2.28
  -4   1  14   54.64    3.28
   1   4  14   47.48    3.10
  -1  -4  14   49.71    3.12
   4  -1  14   50.30    3.16
   4  -1  15    0.90    0.76
   1   4  15   -0.19    1.02
  -1  -4  15    0.96    0.92
  -4   1  15    1.30    1.03
   4  -1  16    2.55    1.12
   1   4  16    0.80    0.91
  -1  -4  16    3.63    1.16
  -4   1  16    3.67    1.22
  -4   1  17    2.67    1.13
  -1  -4  17    5.75    1.26
   4  -1  17    2.79    1.03
   1   4  17    3.31    1.11
  -4   1  18    3.92    1.22
  -1  -4  18    4.10    1.09
   1   4  18    3.63    1.17
   4  -1  18    3.26    1.11
   4  -1  19    0.79    0.77
  -1  -4  19    2.91    0.93
   1   4  19    1.91    0.88
  -4   0   0 1496.77   11.28
  -4   0   1  531.74    7.37
  -4   0  -1  545.30    6.52
   0  -4   2    1.78    0.61
  -4   0   2    2.42    0.85
   0  -4   3    3.03    0.81
  -4   0   3    3.27    1.22
  -4   0   4    1.82    1.14
   0  -4   4    1.95    0.74
  -4   0   5  153.21    6.11
   0  -4   5  160.70    5.16
  -4   0   6   37.86    3.46
   0  -4   6   43.29    3.06
   0  -4   7    7.47    1.55
  -4   0   7    6.67    1.90
  -4   0   8    1.95    1.49
   0  -4   8    2.01    1.03
  -4   0   9    3.15    1.93
   0  -4   9    0.03    0.84
  -4   0  10    3.26    2.16
  -4   0  11  200.67   10.56
   4   0  12   19.31    1.93
  -4   0  12   20.47    1.96
   0   4  12   18.59    1.86
   0  -4  12   18.03    1.82
   0   4  13   -0.98    1.13
  -4   0  13   -0.98    0.94
   4   0  13   -0.39    0.71
   0   4  13   -1.31    0.81
   0  -4  13   -1.00    1.13
  -4   0  14    2.26    1.13
   4   0  14    3.24    1.27
   0  -4  14   -0.09    0.96
   0   4  14    1.94    1.12
  -4   0  15   26.07    2.39
   4   0  15   26.29    2.39
   0  -4  15   27.71    2.43
   0   4  15   24.92    2.35
   0  -4  16    0.37    0.81
   4   0  16   -0.33    0.98
   0   4  16    0.58    0.92
  -4   0  16    0.80    0.95
   4   0  17   -1.03    1.10
   0   4  17    0.33    0.93
   0  -4  17    0.55    0.80
  -4   0  17    1.30    1.03
   0  -4  18    3.76    1.16
   0   4  18    1.73    0.97
  -4   0  18    2.27    1.02
   4   0  18    3.40    1.11
   0  -4  19   11.62    1.38
   4   0  19    8.68    1.30
   0   4  19    9.68    1.35
  -4  -1   0  199.68    4.50
  -4  -1   1   11.20    1.25
  -4  -1   2  697.44    9.68
   1  -4   2  712.34    6.31
   1  -4   3  271.29    4.64
  -4  -1   3  268.21    6.74
   1  -4   4  146.53    4.03
  -4  -1   4  151.53    5.59
   1  -4   5   93.47    3.79
  -4  -1   5   89.97    4.70
   1  -4   6  163.63    5.51
  -4  -1   6  145.33    6.48
  -4  -1   7   42.55    3.89
   1  -4   7   46.44    3.23
  -4  -1   8   19.86    2.99
   1  -4   8   21.73    2.54
  -4  -1   9  178.63    8.86
  -4  -1  10   76.76    6.29
  -4  -1  11   36.20    4.65
   1  -4  12    8.37    1.35
  -4  -1  12    6.42    1.24
  -1   4  12    3.81    1.00
   4   1  12    7.05    1.38
  -4  -1  13   27.33    2.36
  -1   4  13   26.27    2.29
   1  -4  13   29.09    2.39
   4   1  13   29.80    2.45
  -4  -1  14   54.47    3.31
  -1   4  14   47.38    3.09
   4   1  14   49.82    3.18
   1  -4  14   50.64    3.15
  -1   4  15    0.36    0.92
  -4  -1  15    1.14    0.91
   4   1  15   -0.26    0.82
   1  -4  15    0.68    0.91
  -4  -1  16    3.79    1.22
  -1   4  16    2.53    1.07
   4   1  16    2.19    0.93
   1  -4  16    1.29    0.89
   4   1  17    2.11    1.08
   1  -4  17    2.59    1.00
  -4  -1  17    3.64    1.11
  -1   4  17    4.58    1.28
   1  -4  18    3.09    1.07
   4   1  18    3.94    1.18
  -1   4  18    4.13    1.17
  -4  -1  18    5.69    1.26
   4   1  19    0.26    0.76
  -1   4  19    0.36    0.83
   1  -4  19    0.03    0.72
  -4  -2   0 1399.77   12.75
  -4  -2   1   73.62    3.10
   2  -4   2   57.58    1.34
  -4  -2   2   64.94    3.16
   2  -4   3   22.72    1.14
  -2   4   3   22.14    2.16
  -4  -2   3   19.20    2.01
  -2   4   4  158.25    5.75
   2  -4   4  159.35    3.77
  -4  -2   4  156.70    5.76
  -4  -2   5   10.82    1.87
   2  -4   5   13.12    1.34
   2  -4   6   77.27    3.60
  -4  -2   6   72.67    4.64
  -4  -2   7    8.99    2.05
  -4  -2   8   29.11    3.51
  -4  -2   9   15.21    2.85
  -4  -2  10   41.42    4.63
  -4  -2  11    2.18    1.49
  -4  -2  12   56.70    3.12
  -2   4  12   54.82    3.07
   2  -4  12   57.33    3.15
   4   2  12   54.48    3.14
  -2   4  13    7.30    1.37
  -4  -2  13    7.54    1.40
   4   2  13    6.98    1.36
   2  -4  13   10.07    1.53
  -2   4  14    6.10    1.33
   4   2  14    7.84    1.44
   2  -4  14    8.62    1.46
  -4  -2  14    7.78    1.44
   2  -4  15    2.59    0.91
  -2   4  15    1.40    0.92
   4   2  15    1.80    1.03
  -4  -2  15    2.70    1.13
  -2   4  16    0.60    0.94
   2  -4  16   -1.13    1.10
   4   2  16   -1.23    1.21
  -4  -2  16    0.83    0.96
   4   2  17    0.34    0.88
  -4  -2  17    1.04    0.97
   2  -4  17    1.43    0.87
  -2   4  17    2.11    1.02
   2  -4  18    1.43    0.91
   4   2  18    1.21    1.04
  -2   4  18    1.40    1.02
  -4  -2  18    0.78    0.83
   4   2  19    2.19    0.95
  -2   4  19    2.30    0.92
   2  -4  19    2.94    0.92
  -4  -3   0    6.21    1.15
  -3   4   1  175.07    4.23
  -4  -3   1  174.34    4.97
  -3   4   2  312.68    6.57
  -4  -3   2  325.00    7.15
  -3   4   3   43.20    2.87
  -4  -3   3   45.72    2.95
  -4  -3   4  172.76    6.07
  -3   4   4  166.84    6.01
  -3   4   5   27.24    2.84
  -4  -3   5   26.83    2.77
  -4  -3   6   47.61    3.87
  -3   4   6   47.08    3.96
  -4  -3   7   30.92    3.41
  -4  -3   8   26.55    3.42
  -4  -3   9  118.32    7.18
  -4  -3  10   88.11    6.56
  -4  -3  11    3.68    1.64
  -4  -3  12    1.96    1.67
   3  -4  12    1.22    0.88
   4   3  12    0.20    0.80
  -3   4  12   -0.26    0.85
  -4  -3  12    0.44    0.92
   4   3  13   13.34    1.59
  -4  -3  13   12.23    1.61
  -3   4  13   11.75    1.62
   4   3  13    9.69    1.50
   3  -4  13   15.15    1.81
  -3   4  14    1.98    0.93
   4   3  14    3.32    1.20
   4   3  14    3.03    0.95
  -4  -3  14    3.59    1.10
   3  -4  14    4.65    1.24
  -3   4  15    1.45    1.15
   3  -4  15    0.36    0.91
  -4  -3  15    0.00    0.92
   4   3  15   -0.78    1.03
   4   3  16   -0.31    0.96
  -3   4  16    2.04    1.07
   3  -4  16    0.27    0.86
  -4  -3  16    1.76    1.10
   3  -4  17    4.06    1.14
  -4  -3  17    4.03    1.21
   4   3  17    3.43    1.15
  -3   4  17    5.95    1.34
  -4  -3  18    4.80    1.18
   3  -4  18    2.81    1.00
  -3   4  18    4.12    1.12
   4   3  18    3.44    1.07
   4   3  19    0.64    0.76
   3  -4  19    2.53    0.87
  -4   4   0   52.23    2.01
  -4  -4   1   35.08    2.52
  -4   4   1   31.75    1.99
  -4   4   2   51.57    2.87
  -4  -4   2   48.24    3.03
  -4   4   3    1.41    1.09
  -4  -4   3    1.58    1.18
  -4   4   4  492.82   10.57
  -4  -4   4  483.82   10.18
  -4  -4   5   31.99    2.99
  -4   4   5   32.75    3.19
  -4   4   6    2.26    1.46
  -4  -4   6    2.03    1.41
  -4   4   7    3.74    1.69
  -4  -4   7    4.72    1.55
  -4   4   8  436.06   13.49
  -4  -4   8  447.52   12.93
  -4  -4   9   78.85    5.90
  -4  -4  10   31.52    4.04
  -4  -4  11  107.90    7.71
   4   4  12  148.84    5.08
  -4   4  12  139.89    4.92
  -4  -4  12  146.48    9.33
   4   4  12  143.73    4.76
   4  -4  12  151.56    5.16
  -4  -4  12  152.99    5.03
  -4   4  13    1.41    0.95
   4   4  13    2.96    1.04
  -4  -4  13    1.97    1.09
   4  -4  13    1.33    0.80
   4   4  13    1.06    0.79
   4  -4  14    6.16    1.43
   4   4  14    2.50    1.09
   4   4  14    3.59    1.25
  -4   4  14    5.23    1.41
  -4  -4  14    2.87    1.20
  -4  -4  15   -0.09    0.86
   4   4  15   -1.80    1.18
   4   4  15   -0.12    0.67
  -4   4  15    0.10    0.94
   4  -4  15    0.71    0.91
  -4  -4  16   21.96    2.17
   4  -4  16   15.53    1.87
  -4   4  16   19.85    2.12
   4   4  16   16.67    1.97
  -4  -4  17    2.06    1.03
   4   4  17    0.02    0.93
   4  -4  17    0.15    0.79
  -4   4  17    0.85    1.02
   4  -4  18    4.90    1.13
  -4  -4  18    8.38    1.31
   4   4  18    5.52    1.24
  -4   4  18    5.44    1.27
   4  -4  19    2.33    0.87
   4   4  19    1.01    0.79
  -5   4   0  163.77    3.82
  -5   4   1   12.07    1.39
  -5   4  -1   12.32    0.82
  -4  -5   1   14.24    1.84
  -4  -5   2  231.41    6.55
  -5   4   2  234.67    6.17
  -5   4   3    2.06    1.09
  -4  -5   3    0.85    1.05
  -4  -5   4   27.33    2.64
  -5   4   4   30.34    2.91
  -4  -5   5  116.54    5.55
  -5   4   5  116.60    5.85
  -4  -5   6  182.54    7.39
  -5   4   6  178.39    7.68
  -5   4   7    3.14    1.63
  -4  -5   7    2.04    1.51
  -5   4   8   16.48    3.04
  -4  -5   8   19.75    2.93
  -4  -5   9   61.69    5.30
  -4  -5  10  161.94    8.89
  -4  -5  11    4.78    1.90
   4   5  12   22.21    2.11
  -5   4  12   24.13    2.20
   4   5  12   22.43    2.01
  -4  -5  12   23.53    3.78
  -4  -5  12   23.65    2.12
   5  -4  12   24.73    2.24
   4   5  13    7.73    1.32
   5  -4  13    7.16    1.41
  -5   4  13    6.74    1.45
  -4  -5  13    6.70    1.32
   4   5  13    4.82    1.11
  -5   4  14   78.65    3.92
   5  -4  14   71.83    3.81
  -4  -5  14   81.55    3.91
   4   5  14   81.37    3.79
   4   5  14   79.86    3.95
   5  -4  15    2.37    1.15
   4   5  15    1.46    0.78
   4   5  15   -0.98    1.01
  -5   4  15    1.71    1.12
  -4  -5  15    2.18    0.99
   5  -4  16   -1.18    1.04
  -4  -5  16    1.90    0.95
   4   5  16    2.34    0.92
  -5   4  16    1.68    1.06
   4   5  16   -0.01    0.99
   5  -4  17    4.80    1.18
  -4  -5  17    4.94    1.18
   4   5  17    3.49    1.04
  -5   4  17    5.22    1.42
  -4  -5  18    3.17    1.07
   4   5  18    2.75    1.01
   5  -4  18    1.94    0.91
   5  -4  19    2.18    0.86
   4   5  19    2.66    0.93
  -5   3   0  136.69    3.47
  -5   3   1  178.22    4.65
  -5   3  -1  181.61    3.12
  -3  -5   1  173.87    5.21
  -5   3   2  297.80    6.79
  -3  -5   2  294.86    6.95
  -5   3   3    7.91    1.52
  -5   3  -3    6.04    0.52
  -3  -5   3    6.80    1.38
  -3  -5   4  254.10    7.12
  -5   3   4  254.12    7.73
  -5   3   5  117.51    5.80
  -3  -5   5  120.30    5.39
  -5   3   6   43.22    4.01
  -3  -5   6   43.45    3.57
  -3  -5   7   10.53    2.05
  -5   3   7   10.98    2.33
  -5   3   8    7.06    2.29
  -3  -5   8   11.17    2.14
  -3  -5   9   24.02    3.34
  -5   3   9   21.55    3.48
  -3  -5  10    4.08    1.49
  -3  -5  11   43.01    4.75
   5  -3  12   -0.14    0.68
   3   5  12   -1.14    0.79
   3   5  12   -0.29    0.83
  -3  -5  12    0.25    0.82
  -5   3  12    0.07    0.83
   3   5  13   -0.14    0.79
  -3  -5  13    0.98    0.80
   5  -3  13    1.72    1.05
   3   5  13    0.32    0.77
  -5   3  13    1.81    1.06
   3   5  14    0.81    0.91
   5  -3  14    2.87    1.01
  -5   3  14    3.68    1.31
   3   5  14    3.77    1.13
  -3  -5  14    1.25    0.91
   3   5  15    0.01    0.99
   5  -3  15    2.33    1.13
  -3  -5  15    2.57    1.06
  -5   3  15    1.65    1.03
   3   5  15    1.81    0.75
  -5   3  16    3.61    1.22
   5  -3  16    1.34    0.88
  -3  -5  16    2.49    1.05
   3   5  16    1.87    0.82
   3   5  16   -0.18    0.99
  -5   3  17    4.33    1.29
  -3  -5  17    3.37    1.09
   3   5  17    3.69    1.04
   5  -3  17    2.84    1.01
   5  -3  18   -0.04    0.81
   3   5  18    1.20    0.88
  -5   3  18    2.20    1.09
  -3  -5  18    0.88    0.83
   5  -3  19    0.40    0.69
   3   5  19    1.38    0.82
  -5   2   0   24.71    1.54
  -5   2  -1  347.83    4.73
  -2  -5   1  333.47    6.69
  -5   2   1  350.60    6.44
  -5   2   2    1.52    0.92
  -2  -5   2    0.94    0.94
  -5   2  -2    1.78    0.53
  -5   2   3  592.97   10.57
  -2  -5   3  596.36    9.61
  -5   2   4    8.71    1.81
  -2  -5   4    6.59    1.37
  -5   2   5  185.04    7.14
  -2  -5   5  187.12    6.34
  -5   2   6    5.85    1.92
  -2  -5   6    5.19    1.45
  -5   2   7   70.35    5.20
  -2  -5   7   68.77    4.49
  -2  -5   8   16.91    2.56
  -5   2   8   16.07    2.84
  -5   2   9   15.24    2.82
  -2  -5   9   15.16    2.53
  -2  -5  10    4.65    1.76
  -5   2  10    4.16    1.83
  -2  -5  11    0.25    1.01
  -2  -5  12    0.17    0.68
   2   5  12   -0.77    0.90
   5  -2  12    1.51    0.85
  -5   2  12    1.31    0.95
   2   5  12    3.08    1.03
   2   5  13    1.93    0.85
   2   5  13    2.50    1.08
  -5   2  13    2.18    0.94
   5  -2  13    0.59    0.79
  -2  -5  13    0.89    0.85
   5  -2  14    3.39    1.12
  -2  -5  14    2.89    1.00
   2   5  14    3.16    1.06
   2   5  14    0.90    0.92
  -5   2  14    1.73    0.99
   2   5  15    2.51    1.07
  -2  -5  15    3.71    1.13
   2   5  15    2.08    0.81
  -5   2  15    4.34    1.32
   5  -2  15    3.77    1.12
  -5   2  16    0.47    0.99
  -2  -5  16   -0.51    0.87
   2   5  16   -1.06    0.98
   5  -2  16   -1.09    1.09
   5  -2  17    0.61    0.91
  -2  -5  17    1.64    0.94
  -5   2  17    1.37    1.11
   2   5  17    2.89    1.13
  -2  -5  18    0.49    0.79
  -5   2  18    2.07    1.03
   5  -2  18   -0.28    0.86
   2   5  18    0.82    0.92
   2   5  19    1.65    0.81
  -2  -5  19    1.89    0.79
   5  -2  19    1.55    0.82
  -5   1   0 1062.68   10.08
  -5   1   1  176.34    4.56
  -5   1  -1  180.51    3.81
  -1  -5   2  122.52    3.81
  -5   1   2  118.29    4.31
  -5   1   3    6.36    1.52
  -1  -5   3    5.81    1.14
  -1  -5   4   17.54    1.79
  -5   1   4   18.98    2.30
  -5   1   5  248.20    8.08
  -1  -5   5  256.94    7.00
  -5   1   6   10.76    2.13
  -1  -5   6   11.06    1.68
  -5   1   7    6.65    1.98
  -1  -5   7    6.42    1.50
  -5   1   8   49.00    4.64
  -1  -5   8   52.64    4.06
  -1  -5   9   32.54    3.50
  -5   1   9   35.44    4.14
  -1  -5  10   32.63    3.63
  -5   1  10   32.27    4.19
  -5   1  11   16.62    3.30
   1   5  12   84.33    3.80
  -5   1  12   82.36    3.76
   5  -1  12   87.93    4.01
   1   5  12   87.89    3.71
  -1  -5  12   89.25    3.83
   5  -1  13    6.83    1.34
  -5   1  13    6.10    1.31
   1   5  13    5.39    1.21
   1   5  13    5.12    1.15
  -1  -5  13    5.20    1.23
  -5   1  14    2.24    1.22
   1   5  14    0.31    0.68
   5  -1  14    0.32    0.88
  -1  -5  14    0.01    0.96
   1   5  14    0.90    0.89
   1   5  15    6.07    1.31
   5  -1  15    6.11    1.42
   1   5  15    6.96    1.32
  -1  -5  15    4.84    1.13
  -5   1  15    6.59    1.44
   1   5  16    1.34    0.98
  -1  -5  16    1.32    1.02
  -5   1  16    1.78    1.15
   5  -1  16    0.71    0.93
   5  -1  17   -1.04    1.11
   1   5  17    2.39    1.05
  -1  -5  17    2.47    1.02
  -5   1  17    2.02    1.05
  -5   1  18    3.45    1.17
   1   5  18    2.95    1.03
   5  -1  18    1.87    1.04
  -1  -5  18    4.42    1.09
  -1  -5  19    0.72    0.78
   1   5  19    0.94    0.79
   5  -1  19    1.94    0.90
  -5   0   0   10.97    1.27
  -5   0   1  333.57    6.45
  -5   0  -1  342.03    5.81
   0  -5   2  341.87    5.73
  -5   0   2  342.42    7.18
   0  -5   3  274.17    5.46
  -5   0   3  270.85    7.17
   0  -5   4  381.06    7.20
  -5   0   4  361.14    8.98
   0  -5   5  222.44    6.10
  -5   0   5  215.60    7.49
   0  -5   6   23.13    2.23
  -5   0   6   20.70    2.73
  -5   0   7   16.94    2.70
   0  -5   7   18.66    2.21
  -5   0   8   14.26    2.77
   0  -5   8   17.14    2.31
   0  -5   9  198.01    8.09
  -5   0   9  191.32    9.40
  -5   0  10   18.78    3.26
  -5   0  11   10.17    2.73
   0  -5  12    0.22    0.69
   0   5  12    0.53    0.87
  -5   0  12    0.24    0.86
   0   5  12   -0.52    0.95
   5   0  12    2.62    1.20
   0   5  13   10.34    1.46
  -5   0  13    9.50    1.54
   5   0  13    8.91    1.44
   0   5  13    8.04    1.40
   0  -5  13    7.54    1.35
   0   5  14    9.09    1.60
   0   5  14    8.59    1.39
   5   0  14    8.49    1.50
   0  -5  14    7.34    1.43
  -5   0  14    9.29    1.59
   5   0  15    2.61    1.11
   0   5  15    2.90    1.01
  -5   0  15    4.01    1.27
   0  -5  15    2.55    1.07
   0   5  16    0.34    0.89
   0  -5  16    0.08    0.84
   5   0  16   -0.41    1.04
  -5   0  16    2.80    1.20
   0  -5  17    4.72    1.20
  -5   0  17    5.09    1.30
   0   5  17    5.15    1.23
   5   0  17    3.07    1.10
   0   5  18    1.41    1.02
   5   0  18    0.51    0.86
   0  -5  18    2.16    0.98
  -5   0  18    1.59    1.05
   5   0  19   -1.09    0.73
   0   5  19    0.08    0.70
   0  -5  19    1.06    0.74
  -5  -1   0 1071.69   11.41
  -5  -1  -1  184.01    4.68
  -5  -1   1  181.00    4.99
   1  -5   2  125.59    3.02
  -5  -1   2  119.28    4.42
   1  -5   3    4.68    0.79
  -5  -1   3    3.70    1.23
  -5  -1   4   20.11    2.36
   1  -5   4   18.71    1.53
  -5  -1   5  247.80    8.09
   1  -5   5  249.87    5.98
   1  -5   6   10.66    1.54
  -5  -1   6   11.34    2.11
  -5  -1   7    6.79    1.92
   1  -5   7    7.28    1.43
  -5  -1   8   45.50    4.44
   1  -5   8   54.49    3.77
  -5  -1   9   31.48    3.98
  -5  -1  10   26.22    3.74
  -5  -1  11   16.44    3.21
  -1   5  12   83.50    3.78
   1  -5  12   86.28    3.81
  -5  -1  12   87.10    3.84
   5   1  12   86.88    3.97
  -1   5  13    4.90    1.28
  -1   5  13    6.41    1.22
   5   1  13    6.88    1.42
  -5  -1  13    7.70    1.41
   1  -5  13    8.33    1.48
   5   1  14    1.86    1.07
  -5  -1  14    2.51    1.12
  -1   5  14    0.89    0.86
  -1   5  14    0.80    0.94
  -5  -1  15    6.07    1.38
  -1   5  15    6.78    1.42
   5   1  15    6.27    1.41
   1  -5  15    5.54    1.22
   1  -5  16    0.90    0.92
   5   1  16    0.16    1.01
  -5  -1  16    1.18    1.01
  -1   5  16    0.15    0.91
  -5  -1  17    1.05    1.00
   5   1  17    0.47    0.91
  -1   5  17    3.35    1.16
   1  -5  17    2.87    0.97
   5   1  18    0.95    0.90
  -5  -1  18    2.14    1.02
   1  -5  18    3.62    1.05
  -1   5  18    0.75    0.94
  -1   5  19    0.89    0.79
   1  -5  19    0.85    0.70
   5   1  19    1.07    0.82
  -5  -2   0   24.68    1.99
  -5  -2   1  352.40    7.28
  -5  -2   2    1.39    1.06
   2  -5   2    2.08    0.43
  -5  -2   3  584.49   10.63
   2  -5   3  603.70    5.95
  -5  -2   4    8.21    1.81
   2  -5   4    7.46    0.87
   2  -5   5  193.81    4.80
  -5  -2   5  179.81    6.96
   2  -5   6    2.71    0.86
  -5  -2   6    4.84    1.68
   2  -5   7   80.25    3.97
  -5  -2   7   69.44    4.93
  -5  -2   8   18.42    2.96
  -5  -2   9   12.63    2.78
  -5  -2  10    3.16    1.85
  -5  -2  11    0.33    1.38
   5   2  12    1.56    0.84
  -5  -2  12    0.65    0.72
  -2   5  12    1.75    0.89
   2  -5  12    0.81    0.67
  -5  -2  12    0.56    1.65
  -5  -2  13    0.70    0.94
   5   2  13    0.54    0.68
   2  -5  13    1.87    1.00
   5   2  13    2.01    1.07
  -2   5  13    1.44    0.76
  -2   5  13    0.64    0.92
  -2   5  14    1.12    0.94
  -5  -2  14    2.03    1.03
   5   2  14    3.52    1.11
   2  -5  14    2.98    1.09
  -5  -2  15    3.12    1.16
   5   2  15    3.87    1.19
  -2   5  15    3.53    1.10
   2  -5  15    1.89    0.99
   2  -5  16   -0.43    0.85
  -2   5  16    0.80    1.06
   5   2  16   -0.72    1.09
  -5  -2  16    0.38    0.88
   5   2  17   -0.58    1.02
  -2   5  17    1.24    1.04
  -5  -2  17    2.85    1.13
   2  -5  17    1.28    0.96
  -2   5  18   -0.74    0.85
   2  -5  18    1.44    0.84
  -5  -2  18    1.02    0.93
   5   2  18   -0.07    0.91
   2  -5  19    1.86    0.76
  -2   5  19    2.90    0.99
   5   2  19    1.29    0.81
  -5  -3   0  142.99    4.77
  -5  -3   1  177.26    5.37
  -5  -3   2  298.16    7.30
  -5  -3   3    8.84    1.67
  -5  -3   4  261.39    7.74
  -5  -3   5  118.16    5.72
  -5  -3   6   44.82    3.86
  -5  -3   7    9.85    2.26
  -5  -3   8    8.50    2.12
  -5  -3   9   19.70    3.09
  -5  -3  10    7.22    2.35
  -5  -3  11   35.90    4.69
  -5  -3  12    0.68    0.89
  -3   5  12    0.27    0.78
  -5  -3  12   -0.52    1.19
   5   3  12    0.94    0.83
   3  -5  12   -0.39    0.68
   5   3  12   -0.03    0.79
   5   3  13    1.51    0.97
  -5  -3  13    1.86    1.00
  -3   5  13    2.44    0.92
   3  -5  13    1.45    0.87
   5   3  13    0.29    0.76
  -3   5  13    0.75    1.04
   3  -5  14    2.45    1.02
   5   3  14    2.74    1.11
  -5  -3  14    3.04    1.15
  -3   5  14    1.49    1.06
   5   3  14    4.88    1.10
   5   3  15    1.31    0.91
   5   3  15    1.75    0.81
  -3   5  15    2.91    1.17
  -5  -3  15    2.53    1.10
   3  -5  15    1.26    0.89
   3  -5  16    1.84    0.94
  -5  -3  16    2.78    1.08
  -3   5  16    1.18    1.08
   5   3  16    2.34    0.98
  -3   5  17    4.20    1.22
   3  -5  17    3.61    1.11
   5   3  17    3.47    1.15
  -5  -3  17    3.34    1.12
  -3   5  18   -0.06    0.81
   3  -5  18   -0.91    0.74
  -5  -3  18    0.45    0.89
   5   3  18    0.35    0.87
   5   3  19    0.77    0.74
   3  -5  19    2.28    0.83
  -5  -4   0  167.75    5.49
  -4   5   1   11.63    1.35
  -5  -4   1   14.32    1.87
  -4   5   2  232.42    6.06
  -5  -4   2  227.64    6.71
  -5  -4   3    1.73    1.10
  -4   5   3    1.80    1.06
  -5  -4   4   31.37    2.92
  -4   5   4   26.81    2.76
  -4   5   5  109.19    5.64
  -5  -4   5  119.60    5.80
  -4   5   6  177.96    7.73
  -5  -4   6  178.52    7.53
  -5  -4   7    3.31    1.71
  -5  -4   8   16.60    2.91
  -5  -4   9   55.84    5.09
  -5  -4  10  155.88    8.94
  -5  -4  11    5.54    2.21
   5   4  12   20.88    2.07
  -5  -4  12   22.29    2.08
   5   4  12   21.56    1.97
  -5  -4  12   29.13    4.42
   4  -5  12   24.85    2.20
  -4   5  12   22.19    2.11
  -4   5  13    6.13    1.41
   5   4  13    6.26    1.22
   4  -5  13    6.82    1.35
  -5  -4  13    6.01    1.29
   5   4  13    4.85    1.21
  -4   5  14   81.54    3.99
   5   4  14   86.30    3.87
   4  -5  14   78.28    3.90
   5   4  14   83.20    4.02
  -5  -4  14   85.76    3.99
  -4   5  15    2.23    1.13
  -5  -4  15    2.97    1.22
   4  -5  15    0.26    0.81
   5   4  15    1.13    0.79
   5   4  15    1.91    1.05
   4  -5  16    0.77    0.86
   5   4  16    1.89    0.79
  -4   5  16    2.51    1.10
  -5  -4  16    1.99    1.07
   5   4  16   -0.48    1.05
  -5  -4  17    6.25    1.32
  -4   5  17    7.73    1.42
   5   4  17    4.90    1.26
   4  -5  17    4.63    1.15
   5   4  18    2.96    1.11
  -4   5  18    2.70    1.08
   4  -5  18    2.54    1.03
   4  -5  19    1.86    0.79
   5   4  19    1.72    0.83
  -5   5   0  215.94    4.42
  -5  -5   0  200.74    6.31
  -5   5   1  407.32    7.33
  -5  -5   1  393.91    8.91
  -5   5   2    4.56    1.21
  -5  -5   2    3.59    1.33
  -5   5   3  204.68    6.57
  -5  -5   3  199.46    6.74
  -5  -5   4  745.20   13.55
  -5   5   4  720.17   13.40
  -5   5   5   15.45    2.46
  -5  -5   5   16.93    2.40
  -5   5   6    0.72    1.33
  -5  -5   6    2.22    1.49
  -5   5   7   21.13    3.04
  -5  -5   7   20.38    2.92
  -5  -5   8  178.89    8.50
  -5  -5   9    0.09    1.22
  -5  -5  10    5.29    2.03
  -5  -5  11   64.12    6.03
   5   5  12   30.28    2.40
  -5  -5  12   38.65    4.96
   5  -5  12   32.08    2.47
  -5  -5  12   34.13    2.45
   5   5  12   29.27    2.29
  -5   5  12   33.95    2.53
   5  -5  13    0.73    0.80
   5   5  13   -1.55    1.06
  -5  -5  13   -0.02    0.79
  -5   5  13    1.37    1.00
   5   5  13    0.22    0.87
   5   5  14    6.70    1.43
   5   5  14    4.64    1.14
  -5  -5  14    5.00    1.27
  -5   5  14    5.67    1.46
   5  -5  14    6.21    1.34
  -5   5  15    5.60    1.37
   5   5  15    5.85    1.25
  -5  -5  15    5.74    1.24
   5  -5  15    5.25    1.28
   5   5  15    4.17    1.18
   5   5  16    5.50    1.18
  -5   5  16    5.40    1.36
  -5  -5  16    7.82    1.40
   5   5  16    6.12    1.18
   5  -5  16    2.93    1.02
  -5   5  17    3.60    1.23
  -5  -5  17    2.25    1.00
   5   5  17    2.52    1.00
   5  -5  17    3.16    1.02
   5   5  18    3.49    1.07
   5  -5  18    3.02    0.94
   5  -5  19    1.12    0.75
   5   5  19    0.90    0.76
  -6   5   0    3.42    0.79
  -5  -6   1   76.98    4.24
  -6   5   1   78.17    3.39
  -6   5   2   83.21    3.97
  -5  -6   2   87.47    4.52
  -6   5   3  534.52   10.91
  -5  -6   3  519.44   11.13
  -5  -6   4   46.70    3.64
  -6   5   4   48.03    3.74
  -6   5   5   11.58    2.22
  -5  -6   5   13.43    2.28
  -6   5   6   32.03    3.56
  -5  -6   6   33.78    3.55
  -5  -6   7   11.31    2.35
  -6   5   7   10.84    2.42
  -6   5   8    8.38    2.30
  -5  -6   8    8.85    2.22
  -5  -6   9   14.49    2.93
  -5  -6  10    1.50    1.53
  -5  -6  11   -0.04    1.29
  -6   5  11    5.39    1.27
   5   6  12    0.05    0.74
  -6   5  12    2.75    1.22
   6  -5  12   -0.07    0.83
  -5  -6  12    0.56    0.73
  -5  -6  12    1.55    1.48
   5   6  12    1.33    0.81
  -5  -6  13    3.06    1.09
   5   6  13    1.70    0.80
   5   6  13    2.14    0.99
  -6   5  13    1.70    1.09
   6  -5  13    1.69    0.86
   5   6  14    2.49    1.06
  -6   5  14    2.46    1.15
   5   6  14    3.42    1.06
  -5  -6  14    2.01    1.00
   6  -5  14    1.22    0.97
   5   6  15    1.55    0.83
   5   6  15    0.21    0.89
  -6   5  15    1.66    1.09
   6  -5  15    1.02    0.89
  -5  -6  15    1.38    0.95
   5   6  16   -1.09    1.02
  -6   5  16    1.50    1.17
   5   6  16    0.26    0.75
   6  -5  16   -1.36    1.05
  -5  -6  16    0.85    0.86
   5   6  17    1.50    0.77
   5   6  17    1.63    0.86
  -6   5  17    3.41    1.23
  -5  -6  17    2.72    1.01
   6  -5  17    0.96    0.88
   6  -5  18    1.97    0.93
   5   6  18    2.82    0.95
   5   6  19    0.30    0.69
   6  -5  19   -0.02    0.66
  -6   4   0  313.79    5.65
  -6   4   1   38.54    2.39
  -4  -6   1   37.65    2.88
  -6   4  -1   38.85    1.61
  -4  -6   2  108.78    4.74
  -6   4   2  112.79    4.51
  -6   4   3  270.32    7.67
  -4  -6   3  256.46    7.45
  -4  -6   4  179.95    6.55
  -6   4   4  181.37    6.86
  -4  -6   5   18.96    2.43
  -6   4   5   15.91    2.42
  -4  -6   6   61.76    4.42
  -6   4   6   62.60    4.78
  -4  -6   7   55.90    4.49
  -6   4   7   59.28    4.99
  -4  -6   8   57.18    4.82
  -6   4   8   54.10    5.10
  -4  -6   9   24.90    3.39
  -6   4   9   21.65    3.51
  -4  -6  10    1.31    1.42
  -4  -6  11   19.90    3.37
   4   6  12   24.55    2.10
  -6   4  12   25.08    2.23
  -4  -6  12   26.17    2.15
   6  -4  12   24.97    2.27
   4   6  12   25.46    2.15
  -4  -6  13    0.47    0.86
   6  -4  13    1.92    1.02
   4   6  13    2.55    1.04
   4   6  13    0.55    0.88
  -6   4  13    2.58    1.26
  -4  -6  14    8.44    1.38
   4   6  14    8.64    1.37
   4   6  14    6.60    1.33
  -6   4  14   10.64    1.70
   6  -4  14    8.10    1.49
  -4  -6  15   10.50    1.59
  -6   4  15    8.94    1.59
   4   6  15    9.33    1.42
   4   6  15    5.44    1.23
   6  -4  15    9.00    1.54
  -6   4  16    5.95    1.44
  -4  -6  16    6.61    1.34
   6  -4  16    5.66    1.33
   4   6  16    6.86    1.26
   4   6  16    4.14    1.09
   4   6  17    5.59    1.23
  -6   4  17    7.68    1.51
   4   6  17    5.91    1.10
  -4  -6  17    7.95    1.36
   6  -4  17    3.95    1.13
   4   6  18   -0.09    0.80
   6  -4  18   -0.76    0.82
   4   6  19    3.64    0.94
   6  -4  19    2.75    0.88
  -6   3   0   93.27    3.16
  -6   3   1  657.28    9.49
  -3  -6   1  648.76   10.64
  -6   3  -2  266.30    3.68
  -6   3   2  267.75    6.83
  -3  -6   2  260.34    6.86
  -3  -6   3   36.59    2.81
  -6   3  -3   37.44    1.34
  -6   3   3   43.11    3.15
  -3  -6   4   88.74    4.44
  -6   3   4   87.78    4.76
  -3  -6   5  166.47    6.41
  -6   3   5  163.72    7.01
  -3  -6   6   59.10    4.16
  -6   3   6   49.86    4.29
  -6   3   7  110.57    6.74
  -3  -6   7  115.61    6.10
  -6   3   8    7.48    2.40
  -3  -6   8    5.90    1.80
  -3  -6   9   28.77    3.55
  -6   3   9   29.08    3.97
  -3  -6  10   15.65    2.77
  -6   3  10   15.08    3.11
  -3  -6  11    9.75    2.27
   3   6  12    6.85    1.24
  -6   3  12   10.02    1.61
   3   6  12    6.89    1.35
   6  -3  12    8.21    1.43
  -3  -6  12    6.21    1.26
  -6   3  13   93.58    4.17
   3   6  13   88.67    3.95
  -3  -6  13   95.98    4.12
   3   6  13   94.94    4.20
   6  -3  13   92.79    4.25
   6  -3  14   27.69    2.43
   3   6  14   26.53    2.30
  -3  -6  14   28.02    2.30
  -6   3  14   32.58    2.64
   3   6  14   29.23    2.35
   3   6  15    0.12    0.79
  -3  -6  15    0.35    0.88
   6  -3  15    0.38    0.84
  -6   3  15   -0.01    0.91
   3   6  15   -0.14    0.96
  -6   3  16    3.46    1.23
   6  -3  16    2.59    0.96
  -3  -6  16    2.33    1.06
   3   6  16    2.47    0.90
   3   6  16    2.06    1.02
   3   6  17    6.44    1.32
   6  -3  17    5.36    1.22
  -3  -6  17    6.31    1.26
  -6   3  17    6.44    1.47
  -3  -6  18    3.06    0.97
   3   6  18    4.04    1.12
   6  -3  18    3.01    1.09
   3   6  19   -0.06    0.69
   6  -3  19    0.80    0.72
  -6   2   0   59.12    2.57
  -6   2   1  153.44    4.65
  -6   2  -1  150.32    3.61
  -2  -6   1  144.78    4.76
  -2  -6   2  180.85    5.39
  -6   2  -2  193.37    3.83
  -6   2   2  191.21    5.75
  -2  -6   3   20.36    1.97
  -6   2   3   20.32    2.27
  -6   2   4 1335.70   18.00
  -2  -6   4 1361.09   16.00
  -2  -6   5   78.17    4.24
  -6   2   5   66.49    4.50
  -6   2   6   90.02    5.63
  -2  -6   6  101.69    5.12
  -6   2   7   57.05    4.76
  -2  -6   7   58.05    4.22
  -2  -6   8  287.34    9.81
  -6   2   8  270.28   10.86
  -6   2   9    0.28    1.59
  -2  -6   9    0.98    1.23
  -2  -6  10   -0.53    0.88
  -6   2  10    1.49    1.42
  -6   2  11    0.68    1.53
   6  -2  12  106.33    4.46
  -2  -6  12  107.48    4.23
  -6   2  12  100.58    4.21
   2   6  12  103.36    4.10
   2   6  12  103.10    4.21
   2   6  13    1.68    1.04
  -6   2  13    1.15    1.00
   6  -2  13    0.66    0.89
  -2  -6  13    0.67    0.83
   2   6  13   -0.46    0.97
   2   6  14    4.69    1.22
   6  -2  14    4.48    1.24
  -6   2  14    8.99    1.56
  -2  -6  14    4.39    1.17
   2   6  14    7.51    1.30
   2   6  15    6.43    1.30
  -2  -6  15    7.51    1.39
   2   6  15    5.84    1.25
  -6   2  15    8.62    1.54
   6  -2  15    7.94    1.52
   6  -2  16   13.73    1.75
   2   6  16   17.09    1.74
  -6   2  16   14.30    1.82
  -2  -6  16   15.01    1.80
   2   6  16   15.15    1.84
   6  -2  17    1.94    0.90
  -2  -6  17    3.42    1.17
   2   6  17    1.24    1.05
   6  -2  18    0.59    0.85
   2   6  18   -0.58    0.81
  -2  -6  18    0.74    0.88
   6  -2  19    2.23    0.90
   2   6  19    0.11    0.71
  -6   1   0  211.32    5.00
  -6   1  -1   29.91    1.87
  -6   1   1   26.70    2.08
  -6   1  -2  314.09    5.55
  -1  -6   2  297.93    6.35
  -6   1   2  305.76    7.29
  -6   1   3   29.51    2.63
  -1  -6   3   33.29    2.30
  -6   1   4   15.49    2.24
  -1  -6   4   17.03    1.79
  -6   1   5   50.38    3.92
  -1  -6   5   55.90    3.37
  -1  -6   6  198.74    6.76
  -6   1   6  190.41    7.95
  -6   1   7    4.73    1.93
  -1  -6   7    3.78    1.30
  -6   1   8   90.59    6.38
  -1  -6   8  105.17    5.80
  -1  -6   9   21.37    2.78
  -6   1   9   16.35    3.20
  -6   1  10  129.66    8.42
  -1  -6  10  129.31    7.18
  -6   1  11   36.98    4.97
   6  -1  12    9.67    1.54
   1   6  12    7.29    1.29
   1   6  12    8.82    1.36
  -6   1  12   13.07    1.73
  -1  -6  12    9.37    1.45
   1   6  13    6.30    1.26
  -1  -6  13    4.37    1.00
   1   6  13    1.29    0.90
  -6   1  13    8.14    1.54
   6  -1  13    3.63    1.09
   1   6  14   29.48    2.35
  -6   1  14   33.08    2.63
   6  -1  14   25.17    2.40
  -1  -6  14   26.07    2.31
   1   6  14   27.14    2.39
  -6   1  15    5.57    1.46
  -1  -6  15    4.11    1.14
   6  -1  15    5.24    1.29
   1   6  15    4.43    1.22
   1   6  15    4.94    1.16
  -6   1  16    3.39    1.27
   1   6  16    0.96    0.86
   1   6  16    2.97    0.93
   6  -1  16    2.91    1.04
  -1  -6  16    3.13    1.08
  -6   1  17    0.49    0.88
   1   6  17    0.11    0.92
  -1  -6  17    1.52    0.96
   6  -1  17   -1.03    0.95
   6  -1  18    7.02    1.28
  -1  -6  18   11.10    1.39
   1   6  18    7.83    1.37
  -1  -6  19    2.68    0.80
   1   6  19    2.21    0.92
   6  -1  19    0.08    0.69
  -6   0   0   11.62    1.41
  -6   0  -1   73.34    3.08
  -6   0   1   70.51    3.29
  -6   0   2   25.01    2.24
   0  -6   2   22.65    1.73
   0  -6   3   18.66    1.59
  -6   0   3   19.75    2.24
  -6   0   4  840.33   14.30
   0  -6   4  877.38   11.16
   0  -6   5    1.86    0.82
  -6   0   5    2.01    1.37
  -6   0   6    2.62    1.73
   0  -6   6    4.07    1.09
  -6   0   7   19.14    3.00
   0  -6   7   19.69    2.26
  -6   0   8  564.12   15.52
   0  -6   8  600.39   13.07
   0  -6   9    5.91    1.49
  -6   0   9    6.06    2.12
  -6   0  10   49.50    5.35
  -6   0  11   15.63    3.40
   0  -6  12  185.87    5.50
   0   6  12  195.52    5.73
  -6   0  12  188.98    5.67
   0   6  12  186.47    5.40
  -6   0  12  191.39   11.22
   6   0  12  191.70    5.94
   0  -6  13    2.83    1.08
  -6   0  13    5.82    1.35
   0   6  13    2.22    0.89
   6   0  13    5.04    1.12
   0   6  13    5.55    1.20
   6   0  14    2.73    1.13
  -6   0  14    4.24    1.31
   0  -6  14    0.94    0.90
   0   6  14    1.17    0.88
   0   6  14    3.16    0.96
  -6   0  15    4.09    1.37
   0  -6  15    2.88    1.07
   0   6  15    2.29    0.90
   0   6  15    1.61    1.02
   6   0  15    2.33    1.10
   6   0  16   14.63    1.84
   0   6  16   14.50    1.81
   0  -6  16   15.78    1.81
  -6   0  16   17.61    2.04
  -6   0  17    1.39    1.03
   0  -6  17    0.43    0.81
   6   0  17   -0.17    0.99
   0   6  17    2.30    1.04
   0   6  18    3.07    1.05
   6   0  18    0.76    0.89
   0  -6  18    0.48    0.74
   0  -6  19    0.88    0.74
   6   0  19   -0.84    0.74
   0   6  19    1.23    0.83
  -6  -1   0  210.24    5.53
  -6  -1   1   29.43    2.35
  -6  -1  -1   32.33    2.28
  -6  -1   2  293.23    7.28
   1  -6   2  298.15    5.13
   1  -6   3   32.54    1.80
  -6  -1   3   29.38    2.67
   1  -6   4   16.94    1.49
  -6  -1   4   17.71    2.46
  -6  -1   5   53.05    4.04
   1  -6   5   55.45    2.87
  -6  -1   6  183.19    7.78
   1  -6   6  199.00    5.99
   1  -6   7    4.77    1.13
  -6  -1   7    3.49    1.38
   1  -6   8  103.26    5.16
  -6  -1   8  104.88    6.78
  -6  -1   9   13.79    2.83
  -6  -1  10  114.78    7.89
  -6  -1  11   39.97    5.04
  -6  -1  12    9.34    2.71
  -1   6  12    7.59    1.35
  -1   6  12    9.27    1.35
  -6  -1  12    9.56    1.54
   1  -6  12   10.25    1.42
   6   1  12    8.68    1.42
   1  -6  13    6.04    1.24
  -1   6  13    6.15    1.11
  -1   6  13    3.47    0.97
   6   1  13    6.42    1.34
  -6  -1  13    4.51    1.21
   1  -6  14   24.58    2.21
  -6  -1  14   28.83    2.46
  -1   6  14   30.76    2.36
  -1   6  14   27.59    2.41
   6   1  14   25.51    2.36
  -1   6  15    4.23    1.07
  -1   6  15    3.58    1.22
   6   1  15    4.47    1.22
  -6  -1  15    6.50    1.41
   1  -6  15    4.60    1.18
   1  -6  16    3.79    1.12
  -1   6  16    4.12    1.33
   6   1  16    1.80    1.03
  -6  -1  16    3.48    1.20
  -6  -1  17    1.03    0.98
   1  -6  17    1.07    0.97
  -1   6  17    0.89    0.97
   1  -6  18   10.55    1.38
  -1   6  18    8.55    1.42
   6   1  18    7.84    1.39
   6   1  19    0.97    0.82
  -1   6  19    2.34    0.91
   1  -6  19    1.32    0.74
  -6  -2   0   61.52    3.25
  -6  -2   1  152.08    5.20
  -6  -2  -1  149.13    4.93
   2  -6   2  190.13    3.47
  -6  -2   2  181.07    5.89
   2  -6   3   19.83    1.20
  -6  -2   3   19.26    2.21
  -6  -2   4 1341.97   18.23
   2  -6   4 1417.85   10.99
  -6  -2   5   73.03    4.73
   2  -6   5   77.76    3.01
   2  -6   6   99.20    3.88
  -6  -2   6   91.94    5.56
  -6  -2   7   51.73    4.43
   2  -6   7   57.55    3.29
  -6  -2   8  270.45   10.62
  -6  -2   9    1.79    1.66
  -6  -2  10    1.36    1.61
  -6  -2  11   -0.36    1.24
  -2   6  12  106.55    4.30
  -2   6  12  109.82    4.18
  -6  -2  12  107.12    8.36
  -6  -2  12  108.05    4.29
   6   2  12  109.29    4.47
   2  -6  12  115.95    4.41
  -2   6  13    1.87    0.99
   6   2  13    1.64    0.90
  -2   6  13   -0.15    0.70
  -6  -2  13    1.33    1.09
   2  -6  13    2.44    1.06
   6   2  13    1.28    0.98
  -2   6  14    7.31    1.33
   6   2  14    6.18    1.23
  -6  -2  14    8.63    1.63
   2  -6  14    3.02    1.03
  -2   6  14    5.51    1.35
   6   2  14    6.62    1.37
   6   2  15    8.32    1.58
   2  -6  15    7.14    1.37
  -2   6  15    8.33    1.32
  -2   6  15    7.47    1.47
  -6  -2  15    8.06    1.55
  -2   6  16   18.12    2.03
   2  -6  16   14.49    1.77
   6   2  16   14.43    1.79
  -6  -2  16   15.73    1.84
  -2   6  17    3.39    1.20
  -6  -2  17    5.65    1.29
   6   2  17    1.89    1.09
   2  -6  17    3.24    1.05
  -2   6  18   -0.20    0.81
   6   2  18   -0.95    0.93
   2  -6  18    0.41    0.79
   6   2  19    1.42    0.78
   2  -6  19    2.03    0.80
  -6  -3   0   87.61    4.02
  -6  -3   1  656.11   11.01
   3  -6   2  237.67    2.81
  -6  -3   2  271.48    7.44
  -6  -3   3   40.62    3.17
  -6  -3   4   88.23    4.80
   3  -6   4   77.87    1.88
  -6  -3   5  169.36    7.13
  -6  -3   6   51.04    4.29
  -6  -3   7  116.06    6.64
  -6  -3   8    5.46    1.82
  -6  -3   9   30.31    3.96
  -6  -3  10   18.01    3.35
  -6  -3  11    6.90    2.23
   6   3  12    5.02    1.17
  -6  -3  12    7.54    1.35
   3  -6  12    7.33    1.38
  -3   6  12    7.01    1.28
  -3   6  12    9.39    1.52
   6   3  12    5.88    1.21
  -6  -3  12    5.51    2.23
   6   3  13   98.49    4.11
  -3   6  13   98.10    4.03
   6   3  13   90.32    4.19
  -3   6  13  100.76    4.32
   3  -6  13   96.08    4.17
  -6  -3  13  100.15    4.25
   6   3  14   27.90    2.25
  -3   6  14   29.95    2.32
   3  -6  14   27.99    2.40
  -3   6  14   26.64    2.38
  -6  -3  14   26.65    2.36
   6   3  14   28.73    2.50
  -6  -3  15    0.71    0.97
   6   3  15    0.96    0.94
  -3   6  15    0.80    0.97
   6   3  15   -0.11    0.72
   3  -6  15   -0.75    0.92
   3  -6  16    1.56    0.86
  -6  -3  16    3.50    1.23
  -3   6  16    2.58    1.15
   6   3  16    1.10    0.90
  -6  -3  17    6.37    1.30
  -3   6  17    5.73    1.29
   3  -6  17    5.58    1.28
   6   3  17    5.84    1.29
   6   3  18    3.09    0.96
  -3   6  18    4.53    1.15
   3  -6  18    4.63    1.08
   3  -6  19    0.68    0.69
   6   3  19    0.46    0.70
  -6  -4   0  310.80    7.83
  -6  -4   1   37.65    2.86
  -6  -4   2  118.38    5.15
  -6  -4   3  262.23    7.86
  -6  -4   4  177.40    6.89
  -6  -4   5   16.74    2.61
  -6  -4   6   63.65    4.80
  -6  -4   7   58.52    4.88
  -6  -4   8   60.48    5.19
  -6  -4   9   22.17    3.41
  -6  -4  10    0.60    1.34
  -6  -4  11   14.46    3.08
   4  -6  12   23.13    2.08
  -6  -4  12   27.42    2.25
  -4   6  12   27.62    2.18
   6   4  12   25.29    2.23
   6   4  12   23.33    2.01
  -4   6  12   26.55    2.30
  -6  -4  12   23.25    4.16
   6   4  13    2.68    1.00
  -4   6  13    3.33    1.16
  -4   6  13    2.25    1.01
   4  -6  13   -0.45    0.78
  -6  -4  13    2.42    1.05
   6   4  13    2.00    1.05
  -4   6  14    7.72    1.28
  -6  -4  14    9.85    1.61
  -4   6  14    9.08    1.52
   4  -6  14    9.36    1.52
   6   4  14    8.23    1.51
   6   4  14    8.26    1.38
  -6  -4  15    8.01    1.46
   4  -6  15    5.64    1.20
  -4   6  15    8.47    1.55
   6   4  15    9.20    1.60
   6   4  15    9.72    1.40
  -6  -4  16    5.38    1.30
   6   4  16    5.32    1.24
  -4   6  16    3.84    1.19
   6   4  16    4.08    1.01
   4  -6  16    5.28    1.23
   4  -6  17    6.18    1.26
  -6  -4  17    7.86    1.38
  -4   6  17    6.92    1.38
   6   4  17    4.26    1.04
   6   4  18    1.34    0.94
   4  -6  18    0.49    0.80
  -4   6  18    3.08    1.07
   6   4  19    1.73    0.84
   4  -6  19    2.40    0.79
  -6  -5   0    4.57    1.53
  -6  -5   1   71.75    4.15
  -6  -5   2   83.22    4.55
  -5   6   2   79.85    3.84
  -5   6   3  514.01   10.61
  -6  -5   3  512.65   11.34
  -5   6   4   46.01    3.61
  -6  -5   4   44.18    3.63
  -6  -5   5   10.50    2.15
  -5   6   5    9.69    2.07
  -6  -5   6   28.39    3.29
  -6  -5   7    9.42    2.17
  -6  -5   8    7.75    2.16
  -6  -5   9   15.96    3.00
  -6  -5  10    0.91    1.30
  -6  -5  11    6.50    2.44
   5  -6  12    0.33    0.72
   6   5  12    1.93    0.92
  -6  -5  12    3.51    1.96
   6   5  12    0.16    0.82
  -6  -5  12    2.91    1.03
  -5   6  12    2.23    0.96
  -5   6  12    1.51    0.98
  -5   6  13    2.66    1.11
   6   5  13    0.65    0.78
   5  -6  13    1.33    0.75
  -6  -5  13    2.98    1.23
   6   5  13    2.19    0.96
  -5   6  13    1.76    0.79
  -6  -5  14    3.41    1.12
   6   5  14    0.84    0.84
   5  -6  14    2.01    0.96
  -5   6  14    4.49    1.41
   6   5  14    2.46    1.04
  -5   6  15    0.69    0.99
   6   5  15    2.39    0.97
   6   5  15    0.75    0.79
   5  -6  15    0.87    0.81
  -6  -5  15    1.82    1.02
   5  -6  16   -0.55    0.95
  -5   6  16    1.04    1.03
  -6  -5  16    0.64    0.91
   6   5  16    0.09    0.91
   6   5  16   -0.69    0.75
   6   5  17    1.10    0.99
   5  -6  17    3.78    1.09
  -5   6  17    3.68    1.24
   6   5  17    1.16    0.70
   6   5  18    1.77    0.89
   5  -6  18    2.49    0.92
   6   5  19    1.79    0.78
   5  -6  19   -0.31    0.60
  -6  -6   0  116.92    5.38
  -6   6   1   53.09    2.90
  -6  -6   1   51.34    3.73
  -6  -6   2   88.25    4.86
  -6   6   2   90.16    4.20
  -6   6   3   28.59    2.73
  -6  -6   3   25.63    2.88
  -6   6   4  302.18    9.10
  -6  -6   4  286.86    9.07
  -6   6   5   23.13    2.98
  -6  -6   5   20.31    2.83
  -6  -6   6    5.67    1.97
  -6   6   6    4.99    2.00
  -6   6   7  129.52    7.45
  -6  -6   7  131.14    7.32
  -6  -6   8   20.73    3.33
  -6  -6   9    2.89    1.77
  -6  -6  10    2.31    1.77
   6   6  11   42.26    2.71
  -6   6  11   43.79    2.76
  -6  -6  11   38.99    4.94
   6   6  11   41.94    2.65
   6  -6  11   39.77    2.71
  -6  -6  12   11.24    1.53
   6   6  12   10.56    1.55
   6  -6  12    9.06    1.50
  -6   6  12    9.86    1.38
   6   6  12    8.73    1.40
  -6   6  12    9.78    1.51
  -6  -6  12    8.05    2.46
   6  -6  13    0.94    0.83
   6   6  13    1.31    0.98
  -6   6  13    0.20    0.72
  -6   6  13    2.76    1.18
  -6  -6  13    1.86    1.02
   6   6  13    0.32    0.76
  -6   6  14    1.91    1.11
   6  -6  14    0.60    0.90
   6   6  14    1.55    0.89
  -6  -6  14    1.70    0.96
   6   6  14    1.29    0.97
   6  -6  15   21.62    2.11
  -6   6  15   22.41    2.21
   6   6  15   23.06    2.12
  -6  -6  15   26.51    2.30
   6   6  15   22.52    2.23
   6  -6  16    1.35    0.79
  -6  -6  16    3.85    1.18
   6   6  16    1.76    0.87
  -6   6  16    2.80    1.22
   6   6  16    1.14    0.90
   6  -6  17   -0.71    0.89
   6   6  17    0.04    0.90
   6   6  17    0.38    0.69
   6   6  18    1.44    0.90
   6  -6  18    3.18    0.98
   6   6  19    8.12    1.11
   6  -6  19    6.06    0.96
  -7   6   0   38.94    2.23
  -6  -7   0   36.81    3.32
  -6  -7   1    1.54    1.32
  -7   6   1    3.75    1.02
  -6  -7   2  732.50   14.03
  -7   6   2  768.64   12.52
  -7   6   3   42.91    3.37
  -6  -7   3   44.68    3.73
  -7   6   4  156.70    6.77
  -6  -7   4  148.45    6.83
  -6  -7   5    7.05    1.92
  -7   6   5    5.05    1.77
  -6  -7   6  537.66   14.07
  -7   6   6  548.08   14.41
  -7   6   7   -1.35    1.70
  -6  -7   7    0.69    1.32
  -6  -7   8   40.60    4.48
  -6  -7   9   13.74    2.88
  -6  -7  10  264.21   12.05
   6   7  11    4.57    1.11
   6   7  11    5.93    1.25
  -6  -7  11    4.87    1.91
  -7   6  11    4.14    1.01
  -7   6  11    6.92    1.36
   7  -6  11    4.67    1.13
  -7   6  12    2.10    0.97
   7  -6  12    0.59    0.81
   6   7  12    2.62    1.00
   6   7  12    1.54    0.83
  -6  -7  12    2.84    1.00
   7  -6  13    0.56    0.76
   6   7  13   -0.23    0.87
  -6  -7  13    2.13    0.86
  -7   6  13    1.30    1.05
   6   7  13    0.68    0.82
   6   7  14   25.16    2.24
  -7   6  14   25.62    2.35
   7  -6  14   27.90    2.45
   6   7  14   28.24    2.40
  -6  -7  14   29.13    2.35
  -7   6  15    3.59    1.21
   6   7  15    0.12    0.80
  -6  -7  15    2.36    1.01
   7  -6  15    0.83    0.92
   6   7  15    1.33    0.99
   7  -6  16   -0.15    0.89
   6   7  16    0.52    0.70
  -6  -7  16    2.09    0.95
   6   7  16    1.64    0.91
   6   7  17   -1.63    0.96
   6   7  17   -0.99    0.81
   7  -6  17    0.13    0.79
   7  -6  18   14.68    1.55
   6   7  18   14.64    1.57
   6   7  18   12.79    1.26
  -7   5   0  111.50    3.71
  -5  -7   1  167.30    6.39
  -7   5   1  170.12    5.22
  -7   5  -1  180.15    3.68
  -5  -7   2   67.27    4.20
  -7   5   2   71.36    3.88
  -5  -7   3   27.15    2.84
  -7   5   3   28.49    2.79
  -5  -7   4    8.03    1.87
  -7   5   4    8.64    1.92
  -7   5   5    7.94    1.92
  -5  -7   5   10.78    2.07
  -7   5   6    4.48    1.95
  -5  -7   6    7.77    2.22
  -7   5   7    0.97    1.48
  -5  -7   7    0.77    1.22
  -7   5   8    0.09    1.59
  -5  -7   8    2.50    1.74
  -7   5   9    3.72    2.07
  -5  -7   9    2.39    1.41
  -5  -7  10    5.68    2.18
   5   7  11    4.71    1.03
  -5  -7  11    4.75    1.87
   5   7  11    6.13    1.12
  -7   5  11    6.89    1.26
   7  -5  12    6.09    1.25
   5   7  12    9.75    1.47
   5   7  12    8.17    1.37
  -7   5  12    8.63    1.43
  -5  -7  12   10.98    1.50
   5   7  13    2.46    1.00
  -7   5  13    2.04    1.12
   7  -5  13    1.89    0.89
  -5  -7  13    3.44    1.13
   5   7  13    2.64    1.02
   5   7  14   -0.50    0.96
   5   7  14    1.77    0.89
   7  -5  14    0.17    0.82
  -5  -7  14    3.04    1.04
  -7   5  14    1.65    1.08
   7  -5  15    3.72    1.14
  -5  -7  15    3.25    1.09
   5   7  15    3.77    1.11
   5   7  15    2.26    0.98
  -7   5  15    5.51    1.38
   5   7  16   -0.72    0.97
   5   7  16    0.68    0.72
  -5  -7  16    1.69    0.90
  -7   5  16    2.67    1.13
   7  -5  16    1.63    1.00
   5   7  17    0.27    0.82
   7  -5  17    0.34    0.83
   5   7  17    0.76    0.74
   7  -5  18    1.05    0.81
   5   7  18    0.48    0.80
   5   7  19    0.73    0.73
   7  -5  19    0.00    0.62
  -7   4   0   45.81    2.40
  -4  -7   1  188.26    6.44
  -7   4   1  192.59    5.49
  -7   4  -1  194.56    4.09
  -4  -7   2  224.17    7.04
  -7   4  -2  210.56    3.12
  -4  -7   3   70.14    4.16
  -7   4   3   70.89    4.12
  -4  -7   4  102.95    5.17
  -7   4   4  112.51    5.65
  -7   4   5   29.23    3.29
  -4  -7   5   26.67    2.87
  -4  -7   6  174.90    7.45
  -7   4   6  169.86    7.92
  -7   4   7   51.38    4.78
  -4  -7   7   51.42    4.30
  -7   4   8    4.39    2.10
  -4  -7   8    4.27    1.50
  -7   4   9    0.95    1.63
  -4  -7   9   -0.43    0.98
  -4  -7  10    7.71    2.18
  -7   4  10    8.77    2.50
  -4  -7  11    3.66    1.80
   4   7  11    5.15    1.01
  -7   4  11    5.43    1.16
  -7   4  12    1.60    0.99
   4   7  12    2.08    1.00
   7  -4  12    1.27    0.81
  -4  -7  12   -0.16    0.85
   4   7  12    0.53    0.80
  -7   4  13   11.93    1.72
   7  -4  13   12.49    1.69
   4   7  13   11.48    1.64
  -4  -7  13   14.03    1.69
   4   7  13   12.13    1.62
   7  -4  14    3.70    1.15
  -7   4  14    4.54    1.37
  -4  -7  14    3.90    1.13
   4   7  14    2.72    1.01
   4   7  14    2.27    0.86
   7  -4  15    2.30    1.03
  -4  -7  15    4.18    1.16
  -7   4  15    2.95    1.16
   4   7  15    0.63    0.87
   4   7  15    1.91    0.89
   7  -4  16    2.07    1.02
  -4  -7  16    4.06    1.12
  -7   4  16    3.46    1.24
   4   7  16    2.17    0.88
   4   7  16    1.68    0.88
   7  -4  17   -0.70    0.91
  -4  -7  17    2.30    0.95
   4   7  17    0.17    0.88
   4   7  17    2.91    0.86
   7  -4  18    2.86    0.96
   4   7  18    4.36    1.07
   7  -4  19   -0.01    0.63
   4   7  19   -0.04    0.62
  -7   3   0  162.27    4.52
  -3  -7   1    2.56    1.26
  -7   3  -1    1.22    0.54
  -7   3   1    1.58    1.00
  -3  -7   2   51.81    3.36
  -7   3   2   53.35    3.30
  -7   3  -2   51.69    1.96
  -7   3   3    4.21    1.30
  -3  -7   3    4.34    1.37
  -7   3  -3    5.55    0.68
  -7   3   4 1366.06   19.07
  -3  -7   4 1377.95   17.63
  -7   3   5    3.80    1.67
  -3  -7   5    7.07    1.68
  -7   3   6  297.76   10.36
  -3  -7   6  294.33    9.27
  -3  -7   7   10.27    1.98
  -7   3   7    9.81    2.36
  -7   3   8  378.56   13.16
  -3  -7   8  399.05   11.98
  -3  -7   9    0.64    1.07
  -7   3   9    1.05    1.77
  -3  -7  10   14.92    2.78
  -7   3  10   13.83    3.14
  -7   3  11    1.57    0.95
  -3  -7  12  151.71    4.96
   3   7  12  159.71    5.21
   7  -3  12  152.97    5.34
   3   7  12  152.82    5.03
  -7   3  12  142.94    5.02
   7  -3  13    0.22    0.82
   3   7  13    1.64    0.90
  -3  -7  13   -0.28    0.82
  -7   3  13    1.42    1.19
   3   7  13   -1.21    1.00
   3   7  14    2.11    0.99
   7  -3  14    3.96    1.16
  -7   3  14    3.63    1.27
  -3  -7  14    3.57    1.04
   3   7  14    4.02    1.04
   3   7  15    1.50    1.03
   3   7  15    1.66    0.85
  -7   3  15    2.16    1.21
  -3  -7  15    3.16    1.04
   7  -3  15    1.33    0.85
   3   7  16   22.48    2.00
  -3  -7  16   23.84    2.11
   7  -3  16   21.64    2.16
   3   7  16   19.78    2.02
  -7   3  16   21.98    2.21
  -3  -7  17    3.05    1.01
   3   7  17    1.81    0.82
   7  -3  17    1.08    0.86
   3   7  17    2.54    1.06
   7  -3  18    1.29    0.88
   3   7  18    0.38    0.81
  -3  -7  18    1.63    0.87
   3   7  19    0.05    0.66
   7  -3  19    0.66    0.71
  -7   2   0   35.06    2.19
  -7   2  -1  306.62    5.76
  -7   2   1  308.32    7.07
  -7   2  -2  409.15    6.33
  -2  -7   2  377.53    8.17
  -7   2   2  397.38    8.72
  -7   2  -3   54.95    2.37
  -7   2   3   54.78    3.67
  -2  -7   3   52.85    3.26
  -7   2   4   60.66    4.20
  -2  -7   4   63.64    3.69
  -2  -7   5  154.08    5.95
  -7   2   5  144.84    6.75
  -7   2   6  138.96    7.04
  -2  -7   6  138.41    6.03
  -2  -7   7   23.18    2.71
  -7   2   7   21.18    3.05
  -2  -7   8   11.67    2.15
  -7   2   8   11.86    2.85
  -7   2   9   23.09    3.65
  -2  -7   9   22.98    3.01
  -7   2  10   35.07    4.61
  -7   2  11    2.34    1.75
   7  -2  12   18.29    1.97
   2   7  12   16.98    1.77
   2   7  12   18.25    1.92
  -2  -7  12   17.76    1.80
  -7   2  12   19.04    2.04
   2   7  13   90.96    4.10
   2   7  13   94.91    4.07
  -2  -7  13  100.82    4.22
  -7   2  13   88.26    4.10
   7  -2  13   91.10    4.25
  -2  -7  14   11.91    1.59
   2   7  14    8.81    1.41
   7  -2  14    9.91    1.62
   2   7  14    8.02    1.44
  -7   2  14    9.66    1.62
  -2  -7  15    2.59    1.05
   7  -2  15    1.30    1.01
  -7   2  15    3.78    1.25
   2   7  15    1.38    0.81
   2   7  15    1.41    0.98
   7  -2  16    0.82    0.97
   2   7  16   -0.07    0.95
  -7   2  16    0.82    1.13
  -2  -7  16    0.70    0.86
   2   7  16    0.78    0.82
   2   7  17    6.67    1.18
   2   7  17    8.02    1.43
   7  -2  17    5.83    1.30
  -2  -7  17    7.89    1.37
  -2  -7  18    9.65    1.33
   2   7  18    9.20    1.39
   7  -2  18    7.63    1.30
   2   7  19    1.49    0.81
   7  -2  19    0.75    0.71
  -7   1   0  316.57    6.63
  -7   1   1  146.07    4.90
  -7   1  -1  146.99    4.35
  -1  -7   2   40.65    2.60
  -7   1  -2   40.75    2.27
  -7   1   2   41.10    2.97
  -1  -7   3  257.11    6.47
  -7   1   3  257.80    7.67
  -7   1  -3  253.15    5.60
  -1  -7   4   44.21    2.87
  -7   1   4   41.74    3.50
  -1  -7   5   45.00    3.11
  -7   1   5   38.92    3.70
  -7   1   6    7.98    2.14
  -1  -7   6    8.96    1.54
  -1  -7   7   66.85    4.24
  -7   1   7   61.13    5.03
  -1  -7   8   46.21    3.84
  -7   1   8   45.18    4.60
  -7   1   9    7.51    2.49
  -1  -7   9    7.47    1.76
  -7   1  10   11.86    3.01
  -7   1  11    7.42    2.57
  -1  -7  12    4.87    1.08
   7  -1  12    5.40    1.19
  -7   1  12    6.18    1.31
   1   7  12    6.28    1.16
   1   7  12    6.42    1.23
   7  -1  13    0.23    0.80
  -7   1  13    2.21    1.19
   1   7  13    1.29    0.94
   1   7  13    1.22    0.91
  -1  -7  13   -0.50    1.01
  -7   1  14    1.17    1.18
   1   7  14   -1.43    1.06
   7  -1  14    0.16    0.85
   1   7  14   -0.79    0.91
  -1  -7  14    0.65    0.74
  -7   1  15   18.87    2.09
  -1  -7  15   22.57    2.12
   1   7  15   20.73    2.00
   1   7  15   17.75    1.96
   7  -1  15   20.48    2.09
   7  -1  16   -0.19    0.90
  -1  -7  16    0.80    0.89
   1   7  16   -0.68    0.82
   1   7  16    0.23    0.85
  -7   1  16    1.84    1.08
  -1  -7  17    3.14    1.00
   1   7  17    0.78    0.74
   7  -1  17    0.62    0.89
   1   7  17    2.33    1.04
  -1  -7  18    3.37    0.95
   1   7  18    2.09    0.99
   7  -1  18    0.49    0.79
   1   7  19    1.06    0.77
   7  -1  19    1.58    0.77
  -7   0   0   38.97    2.54
  -7   0  -1  148.24    4.61
  -7   0   1  142.82    4.99
   0  -7   2   28.13    2.02
  -7   0  -2   29.69    2.14
  -7   0   2   31.59    2.63
  -7   0   3  292.02    8.20
   0  -7   3  302.20    6.40
   0  -7   4   32.60    2.29
  -7   0   4   28.56    2.96
   0  -7   5   32.50    2.47
  -7   0   5   29.39    3.14
   0  -7   6   42.69    3.03
  -7   0   6   34.40    3.57
  -7   0   7   47.30    4.48
   0  -7   7   51.44    3.58
  -7   0   8   60.84    5.38
   0  -7   8   67.13    4.38
  -7   0   9   14.58    3.05
  -7   0  10  201.83   10.69
  -7   0  11   11.84    3.05
   7   0  12   49.86    3.11
  -7   0  12   47.24    2.96
   0   7  12   46.42    2.81
   0  -7  12   47.43    2.84
  -7   0  12   50.20    5.90
   0   7  12   46.90    2.87
   0   7  13   -0.68    0.96
   0  -7  13   -1.02    0.98
   7   0  13    0.09    0.78
   0   7  13   -1.44    0.95
  -7   0  14   31.85    2.58
   0   7  14   26.42    2.30
   0   7  14   29.96    2.40
   0  -7  14   27.52    2.31
   7   0  14   26.55    2.43
  -7   0  15    5.78    1.36
   7   0  15    3.43    1.12
   0   7  15    3.24    1.08
   0   7  15    4.70    1.11
   0  -7  15    4.45    1.11
   0   7  16    1.76    1.04
   0   7  16   -0.77    0.75
   7   0  16    0.57    0.81
   0  -7  16    0.79    0.85
  -7   0  16    1.78    1.05
   7   0  17   -0.65    1.10
   0   7  17   -0.46    0.84
   0  -7  18    6.92    1.15
   0   7  18    4.73    1.15
   7   0  18    4.42    1.08
   0  -7  19    1.54    0.68
   7   0  19    0.50    0.68
   0   7  19    1.06    0.78
  -7  -1   0  320.19    7.34
  -7  -1  -1  144.12    4.88
  -7  -1   1  142.58    5.12
  -7  -1  -2   40.02    2.64
   1  -7   2   38.27    2.12
  -7  -1   2   37.97    2.89
  -7  -1   3  240.25    7.45
   1  -7   3  254.04    5.27
   1  -7   4   45.45    2.46
  -7  -1   4   42.26    3.54
  -7  -1   5   44.16    3.85
   1  -7   5   45.98    2.66
   1  -7   6    8.68    1.36
  -7  -1   6    7.27    2.02
  -7  -1   7   58.08    4.93
   1  -7   7   76.10    4.02
  -7  -1   8   40.54    4.35
  -7  -1   9    8.54    2.39
  -7  -1  10   13.17    3.16
  -7  -1  11    8.76    2.81
  -7  -1  12   11.53    3.19
   1  -7  12    7.93    1.28
   7   1  12    6.10    1.25
  -1   7  12    6.35    1.26
  -7  -1  12    7.68    1.43
  -1   7  12    6.15    1.22
   1  -7  13   -0.69    1.05
  -1   7  13    0.71    0.77
   7   1  13   -0.87    0.92
   7   1  13   -0.38    0.72
  -1   7  13   -0.95    1.03
   1  -7  14   -0.14    0.93
  -1   7  14   -0.29    0.67
  -1   7  14   -1.09    1.07
  -7  -1  14    2.11    1.18
   7   1  14    1.17    1.09
   1  -7  15   19.27    1.99
  -7  -1  15   18.79    2.10
  -1   7  15   20.42    1.95
  -1   7  15   19.59    2.09
   7   1  15   16.71    1.99
   7   1  16   -0.36    0.83
  -1   7  16    0.94    0.94
  -1   7  16    1.80    0.79
  -7  -1  16    1.33    1.06
   1  -7  16    0.95    0.81
   7   1  17    2.17    1.02
   1  -7  17    2.84    1.00
  -1   7  17    1.95    1.05
   1  -7  18    1.32    0.84
  -1   7  18    2.13    1.02
   7   1  18    0.59    0.88
   7   1  19    2.21    0.89
  -1   7  19    1.53    0.82
   1  -7  19    4.25    0.87
  -7  -2   0   36.10    2.71
  -7  -2  -1  306.70    7.41
  -7  -2   1  311.33    7.87
   2  -7   2  389.73    5.70
  -7  -2   2  389.25    9.09
   2  -7   3   56.31    2.12
  -7  -2   3   50.56    3.63
   2  -7   4   64.95    2.46
  -7  -2   4   60.74    4.29
   2  -7   5  160.70    4.27
  -7  -2   5  139.82    6.70
  -7  -2   6  137.36    7.01
   2  -7   6  144.59    4.57
  -7  -2   7   21.65    3.11
  -7  -2   8   12.98    2.81
  -7  -2   9   21.85    3.54
  -7  -2  10   28.51    4.14
  -7  -2  11    2.30    1.70
  -2   7  12   20.02    1.97
  -7  -2  12   19.20    1.99
   7   2  12   15.71    1.84
   2  -7  12   19.41    1.90
  -2   7  12   16.90    1.90
  -7  -2  13   98.50    4.27
   2  -7  13  100.26    4.22
   7   2  13   98.75    4.12
   7   2  13   94.20    4.33
  -7  -2  13   97.70    8.36
  -2   7  13   94.35    4.00
  -2   7  13   96.77    4.23
  -2   7  14   11.88    1.61
   7   2  14   10.64    1.55
   7   2  14   10.52    1.64
   2  -7  14    9.81    1.55
  -2   7  14   10.86    1.64
  -7  -2  14    9.98    1.61
  -2   7  15    2.39    0.92
  -7  -2  15    2.35    1.12
  -2   7  15    2.73    1.27
   7   2  15    2.22    1.09
   2  -7  15    1.37    0.91
   2  -7  16    0.17    0.80
  -2   7  16    0.28    0.70
  -2   7  16    0.70    0.88
  -7  -2  16    0.42    1.02
   7   2  16    0.93    0.93
   7   2  17    7.32    1.35
   2  -7  17    8.22    1.39
  -2   7  17    9.42    1.55
   2  -7  18    8.78    1.27
   7   2  18    7.41    1.32
  -2   7  18    6.90    1.28
   7   2  19    0.59    0.68
   2  -7  19    1.64    0.71
  -7  -3   0  157.73    5.71
  -7  -3  -1    2.75    1.27
  -7  -3   1    1.56    1.18
  -7  -3   2   53.96    3.66
   3  -7   2   51.71    1.70
   3  -7   3    4.19    0.42
  -7  -3   3    6.44    1.65
   3  -7   4 1114.12    6.91
  -7  -3   4 1383.09   19.40
  -7  -3   5    7.89    2.23
  -7  -3   6  282.06   10.08
  -7  -3   7    8.25    2.15
  -7  -3   8  375.99   12.96
  -7  -3   9    1.47    1.72
  -7  -3  10   12.72    2.76
  -7  -3  11    1.85    1.21
  -7  -3  12  152.53    5.10
  -7  -3  12  153.10   10.07
   3  -7  12  154.33    5.11
   7   3  12  143.96    5.17
  -3   7  12  148.36    5.06
  -3   7  12  153.71    4.98
   3  -7  13    1.01    0.89
   7   3  13    0.38    0.77
  -3   7  13    0.98    0.96
  -7  -3  13    1.33    2.39
  -3   7  13    2.77    0.95
  -7  -3  13    1.17    1.07
   7   3  13    2.05    1.10
   7   3  14    3.70    1.22
  -3   7  14    5.61    1.38
   7   3  14    2.88    0.99
  -7  -3  14    4.84    1.30
  -3   7  14    5.92    1.28
   3  -7  14    4.39    1.30
  -3   7  15   -0.32    0.75
   7   3  15    0.47    0.82
   7   3  15    1.91    0.83
  -3   7  15    2.20    1.09
   3  -7  15    0.50    0.80
   7   3  16   19.13    2.04
  -3   7  16   18.99    2.01
   3  -7  16   21.82    2.04
  -7  -3  16   21.28    2.08
   7   3  17    0.42    0.90
   3  -7  17    3.14    1.04
  -3   7  17    3.65    1.26
  -3   7  18    2.22    1.07
   7   3  18    1.07    0.89
   3  -7  18    1.44    0.80
   7   3  19    1.30    0.76
   3  -7  19    0.21    0.57
  -7  -4   0   40.77    3.16
  -7  -4  -1  199.09    6.63
  -7  -4   1  183.70    6.48
  -7  -4   2  239.66    7.64
  -7  -4   3   68.87    4.36
  -7  -4   4  106.91    5.61
  -7  -4   5   27.87    3.24
  -7  -4   6  167.08    7.86
  -7  -4   7   52.90    4.76
  -7  -4   8    2.53    1.62
  -7  -4   9   -1.31    1.59
  -7  -4  10    7.70    2.36
   7   4  11    4.25    1.01
  -7  -4  11    9.39    3.04
  -7  -4  12    1.68    0.99
   4  -7  12    0.61    0.85
  -4   7  12    0.81    0.81
  -4   7  12    1.71    1.01
   7   4  12    0.26    0.83
  -4   7  13   13.97    1.69
  -4   7  13   11.73    1.68
   7   4  13   10.32    1.47
   7   4  13   11.20    1.58
  -7  -4  13   14.33    1.78
   4  -7  13   11.07    1.61
  -7  -4  13   12.28    2.89
   4  -7  14    3.38    1.02
  -4   7  14    3.94    1.20
  -7  -4  14    3.54    1.12
  -4   7  14    2.70    0.99
   7   4  14    3.27    1.09
   7   4  14    3.81    1.03
   7   4  15    2.13    1.10
   4  -7  15    0.70    0.88
  -4   7  15    1.80    0.84
   7   4  15    1.61    0.93
  -4   7  15    3.62    1.26
  -7  -4  15    4.73    1.28
   7   4  16   -0.30    0.93
  -4   7  16    2.65    1.05
   4  -7  16    1.73    0.94
   7   4  16    1.64    0.78
   7   4  17   -1.18    1.05
   4  -7  17   -0.42    0.84
   7   4  18    2.69    0.91
   4  -7  18    4.53    1.03
   4  -7  19    0.88    0.61
   7   4  19    0.66    0.68
  -7  -5   0  115.85    5.35
  -7  -5   1  156.95    6.28
  -7  -5   2   68.42    4.34
  -7  -5   3   24.82    2.80
  -7  -5   4    7.40    1.93
  -7  -5   5   11.40    2.34
  -7  -5   6    4.34    1.97
  -7  -5   7    1.42    1.62
  -7  -5   8    0.07    1.35
  -7  -5   9   -0.30    1.64
  -7  -5  10    7.12    2.35
  -5   7  11    4.96    1.11
   7   5  11    5.87    1.21
  -5   7  12    7.07    1.28
   7   5  12    9.59    1.45
  -7  -5  12   11.00    2.96
  -5   7  12    9.33    1.55
   5  -7  12    7.88    1.34
   7   5  12    9.14    1.41
  -7  -5  12    9.91    1.46
  -5   7  13    2.51    1.16
   5  -7  13    1.64    0.78
   7   5  13    0.45    0.74
  -5   7  13    2.07    0.95
  -7  -5  13    2.85    1.21
   7   5  13    2.40    0.93
   7   5  14    1.00    0.89
   7   5  14    0.93    0.98
  -7  -5  14    0.25    0.91
   5  -7  14    3.61    1.21
  -5   7  14    1.13    0.82
  -5   7  14    2.55    1.23
   5  -7  15    2.65    0.97
   7   5  15    2.83    1.18
  -5   7  15    3.32    0.99
  -5   7  15    2.96    1.23
   7   5  15    3.55    1.06
  -7  -5  15    5.08    1.32
   5  -7  16    0.84    0.77
   7   5  16    1.90    0.84
  -5   7  16    1.49    1.06
   7   5  16    0.69    0.81
  -7  -5  16    2.07    1.05
  -5   7  17    1.07    1.04
   7   5  17   -0.34    0.69
   7   5  17   -1.32    0.96
   5  -7  17   -0.99    0.84
   7   5  18   -0.46    0.79
   5  -7  18    0.82    0.79
   7   5  19    1.71    0.80
   5  -7  19    2.86    0.75
  -7  -6   0   38.33    3.43
  -7  -6   1    2.57    1.45
  -7  -6   2  741.36   14.38
  -7  -6   3   41.78    3.67
  -7  -6   4  155.10    7.04
  -7  -6   5    6.94    1.97
  -7  -6   6  536.29   14.38
  -7  -6   7    0.79    1.31
  -7  -6   8   43.27    4.73
  -7  -6   9   13.46    2.87
  -7  -6  10  251.87   12.01
   7   6  11    4.23    1.11
   6  -7  11    5.68    1.23
  -6   7  11    5.36    1.16
  -6   7  11    3.93    1.17
  -7  -6  11    2.87    1.74
   7   6  12   -0.22    0.85
   6  -7  12    2.25    0.91
  -7  -6  12    3.21    1.99
  -6   7  12    3.70    1.03
   7   6  12    3.19    1.01
  -6   7  12    3.87    1.23
  -7  -6  12    2.90    1.12
  -6   7  13   -0.38    0.69
  -6   7  13    1.03    0.98
   7   6  13    1.00    0.85
   6  -7  13   -0.27    0.75
  -7  -6  13    0.64    0.86
   7   6  13    0.16    0.70
  -6   7  14   26.10    2.22
   7   6  14   25.83    2.36
  -7  -6  14   25.98    2.26
   7   6  14   27.60    2.33
   6  -7  14   26.63    2.36
  -6   7  14   23.40    2.27
   7   6  15    2.09    0.97
   7   6  15    0.63    0.92
  -7  -6  15    1.94    1.01
  -6   7  15    2.36    1.18
   6  -7  15    1.88    0.80
   7   6  16    0.00    0.85
  -6   7  16    2.18    1.13
   6  -7  16   -0.44    0.91
   7   6  16    1.99    0.92
   7   6  17    0.00    0.86
   7   6  17    1.21    0.72
   6  -7  17   -0.30    0.80
   6  -7  18   17.01    1.59
   7   6  18   15.19    1.59
  -7  -7   0  362.11   10.22
  -7  -7   1   31.53    3.24
  -7  -7   2   69.31    4.73
  -7   7   2   75.33    4.05
  -7  -7   3  110.89    5.95
  -7   7   3  113.63    5.45
  -7   7   4   17.64    2.51
  -7  -7   4   16.68    2.59
  -7   7   5   12.97    2.35
  -7  -7   5   11.73    2.25
  -7  -7   6   37.62    4.12
  -7  -7   7  238.06   10.22
  -7  -7   8   48.86    5.05
  -7  -7   9    8.18    2.43
  -7  -7  10   -0.38    1.42
  -7   7  11   37.62    2.51
  -7   7  11   38.23    2.64
   7  -7  11   39.67    2.71
   7   7  11   40.06    2.64
  -7  -7  11   45.51    5.53
   7   7  11   41.47    2.69
   7  -7  12    7.99    1.39
  -7   7  12    5.97    1.35
  -7  -7  12    3.52    1.84
   7   7  12    5.68    1.24
  -7   7  12    8.17    1.31
   7   7  12    7.81    1.38
  -7  -7  12    9.43    1.49
   7   7  13   -0.58    0.82
   7  -7  13    0.44    0.75
  -7   7  13    1.94    0.87
   7   7  13    0.16    0.75
  -7   7  13    1.30    1.00
  -7  -7  13    1.46    0.93
   7  -7  14    2.55    1.06
  -7   7  14    2.47    0.95
  -7  -7  14    2.58    1.11
  -7   7  14    2.71    1.27
   7   7  14    2.18    1.07
   7   7  14    2.93    1.12
  -7   7  15   17.36    2.00
   7   7  15   16.94    1.88
   7  -7  15   16.43    1.90
  -7  -7  15   23.46    2.08
   7   7  15   18.85    1.95
   7   7  16   -1.33    0.96
   7   7  16    0.22    0.71
   7  -7  16   -1.10    0.97
   7   7  17   -1.63    0.79
   7  -7  17   -0.48    0.82
   7   7  17    0.30    0.77
   7   7  18    1.02    0.57
   7   7  18    2.76    0.90
   7  -7  18    2.75    0.87
  -7  -8   0    2.10    1.43
  -8   7   1   27.97    2.36
  -7  -8   1   23.03    2.98
  -8   7   2    6.58    1.46
  -7  -8   2    5.41    1.92
  -8   7   3   25.04    2.75
  -7  -8   3   26.19    3.14
  -7  -8   4    6.75    1.92
  -8   7   4    6.60    1.73
  -7  -8   5   20.46    2.99
  -8   7   5   21.42    2.99
  -7  -8   6   42.18    4.30
  -8   7   6   44.03    4.38
  -7  -8   7    5.19    1.84
  -7  -8   8    1.95    1.30
  -7  -8   9   12.18    2.86
  -7  -8  10   -0.16    1.54
  -8   7  11    3.56    0.96
   7   8  11    4.27    1.10
  -7  -8  11    1.23    1.46
   7   8  11    1.08    0.79
  -8   7  11    1.95    0.94
   7   8  12    4.74    1.18
  -8   7  12    5.45    1.36
   8  -7  12    3.51    0.98
  -8   7  12    7.46    1.38
   7   8  12    5.82    1.25
   8  -7  13   11.73    1.64
  -8   7  13   13.10    1.75
   7   8  13   14.34    1.78
  -8   7  13   14.11    1.68
   7   8  13   12.08    1.63
   8  -7  14    0.63    0.90
   7   8  14    0.39    0.84
   7   8  14    1.92    1.00
   8  -7  15    1.59    0.97
   7   8  15    1.31    0.83
   7   8  15    1.53    0.92
   7   8  16    1.38    0.74
   8  -7  16    0.21    0.87
   7   8  16    1.07    0.90
   7   8  17   -0.72    0.76
   8  -7  17   -1.44    0.98
   7   8  17   -0.08    0.79
   7   8  18    0.58    0.66
   8  -7  18    2.51    0.80
   7   8  18    2.34    0.85
  -6  -8   0   51.22    4.00
  -8   6   0   54.60    2.76
  -8   6   1    0.87    0.83
  -6  -8   1    1.02    1.34
  -6  -8   2   68.14    4.61
  -8   6   2   71.71    4.08
  -6  -8   3    9.87    1.99
  -8   6   3    6.57    1.51
  -8   6   4  137.37    6.53
  -6  -8   4  126.72    6.43
  -8   6   5   11.54    2.29
  -6  -8   5    9.78    2.12
  -6  -8   6    8.41    2.20
  -8   6   6    9.75    2.46
  -8   6   7    5.32    2.00
  -6  -8   7    7.03    1.93
  -6  -8   8    2.87    1.72
  -8   6   8    1.77    1.43
  -6  -8   9    5.46    1.87
  -6  -8  10    3.98    1.85
  -8   6  11    1.15    0.84
   6   8  11    1.91    0.84
   6   8  11    0.23    0.74
  -8   6  11    3.24    1.19
  -8   6  12    3.89    1.27
  -8   6  12    3.09    0.99
   6   8  12    2.10    0.94
   8  -6  12    2.42    0.90
   6   8  12    2.38    1.01
   6   8  13    0.30    0.79
  -8   6  13    1.35    1.07
   8  -6  13    0.16    0.85
   6   8  13    2.97    1.06
   8  -6  14   -0.62    0.77
   6   8  14    0.00    0.84
   6   8  14    0.93    0.86
   8  -6  15    0.86    0.86
  -6  -8  15    2.25    0.96
   6   8  15    0.80    0.96
   6   8  15   -0.11    0.95
   6   8  16    1.11    0.76
   8  -6  16    2.24    1.00
   6   8  16    2.51    1.00
   6   8  17    0.59    0.78
   6   8  17   -0.03    0.80
   8  -6  17   -1.12    0.94
   6   8  18    0.49    0.77
   6   8  18    0.65    0.60
   8  -6  18   -0.85    0.78
  -8   5   0   23.20    1.86
  -8   5   1    1.34    0.93
  -5  -8   1    2.25    1.48
  -8   5  -1    1.12    0.56
  -8   5   2   48.26    3.32
  -5  -8   2   49.88    3.73
  -8   5   3   46.09    3.52
  -5  -8   3   46.05    3.75
  -8   5   4  112.15    5.88
  -5  -8   4  101.76    5.54
  -5  -8   5    9.44    2.00
  -8   5   5    9.50    2.10
  -5  -8   6  422.31   12.28
  -8   5   6  436.95   13.09
  -5  -8   7   13.91    2.50
  -8   5   7   15.05    2.85
  -5  -8   8    6.42    2.14
  -8   5   8    3.54    1.94
  -5  -8   9   30.98    3.89
  -8   5   9   26.55    4.17
  -5  -8  10    0.40    1.03
   5   8  11    0.50    0.78
   5   8  11    0.92    0.76
  -8   5  11    1.90    1.03
   5   8  12    3.74    1.01
  -8   5  12    5.43    1.35
   8  -5  12    3.68    1.13
   5   8  12    3.50    0.95
  -8   5  13    6.13    1.48
   5   8  13    4.94    1.15
   5   8  13    5.88    1.29
   8  -5  13    4.58    1.24
   5   8  14    4.86    1.18
  -5  -8  14    5.98    1.20
   8  -5  14    4.75    1.16
  -8   5  14    6.38    1.47
   5   8  14    4.47    1.08
   8  -5  15    0.42    0.88
  -5  -8  15    2.77    1.07
   5   8  15    0.56    0.85
   5   8  15    0.06    0.77
  -8   5  15    3.03    1.23
   8  -5  16    0.68    0.83
   5   8  16   -0.52    0.84
  -5  -8  16    0.69    0.79
   5   8  16   -0.08    0.81
   5   8  17    2.45    0.98
   5   8  17    2.49    0.88
   8  -5  17    1.89    0.88
   8  -5  18    1.69    0.85
   5   8  18    0.14    0.57
   5   8  18    2.95    0.95
  -8   4   0  385.19    7.37
  -8   4  -1   30.76    1.89
  -8   4   1   29.46    2.36
  -4  -8   1   29.52    2.83
  -8   4   2  130.70    5.29
  -4  -8   2  128.48    5.67
  -8   4  -2  128.06    3.03
  -8   4  -3    0.44    0.19
  -4  -8   3    0.27    1.19
  -8   4   3    0.90    1.10
  -4  -8   4   10.54    1.99
  -8   4   4    9.52    2.00
  -4  -8   5   11.16    2.08
  -8   4   5   10.79    2.18
  -4  -8   6   29.11    3.26
  -8   4   6   29.71    3.64
  -4  -8   7   25.84    3.21
  -8   4   7   23.03    3.46
  -8   4   8   89.94    6.71
  -4  -8   8   96.38    6.28
  -4  -8   9    3.41    1.66
  -8   4   9    2.18    1.76
  -4  -8  10   43.75    4.70
  -8   4  10   36.61    4.84
   4   8  11   10.93    1.46
  -8   4  11   13.29    1.67
   4   8  11   11.51    1.53
  -8   4  12   36.08    2.70
   4   8  12   38.51    2.66
   4   8  12   40.52    2.69
   8  -4  12   37.67    2.77
   4   8  13    5.57    1.20
   8  -4  13    6.47    1.37
   4   8  13    7.83    1.37
  -8   4  13    9.42    1.65
   4   8  14    0.06    0.95
   4   8  14    0.10    0.72
  -4  -8  14    1.03    0.92
  -8   4  14    0.94    1.04
   8  -4  14    0.74    0.85
   4   8  15    0.73    0.86
  -4  -8  15    2.64    0.97
   8  -4  15    0.78    0.79
   4   8  15    1.08    0.91
   4   8  16    2.80    0.99
  -4  -8  16    3.87    1.08
   8  -4  16    1.25    0.83
   4   8  16    1.31    0.86
   4   8  17    0.91    0.77
   4   8  17    1.69    0.92
   4   8  18    0.20    0.61
   4   8  18    1.00    0.82
   8  -4  18    0.12    0.74
  -8   3   0   43.26    2.61
  -8   3   1  172.28    5.61
  -8   3  -1  172.98    4.54
  -3  -8   1  173.59    6.21
  -3  -8   2   41.95    3.19
  -8   3   2   42.17    3.10
  -8   3  -2   41.37    2.02
  -8   3   3  281.26    8.40
  -3  -8   3  268.93    7.93
  -8   3  -3  278.73    4.77
  -3  -8   4    2.86    1.45
  -8   3  -4    1.31    0.50
  -8   3   4    2.01    1.37
  -8   3   5   -0.15    1.33
  -3  -8   5   -0.76    1.18
  -8   3   6   59.14    4.89
  -3  -8   6   64.38    4.47
  -8   3   7   47.35    4.60
  -3  -8   7   45.88    4.00
  -3  -8   8    9.84    2.03
  -8   3   8   10.76    2.56
  -3  -8   9   19.36    2.85
  -8   3   9   19.91    3.55
  -8   3  10    8.83    2.74
   3   8  11   24.52    2.04
  -8   3  11   25.04    2.17
  -8   3  11   25.33    4.26
   3   8  12   10.88    1.50
   3   8  12   14.05    1.71
  -8   3  12   10.76    1.66
   8  -3  12   10.61    1.55
   3   8  13    1.56    0.98
   8  -3  13    0.17    0.84
   3   8  13   -0.24    0.91
  -8   3  13    0.78    1.01
  -3  -8  13    0.35    0.84
  -3  -8  14    2.12    0.88
   8  -3  14    0.01    0.89
   3   8  14   -1.45    0.87
   3   8  14   -0.51    0.90
  -8   3  14    1.48    1.07
   3   8  15    3.18    1.01
   8  -3  15    3.22    1.13
  -8   3  15    5.19    1.38
  -3  -8  15    5.74    1.24
   3   8  15    4.47    1.20
   3   8  16   -0.23    0.80
   8  -3  16    0.13    0.96
  -3  -8  16    0.87    0.78
   3   8  16   -0.31    0.72
  -3  -8  17    0.54    0.82
   3   8  17    0.27    0.80
   3   8  17   -0.42    0.70
   8  -3  17   -1.17    1.02
   8  -3  18    1.81    0.82
   3   8  18    1.57    0.86
   3   8  19    1.81    0.75
   8  -3  19    1.70    0.79
  -8   2   0    2.89    0.84
  -8   2   1  180.82    5.74
  -8   2  -1  172.35    4.78
  -8   2   2   17.84    2.13
  -8   2  -2   17.85    1.55
  -2  -8   2   17.75    2.05
  -8   2   3  115.59    5.41
  -2  -8   3  113.79    4.92
  -8   2  -3  121.21    3.71
  -8   2  -4  146.50    4.23
  -2  -8   4  146.68    5.66
  -8   2   4  143.74    6.57
  -2  -8   5   20.99    2.36
  -8   2   5   20.78    2.92
  -8   2   6   44.87    4.24
  -2  -8   6   42.57    3.47
  -8   2   7   68.36    5.54
  -2  -8   7   75.74    4.83
  -2  -8   8   12.17    2.11
  -8   2   8    9.79    2.54
  -2  -8   9   44.54    4.23
  -8   2   9   38.50    4.67
  -8   2  10    3.73    2.00
  -8   2  11    0.99    1.88
  -8   2  11    4.28    1.22
   2   8  11    1.75    0.70
   2   8  12    1.01    0.86
  -8   2  12    0.17    0.90
   2   8  12   -0.03    0.80
   8  -2  12   -0.39    0.89
   2   8  13    3.20    1.12
   2   8  13   -0.19    0.91
   8  -2  13    0.16    0.87
  -2  -8  13    1.07    0.78
  -8   2  13    1.58    1.02
   2   8  14    0.47    0.77
   8  -2  14    1.76    0.97
  -8   2  14    2.32    1.20
   2   8  14    0.30    0.84
  -2  -8  14    0.51    0.84
   8  -2  15    7.62    1.49
  -2  -8  15    9.72    1.45
   2   8  15    8.12    1.40
  -8   2  15    8.61    1.60
   2   8  15    8.17    1.47
   2   8  16    2.70    1.01
   8  -2  16    3.29    1.16
  -2  -8  16    6.83    1.25
   2   8  16    4.66    1.24
  -2  -8  17    0.12    0.74
   8  -2  17   -1.52    1.14
   2   8  17    0.68    0.67
   2   8  17    0.55    0.89
   2   8  18    0.34    0.74
   8  -2  18   -0.29    0.76
   2   8  19    1.70    0.74
   8  -2  19    1.28    0.75
  -8   1   0   17.69    1.83
  -8   1  -1   73.74    3.37
  -8   1   1   67.17    3.61
  -8   1   2  160.85    5.96
  -1  -8   2  148.34    5.17
  -8   1  -2  157.22    4.70
  -1  -8   3  188.38    5.88
  -8   1  -3  197.31    5.29
  -8   1   3  194.31    6.99
  -8   1   4   36.75    3.42
  -1  -8   4   37.49    2.75
  -1  -8   5    9.61    1.58
  -8   1   5    7.86    2.07
  -1  -8   6   33.97    2.95
  -8   1   6   28.36    3.48
  -8   1   7    0.90    1.45
  -1  -8   7    2.77    1.04
  -1  -8   8    4.61    1.33
  -8   1   8    4.11    1.89
  -8   1   9    2.49    1.97
  -8   1  10    2.59    1.99
  -8   1  11   14.82    3.47
  -8   1  11   18.10    1.92
   1   8  11   18.31    1.81
  -8   1  12    2.06    1.74
   1   8  12   -0.34    0.96
  -8   1  12    1.79    1.02
   8  -1  12    1.07    0.75
   1   8  12    4.68    1.09
   1   8  13    0.08    0.91
   8  -1  13    0.96    0.98
   1   8  13   -0.30    0.78
  -8   1  13    1.25    0.95
  -1  -8  13   -0.32    0.90
   1   8  14    6.56    1.40
  -1  -8  14    9.48    1.45
  -8   1  14   10.07    1.69
   8  -1  14    6.26    1.37
   1   8  14    8.94    1.47
   1   8  15    1.58    1.01
  -8   1  15    2.79    1.16
   1   8  15   -0.12    0.86
  -1  -8  15    1.39    0.89
   8  -1  15    1.29    0.97
   8  -1  16    0.24    0.78
   1   8  16   -1.14    0.85
   1   8  16    0.01    0.78
  -1  -8  16    0.66    0.83
  -8   1  16   -0.79    0.96
  -1  -8  17   -0.05    0.73
   1   8  17    0.67    0.71
   1   8  17   -0.16    0.78
   8  -1  17   -0.59    1.01
   1   8  18    0.90    0.83
   8  -1  18    0.05    0.80
  -1  -8  18    1.62    0.81
   1   8  19    1.45    0.84
   8  -1  19   -0.88    0.69
  -8   0   0   30.17    2.41
  -8   0   1   32.24    2.63
  -8   0  -1   32.78    2.44
  -8   0   2  155.32    5.86
   0  -8   2  150.80    4.83
  -8   0  -2  166.34    5.21
  -8   0   3    2.61    1.23
   0  -8   3    2.58    0.88
  -8   0  -3    2.87    1.05
   0  -8   4  700.13   10.70
  -8   0   4  687.14   14.10
   0  -8   5   24.66    2.22
  -8   0   5   24.04    3.16
  -8   0   6   11.69    2.65
   0  -8   6   12.21    1.70
   0  -8   7   42.72    3.26
  -8   0   7   38.13    4.17
  -8   0   8    0.42    1.37
  -8   0   9   -0.13    1.58
  -8   0  10    8.62    2.75
  -8   0  11   21.26    2.06
  -8   0  11   21.74    4.03
   0   8  12   10.57    1.50
   0   8  12   14.74    1.71
  -8   0  12   11.47    2.96
  -8   0  12   16.86    1.92
   8   0  12   11.76    1.58
   0  -8  12   12.63    1.51
   8   0  13    3.26    1.01
   0   8  13    3.96    1.12
   0  -8  13    3.03    0.94
  -8   0  13    4.43    1.22
   0   8  13    4.22    1.04
  -8   0  14    0.45    1.12
   0   8  14    1.33    1.00
   0   8  14    0.00    0.73
   0  -8  14   -1.50    0.94
   8   0  14    0.59    0.75
   0  -8  15    2.77    0.98
   8   0  15    0.65    0.87
  -8   0  15    1.00    0.92
   0   8  15    1.26    0.71
   0   8  15    0.87    0.81
   0   8  16    1.56    1.00
   8   0  16   -0.45    0.90
   0   8  16   -0.26    0.79
  -8   0  16    2.18    1.12
   0  -8  16   -1.09    0.84
   8   0  17   -0.30    1.01
   0   8  17   -0.38    0.74
   0  -8  17    0.74    0.85
   0   8  17    1.00    0.92
   8   0  18    0.17    0.79
   0  -8  18    1.64    0.83
   0   8  18    1.22    0.91
   8   0  19    4.86    0.98
  -8  -1   0   18.96    2.13
  -8  -1  -1   68.25    3.60
  -8  -1   1   72.21    3.94
   1  -8   2  148.08    4.43
  -8  -1  -2  162.91    5.52
  -8  -1   2  162.03    6.11
   1  -8   3  200.63    5.03
  -8  -1   3  179.73    6.85
  -8  -1   4   38.86    3.59
   1  -8   4   40.08    2.38
  -8  -1   5   10.38    2.31
   1  -8   5   10.58    1.37
   1  -8   6   33.94    2.50
  -8  -1   6   33.51    3.81
  -8  -1   7    5.81    2.12
  -8  -1   8    1.63    1.50
  -8  -1   9    0.01    1.50
  -8  -1  10    6.16    2.48
  -8  -1  11   18.26    1.93
  -8  -1  11   17.35    3.42
   1  -8  12    1.01    0.83
  -1   8  12    1.28    0.75
  -8  -1  12    2.42    2.17
   8   1  12    0.82    0.91
  -1   8  12    0.98    0.74
  -8  -1  12    2.89    1.17
  -1   8  13    0.98    0.90
  -8  -1  13   -1.51    2.00
  -1   8  13   -0.14    0.76
  -8  -1  13    1.85    1.03
   8   1  13    0.07    0.89
   1  -8  13   -0.17    0.96
   8   1  14    7.78    1.57
   8   1  14    9.06    1.39
  -1   8  14    7.13    1.32
   1  -8  14    8.89    1.37
  -8  -1  14    9.57    1.61
  -1   8  14    8.74    1.50
   1  -8  15    1.49    0.91
   8   1  15    1.48    1.05
  -1   8  15    2.26    1.06
  -8  -1  15    1.93    1.10
  -1   8  15    2.04    1.12
   8   1  16    2.62    1.04
  -8  -1  16    2.27    1.12
   1  -8  16    0.47    0.73
  -1   8  16   -0.62    0.79
  -1   8  16   -0.52    0.86
  -1   8  17    0.27    0.66
   8   1  17    0.67    0.91
  -1   8  17    0.60    0.87
   1  -8  17    1.01    0.89
   1  -8  18    0.97    0.75
   8   1  18    1.33    0.93
  -1   8  18    1.89    0.97
   8   1  19   -1.22    0.81
  -8  -2   0    2.80    1.25
  -8  -2   1  176.72    6.30
  -8  -2  -1  177.43    6.05
  -8  -2  -2   19.50    2.22
   2  -8   2   17.08    1.41
  -8  -2   2   18.97    2.34
  -8  -2   3  118.19    5.65
   2  -8   3  125.68    3.46
   2  -8   4  157.01    3.98
  -8  -2   4  150.18    6.79
  -8  -2   5   20.92    2.94
   2  -8   5   25.93    1.75
  -8  -2   6   39.98    4.04
  -8  -2   7   67.80    5.53
  -8  -2   8    8.50    2.39
  -8  -2   9   39.57    4.82
  -8  -2  10    4.87    2.15
  -2   8  11    2.16    0.86
  -8  -2  11    4.09    1.11
  -8  -2  11    2.16    1.50
  -8  -2  12    0.48    1.54
  -2   8  12   -0.32    0.71
  -8  -2  12    0.75    0.99
  -2   8  12    0.09    0.83
   8   2  12   -0.68    0.76
   2  -8  12    3.06    1.15
   8   2  13    1.36    1.03
   2  -8  13    1.15    0.75
  -2   8  13    1.11    0.88
  -8  -2  13    3.17    1.28
  -2   8  13    1.51    1.01
   8   2  13   -0.71    0.84
   8   2  14    0.96    0.74
  -2   8  14    1.61    0.95
   2  -8  14    2.10    0.92
  -2   8  14    2.36    1.05
  -8  -2  14    0.03    0.92
   8   2  14    0.82    0.85
   8   2  15    7.83    1.50
  -8  -2  15    9.61    1.59
   8   2  15    9.73    1.48
   2  -8  15   11.24    1.58
  -2   8  15    7.05    1.38
  -2   8  15   10.66    1.51
  -2   8  16    3.08    0.91
   8   2  16    3.72    1.22
   2  -8  16    2.83    0.98
  -2   8  16    4.79    1.25
  -2   8  17    2.22    1.05
   2  -8  17    0.81    0.81
   8   2  18   -0.46    0.79
   2  -8  18    0.63    0.72
  -2   8  18    1.31    0.92
   8   2  19    0.69    0.71
  -8  -3   0   47.09    3.32
  -8  -3   1  173.65    6.52
  -8  -3  -1  169.46    6.18
   3  -8   2   39.76    1.79
  -8  -3   2   40.01    3.34
  -8  -3   3  273.03    8.67
   3  -8   3  252.44    3.74
  -8  -3   4    2.66    1.58
  -8  -3   5    0.74    1.32
  -8  -3   6   61.70    5.06
  -8  -3   7   48.84    4.70
  -8  -3   8    9.81    2.50
  -8  -3   9   20.93    3.53
  -8  -3  10    6.67    2.42
  -8  -3  11   27.51    4.32
  -3   8  11   22.53    1.98
   8   3  11   21.19    2.02
  -3   8  11   26.15    2.09
  -8  -3  11   24.35    2.07
  -3   8  12   10.57    1.62
  -3   8  12   10.24    1.42
  -8  -3  12   12.44    1.74
   8   3  12   10.93    1.62
   3  -8  12   11.96    1.58
  -8  -3  12    7.45    2.73
   8   3  13    1.07    0.82
  -8  -3  13    0.71    0.95
  -3   8  13    1.44    1.09
   8   3  13   -0.32    0.97
  -3   8  13    0.36    0.76
  -8  -3  13    1.05    1.27
   3  -8  13    0.38    0.88
   3  -8  14   -1.84    1.03
  -3   8  14    0.94    0.90
   8   3  14   -0.79    0.91
  -3   8  14    0.55    0.91
   8   3  14   -0.10    0.68
  -8  -3  14    1.03    1.03
  -3   8  15    4.64    1.09
   8   3  15    4.66    1.10
   3  -8  15    4.98    1.12
  -8  -3  15    5.63    1.37
   8   3  15    3.74    1.13
  -3   8  15    5.10    1.36
  -3   8  16    0.10    0.77
   8   3  16   -0.33    0.73
   8   3  16    0.07    0.91
  -3   8  16   -0.43    0.80
   3  -8  16    0.37    0.75
   3  -8  17   -0.59    0.75
  -3   8  17   -0.07    0.88
   8   3  17   -0.86    1.03
   8   3  18    1.34    0.85
   3  -8  18    2.45    0.85
   8   3  19    1.23    0.69
  -8  -4   0  393.26    9.80
  -8  -4  -1   33.01    3.04
  -8  -4   1   30.87    3.01
  -8  -4   2  131.78    6.05
   4  -8   2  113.52    2.19
  -8  -4   3    2.29    1.55
  -8  -4   4    9.13    2.06
  -8  -4   5   11.06    2.29
  -8  -4   6   25.92    3.43
  -8  -4   7   22.11    3.29
  -8  -4   8   90.97    6.70
  -8  -4   9    6.83    2.50
  -8  -4  10   36.74    4.81
  -4   8  11   14.66    1.74
   8   4  11   10.90    1.51
  -8  -4  11    7.56    2.67
  -4   8  11   12.31    1.54
  -8  -4  11   12.92    1.68
   8   4  12   36.13    2.69
  -4   8  12   43.64    2.78
  -4   8  12   37.60    2.68
  -8  -4  12   37.23    5.29
   4  -8  12   41.15    2.74
  -8  -4  12   41.38    2.77
   4  -8  13    9.63    1.54
  -4   8  13    9.56    1.49
  -8  -4  13    8.77    1.52
   8   4  13    5.48    1.23
   8   4  13    9.66    1.49
  -4   8  13   10.24    1.68
  -8  -4  13   11.60    3.11
  -4   8  14    0.75    1.07
  -8  -4  14    0.37    0.91
   8   4  14    1.75    0.85
   4  -8  14    0.38    0.72
   8   4  14    0.74    0.89
  -4   8  14   -0.06    0.73
   4  -8  15    2.58    0.91
   8   4  15    2.12    0.94
  -4   8  15    2.48    1.00
  -8  -4  15    4.48    1.24
   8   4  15    2.66    1.03
  -4   8  15    1.77    0.99
   8   4  16    0.29    0.92
  -4   8  16    2.60    0.91
   8   4  16    0.96    0.80
  -4   8  16    3.03    1.15
   4  -8  16    1.28    0.87
   8   4  17    1.32    0.99
  -4   8  17    1.48    0.97
   4  -8  17   -0.58    0.83
   8   4  18    0.77    0.81
   4  -8  18    1.08    0.81
  -8  -5   0   26.10    2.92
  -8  -5   1    0.49    1.31
  -8  -5  -1    1.22    1.34
  -8  -5   2   51.43    3.95
  -8  -5   3   45.62    3.89
  -8  -5   4  108.70    6.02
  -8  -5   5   10.29    2.25
  -8  -5   6  423.18   13.10
  -8  -5   7   17.48    3.12
  -8  -5   8    4.25    1.88
  -8  -5   9   25.05    3.85
  -8  -5  10    2.82    2.09
  -5   8  11    1.98    0.83
  -5   8  11    2.51    0.96
  -8  -5  11    2.47    0.91
  -8  -5  11    0.61    1.66
   5  -8  11    0.66    0.81
   8   5  11    2.86    1.06
  -5   8  12    5.09    1.19
  -8  -5  12    5.84    1.37
  -5   8  12    3.78    1.01
   8   5  12    3.30    1.03
  -8  -5  12    2.86    1.71
   5  -8  12    4.95    1.16
   5  -8  13    6.95    1.34
   8   5  13    5.54    1.29
  -8  -5  13    6.28    1.33
   8   5  13    6.55    1.32
  -8  -5  13    1.61    1.61
  -5   8  13    6.07    1.42
  -5   8  13    7.11    1.32
   8   5  14    4.37    1.22
  -5   8  14    6.10    1.25
  -8  -5  14    7.30    1.36
  -5   8  14    4.49    1.19
   5  -8  14    6.87    1.33
   8   5  14    5.38    1.24
   5  -8  15   -1.19    0.94
   8   5  15    0.71    0.92
  -5   8  15    0.58    0.83
   8   5  15   -0.63    0.81
  -5   8  15    0.64    0.96
   8   5  16    0.21    0.70
   8   5  16   -0.66    1.10
   5  -8  16   -0.99    0.92
  -5   8  16    2.38    1.15
   5  -8  17    1.34    0.86
   8   5  17    3.59    0.92
   8   5  17    1.44    0.84
   8   5  18    2.13    0.92
   5  -8  18    3.30    0.87
  -8  -6   0   52.03    4.04
  -8  -6   1    0.92    1.44
  -8  -6  -1    1.32    1.50
  -8  -6   2   71.08    4.90
  -8  -6   3    8.72    2.14
  -8  -6   4  131.02    6.76
  -8  -6   5   10.83    2.42
  -8  -6   6    8.49    2.24
  -8  -6   7    4.87    1.97
  -8  -6   8    7.49    2.31
  -8  -6   9    5.03    2.06
  -8  -6  10    9.72    2.65
   6  -8  11    0.97    0.87
  -6   8  11    1.22    0.84
  -6   8  11    1.55    0.97
  -8  -6  11    3.22    0.93
   8   6  11    1.52    0.92
  -8  -6  11   -0.97    1.82
   8   6  12    2.20    0.95
  -6   8  12    4.22    1.08
  -8  -6  12    1.18    1.35
  -8  -6  12    2.68    1.10
   6  -8  12    1.16    0.86
  -6   8  12    3.78    1.18
   8   6  12    3.04    0.93
  -8  -6  13   -0.08    0.84
  -6   8  13    1.18    0.80
  -6   8  13    2.42    1.18
   8   6  13    0.78    0.90
   8   6  13    0.22    0.74
   6  -8  13    1.78    0.87
   8   6  14    0.11    0.83
  -6   8  14    1.07    0.90
   6  -8  14    1.10    0.91
   8   6  14    0.18    0.81
  -8  -6  14    2.20    1.04
  -6   8  14    2.12    1.13
   6  -8  15   -0.10    0.71
  -6   8  15    0.03    0.74
  -6   8  15    2.19    1.17
   8   6  15   -0.33    0.78
   8   6  15    0.60    0.83
   8   6  16    2.74    0.93
   8   6  16    1.20    0.85
   6  -8  16    0.89    0.83
   8   6  17    0.89    0.90
   8   6  17   -0.73    0.75
   8   6  18    1.05    0.73
   6  -8  18    0.34    0.62
  -8  -7   0    3.39    1.73
  -8  -7   1   22.87    3.00
  -8  -7  -1   24.49    3.10
  -8  -7   2    3.24    1.58
  -8  -7   3   24.17    3.09
  -8  -7   4    4.64    1.86
  -8  -7   5   19.38    2.92
  -8  -7   6   41.01    4.38
  -8  -7   7    6.35    2.07
  -8  -7   8    0.18    1.61
  -8  -7   9   16.22    3.32
  -8  -7  10    1.64    1.50
  -7   8  11    2.31    0.87
  -7   8  11    3.64    1.14
   8   7  11    1.91    0.86
   7  -8  11    1.34    0.82
  -8  -7  11    0.37    1.44
  -7   8  12    3.86    0.93
  -8  -7  12    3.22    1.94
   8   7  12    4.65    1.08
   8   7  12    4.46    1.13
   7  -8  12    3.11    1.00
  -7   8  12    4.40    1.30
  -8  -7  12    5.46    1.31
   8   7  13   14.93    1.77
   8   7  13   14.27    1.77
  -8  -7  13   18.06    1.89
  -7   8  13   14.54    1.73
  -7   8  13   12.83    1.75
   7  -8  13   14.26    1.76
   8   7  14    1.43    0.98
   7  -8  14    1.49    0.91
   8   7  14    1.77    0.96
  -7   8  14    3.12    1.19
  -7   8  14    1.00    0.74
   8   7  15    2.79    1.06
   8   7  15    1.98    0.93
   7  -8  15    2.21    0.99
  -7   8  15    1.02    0.75
   8   7  16   -0.50    0.98
   8   7  16   -1.29    0.89
   7  -8  16   -0.32    1.00
   8   7  17    0.20    0.79
   8   7  17   -0.57    0.78
   7  -8  17   -0.53    0.80
   7  -8  18    2.52    0.81
   8   7  18    2.67    0.74
   8   7  18    1.86    0.80
  -8  -8   0   16.48    2.74
  -8  -8   1    3.03    1.50
  -8  -8  -1    3.82    1.70
  -8  -8   2    2.79    1.71
  -8  -8   3   26.92    3.32
  -8  -8   4   18.91    2.97
  -8  -8   5   53.75    4.79
  -8  -8   6    9.10    2.40
  -8  -8   7   28.25    3.85
  -8  -8   8   49.33    5.20
  -8  -8   9    2.07    1.67
  -8   8  10   11.40    1.48
  -8   8  10   15.05    1.81
  -8  -8  10   11.41    2.73
  -8   8  11    2.11    1.14
   8  -8  11    0.79    0.82
   8   8  11    0.16    0.83
  -8  -8  11    0.44    1.37
   8   8  11    1.01    0.77
  -8   8  11    1.71    0.73
   8   8  12    5.18    1.29
   8   8  12    3.15    1.05
  -8   8  12    5.71    1.40
   8  -8  12    2.28    0.87
  -8   8  12    5.55    1.20
   8   8  13    4.37    1.15
  -8   8  13    5.82    1.43
  -8   8  13    5.50    1.18
   8  -8  13    5.85    1.37
   8   8  13    3.36    1.10
  -8   8  14    1.57    0.80
   8   8  14    0.89    0.84
   8  -8  14    2.25    1.08
   8   8  14    1.88    0.91
   8   8  15    1.39    0.83
   8  -8  15    3.33    1.06
   8   8  15    3.14    1.04
   8  -8  16   -1.72    1.02
   8   8  16    0.76    0.81
   8   8  16    0.43    0.83
   8  -8  17   -1.18    0.87
   8   8  17    0.59    0.80
   8   8  17   -0.04    0.68
   8   8  18   -0.33    0.64
   8   8  18    0.88    0.57
   8  -8  18   -0.05    0.57
  -8  -9   0   24.30    3.25
  -8  -9   1    1.79    1.52
  -8  -9  -1    0.80    1.35
  -8  -9   2   61.99    4.93
  -9   8   3   92.73    5.31
  -8  -9   3   88.09    5.93
  -8  -9   4   66.64    5.35
  -9   8   4   79.20    5.29
  -8  -9   5    0.38    1.21
  -8  -9   6   69.53    5.73
  -8  -9   7    2.15    1.60
  -8  -9   8    5.18    2.12
  -8  -9   9   51.20    5.66
  -8  -9  10   17.02    3.30
  -9   8  10   13.41    1.63
   8   9  10   16.27    1.75
  -8  -9  11    2.31    1.60
  -9   8  11    2.43    0.85
   8   9  11    1.66    0.82
   8   9  11    2.00    0.84
   8   9  12    1.65    0.88
   9  -8  12    0.42    0.87
   8   9  12    1.50    0.95
  -9   8  12    0.67    0.84
  -9   8  13    0.61    0.74
   8   9  13    1.00    0.91
   9  -8  13    1.64    0.98
   8   9  13    0.47    0.81
   8   9  14    3.25    1.06
   8   9  14    2.39    0.95
   9  -8  14    3.25    1.03
   9  -8  15    0.72    0.77
   8   9  15    0.41    0.75
   8   9  15   -0.34    0.82
   9  -8  16    2.07    0.98
   8   9  16    1.15    0.88
   8   9  16    1.96    0.93
   8   9  17   10.21    1.31
   9  -8  17   10.56    1.32
   8   9  17   11.23    1.36
   9  -8  18   -0.34    0.62
   8   9  18    0.93    0.64
   8   9  18    0.35    0.58
  -7  -9   0   62.18    4.79
  -7  -9   1    7.49    1.93
  -9   7   1    6.78    1.39
  -7  -9   2   61.65    4.72
  -9   7   2   69.05    4.16
  -9   7   3   82.30    4.93
  -7  -9   3   74.92    5.27
  -9   7   4  219.82    8.56
  -7  -9   4  202.86    8.71
  -9   7   5    0.90    1.37
  -7  -9   5    2.53    1.45
  -9   7   6    8.30    2.11
  -7  -9   6    8.92    2.28
  -7  -9   7   10.24    2.62
  -9   7   7    8.06    2.39
  -7  -9   8   18.54    3.25
  -7  -9   9   11.72    2.91
   7   9  10    0.45    0.76
  -9   7  10    2.18    0.92
  -7  -9  10    2.90    1.60
  -9   7  10   -0.16    0.71
  -9   7  11   10.40    1.63
  -7  -9  11   10.54    2.76
  -9   7  11    9.06    1.37
   7   9  11    8.52    1.44
   7   9  11   12.56    1.64
  -9   7  12   22.11    2.02
   7   9  12   21.04    2.05
   9  -7  12   19.36    2.09
   7   9  12   22.12    2.07
   9  -7  13    4.33    1.22
   7   9  13    3.59    1.13
   7   9  13    4.41    1.19
  -9   7  13    2.53    1.01
   7   9  14    3.14    1.06
   9  -7  14    1.63    1.00
   7   9  14    1.61    0.86
   7   9  15    0.45    0.77
   9  -7  15    0.39    0.78
   7   9  15    0.37    0.77
   7   9  16   10.12    1.45
   7   9  16   10.54    1.47
   9  -7  16   12.50    1.65
   9  -7  17    0.77    0.77
   7   9  17    0.91    0.77
   7   9  17    0.95    0.76
   9  -7  18    0.37    0.66
   7   9  18    0.96    0.61
   7   9  18    1.12    0.68
  -9   6   0   15.63    1.66
  -6  -9   0   12.24    2.34
  -9   6   1   37.71    2.77
  -9   6  -1   37.98    1.96
  -6  -9   1   34.04    3.46
  -9   6   2  268.03    8.03
  -6  -9   2  256.45    9.02
  -9   6   3    8.17    1.79
  -6  -9   3    6.42    1.96
  -9   6   4   63.82    4.68
  -6  -9   4   57.43    4.51
  -9   6   5   12.59    2.46
  -6  -9   5    8.68    1.91
  -6  -9   6  298.42   10.90
  -9   6   6  324.86   11.63
  -6  -9   7    8.49    2.23
  -9   6   7    8.96    2.46
  -9   6   8    4.64    2.09
  -6  -9   8    3.97    1.57
  -6  -9   9    1.47    1.12
   6   9  10   52.12    2.95
  -6  -9  10   57.98    5.78
  -9   6  10   54.02    3.05
   6   9  11    2.54    0.93
   6   9  11    2.21    0.95
  -9   6  11    2.24    0.84
  -9   6  11    4.08    1.29
  -9   6  12    3.31    0.94
   6   9  12    4.56    1.14
   6   9  12    4.60    1.11
   9  -6  12    3.40    1.08
   9  -6  13    9.68    1.56
  -9   6  13   11.84    1.79
   6   9  13   11.97    1.70
   6   9  13   10.29    1.55
   6   9  14   38.30    2.71
   6   9  14   40.49    2.81
   9  -6  14   38.70    2.84
   9  -6  15   -0.63    0.87
   6   9  15   -1.61    1.02
   6   9  15   -0.09    0.73
   9  -6  16    3.72    1.15
   6   9  16    2.72    0.93
   6   9  16    3.04    1.05
   9  -6  17    0.01    0.81
   6   9  17    2.46    0.98
   6   9  17    1.33    0.76
   6   9  18    8.55    1.16
   9  -6  18    8.16    1.15
   6   9  18    6.13    0.94
  -9   5   0  185.16    5.39
  -5  -9   1   41.26    3.65
  -9   5  -1   37.53    2.12
  -9   5   1   34.41    2.69
  -9   5   2   20.97    2.42
  -5  -9   2   21.39    2.71
  -9   5  -2   17.52    1.05
  -5  -9   3    4.02    1.54
  -9   5   3    3.88    1.51
  -9   5   4    2.46    1.50
  -5  -9   4    7.18    1.89
  -9   5   5  140.52    7.22
  -5  -9   5  122.19    6.47
  -9   5   6    3.85    1.73
  -5  -9   6    6.71    1.99
  -9   5   7   81.82    6.20
  -5  -9   7   84.47    5.99
  -9   5   8  116.19    7.81
  -5  -9   8  125.89    7.54
  -9   5   9    7.99    2.67
  -5  -9   9    7.38    2.04
  -5  -9  10   13.03    2.73
   5   9  11   97.28    4.08
   5   9  11  103.60    4.11
  -9   5  11   97.97    4.16
   9  -5  12   20.63    2.13
  -9   5  12   24.46    2.31
   5   9  12   21.62    2.05
   5   9  12   22.71    2.07
  -9   5  13    2.51    1.21
   9  -5  13    2.40    0.94
   5   9  13    3.38    1.05
   5   9  13    2.16    0.94
   9  -5  14   -0.09    0.86
   5   9  14    0.96    0.83
   5   9  14    0.33    0.87
   5   9  15   10.58    1.57
   5   9  15    8.61    1.36
   9  -5  15    8.35    1.42
   5   9  16    1.77    0.89
   9  -5  16    2.39    1.06
   5   9  16    1.90    0.93
   9  -5  17   -0.93    0.90
   5   9  17   -0.85    0.80
   5   9  17    0.28    0.79
   9  -5  18    0.83    0.75
   5   9  18   -0.44    0.57
   5   9  18    0.53    0.72
  -9   4   0    0.23    0.74
  -9   4  -1  147.23    4.37
  -9   4   1  140.86    5.31
  -4  -9   1  136.86    6.13
  -9   4  -2   16.19    1.29
  -9   4   2   13.82    1.96
  -4  -9   2   14.97    2.25
  -4  -9   3  104.51    5.51
  -9   4   3  114.99    5.65
  -9   4   4   16.49    2.55
  -4  -9   4   15.80    2.40
  -4  -9   5  317.00    9.88
  -9   4   5  335.27   10.96
  -4  -9   6   41.73    3.88
  -9   4   6   41.40    4.26
  -4  -9   7   22.69    2.95
  -9   4   7   24.49    3.57
  -9   4   8    3.84    2.00
  -4  -9   8    2.42    1.60
  -4  -9   9  106.27    6.90
  -9   4   9  102.52    7.63
  -9   4  10   -0.23    1.65
   4   9  11   16.37    1.74
   4   9  11   14.36    1.67
  -9   4  11   14.92    1.79
   4   9  12    1.16    0.89
   4   9  12    1.11    0.95
   9  -4  12    0.48    0.95
   9  -4  13   15.68    1.95
  -9   4  13   19.99    2.19
   4   9  13   22.46    2.14
   4   9  13   18.75    1.99
  -9   4  14    1.35    1.19
   4   9  14   -1.26    1.04
   4   9  14   -0.87    0.83
   9  -4  14   -0.73    1.00
   9  -4  15   -0.46    0.91
   4   9  15    0.21    0.82
   4   9  15   -0.74    0.83
   9  -4  16    2.66    1.05
   4   9  16    0.08    0.77
   4   9  16    0.74    0.78
   4   9  17   14.77    1.65
   4   9  17   11.38    1.41
   9  -4  17   10.54    1.53
   4   9  18    1.32    0.65
   4   9  18    0.74    0.73
   9  -4  18    0.21    0.74
  -9   3   0  823.01   11.84
  -3  -9   1   11.00    1.96
  -9   3  -1    8.66    1.28
  -9   3   1    9.53    1.58
  -9   3  -2   96.32    3.37
  -9   3   2   92.20    4.73
  -3  -9   2   91.20    4.78
  -3  -9   3    4.19    1.38
  -9   3   3    7.19    1.80
  -9   3  -3    6.09    0.90
  -9   3   4  206.59    8.02
  -3  -9   4  193.91    7.14
  -9   3  -4  200.91    4.35
  -9   3   5   28.41    3.36
  -3  -9   5   28.11    2.91
  -3  -9   6   10.75    2.07
  -9   3   6    9.24    2.43
  -9   3   7   35.98    4.21
  -3  -9   7   32.39    3.37
  -3  -9   8  294.24   10.55
  -9   3   8  287.08   12.14
  -9   3   9    8.73    2.72
  -3  -9   9   10.26    2.32
  -9   3  10   51.91    5.83
   3   9  11    0.60    0.73
  -9   3  11    1.59    1.75
  -9   3  11    2.05    0.98
   3   9  11    0.51    0.75
   9  -3  12   99.18    4.49
  -9   3  12   99.67    4.29
   3   9  12  107.16    4.30
   3   9  12  107.83    4.33
   3   9  13    0.73    0.87
   3   9  13    1.16    0.88
   9  -3  13    0.87    0.88
  -9   3  13    2.02    1.17
   9  -3  14    3.41    1.07
   3   9  14    2.89    0.83
   3   9  14    2.19    0.95
  -9   3  14    4.01    1.24
   9  -3  15    3.48    1.07
   3   9  15    2.27    0.98
   3   9  15    1.86    0.94
   3   9  16   16.26    1.83
   3   9  16   16.36    1.76
   9  -3  16   16.32    1.90
   9  -3  17   -1.69    1.06
   3   9  17   -0.27    0.72
   3   9  18    1.17    0.65
   9  -3  18   -0.89    0.85
   3   9  18    0.78    0.72
  -9   2   0   79.07    3.80
  -9   2  -1    4.89    1.06
  -9   2   1    2.67    1.14
  -9   2   2   44.74    3.37
  -2  -9   2   41.44    3.19
  -9   2  -2   45.27    2.60
  -9   2  -3   25.43    1.92
  -9   2   3   24.77    2.83
  -2  -9   3   24.05    2.50
  -2  -9   4   71.38    4.14
  -9   2   4   72.73    4.89
  -9   2  -4   76.70    3.24
  -2  -9   5    0.77    0.85
  -9   2  -5    0.40    0.58
  -9   2   5    1.23    1.32
  -2  -9   6  407.56   10.79
  -9   2   6  377.49   12.18
  -2  -9   7    0.86    0.89
  -9   2   7    2.94    1.96
  -9   2   8    9.76    2.64
  -2  -9   8    9.09    1.86
  -9   2   9   14.40    3.14
  -9   2  10    1.90    1.46
   2   9  11   -0.62    0.83
   2   9  11   -0.70    0.69
  -9   2  11    2.35    1.08
  -9   2  11    1.07    1.70
   2   9  12    8.74    1.37
   9  -2  12    7.90    1.45
  -9   2  12    9.57    3.01
   2   9  12    8.80    1.41
  -9   2  12    9.04    1.60
   9  -2  13    4.86    1.13
   2   9  13    6.41    1.29
   2   9  13    5.17    1.20
  -9   2  13    7.26    1.51
   2   9  14    1.96    0.91
  -9   2  14    4.41    1.33
   2   9  14    3.24    1.11
   9  -2  14    2.77    1.07
   2   9  15    0.65    0.71
   9  -2  15    0.05    0.86
   2   9  15   -0.64    0.82
   9  -2  16   -0.03    0.83
   2   9  16   -0.29    0.74
   2   9  16   -0.03    0.84
   9  -2  17   -2.55    1.16
   2   9  17   -0.60    0.74
   2   9  17    0.02    0.77
   2   9  18    2.26    0.91
   2   9  18    2.14    0.73
   9  -2  18    1.22    0.73
  -9   1   0  287.40    7.34
  -9   1   1   62.87    3.71
  -9   1  -1   64.45    3.37
  -9   1   2  102.38    5.05
  -9   1  -2  106.26    4.22
  -1  -9   2   94.16    4.38
  -9   1   3   65.46    4.33
  -1  -9   3   65.73    3.72
  -9   1  -3   72.66    3.46
  -1  -9   4    0.46    0.79
  -9   1  -4    0.14    0.79
  -9   1   4    1.68    1.51
  -1  -9   5   23.50    2.39
  -9   1   5   21.33    2.98
  -9   1   6    6.68    2.38
  -1  -9   6    9.04    1.67
  -9   1   7   24.78    3.60
  -1  -9   7   28.83    2.91
  -9   1   8   36.05    4.42
  -9   1   9    5.27    2.10
  -9   1  10    3.04    2.40
   1   9  11   43.07    2.73
  -9   1  11   44.02    2.81
   1   9  11   38.25    2.53
  -9   1  11   39.94    5.32
   9  -1  12    1.67    0.97
  -9   1  12    2.11    1.43
   1   9  12    0.15    1.00
   1   9  12    1.47    0.95
  -9   1  12    2.44    1.07
   9  -1  13   -0.39    1.02
  -9   1  13    1.92    1.08
   1   9  13    1.30    0.86
   1   9  13   -0.26    0.97
   1   9  14    0.10    0.91
   9  -1  14    1.42    1.08
   1   9  14    0.62    0.81
  -9   1  14    1.03    1.08
   1   9  15    4.25    1.08
   9  -1  15    3.92    1.13
   1   9  15    7.07    1.37
   1   9  16    1.75    0.98
   1   9  16    1.20    0.75
   9  -1  16    1.47    0.94
   9  -1  17    0.95    0.90
   1   9  17    3.87    0.97
   1   9  17    2.41    0.98
   1   9  18    1.75    0.69
   9  -1  18    0.06    0.80
   1   9  18    2.52    0.96
  -9   0   0   19.23    2.15
  -9   0  -1    0.07    0.90
  -9   0   1    1.20    1.08
  -9   0   2 1653.77   19.99
  -9   0  -2 1669.89   17.33
  -9   0   3   55.47    4.07
  -9   0  -3   55.31    3.28
   0  -9   3   53.50    3.12
   0  -9   4  311.86    7.44
  -9   0   4  299.48    9.74
  -9   0  -4  314.71    7.81
  -9   0   5   -0.03    1.37
   0  -9   5    1.60    0.94
   0  -9   6 1229.67   16.36
  -9   0   6 1159.89   21.50
  -9   0   7   25.99    3.73
  -9   0   8   36.28    4.39
  -9   0   9    1.54    1.81
  -9   0  10  325.58   14.21
   0   9  11   10.25    1.55
   0   9  11   10.78    1.50
  -9   0  11    8.33    1.37
  -9   0  11   11.99    3.06
   0   9  12    2.76    1.00
   9   0  12    1.54    0.81
  -9   0  12    2.06    1.06
   0   9  12    3.04    0.98
   0   9  13    7.56    1.35
  -9   0  13    8.00    1.60
   0   9  13    8.33    1.44
   9   0  13    6.96    1.38
   9   0  14   54.10    3.39
   0   9  14   56.98    3.27
  -9   0  14   51.80    3.25
   0   9  14   56.44    3.24
   0  -9  15    0.25    0.73
   9   0  15   -0.20    0.84
   0   9  15    0.74    1.08
   0   9  15   -0.24    0.77
   0  -9  16    1.13    0.94
   0   9  16    1.00    0.95
   0   9  16    0.34    0.69
   9   0  16    1.66    1.01
   0   9  17    0.56    0.69
   0   9  17    1.55    0.93
   9   0  17   -0.16    1.00
   9   0  18   15.13    1.65
   0   9  18   17.45    1.67
  -9  -1   0  290.37    7.97
  -9  -1  -1   62.13    3.63
  -9  -1   1   65.53    3.99
   1  -9   2   90.62    3.74
  -9  -1  -2  105.73    4.74
  -9  -1   2   99.13    5.10
  -9  -1   3   66.44    4.45
   1  -9   3   73.41    3.28
  -9  -1  -3   71.44    3.95
   1  -9   4   -0.06    0.52
  -9  -1   4    0.24    1.36
  -9  -1   5   21.14    3.01
   1  -9   5   21.06    1.86
  -9  -1   6    7.01    2.20
  -9  -1   7   23.08    3.36
  -9  -1   8   32.64    4.20
  -9  -1   9    4.83    2.02
  -9  -1  10    3.82    2.19
  -9  -1  11   40.86    2.67
  -1   9  11   40.35    2.59
  -9  -1  11   49.11    5.85
  -1   9  11   41.09    2.64
  -9  -1  12    2.62    1.06
  -9  -1  12    0.93    1.20
   9   1  12    1.03    0.93
  -1   9  12    1.69    0.84
  -1   9  12    1.42    0.85
  -1   9  13    1.63    0.95
  -9  -1  13    1.10    0.97
   9   1  13   -0.75    1.11
  -1   9  13    0.92    0.94
   1  -9  14    0.78    0.81
   9   1  14    2.36    1.04
   9   1  14    1.48    0.91
  -1   9  14    3.61    1.10
  -1   9  14    0.87    0.78
  -9  -1  14    1.97    1.13
  -1   9  15    6.78    1.27
  -1   9  15    6.04    1.37
   9   1  15    4.57    1.27
   1  -9  15    4.86    1.13
  -1   9  16    1.80    0.84
   9   1  16    0.32    0.80
  -1   9  16    1.15    0.91
   1  -9  16    1.06    0.77
  -1   9  17    1.88    0.77
  -1   9  17    2.73    1.09
   9   1  17    0.18    0.99
  -1   9  18    1.75    0.90
   9   1  18   -0.21    0.84
  -9  -2   0   82.14    4.48
  -9  -2   1    3.39    1.49
  -9  -2  -1    4.62    1.41
   2  -9   2   39.68    2.28
  -9  -2  -2   44.35    3.28
  -9  -2   2   46.70    3.69
   2  -9   3   28.83    1.82
  -9  -2  -3   25.45    2.61
  -9  -2   3   27.41    3.03
  -9  -2   4   72.63    4.98
   2  -9   4   76.97    2.96
  -9  -2   5    0.79    1.32
  -9  -2   6  397.97   12.66
  -9  -2   7    1.70    1.52
  -9  -2   8    9.83    2.54
  -9  -2   9   16.23    3.28
  -9  -2  10    4.41    2.27
  -2   9  11   -0.95    0.84
  -9  -2  11   -1.85    1.70
  -2   9  11   -2.44    1.09
  -9  -2  11   -0.05    0.90
   9   2  12    5.83    1.25
  -9  -2  12   11.72    3.20
  -2   9  12    8.00    1.36
  -9  -2  12    9.68    1.55
  -2   9  12    8.88    1.45
  -2   9  13    4.47    1.19
  -9  -2  13    6.96    1.43
   9   2  13    3.99    1.13
  -2   9  13    6.54    1.47
   2  -9  13    7.65    1.24
   9   2  14    3.07    0.92
   9   2  14    2.60    1.15
  -9  -2  14    6.22    1.37
   2  -9  14    2.23    0.86
  -2   9  14    3.85    1.15
  -2   9  14    5.53    1.33
   9   2  15    0.68    0.96
  -2   9  15   -0.48    0.81
  -2   9  15    1.66    1.05
   2  -9  15   -0.92    0.83
   9   2  15    0.08    0.72
   2  -9  16   -0.71    0.79
   9   2  16    0.28    0.92
  -2   9  16    1.08    0.80
  -2   9  16    0.93    0.91
   9   2  17   -1.14    1.09
   2  -9  17   -0.11    0.73
  -2   9  17    0.33    0.67
  -2   9  17    0.85    0.87
   9   2  18    1.81    0.91
  -9  -3   0  801.73   14.08
  -9  -3  -1    9.90    1.99
  -9  -3   1    7.99    1.93
  -9  -3   2   96.36    5.27
   3  -9   2   92.25    3.04
  -9  -3  -2   94.66    4.92
   3  -9   3    5.40    0.65
  -9  -3   3    3.66    1.67
  -9  -3   4  196.76    8.11
  -9  -3   5   29.47    3.47
  -9  -3   6    9.81    2.65
  -9  -3   7   31.91    4.04
  -9  -3   8  273.71   11.72
  -9  -3   9    9.03    2.63
  -9  -3  10   50.90    5.75
  -3   9  11    1.67    0.90
  -9  -3  11    2.01    2.28
  -9  -3  11    0.58    0.72
  -3   9  11    0.74    0.87
   9   3  12  104.40    4.50
  -3   9  12  108.62    4.34
  -9  -3  12  104.89    8.78
  -9  -3  12  105.69    4.34
  -3   9  12  104.61    4.26
   3  -9  13    0.69    0.85
  -3   9  13    0.22    0.80
   9   3  13   -0.37    0.96
  -9  -3  13    2.21    1.04
  -3   9  13    1.09    0.97
   3  -9  14    2.64    0.88
  -3   9  14    3.88    1.07
   9   3  14    3.81    1.12
  -3   9  14    3.42    1.14
  -9  -3  14    3.75    1.24
   9   3  14    4.26    1.12
   3  -9  15    5.02    1.14
  -3   9  15    3.31    1.10
   9   3  15    1.70    0.97
   9   3  15    3.13    0.94
  -3   9  15    4.26    1.30
  -3   9  16   15.41    1.70
   9   3  16   16.52    1.90
  -3   9  16   14.88    1.82
   9   3  16   16.25    1.70
   3  -9  16   16.42    1.73
   9   3  17    2.33    1.05
  -3   9  17    1.63    0.94
  -3   9  17   -0.82    0.70
   3  -9  17    1.06    0.81
   9   3  18   -0.32    0.82
  -9  -4   0    1.07    1.41
  -9  -4   1  140.59    6.40
  -9  -4  -1  145.46    6.32
  -9  -4   2   14.96    2.36
   4  -9   2   14.03    0.97
  -9  -4  -2   16.92    2.41
  -9  -4   3  116.80    6.20
  -9  -4   4   13.79    2.58
  -9  -4   5  312.89   11.00
  -9  -4   6   42.05    4.45
  -9  -4   7   25.02    3.63
  -9  -4   8    2.26    1.52
  -9  -4   9  105.00    7.77
  -9  -4  10    3.05    1.84
  -4   9  11   15.10    1.73
  -9  -4  11   16.51    1.86
  -4   9  11   16.38    1.80
  -9  -4  11   13.71    3.37
   9   4  11   14.84    1.83
   4  -9  12   -0.13    0.68
  -4   9  12    1.59    0.93
   9   4  12    1.38    0.92
  -4   9  12    2.80    1.12
   9   4  13   19.62    2.16
  -4   9  13   19.82    2.01
   4  -9  13   21.81    2.05
  -9  -4  13   18.96    2.05
   9   4  13   20.54    2.02
  -4   9  13   22.69    2.21
   4  -9  14   -0.32    0.78
   9   4  14    0.30    0.78
  -4   9  14    1.03    0.88
   9   4  14   -0.23    0.78
  -9  -4  14    2.05    1.05
  -4   9  14    0.48    0.88
  -4   9  15   -0.75    0.69
   4  -9  15    0.67    0.81
   9   4  15    1.58    0.98
  -4   9  15    1.37    1.02
   9   4  15   -0.42    0.70
   9   4  16    1.52    1.06
   4  -9  16    0.10    0.72
  -4   9  16    1.67    0.87
   9   4  16    1.38    0.84
  -4   9  16    3.52    1.24
   9   4  17   11.40    1.52
   9   4  17   11.97    1.36
   4  -9  17   12.46    1.49
   9   4  18   -0.84    0.82
  -9  -5   0  179.84    7.30
  -9  -5   1   39.59    3.62
  -9  -5  -1   39.71    3.57
  -9  -5  -2   21.19    2.72
  -9  -5   2   21.17    2.94
  -9  -5   3    4.92    1.84
  -9  -5   4    4.78    1.82
  -9  -5   5  125.78    7.09
  -9  -5   6    8.21    2.36
  -9  -5   7   80.56    6.29
  -9  -5   8  109.82    7.68
  -9  -5   9    5.90    2.25
  -9  -5  10   12.15    3.14
  -5   9  11   94.68    3.94
  -5   9  11   92.29    3.90
  -9  -5  11   94.67    8.09
   9   5  11   99.21    4.26
  -9  -5  11   99.32    4.03
   9   5  12   20.52    2.10
  -9  -5  12   25.04    2.24
  -9  -5  12   22.41    4.14
  -5   9  12   22.65    2.08
  -5   9  12   22.86    2.13
   5  -9  12   22.51    2.10
  -5   9  13    2.64    1.12
   5  -9  13    3.09    0.93
   9   5  13    2.70    0.95
   9   5  13    2.54    0.98
  -5   9  13    2.69    1.01
  -9  -5  13    3.24    1.19
   9   5  14    1.04    0.95
   5  -9  14    2.30    0.91
   9   5  14   -0.04    0.75
  -5   9  14    1.52    0.99
  -5   9  14   -0.77    0.79
   5  -9  15    7.62    1.32
  -5   9  15   10.89    1.53
  -5   9  15    8.78    1.50
   9   5  15   10.32    1.58
   9   5  15   10.00    1.45
   5  -9  16    1.88    0.90
   9   5  16    2.54    0.97
  -5   9  16    1.58    0.87
   9   5  16    2.04    0.84
   9   5  17   -0.64    0.89
   9   5  17   -0.57    0.67
   5  -9  17   -0.45    0.75
   9   5  18    0.12    0.73
  -9  -6   0   15.91    2.53
  -9  -6   1   31.09    3.33
  -9  -6  -1   39.66    3.76
  -9  -6   2  277.87    9.72
  -9  -6  -2  276.11    9.40
  -9  -6   3    8.05    1.98
  -9  -6   4   63.23    5.00
  -9  -6   5   12.54    2.72
  -9  -6   6  293.41   11.49
  -9  -6   7    9.86    2.31
  -9  -6   8    3.40    2.24
  -9  -6   9   -1.23    1.78
  -9  -6  10   52.73    5.83
  -6   9  10   58.28    3.06
   6  -9  11    0.57    0.70
   9   6  11    0.42    0.92
  -6   9  11    1.30    0.82
  -6   9  11    1.66    0.96
  -9  -6  11    3.92    1.17
  -9  -6  11   -0.93    1.68
   6  -9  12    6.01    1.22
  -9  -6  12    6.58    2.65
  -6   9  12    4.71    1.16
  -6   9  12    5.01    1.21
   9   6  12    3.79    1.04
  -9  -6  12    5.26    1.25
   6  -9  13   13.74    1.72
   9   6  13    9.34    1.54
  -6   9  13   14.00    1.72
   9   6  13   10.88    1.57
  -6   9  13   10.41    1.62
   9   6  14   42.77    2.87
   6  -9  14   43.71    2.84
  -6   9  14   39.09    2.80
   9   6  14   39.55    2.82
  -6   9  14   45.58    2.88
  -6   9  15    3.35    1.20
   9   6  15    1.33    0.96
  -6   9  15    0.92    0.89
   9   6  15    1.48    0.94
   9   6  16    5.38    1.12
  -6   9  16    6.34    1.15
   6  -9  16    5.19    1.18
   9   6  16    4.88    1.16
   9   6  17   -0.21    0.79
   9   6  17   -0.29    0.68
   6  -9  17    0.22    0.74
   9   6  18    7.99    1.21
   9   6  18    6.22    0.92
   6  -9  18    7.58    1.01
  -9  -7   0   58.10    4.66
  -9  -7   1    4.86    1.80
  -9  -7  -1    5.46    1.93
  -9  -7   2   67.00    5.06
  -9  -7   3   78.33    5.44
  -9  -7   4  224.50    9.32
  -9  -7   5    0.03    1.64
  -9  -7   6    9.77    2.52
  -9  -7   7    8.81    2.39
  -9  -7   8   14.89    2.99
  -9  -7   9   14.25    3.20
  -7   9  10    1.33    0.83
   9   7  10    0.03    0.79
  -9  -7  10   -0.10    2.10
  -7   9  10    1.64    0.96
  -7   9  11   11.11    1.53
   9   7  11    9.38    1.39
  -9  -7  11    6.22    2.18
  -7   9  11    9.62    1.53
   7  -9  11   10.45    1.45
  -7   9  12   22.32    2.08
   7  -9  12   22.19    2.10
  -7   9  12   20.29    2.10
   9   7  12   17.30    1.87
   9   7  12   21.12    2.11
  -9  -7  12   15.56    3.34
  -7   9  13    4.20    1.28
   7  -9  13    1.90    0.91
  -7   9  13    2.26    0.95
   9   7  13    3.59    1.21
   9   7  13    3.80    1.16
   7  -9  14    3.54    1.14
   9   7  14    1.38    0.85
  -7   9  14    1.80    0.94
   9   7  14    3.02    1.19
   9   7  15    0.13    0.79
  -7   9  15   -0.12    0.73
   9   7  15    0.18    0.81
   9   7  16    9.95    1.47
   9   7  16   10.98    1.48
   7  -9  16   10.91    1.44
   9   7  17    1.00    0.80
   9   7  17    2.37    0.88
   7  -9  17    0.51    0.71
   9   7  18    1.71    0.78
   9   7  18    0.01    0.54
   7  -9  18    1.22    0.68
  -9  -8   0   27.06    3.45
  -9  -8   1    0.16    1.47
  -9  -8  -1    2.42    1.68
  -9  -8   2   56.39    4.77
  -9  -8   3   81.12    5.75
  -9  -8   4   73.34    5.58
  -9  -8   5   -0.05    1.45
  -9  -8   6   72.22    5.95
  -9  -8   7   -0.03    1.43
  -9  -8   8    8.25    2.60
  -9  -8   9   44.94    5.30
   9   8  10   13.93    1.67
  -8   9  10   15.42    1.71
  -9  -8  10   17.50    3.45
  -8   9  10   15.27    1.80
   9   8  11    1.33    0.85
   8  -9  11    2.51    0.96
  -8   9  11    2.10    1.11
  -8   9  11    1.88    0.99
   8  -9  12    0.47    0.94
  -8   9  12   -0.75    0.80
   9   8  12    1.22    0.96
   9   8  12    2.68    1.16
  -8   9  13    0.14    0.82
   8  -9  13    0.35    0.80
   9   8  13    1.05    0.85
   9   8  13    0.17    0.76
   8  -9  14    2.58    1.03
  -8   9  14    3.79    1.00
   9   8  14    1.91    0.96
   9   8  14    2.66    1.05
   9   8  15   -1.48    1.00
   8  -9  15    1.29    0.77
   9   8  15    0.33    0.77
   8  -9  16    0.31    0.78
   9   8  16   -0.31    0.86
   9   8  16    0.93    0.81
   8  -9  17   11.82    1.39
   9   8  17   13.07    1.43
   9   8  17   11.12    1.40
   9   8  18    0.71    0.69
   9   8  18    1.21    0.64
   8  -9  18    1.15    0.59
  -9  -9   0  712.52   16.71
  -9  -9   1   37.34    4.10
  -9  -9  -1   36.66    4.14
  -9  -9   2  121.99    7.14
  -9  -9   3   68.23    5.40
  -9  -9   4  579.58   15.75
  -9  -9   5    3.15    1.49
  -9  -9   6    8.41    2.11
  -9  -9   7   18.85    3.34
  -9  -9   8  254.87   12.18
  -9   9   9    3.10    1.12
  -9  -9   9   -0.91    1.51
  -9  -9  10   12.91    3.06
  -9   9  10   15.18    1.69
   9   9  10   14.95    1.64
   9   9  11    4.68    1.18
  -9   9  11    4.12    1.01
   9   9  11    2.37    0.92
  -9   9  12   80.19    3.79
   9   9  12   75.21    3.77
   9  -9  12   78.90    3.88
   9   9  12   78.51    3.81
  -9   9  13    7.77    1.32
   9  -9  13    8.22    1.54
   9   9  13    8.82    1.49
   9   9  13    8.12    1.41
   9   9  14    0.40    0.76
   9  -9  14    2.08    0.88
   9   9  14    1.02    0.91
   9   9  15    0.25    0.82
   9   9  15    0.76    0.83
   9   9  16   25.85    2.13
   9   9  16   26.51    2.10
   9  -9  16   29.03    2.12
   9  -9  17    0.23    0.67
   9   9  17   -0.12    0.70
   9   9  17    0.55    0.79
   9   9  18   -0.01    0.50
   9   9  18    1.69    0.67
   9  -9  18    2.34    0.68
  -9 -10   0   10.80    2.46
  -9 -10   1    9.33    2.36
  -9 -10  -1    8.95    2.47
  -9 -10  -2   95.85    6.55
  -9 -10   2   89.16    6.31
  -9 -10   3  213.84    9.66
  -9 -10   4    6.83    2.41
  -9 -10   5   17.99    3.12
  -9 -10   6   21.60    3.49
  -9 -10   7    4.04    2.17
  -9 -10   8   13.36    3.26
  -9 -10   9   97.77    7.94
 -10   9   9   99.81    4.08
 -10   9  10   51.77    3.02
   9  10  10   53.50    3.11
   9  10  11    2.05    0.95
   9  10  11    3.24    0.89
  -9 -10  11    5.30    2.17
 -10   9  11    3.50    1.07
 -10   9  12    2.66    1.00
   9  10  12    2.93    0.99
  10  -9  12    4.73    1.28
   9  10  12    3.00    0.99
   9  10  13    2.41    0.99
   9  10  13    1.45    0.90
  10  -9  13   -0.02    0.89
  10  -9  14    0.80    0.79
   9  10  14    0.60    0.89
   9  10  14   -0.27    0.88
   9  10  15    4.02    1.11
   9  10  15    2.27    0.94
   9  10  16    0.74    0.75
  10  -9  16    1.48    0.87
   9  10  16    1.08    0.83
  10  -9  17    3.93    0.83
   9  10  17    4.39    0.95
   9  10  17    6.45    1.03
  -8 -10   0  126.51    7.16
  -8 -10   1   45.51    4.38
  -8 -10  -1   46.54    4.55
  -8 -10   2   16.61    2.82
 -10   8   2   16.24    2.23
 -10   8   3   91.96    5.42
  -8 -10   3   89.83    6.13
 -10   8   4   17.63    2.70
  -8 -10   4   13.03    2.69
  -8 -10   5    9.09    2.41
 -10   8   5    9.26    2.29
  -8 -10   6    7.97    2.33
  -8 -10   7    1.22    1.34
  -8 -10   8    0.78    1.61
  -8 -10   9    8.82    2.58
 -10   8   9   10.11    1.39
 -10   8  10    7.35    1.28
  -8 -10  10    3.83    1.90
   8  10  10    7.12    1.30
   8  10  11    5.54    1.21
   8  10  11    3.41    1.01
 -10   8  11    3.68    1.02
   8  10  12    4.96    1.03
 -10   8  12    8.63    1.46
  10  -8  12    5.27    1.28
   8  10  12    5.96    1.31
   8  10  13    4.53    1.19
  10  -8  13    6.29    1.25
   8  10  13    7.83    1.32
  10  -8  14    2.03    0.93
   8  10  14    0.95    0.78
   8  10  14    1.04    0.88
  10  -8  15    1.11    0.85
   8  10  15    0.85    0.85
   8  10  15    0.18    0.72
   8  10  16   -0.38    0.78
   8  10  16   -1.00    0.91
  10  -8  16    0.83    0.81
  10  -8  17   -0.19    0.70
   8  10  17    0.25    0.70
   8  10  17    0.90    0.71
  -7 -10   0    1.08    1.50
 -10   7   0    0.63    0.73
  -7 -10   1   32.82    3.72
 -10   7   1   37.23    2.92
  -7 -10   2   92.50    5.89
 -10   7   2  100.24    5.14
  -7 -10   3   11.00    2.29
 -10   7   3    9.74    1.97
 -10   7   4    7.16    1.98
  -7 -10   4    6.19    1.96
 -10   7   5   63.35    5.07
  -7 -10   5   57.05    4.93
 -10   7   6    1.56    1.58
  -7 -10   6    0.56    1.42
  -7 -10   7   13.76    2.85
 -10   7   7   13.59    2.89
  -7 -10   8   11.49    2.69
  -7 -10   9    7.74    2.54
 -10   7  10    1.94    0.80
   7  10  10    2.76    1.01
   7  10  11    1.02    0.77
 -10   7  11    1.36    0.83
   7  10  11    1.16    0.78
   7  10  12    3.51    1.05
   7  10  12    2.09    0.95
  10  -7  12    4.57    1.15
 -10   7  12    3.56    0.92
   7  10  13   16.60    1.93
  10  -7  13   15.37    1.93
   7  10  13   15.83    1.79
   7  10  14   18.12    1.97
  10  -7  14   18.50    2.08
   7  10  14   18.89    1.94
   7  10  15    2.69    0.98
  10  -7  15   -0.56    0.84
   7  10  15    1.15    0.95
   7  10  16    2.83    1.02
   7  10  16    4.17    1.14
  10  -7  16    2.39    1.04
   7  10  17    3.26    0.91
  10  -7  17    3.07    0.93
   7  10  17    3.97    0.95
  10  -7  18   -0.13    0.67
   7  10  18    1.15    0.65
   7  10  18    0.24    0.54
 -10   6   0  154.41    5.14
  -6 -10   0  150.19    7.21
  -6 -10   1   16.99    2.76
 -10   6   1   16.80    2.02
 -10   6   2   28.69    2.86
  -6 -10   2   23.93    3.09
 -10   6   3   67.26    4.61
  -6 -10   3   62.96    4.82
 -10   6   4  512.60   13.36
  -6 -10   4  452.11   12.90
  -6 -10   5   54.24    4.72
 -10   6   5   63.26    5.14
  -6 -10   6  111.41    6.87
 -10   6   6  129.67    7.58
 -10   6   7    4.70    2.00
  -6 -10   7    7.81    2.14
  -6 -10   8  150.53    8.64
 -10   6   8  160.30    9.38
  -6 -10   9   19.37    3.33
 -10   6   9   17.03    3.57
 -10   6  10    8.73    1.36
   6  10  10    7.45    1.31
   6  10  11   22.73    2.01
 -10   6  11   24.74    2.09
   6  10  11   25.03    2.21
   6  10  12   22.00    2.08
   6  10  12   23.84    2.12
   6  10  13    8.21    1.42
  10  -6  13    5.30    1.24
   6  10  13    6.50    1.34
  10  -6  14    1.94    1.07
   6  10  14    3.40    1.16
   6  10  14    3.42    1.09
  10  -6  15    1.57    0.92
   6  10  15    0.01    0.83
   6  10  15    0.40    0.78
   6  10  16   14.74    1.63
   6  10  16   16.86    1.76
  10  -6  16   16.70    1.83
   6  10  17    3.25    0.94
   6  10  17    4.29    1.04
  10  -6  17    3.37    1.00
  10  -6  18    0.87    0.72
   6  10  18    0.44    0.54
   6  10  18    1.82    0.72
 -10   5   0    0.91    0.69
  -5 -10   1   22.10    2.95
 -10   5  -1   16.76    1.59
 -10   5   1   16.79    2.04
 -10   5   2   66.66    4.24
  -5 -10   2   62.76    4.56
 -10   5   3   31.77    3.19
  -5 -10   3   29.40    3.25
 -10   5   4   11.20    2.24
  -5 -10   4    9.17    2.12
  -5 -10   5   53.15    4.43
 -10   5   5   53.45    4.64
  -5 -10   6  164.80    7.98
 -10   5   6  174.03    8.81
  -5 -10   7    5.19    1.73
 -10   5   7    7.44    2.38
 -10   5   8    1.64    1.98
  -5 -10   8    1.32    1.42
 -10   5   9   11.06    2.89
  -5 -10   9    9.48    2.33
 -10   5  10    8.04    2.72
   5  10  10   10.58    1.49
   5  10  11    1.88    0.94
   5  10  11    0.29    0.77
   5  10  12    1.48    0.92
   5  10  12    1.37    0.80
   5  10  13    0.92    0.79
   5  10  13    2.05    0.93
  10  -5  13    1.06    0.92
  10  -5  14    9.77    1.59
   5  10  14    8.40    1.44
   5  10  14    9.45    1.48
   5  10  15    2.97    0.98
   5  10  15    1.49    0.82
  10  -5  15    1.51    0.95
  10  -5  16    2.30    1.06
   5  10  16    0.16    0.77
   5  10  16    1.24    0.85
  10  -5  17   -0.11    0.82
   5  10  17   -0.66    0.78
   5  10  17    0.75    0.80
   5  10  18    2.83    0.86
   5  10  18    1.52    0.65
  10  -5  18    0.41    0.69
 -10   4   0  195.12    6.06
  -4 -10   1   -0.23    1.24
 -10   4  -1    0.55    0.69
 -10   4   1    0.27    1.01
  -4 -10   2   18.16    2.61
 -10   4  -2   15.79    1.42
 -10   4   2   15.16    2.21
 -10   4   3    0.61    1.03
  -4 -10   3    1.03    1.30
  -4 -10   4  278.13    9.31
 -10   4   4  298.17   10.04
 -10   4   5   -0.20    1.23
  -4 -10   5    1.66    1.36
  -4 -10   6   10.41    2.32
 -10   4   6    8.79    2.43
 -10   4   7    2.84    1.49
  -4 -10   7    2.68    1.30
  -4 -10   8  211.68    9.57
 -10   4   8  197.75   10.32
 -10   4   9    5.19    2.25
 -10   4  10   30.63    2.33
 -10   4  10   31.80    4.65
   4  10  10   32.36    2.36
   4  10  11    4.23    0.89
 -10   4  11    4.00    2.38
 -10   4  11    5.32    1.33
   4  10  11    4.68    1.15
   4  10  12   25.17    2.13
   4  10  12   23.96    2.17
 -10   4  12   22.19    2.20
   4  10  13    0.68    0.90
  10  -4  13    1.10    0.94
   4  10  13    0.44    0.84
   4  10  14    0.30    0.81
  10  -4  14    1.76    0.92
   4  10  14    0.52    0.93
   4  10  15    0.23    0.80
   4  10  15   -0.15    0.88
  10  -4  15    0.17    0.83
   4  10  16   26.35    2.19
   4  10  16   27.75    2.21
  10  -4  16   26.64    2.30
  10  -4  17   -1.75    0.96
   4  10  17   -1.16    0.79
   4  10  17    0.70    0.76
   4  10  18    0.64    0.61
  10  -4  18   -0.40    0.71
 -10   3   0   54.37    3.37
 -10   3   1   38.79    3.07
  -3 -10   1   37.43    3.35
 -10   3  -1   40.00    2.64
 -10   3   2  152.96    6.36
  -3 -10   2  145.16    6.31
 -10   3  -2  156.28    4.69
 -10   3   3   54.14    4.13
  -3 -10   3   53.18    3.96
 -10   3  -3   57.21    2.63
  -3 -10   4  125.60    6.05
 -10   3   4  138.79    6.86
  -3 -10   5   53.34    4.06
 -10   3   5   54.50    4.68
  -3 -10   6  854.99   16.71
 -10   3   6  824.08   18.67
 -10   3   7    0.89    1.44
  -3 -10   7    0.44    0.88
 -10   3   8   65.75    6.09
  -3 -10   8   73.48    5.38
 -10   3   9   16.51    3.52
   3  10  10   50.85    2.87
 -10   3  10   50.67    2.99
 -10   3  10   47.63    5.71
 -10   3  11    9.64    2.83
   3  10  11   10.25    1.41
 -10   3  11   11.88    1.73
   3  10  11    8.03    1.29
 -10   3  12    3.76    1.24
   3  10  12    1.02    0.80
   3  10  12    4.83    1.13
   3  10  13   -0.29    0.84
  10  -3  13   -0.89    0.87
   3  10  13    0.57    0.84
   3  10  14    4.33    1.15
  10  -3  14    5.61    1.29
   3  10  14    5.68    1.13
   3  10  15    6.66    1.28
  10  -3  15    3.74    1.11
   3  10  15    6.11    1.29
  10  -3  16    3.96    1.22
   3  10  16    4.95    1.23
   3  10  16    4.14    1.11
  10  -3  17   -0.12    0.84
   3  10  17   -0.23    0.77
   3  10  17    0.61    0.72
  10  -3  18    5.18    1.07
   3  10  18    5.30    0.91
 -10   2   0   22.97    2.20
 -10   2  -1   20.84    2.05
 -10   2   1   19.71    2.35
  -2 -10   1   20.88    2.50
 -10   2   2   60.96    4.13
  -2 -10   2   59.79    3.93
 -10   2  -2   66.00    3.33
  -2 -10   3   -0.08    0.89
 -10   2   3    0.74    1.22
 -10   2  -3    0.16    0.72
 -10   2  -4  140.92    4.62
  -2 -10   4  130.08    5.77
 -10   2   4  136.15    6.84
  -2 -10   5   22.34    2.54
 -10   2   5   18.54    2.85
 -10   2   6    6.15    2.15
  -2 -10   6    9.10    1.92
 -10   2   7   72.26    5.98
  -2 -10   7   80.58    5.12
 -10   2   8    2.82    1.92
 -10   2   9    1.72    1.75
 -10   2  10    2.63    1.62
   2  10  11   16.89    1.81
 -10   2  11   12.84    3.33
 -10   2  11   16.32    1.86
   2  10  11   15.24    1.70
 -10   2  12    9.40    1.59
   2  10  12    7.87    1.37
 -10   2  12    9.22    2.84
   2  10  12    8.96    1.44
  10  -2  13    0.73    0.84
   2  10  13    1.80    0.91
   2  10  13   -0.31    0.97
 -10   2  13    3.29    1.26
   2  10  14    1.31    0.88
  10  -2  14   -0.20    0.88
   2  10  14    1.47    0.91
   2  10  15    9.76    1.49
  10  -2  15    8.63    1.55
   2  10  15    9.90    1.49
   2  10  16    0.52    0.76
  10  -2  16   -0.31    0.78
   2  10  16   -0.39    0.73
  10  -2  17    0.56    0.92
   2  10  17    0.88    0.74
   2  10  17    3.01    0.94
   2  10  18    0.50    0.55
   2  10  18    1.72    0.83
 -10   1   0    0.01    0.92
 -10   1  -1    2.89    1.13
 -10   1   1    2.40    1.23
 -10   1   2  120.78    5.76
  -1 -10   2  110.21    5.01
 -10   1  -2  118.28    4.79
  -1 -10   3   13.90    1.89
 -10   1  -3   14.77    1.74
 -10   1   3   13.80    2.30
 -10   1   4    2.61    1.43
  -1 -10   4    4.85    1.25
 -10   1  -4    3.88    1.08
 -10   1   5    9.12    2.23
 -10   1  -5   12.62    1.66
  -1 -10   5    9.89    1.65
  -1 -10   6  105.48    5.30
 -10   1   6   94.57    6.40
 -10   1   7   11.72    2.69
 -10   1   8    3.79    2.06
 -10   1   9    2.43    1.68
 -10   1  10   47.29    5.73
   1  10  11    3.26    0.92
   1  10  11    2.88    1.04
 -10   1  11    5.36    1.34
   1  10  12    0.88    0.82
 -10   1  12    3.39    1.33
   1  10  12    0.95    0.88
   1  10  13    1.04    1.01
  10  -1  13    0.32    0.89
 -10   1  13    3.71    1.33
   1  10  13    1.12    0.91
   1  10  14   10.15    1.53
  10  -1  14    9.25    1.55
   1  10  14    9.62    1.52
   1  10  15    1.29    0.89
  10  -1  15   -0.17    0.86
   1  10  15    1.73    1.03
  10  -1  16    0.31    0.86
   1  10  16    0.01    0.73
   1  10  16    1.14    0.90
  10  -1  17    0.46    0.93
   1  10  17    0.84    0.80
   1  10  17    1.06    0.71
   1  10  18    2.81    0.81
  10  -1  18    1.12    0.83
   1  10  18    3.45    0.91
 -10   0   0  371.92    9.17
 -10   0  -1   19.71    2.19
 -10   0   1   19.88    2.37
 -10   0  -2   16.82    2.00
   0 -10   2   16.10    1.93
 -10   0   2   15.62    2.31
 -10   0   3   80.08    5.06
 -10   0  -3   82.13    4.18
   0 -10   3   75.77    3.92
 -10   0   4   14.88    2.52
 -10   0  -4   20.42    2.23
   0 -10   4   20.11    2.04
 -10   0  -5   67.12    3.93
 -10   0   5   66.05    5.09
   0 -10   5   68.29    3.80
 -10   0   6   61.39    5.25
 -10   0   7  151.13    8.48
 -10   0   8   67.83    6.11
 -10   0   9    8.75    2.73
 -10   0  10   19.37    3.72
   0  10  11   29.71    2.23
 -10   0  11   30.50    2.43
   0  10  11   31.25    2.38
 -10   0  11   28.41    4.70
   0  10  12   22.38    2.08
   0  10  12   22.97    2.11
 -10   0  12   26.60    4.57
 -10   0  12   24.68    2.28
   0  10  13    5.61    1.20
  10   0  13    3.44    1.19
 -10   0  13    7.16    1.51
   0  10  13    6.42    1.32
  10   0  14    8.39    1.54
   0  10  14    7.40    1.41
  10   0  14    9.46    1.44
   0  10  14   10.16    1.53
   0  10  15    7.46    1.39
  10   0  15    6.52    1.35
   0  10  15    8.33    1.48
  10   0  16   -0.46    0.84
   0  10  16   -0.40    0.72
   0  10  16    0.30    0.84
   0  10  17    2.47    0.86
   0  10  17    3.77    1.09
  10   0  17    0.43    0.86
   0  10  18    2.55    0.76
   0  10  18    4.42    1.04
 -10  -1   0    0.83    1.09
 -10  -1   1    3.93    1.42
 -10  -1  -1    3.15    1.29
   1 -10   2  101.65    4.23
 -10  -1  -2  112.35    5.14
 -10  -1   2  108.68    5.60
 -10  -1  -3   15.65    2.12
 -10  -1   3   16.42    2.50
   1 -10   3   14.26    1.61
 -10  -1   4    5.23    1.97
   1 -10   4    3.26    0.86
 -10  -1  -4    3.63    1.36
 -10  -1   5   10.08    2.25
 -10  -1   6   98.58    6.66
 -10  -1   7    9.89    2.58
 -10  -1   8    6.03    2.32
 -10  -1   9    4.59    1.96
 -10  -1  10   46.02    5.53
 -10  -1  11    0.73    1.67
 -10  -1  11    4.83    1.24
  -1  10  11    2.89    0.88
  -1  10  11    3.13    0.96
 -10  -1  12    2.95    1.24
  10   1  12   -0.51    1.05
  -1  10  12    1.72    0.93
  -1  10  12    0.79    0.85
 -10  -1  12    0.62    1.67
  10   1  13   -0.49    0.91
  -1  10  13    0.07    0.74
 -10  -1  13    2.43    1.18
  -1  10  13    0.11    0.83
  10   1  14    9.52    1.59
  -1  10  14    8.98    1.47
  -1  10  14   12.68    1.68
  10   1  14    9.93    1.46
  10   1  15    1.13    0.93
  -1  10  15   -0.67    0.84
  10   1  15    0.63    0.69
  -1  10  15    1.85    1.03
  -1  10  16    0.44    0.69
  -1  10  16    0.98    0.85
  10   1  16   -0.38    0.92
  -1  10  17    0.11    0.71
  -1  10  17    1.49    0.88
  10   1  17    0.06    0.89
  -1  10  18    1.77    0.72
  10   1  18    0.82    0.78
 -10  -2   0   24.30    2.69
 -10  -2  -1   18.59    2.32
 -10  -2   1   18.40    2.55
 -10  -2  -2   63.44    4.10
   2 -10   2   53.76    2.84
 -10  -2   2   59.76    4.30
 -10  -2   3    0.65    1.28
 -10  -2  -3    2.08    1.29
   2 -10   3    1.23    0.53
 -10  -2   4  132.44    6.92
 -10  -2   5   20.59    3.05
 -10  -2   6    8.26    2.45
 -10  -2   7   74.57    6.15
 -10  -2   8    3.44    2.04
 -10  -2   9    2.68    1.63
 -10  -2  10    4.21    1.98
 -10  -2  11   14.91    3.51
  -2  10  11   16.10    1.78
 -10  -2  11   17.42    1.89
  -2  10  11   16.78    1.75
  -2  10  12    8.65    1.43
  10   2  12    6.34    1.31
 -10  -2  12    9.67    1.60
 -10  -2  12    8.67    2.57
  -2  10  12   10.92    1.57
  10   2  13    0.28    0.78
  -2  10  13    1.33    0.94
  -2  10  13    2.93    1.15
  -2  10  14    0.33    0.81
  10   2  14    2.41    1.09
  -2  10  14    1.49    0.99
  10   2  14    1.95    0.86
  -2  10  15    9.26    1.42
  10   2  15   12.02    1.52
  10   2  15   11.03    1.69
  -2  10  15   10.44    1.56
  10   2  16    0.22    0.81
  10   2  16    0.28    0.90
  -2  10  16    0.91    0.81
  -2  10  16   -0.47    0.79
  -2  10  17    2.05    0.87
  -2  10  17    3.20    1.07
  10   2  17    0.38    0.95
  10   2  18   -0.49    0.79
 -10  -3   0   55.09    4.04
 -10  -3   1   36.96    3.45
 -10  -3  -1   37.67    3.39
 -10  -3   2  145.18    6.72
   3 -10   2  153.17    4.31
 -10  -3  -2  158.83    6.61
 -10  -3   3   54.14    4.44
 -10  -3  -3   62.86    4.28
 -10  -3   4  136.11    7.10
 -10  -3   5   52.37    4.80
 -10  -3   6  815.73   18.91
 -10  -3   7    0.56    1.43
 -10  -3   8   69.65    6.15
 -10  -3   9   16.33    3.32
 -10  -3  10   49.53    5.74
 -10  -3  11   13.74    1.73
  -3  10  11   10.46    1.51
  -3  10  11    9.91    1.50
 -10  -3  11    9.08    2.74
  -3  10  12    4.23    1.21
  10   3  12    2.17    0.94
  -3  10  12    3.63    1.04
 -10  -3  12    4.98    1.38
 -10  -3  12    4.51    2.26
  10   3  13    0.44    0.85
  -3  10  13   -0.85    0.96
  -3  10  13    0.94    0.87
  -3  10  14    8.01    1.43
  10   3  14    6.54    1.28
  10   3  14    4.27    1.21
  -3  10  14    8.42    1.44
  10   3  15    4.96    1.24
  -3  10  15    4.84    1.13
  -3  10  15    5.06    1.22
  10   3  15    5.68    1.24
  10   3  16    4.07    1.17
  -3  10  16    4.03    1.08
  10   3  16    3.96    1.02
  -3  10  16    4.26    1.18
  10   3  17   -2.13    1.06
  -3  10  17    0.19    0.64
  10   3  18    5.51    1.10
 -10  -4   0  188.56    7.52
 -10  -4   1    0.65    1.25
 -10  -4  -1    0.08    1.21
 -10  -4   2   16.07    2.64
 -10  -4  -2   15.98    2.45
 -10  -4  -3    1.21    1.44
 -10  -4   3    0.02    1.34
 -10  -4   4  292.31   10.50
 -10  -4   5    0.36    1.68
 -10  -4   6   12.90    3.05
 -10  -4   7    3.21    1.71
 -10  -4   8  196.50   10.45
 -10  -4   9    3.81    1.94
  -4  10  10   31.49    2.33
 -10  -4  10   32.55    4.78
  -4  10  11    5.04    1.15
 -10  -4  11    8.50    1.47
 -10  -4  11    5.77    2.89
  -4  10  11    5.05    1.12
  10   4  12   22.14    2.22
  -4  10  12   23.82    2.18
  -4  10  12   23.97    2.15
 -10  -4  12   18.76    3.96
  -4  10  13    1.71    0.93
  10   4  13    0.59    0.80
  -4  10  13    1.25    0.97
  10   4  14   -0.54    0.82
  -4  10  14    1.12    0.80
  -4  10  14    0.65    0.97
  10   4  14    0.34    0.72
  10   4  15    0.35    0.70
  -4  10  15    1.00    0.99
  -4  10  15    0.92    0.78
  10   4  15   -0.34    0.94
  10   4  16   23.82    1.98
  10   4  16   26.41    2.25
  -4  10  16   28.84    2.28
  -4  10  16   24.59    2.06
  10   4  17   -0.45    0.92
  -4  10  17   -1.37    0.74
  10   4  17    0.83    0.73
  10   4  18    0.65    0.75
 -10  -5   0    0.83    1.32
 -10  -5  -1   20.92    2.92
 -10  -5   1   16.80    2.74
 -10  -5  -2   68.92    4.81
 -10  -5   2   61.22    4.69
 -10  -5   3   26.97    3.36
 -10  -5   4   12.13    2.49
 -10  -5   5   46.62    4.58
 -10  -5   6  162.14    8.74
 -10  -5   7    4.02    1.81
 -10  -5   8    1.19    1.74
 -10  -5   9    8.98    2.68
  -5  10  10    9.54    1.45
 -10  -5  10    6.25    2.48
 -10  -5  11    1.13    1.57
  10   5  11   -0.98    0.91
  -5  10  11    0.81    0.83
  -5  10  11    1.44    0.89
  -5  10  12    2.65    1.10
  10   5  12    0.82    0.87
 -10  -5  12    0.30    1.59
  -5  10  12   -0.35    0.78
  -5  10  13    1.69    0.90
  10   5  13    2.11    0.97
  10   5  13    1.39    0.89
  -5  10  13    1.50    0.93
  -5  10  14   11.22    1.61
  10   5  14   10.41    1.58
  -5  10  14    9.79    1.56
  10   5  14    9.55    1.46
   5 -10  14   11.28    1.50
  -5  10  15    4.11    1.25
  -5  10  15    3.58    1.18
  10   5  15    2.70    0.91
   5 -10  15    3.41    1.04
  10   5  15    1.09    0.84
  -5  10  16   -0.05    0.77
  10   5  16    0.92    0.78
  10   5  16    1.20    0.86
  10   5  17    1.93    0.81
  10   5  17   -0.88    0.95
  10   5  18    1.18    0.71
 -10  -6   0  150.25    7.16
 -10  -6   1   13.05    2.47
 -10  -6  -1   11.69    2.34
 -10  -6  -2   37.47    3.78
 -10  -6   2   28.78    3.52
 -10  -6   3   65.91    5.14
 -10  -6   4  476.30   13.83
 -10  -6   5   57.57    5.12
 -10  -6   6  122.49    7.75
 -10  -6   7   11.82    2.73
 -10  -6   8  144.26    9.13
 -10  -6   9   13.77    3.16
  -6  10  10    8.08    1.33
 -10  -6  10    4.56    2.02
  -6  10  10    9.06    1.39
  10   6  11   20.22    2.03
  -6  10  11   24.64    2.23
 -10  -6  11   23.92    4.20
  -6  10  11   23.66    2.13
 -10  -6  12   25.79    4.34
  -6  10  12   26.50    2.28
  10   6  12   21.30    2.10
  -6  10  12   22.69    2.15
   6 -10  13    6.42    1.25
  -6  10  13    8.03    1.41
  10   6  13    7.00    1.43
  -6  10  13   10.99    1.68
  10   6  13    7.57    1.40
   6 -10  14    3.07    0.98
  -6  10  14    1.80    0.92
  10   6  14    1.85    0.96
  -6  10  14    5.22    1.40
  10   6  14    1.73    0.91
  10   6  15    1.01    0.83
  10   6  15    0.16    0.81
  -6  10  15    1.81    0.92
   6 -10  15   -1.21    0.78
  -6  10  16   17.57    1.70
   6 -10  16   16.76    1.68
  10   6  16   14.98    1.68
  10   6  16   14.48    1.74
  10   6  17    3.13    0.93
  10   6  17    2.80    0.82
  10   6  18    0.98    0.53
  10   6  18    1.26    0.72
 -10  -7   0    1.07    1.48
 -10  -7   1   30.31    3.64
 -10  -7  -1   36.74    3.88
 -10  -7   2   94.62    6.14
 -10  -7  -2   99.97    6.21
 -10  -7   3   10.37    2.43
 -10  -7   4    5.24    2.05
 -10  -7   5   60.31    5.33
 -10  -7   6    4.43    2.09
 -10  -7   7   10.93    2.71
 -10  -7   8   15.12    3.19
 -10  -7   9    9.64    2.82
  -7  10  10    1.48    0.71
  -7  10  10    3.71    1.15
 -10  -7  10    5.60    2.27
  -7  10  11    0.57    0.79
  10   7  11    2.67    1.13
  -7  10  11    3.27    1.18
 -10  -7  11    2.36    2.15
  -7  10  12    2.84    1.11
   7 -10  12    3.79    1.08
  -7  10  12    2.62    1.16
  10   7  12    3.86    1.15
  10   7  13   17.35    1.96
   7 -10  13   18.65    1.92
  10   7  13   15.01    1.84
  -7  10  13   14.78    1.78
  10   7  14   18.94    2.00
   7 -10  14   24.08    2.13
  -7  10  14   21.09    2.07
  10   7  14   21.28    2.11
   7 -10  15   -0.23    0.75
  10   7  15    1.16    0.91
  -7  10  15    0.15    0.68
  10   7  15    0.86    0.74
   7 -10  16    1.57    0.76
  10   7  16    2.62    1.00
  10   7  16    3.14    1.00
  10   7  17    3.37    0.97
  10   7  17    3.08    0.84
  10   7  18    1.17    0.65
  10   7  18    0.86    0.56
 -10  -8   0  126.35    7.09
 -10  -8   1   46.80    4.47
 -10  -8  -1   42.16    4.29
 -10  -8   2   14.13    2.77
 -10  -8  -2   18.81    3.18
 -10  -8   3   86.28    6.17
 -10  -8   4   13.58    2.61
 -10  -8   5    7.65    2.15
 -10  -8   6    6.02    2.33
 -10  -8   7    2.64    1.77
 -10  -8   8    0.57    1.70
  -8  10   9   10.94    1.46
 -10  -8   9    8.67    2.49
  -8  10  10    8.62    1.39
 -10  -8  10    6.63    2.34
  10   8  10    6.17    1.16
 -10  -8  11    6.65    2.32
  -8  10  11    4.61    1.10
  10   8  11    3.12    0.98
   8 -10  11    5.22    1.31
  -8  10  12    6.41    1.30
  10   8  12    5.80    1.31
  10   8  12    5.53    1.22
   8 -10  12    6.78    1.27
  10   8  13    6.44    1.38
   8 -10  13    5.54    1.23
  -8  10  13    4.65    1.20
  10   8  13    5.82    1.31
  -8  10  14    1.69    0.91
  10   8  14    1.02    0.86
   8 -10  14    1.95    0.89
  10   8  14    1.04    0.92
  10   8  15   -0.74    0.90
  10   8  15    0.78    0.77
   8 -10  15    0.26    0.75
   8 -10  16    0.32    0.73
  10   8  16    0.70    0.86
  10   8  17    0.07    0.64
  10   8  17    0.58    0.76
 -10  -9   0   15.06    3.06
 -10  -9   1    8.21    2.31
 -10  -9  -1    8.94    2.46
 -10  -9  -2  100.27    6.69
 -10  -9   2   87.00    6.24
 -10  -9   3  204.37    9.58
 -10  -9   4    3.96    1.65
 -10  -9   5   17.84    3.17
 -10  -9   6   24.08    3.72
 -10  -9   7    3.00    1.83
 -10  -9   8   11.78    3.07
  -9  10   9  111.47    4.30
 -10  -9   9  102.80    8.27
 -10  -9  10   44.20    5.51
  -9  10  10   50.31    3.06
  10   9  10   52.88    3.06
  -9  10  11    3.27    1.10
  10   9  11    3.87    1.20
 -10  -9  11    3.53    2.09
   9 -10  11    2.87    0.88
  -9  10  12    3.07    1.02
  10   9  12    4.24    1.18
   9 -10  12    2.73    1.02
  10   9  12    5.31    1.32
   9 -10  13    0.94    0.81
  10   9  13    1.33    0.81
  -9  10  13    1.06    0.90
  10   9  13    2.37    1.02
  10   9  14    2.09    0.98
   9 -10  14    0.50    0.81
  10   9  14   -0.52    0.86
   9 -10  15    5.14    1.12
  10   9  15    2.24    0.86
  10   9  15    5.65    1.29
  10   9  16    1.01    0.78
   9 -10  16    1.14    0.81
  10   9  16    1.37    0.91
  10   9  17    5.12    0.98
  10   9  17    6.97    1.13
 -10 -10   0  463.34   14.49
 -10 -10   1    3.51    1.74
 -10 -10  -1    2.01    1.74
 -10 -10  -2  100.62    6.94
 -10 -10   2   92.88    6.68
 -10 -10   3   29.54    3.97
 -10 -10   4   52.28    5.18
 -10 -10   5   16.84    3.15
 -10 -10   6   63.65    5.95
 -10 -10   7    2.54    1.96
 -10  10   8   24.08    2.11
 -10 -10   8   21.15    3.92
 -10 -10   9   19.95    3.96
  10  10   9   19.14    1.79
 -10  10   9   19.51    1.98
 -10  10  10    0.97    0.86
 -10 -10  10   -0.38    1.05
 -10 -10  11   15.16    3.96
 -10  10  11   13.83    1.74
  10  10  11   15.93    1.79
  10  10  11   13.68    1.72
  10 -10  12   50.92    3.16
  10  10  12   55.07    3.16
  10  10  12   51.17    3.16
 -10  10  12   55.45    3.20
  10  10  13    1.99    0.85
  10 -10  13    0.83    0.74
  10  10  13    1.99    0.99
  10 -10  14    0.11    0.71
  10  10  14   -0.69    0.78
  10  10  14    0.72    0.82
  10 -10  15   15.32    1.66
  10  10  15   14.93    1.69
  10  10  15   14.63    1.75
  10 -10  16    2.43    0.89
  10  10  16    2.92    0.88
  10  10  17    2.32    0.82
  10  10  17    1.51    0.76
 -10 -11   0   44.11    4.85
 -10 -11   1    9.46    2.54
 -10 -11  -1   16.16    3.31
 -10 -11  -2   36.47    4.52
 -10 -11   2   30.63    4.15
 -10 -11   3   17.01    3.20
 -10 -11   4    6.73    2.06
 -10 -11   5    2.78    1.56
 -10 -11   6   12.53    2.81
 -10 -11   7   11.67    3.07
 -11  10   8    9.47    1.39
 -10 -11   8    9.65    2.85
  10  11   8   12.31    1.51
 -11  10   9    2.08    0.81
 -10 -11   9    6.17    2.25
  10  11   9    5.15    1.03
 -11  10  10    5.26    1.23
  10  11  10    6.99    1.26
 -10 -11  10    9.01    2.18
  10  11  11    3.14    0.98
  11 -10  12   -1.14    0.93
  10  11  12    1.04    0.89
  10  11  13   15.21    1.82
  11 -10  13   16.87    1.92
  10  11  13   14.96    1.74
  10  11  14   -0.79    0.74
  10  11  14   -0.79    0.93
  11 -10  14    1.51    0.93
  10  11  15    2.22    0.93
  11 -10  15    3.12    1.00
  10  11  15    4.29    1.21
  10  11  16   -0.31    0.78
  10  11  16    0.52    0.68
  11 -10  16   -0.30    0.69
  10  11  17    0.87    0.63
  -9 -11   0   24.08    3.68
  -9 -11   1    2.66    1.74
  -9 -11  -1    1.98    1.73
  -9 -11  -2   50.85    5.13
  -9 -11   2   47.52    4.79
  -9 -11   3    9.91    2.33
  -9 -11   4   15.87    2.87
  -9 -11   5   21.20    3.47
  -9 -11   6   25.62    3.81
  -9 -11   7    2.32    1.85
 -11   9   8   -0.11    0.68
  -9 -11   8    1.48    1.26
   9  11   9    5.15    0.97
 -11   9   9    7.65    1.30
  -9 -11   9    6.44    2.53
  -9 -11  10    8.06    2.83
 -11   9  10   13.17    1.67
   9  11  10   10.92    1.50
   9  11  11    9.72    1.49
  11  -9  12    3.74    1.05
   9  11  12    2.95    1.04
  11  -9  13    1.27    0.87
   9  11  13    0.07    0.75
   9  11  13    0.10    0.82
   9  11  14    2.76    0.90
  11  -9  14    3.31    0.99
   9  11  14    3.92    1.19
  11  -9  15    0.90    0.75
   9  11  15    1.93    0.95
   9  11  15    0.65    0.78
  11  -9  16    1.07    0.73
   9  11  16    1.28    0.78
   9  11  16    0.35    0.76
   9  11  17    2.26    0.75
   9  11  17    2.10    0.73
  -8 -11   0    1.18    1.58
  -8 -11   1   17.68    3.10
  -8 -11  -1   17.88    3.15
 -11   8   2   58.00    4.09
  -8 -11   2   51.52    4.89
 -11   8   3   14.02    2.22
  -8 -11   3   11.84    2.49
  -8 -11   4    0.78    1.26
 -11   8   4    1.21    1.31
 -11   8   5   27.04    3.49
  -8 -11   5   24.81    3.60
 -11   8   6    1.74    1.37
  -8 -11   6    2.71    1.47
  -8 -11   7    9.10    2.62
  -8 -11   8    5.34    2.05
   8  11   9    2.71    0.91
 -11   8   9    2.24    0.87
  -8 -11   9    4.02    1.77
 -11   8  10   15.76    1.78
   8  11  10   15.65    1.79
  -8 -11  10   14.07    2.92
   8  11  11   -0.99    1.04
  11  -8  12    4.18    1.18
   8  11  12    1.09    0.80
   8  11  13    0.00    0.74
  11  -8  13   -1.14    0.89
   8  11  13    0.13    0.80
  11  -8  14    2.24    1.07
   8  11  14    0.90    0.86
   8  11  14   -0.56    0.85
  11  -8  15    1.37    0.81
   8  11  15    2.91    1.02
   8  11  15    1.30    0.85
  11  -8  16    1.18    0.85
   8  11  16   -0.80    0.78
   8  11  16    1.54    0.87
   8  11  17   -0.41    0.68
  11  -8  17   -0.23    0.74
   8  11  17    1.31    0.70
  -7 -11   0    5.06    1.93
 -11   7   1   42.12    3.19
  -7 -11   1   38.03    4.10
  -7 -11   2   -0.61    1.37
 -11   7   2   -0.14    0.90
  -7 -11   3    8.76    2.30
 -11   7   3    8.70    1.94
 -11   7   4  255.31    9.76
  -7 -11   4  223.13    9.76
  -7 -11   5    6.00    1.94
 -11   7   5    6.36    2.04
 -11   7   6  106.83    7.15
  -7 -11   6   90.18    6.52
 -11   7   7  104.43    7.49
  -7 -11   7   95.90    7.05
  -7 -11   8  159.54    9.33
 -11   7   8  163.58    9.76
 -11   7   9    1.37    0.68
   7  11   9    1.39    0.86
 -11   7  10   11.22    1.54
   7  11  10    9.62    1.42
   7  11  11    9.15    1.46
   7  11  12    6.79    1.40
   7  11  12    3.91    1.06
   7  11  13    1.08    0.72
   7  11  13    1.75    0.96
  11  -7  13   -0.03    0.87
   7  11  14    5.62    1.33
   7  11  14    1.63    0.85
  11  -7  14    4.56    1.18
   7  11  15   14.85    1.76
   7  11  15   14.87    1.69
  11  -7  15   13.36    1.69
   7  11  16   14.73    1.63
   7  11  16   17.11    1.65
  11  -7  16   15.00    1.68
   7  11  17    1.70    0.70
   7  11  17    2.59    0.88
  11  -7  17    1.53    0.79
  -6 -11   0   45.20    4.30
 -11   6   0   48.59    3.09
  -6 -11   1   93.53    5.99
 -11   6   1  102.80    5.00
 -11   6   2   62.75    4.29
  -6 -11   2   60.68    4.85
  -6 -11   3   68.32    5.25
 -11   6   3   68.58    4.81
  -6 -11   4   16.10    2.79
 -11   6   4   19.09    2.84
 -11   6   5    5.19    1.93
  -6 -11   5    3.15    1.61
 -11   6   6   99.75    6.88
  -6 -11   6   93.02    6.35
  -6 -11   7   19.32    3.08
 -11   6   7   20.83    3.54
  -6 -11   8   23.85    3.67
 -11   6   8   19.09    3.52
   6  11   9    3.12    0.86
 -11   6   9    5.34    2.39
  -6 -11   9    4.22    1.75
   6  11  10   46.59    2.84
   6  11  11    3.35    1.16
   6  11  12   -0.74    1.05
   6  11  12    0.14    0.84
  11  -6  13   11.21    1.71
   6  11  13   10.84    1.62
   6  11  13    8.55    1.42
   6  11  14    1.72    0.87
  11  -6  14    1.98    0.95
   6  11  14    0.57    0.80
   6  11  15    0.38    0.74
  11  -6  15    2.35    1.09
   6  11  15   -0.14    0.99
   6  11  16   -0.34    0.83
  11  -6  16    1.79    0.88
   6  11  16    0.65    0.81
  11  -6  17    2.25    0.84
   6  11  17    3.64    0.91
   6  11  17    2.69    0.88
  11  -6  18    1.13    0.69
   6  11  18    1.60    0.68
  -5 -11   0   12.61    2.49
 -11   5   0   14.54    1.79
 -11   5  -1    1.30    0.79
 -11   5   1    1.11    0.95
  -5 -11   1    0.18    1.26
 -11   5   2    5.22    1.44
  -5 -11   2    5.99    1.89
  -5 -11   3    3.33    1.50
 -11   5   3    3.34    1.54
 -11   5   4   37.58    3.85
  -5 -11   4   30.34    3.45
  -5 -11   5   19.11    2.85
 -11   5   5   26.14    3.48
 -11   5   6    8.74    2.25
  -5 -11   6   11.75    2.30
 -11   5   7   32.29    4.25
  -5 -11   7   31.64    3.85
  -5 -11   8   15.42    2.78
 -11   5   8   13.36    3.11
 -11   5   9    3.74    1.78
 -11   5  10    4.02    2.33
   5  11  10    6.42    1.22
   5  11  11    5.52    1.23
   5  11  12    5.81    1.29
   5  11  12    4.35    1.04
  11  -5  13    2.24    1.04
   5  11  13    2.46    1.02
   5  11  13    0.32    0.78
  11  -5  14    4.55    1.24
   5  11  14    4.68    1.11
   5  11  14    5.42    1.25
  11  -5  15    0.39    0.83
   5  11  15   -0.70    0.86
   5  11  15   -0.32    0.78
   5  11  16   -0.85    0.88
  11  -5  16   -0.03    0.81
   5  11  16    0.21    0.75
  11  -5  17   -1.02    0.83
   5  11  17   -0.25    0.77
   5  11  17    1.27    0.71
   5  11  18    0.98    0.59
   5  11  18    1.90    0.69
 -11   4   0    1.23    0.90
 -11   4   1   92.59    4.81
  -4 -11   1   94.07    5.56
 -11   4  -1   92.90    4.03
 -11   4   2    0.70    1.09
 -11   4  -2    0.55    0.54
  -4 -11   2    2.17    1.46
  -4 -11   3   72.62    5.01
 -11   4   3   79.13    5.06
 -11   4   4    2.19    1.48
  -4 -11   4    0.85    1.07
 -11   4   5    0.27    1.34
  -4 -11   5   -0.03    1.07
  -4 -11   6   18.61    2.69
 -11   4   6   17.19    3.07
 -11   4   7   19.72    3.36
  -4 -11   7   18.05    2.81
  -4 -11   8    9.52    2.14
 -11   4   8    5.94    2.17
 -11   4   9    3.51    1.85
   4  11  10    0.71    0.70
 -11   4  10    6.92    2.66
   4  11  11    3.69    1.03
 -11   4  11    1.68    1.63
   4  11  12    1.76    1.00
   4  11  12    2.22    0.84
   4  11  13    2.25    0.91
   4  11  13    1.16    0.86
  11  -4  13    1.55    0.82
   4  11  14    0.11    0.78
  11  -4  14    1.14    0.91
   4  11  14    0.51    0.91
   4  11  15    1.56    0.98
  11  -4  15    0.80    0.93
   4  11  15    2.31    1.00
  11  -4  16   -0.35    0.85
   4  11  16    0.67    0.87
   4  11  16   -0.47    0.83
   4  11  17   -0.32    0.77
  11  -4  17   -0.26    0.80
   4  11  17   -0.05    0.69
  11  -4  18    0.51    0.69
   4  11  18    0.56    0.64
   4  11  18    0.08    0.60
 -11   3   0   99.80    4.75
 -11   3  -1   11.93    1.67
  -3 -11   1   13.50    2.36
 -11   3   1   10.59    1.87
 -11   3  -2    4.61    0.98
 -11   3   2    6.06    1.55
  -3 -11   2    4.88    1.64
  -3 -11   3   39.63    3.53
 -11   3   3   46.79    4.05
 -11   3   4  197.37    8.47
  -3 -11   4  184.96    7.52
  -3 -11   5   30.59    3.17
 -11   3   5   30.25    3.67
  -3 -11   6   31.17    3.24
 -11   3   6   38.25    4.26
  -3 -11   7    0.25    0.64
 -11   3   7    0.83    1.63
 -11   3   8   67.27    6.27
 -11   3   9    2.06    1.67
 -11   3  10    3.58    1.95
   3  11  10    2.86    0.93
 -11   3  11   28.83    4.65
   3  11  11   29.16    2.34
   3  11  12    8.76    1.38
   3  11  12    7.80    1.35
   3  11  13    3.03    0.98
  11  -3  13    2.59    1.08
   3  11  13    3.41    1.13
  11  -3  14   -0.24    0.86
   3  11  14    0.16    0.80
   3  11  14    0.55    0.84
  11  -3  15    1.25    0.83
   3  11  15    2.01    0.91
   3  11  15    3.43    1.05
  11  -3  16    2.54    1.01
   3  11  16    3.69    1.03
   3  11  16    4.34    1.13
  11  -3  17    1.06    0.84
   3  11  17   -0.16    0.71
   3  11  17    0.91    0.82
  11  -3  18   -0.79    0.81
   3  11  18    0.01    0.57
 -11   2   0   29.94    2.74
 -11   2   1   16.37    2.20
  -2 -11   1   18.69    2.54
 -11   2  -1   17.34    2.00
 -11   2   2  263.74    8.76
  -2 -11   2  246.94    8.22
 -11   2  -2  266.61    7.03
  -2 -11   3    4.92    1.46
 -11   2   3    8.41    1.93
 -11   2  -3    6.84    1.22
 -11   2   4   27.55    3.34
  -2 -11   4   25.34    2.72
  -2 -11   5  107.45    5.54
 -11   2   5  105.09    6.57
  -2 -11   6  138.46    6.59
 -11   2   6  124.13    7.51
 -11   2   7    3.97    1.91
 -11   2   8   16.50    3.37
 -11   2   9    5.37    2.33
   2  11  10   50.75    2.90
 -11   2  10   49.87    5.95
 -11   2  11   -0.11    1.44
   2  11  11    0.71    0.84
   2  11  11   -0.06    0.80
   2  11  12   -0.83    1.02
 -11   2  12   -2.94    2.02
   2  11  12   -0.45    0.84
   2  11  13   26.91    2.30
   2  11  13   26.05    2.20
  11  -2  13   26.52    2.46
   2  11  14   13.82    1.71
   2  11  14   13.60    1.72
  11  -2  14   13.63    1.84
   2  11  15    3.97    1.14
  11  -2  15    3.13    1.08
   2  11  15    2.18    0.91
  11  -2  16    0.87    0.91
   2  11  16    0.37    0.86
   2  11  16    0.90    0.89
   2  11  17    9.38    1.30
  11  -2  17    8.78    1.41
   2  11  17    9.49    1.37
   2  11  18    4.16    0.86
   2  11  18    3.87    0.90
  11  -2  18    1.23    0.73
 -11   1   0   24.12    2.53
 -11   1  -1    2.55    1.02
 -11   1   1    3.74    1.40
 -11   1   2   33.72    3.40
 -11   1  -2   38.90    2.93
  -1 -11   2   35.07    3.04
 -11   1   3   38.76    3.62
  -1 -11   3   38.04    3.08
 -11   1  -3   45.56    3.12
 -11   1   4   71.31    5.23
 -11   1  -4   70.06    3.81
  -1 -11   4   65.30    4.04
  -1 -11   5   30.76    2.83
 -11   1   5   31.78    3.74
 -11   1   6    8.30    2.14
 -11   1   7    4.58    1.94
 -11   1   8    4.76    2.24
 -11   1   9    8.13    2.79
   1  11  10    2.96    0.89
 -11   1  10    2.15    1.66
 -11   1  11    4.91    2.08
   1  11  11    3.79    1.02
   1  11  11    5.07    1.15
 -11   1  12   10.78    3.10
   1  11  12   11.08    1.55
   1  11  12   10.17    1.49
   1  11  13    1.92    0.95
   1  11  13    3.74    1.09
  11  -1  13    3.10    1.12
   1  11  14    0.95    0.84
  11  -1  14   -1.13    0.95
   1  11  14    1.08    0.97
  11  -1  15    4.59    1.25
   1  11  15    6.47    1.28
   1  11  15    7.76    1.42
   1  11  16    1.22    0.94
   1  11  16    0.30    0.88
  11  -1  16    0.45    0.78
   1  11  17    2.25    0.88
  11  -1  17   -0.36    0.79
   1  11  17    1.87    0.93
  11  -1  18   -0.73    0.79
   1  11  18   -0.78    0.58
 -11   0   0   30.08    2.89
 -11   0  -1    0.15    0.93
 -11   0   1   -0.43    1.14
 -11   0  -2    1.17    0.99
 -11   0   2    2.83    1.31
   0 -11   2    2.74    1.11
 -11   0   3    0.58    1.34
 -11   0  -3    0.29    0.89
   0 -11   3    1.20    0.91
   0 -11   4   -0.15    0.60
 -11   0   4   -0.21    1.23
 -11   0  -4   -0.87    1.05
 -11   0   5    0.99    1.32
 -11   0  -5    0.00    0.94
 -11   0   6   48.91    4.93
 -11   0   7    0.16    1.76
 -11   0   8    2.31    2.09
 -11   0   9   -0.09    1.49
 -11   0  10    7.51    2.58
   0  11  10    2.55    0.89
   0  11  11   10.37    1.42
   0  11  11   10.03    1.44
 -11   0  11   11.52    3.15
 -11   0  12   -0.06    1.84
   0  11  12    1.02    0.80
   0  11  12    0.81    0.81
   0  11  13    2.13    0.91
  11   0  13    1.86    1.12
   0  11  13    2.57    1.09
   0  11  14    2.97    1.06
   0  11  14    3.83    1.15
  11   0  14    1.10    0.95
  11   0  15    3.51    1.21
   0  11  15    2.92    0.96
   0  11  15    2.47    0.96
   0  11  16    0.37    0.78
   0  11  16    2.06    0.97
   0  11  17    3.76    1.05
   0  11  17    2.52    0.89
  11   0  17    2.21    0.94
  11   0  18    0.01    0.81
   0  11  18   -0.07    0.57
 -11  -1   0   27.61    2.94
 -11  -1   1    4.27    1.62
 -11  -1  -1    2.96    1.24
 -11  -1   2   34.12    3.41
   1 -11   2   36.65    2.73
 -11  -1  -2   34.15    3.03
 -11  -1   3   36.56    3.71
   1 -11   3   42.61    2.86
 -11  -1  -3   43.59    3.43
 -11  -1  -4   72.69    4.41
 -11  -1   4   71.77    5.28
 -11  -1  -5   37.01    3.30
 -11  -1   5   28.79    3.67
 -11  -1   6    9.32    2.48
 -11  -1   7    3.58    1.90
 -11  -1   8    6.26    2.00
 -11  -1   9    6.44    2.58
 -11  -1  10    2.51    1.99
  -1  11  10    3.05    1.00
  -1  11  11    5.57    1.19
  -1  11  11    5.69    1.09
 -11  -1  11    2.89    1.92
 -11  -1  12    9.41    3.22
  -1  11  12   10.36    1.49
  -1  11  12   11.75    1.56
  11   1  13    1.56    0.87
  -1  11  13    1.92    0.93
  -1  11  13    3.25    1.16
  -1  11  14    0.00    0.75
  11   1  14    1.62    1.01
  -1  11  14    0.19    0.91
  11   1  14    1.32    0.84
  11   1  15    8.72    1.51
  -1  11  15    7.06    1.33
  -1  11  15    6.51    1.31
  11   1  15    6.15    1.18
  -1  11  16    1.47    0.92
  11   1  16    1.12    0.85
  -1  11  16    1.03    0.89
  11   1  17    1.31    0.91
  -1  11  17    0.94    0.81
  -1  11  17    2.37    0.99
  -1  11  18    0.72    0.52
  11   1  18   -0.88    0.85
 -11  -2   0   28.76    3.07
 -11  -2  -1   17.24    2.39
 -11  -2   1   16.87    2.47
 -11  -2   2  246.31    8.90
   2 -11   2  246.64    6.50
 -11  -2  -2  263.20    8.46
 -11  -2  -3    5.96    1.56
 -11  -2   3    7.10    1.79
 -11  -2   4   24.63    3.41
 -11  -2  -4   22.74    2.74
 -11  -2  -5  104.82    5.70
 -11  -2   5  107.77    6.90
 -11  -2   6  124.75    7.74
 -11  -2   7    4.28    1.92
 -11  -2   8   17.64    3.44
 -11  -2   9    8.09    2.66
 -11  -2  10   47.79    5.85
  -2  11  10   47.42    2.83
 -11  -2  11    2.33    1.60
  -2  11  11    0.22    0.76
  -2  11  11    0.34    0.89
  -2  11  12    1.17    0.87
  -2  11  12    1.09    0.89
  -2  11  13   27.63    2.33
  11   2  13   29.64    2.59
  -2  11  13   27.59    2.32
  11   2  14   12.25    1.84
  -2  11  14   14.45    1.78
  11   2  14   13.38    1.67
  -2  11  14   13.18    1.71
  11   2  15    1.52    1.01
  -2  11  15    2.94    1.03
  -2  11  15    4.07    1.21
  11   2  15    1.95    0.89
  11   2  16   -0.22    0.84
  -2  11  16    0.63    0.81
  -2  11  16    1.25    0.95
  11   2  16   -0.97    0.70
  11   2  17    7.65    1.29
  -2  11  17    8.95    1.23
  11   2  18    3.08    0.91
  -2  11  18    3.02    0.74
 -11  -3   0   95.39    5.51
 -11  -3  -1    9.85    2.00
 -11  -3   1    8.41    1.99
 -11  -3  -2    6.38    1.85
 -11  -3   2    3.28    1.71
   3 -11   2    6.27    1.04
 -11  -3  -3   43.11    3.81
 -11  -3   3   48.43    4.30
 -11  -3  -4  210.89    8.24
 -11  -3   4  201.81    8.90
 -11  -3   5   30.98    3.87
 -11  -3   6   36.07    4.34
 -11  -3   7   -1.16    1.48
 -11  -3   8   71.96    6.52
 -11  -3   9   -0.46    1.83
 -11  -3  10    3.68    2.21
  -3  11  10    3.69    1.03
  -3  11  11   28.85    2.33
  -3  11  11   28.87    2.27
 -11  -3  11   27.10    4.47
 -11  -3  12    4.98    2.32
  11   3  12    6.58    1.35
  -3  11  12    7.62    1.33
  -3  11  12    8.08    1.40
  -3  11  13    2.71    1.14
  -3  11  13    3.07    1.02
  11   3  13    2.74    1.14
  -3  11  14    0.28    0.80
  11   3  14    0.09    0.85
  -3  11  14    1.66    0.97
  11   3  14    2.18    0.95
  -3  11  15    3.67    1.04
  -3  11  15    4.21    1.19
  11   3  15    2.15    1.09
  11   3  15    1.63    0.88
  11   3  16    2.75    1.10
  -3  11  16    2.73    0.94
  11   3  16    2.77    0.95
  -3  11  17    0.33    0.65
  11   3  17   -1.19    0.88
  11   3  18   -0.14    0.69
 -11  -4   0    0.87    1.37
 -11  -4  -1   87.18    5.40
 -11  -4   1   87.47    5.50
 -11  -4   2   -0.32    1.30
 -11  -4  -2    1.72    1.43
 -11  -4   3   75.79    5.44
 -11  -4  -3   78.89    5.19
 -11  -4  -4    0.43    1.26
 -11  -4   4    0.68    1.56
 -11  -4   5    1.68    1.40
 -11  -4   6   19.46    3.35
 -11  -4   7   20.15    3.52
 -11  -4   8    7.79    2.57
 -11  -4   9    1.32    1.78
  -4  11  10    5.37    1.19
 -11  -4  10    1.54    1.85
  -4  11  11    2.45    0.97
  -4  11  11    5.34    1.27
 -11  -4  11    6.55    2.91
  -4  11  12    2.28    1.01
  -4  11  12    1.83    0.96
  11   4  12   -0.02    0.89
  -4  11  13    3.19    1.10
  11   4  13    2.87    0.99
  -4  11  13    3.18    1.22
  -4  11  14    1.59    0.95
  11   4  14    1.83    0.89
  -4  11  14    2.49    1.00
  11   4  14    1.86    0.93
  -4  11  15    1.57    0.92
  11   4  15    0.35    0.90
  11   4  15    1.41    0.87
  -4  11  15    2.16    1.09
  -4  11  16   -0.47    0.74
  11   4  16    0.36    0.90
  11   4  16   -0.24    0.67
  -4  11  17   -0.08    0.62
  11   4  17   -0.63    0.96
  11   4  17   -0.51    0.59
  11   4  18   -0.32    0.77
 -11  -5   0    9.52    2.00
 -11  -5   1   -0.70    1.53
 -11  -5  -1    0.96    1.29
 -11  -5   2    6.15    1.94
 -11  -5  -2    7.60    2.06
 -11  -5   3    1.62    1.39
 -11  -5  -3    4.17    1.72
 -11  -5   4   37.34    4.17
 -11  -5   5   22.15    3.50
 -11  -5   6    8.30    2.44
 -11  -5   7   27.09    4.01
 -11  -5   8   16.40    3.43
 -11  -5   9    5.40    2.25
  -5  11  10    6.97    1.29
  -5  11  10    5.25    1.21
 -11  -5  10    5.44    2.52
  -5  11  11    7.05    1.32
 -11  -5  11    3.60    2.06
  -5  11  11    7.08    1.36
 -11  -5  12    9.82    3.18
  -5  11  12    5.30    1.21
  -5  11  12    6.77    1.39
  11   5  12    6.71    1.37
  -5  11  13    1.96    1.00
  11   5  13    0.99    0.89
  -5  11  13    3.54    1.25
  11   5  14    6.09    1.28
  -5  11  14    5.67    1.25
  11   5  14    6.02    1.33
  -5  11  14    6.03    1.43
  -5  11  15    1.87    0.85
  11   5  15    2.35    0.99
  11   5  15    1.84    0.84
  11   5  16   -0.12    0.80
  -5  11  16   -0.45    0.75
  11   5  16    0.93    0.70
  11   5  17    2.01    0.78
  11   5  17   -0.59    0.84
  11   5  18   -0.33    0.73
 -11  -6   0   49.29    4.36
 -11  -6   1  103.19    6.41
 -11  -6  -1  107.73    6.42
 -11  -6  -2   69.97    5.28
 -11  -6   2   65.59    5.22
 -11  -6  -3   79.56    5.61
 -11  -6   3   68.07    5.43
 -11  -6   4   17.11    3.25
 -11  -6   5    5.90    2.03
 -11  -6   6   96.20    7.12
 -11  -6   7   20.37    3.61
 -11  -6   8   21.85    3.79
  -6  11   9    4.44    1.08
 -11  -6   9    2.03    1.78
  -6  11  10   47.46    2.91
 -11  -6  10   49.39    5.84
  -6  11  10   47.43    2.86
  -6  11  11    3.48    1.08
 -11  -6  11    2.72    2.00
  11   6  11    1.94    0.75
  -6  11  11    5.17    1.39
  -6  11  12    0.33    0.80
  11   6  12    1.13    0.97
  -6  11  12    2.49    1.14
  11   6  13   10.16    1.66
  11   6  13   11.09    1.61
  -6  11  13   11.52    1.62
  11   6  14    3.02    1.06
  -6  11  14    0.96    0.89
  11   6  14    2.51    1.08
  -6  11  15    2.66    1.01
  11   6  15    1.44    0.93
  11   6  15   -0.16    0.74
  11   6  16   -0.50    0.77
  -6  11  16    0.92    0.79
  11   6  16    2.01    0.89
  11   6  17    3.30    0.87
  11   6  17    1.98    0.92
  11   6  18    1.09    0.56
  11   6  18    2.04    0.81
 -11  -7   0    6.28    2.02
 -11  -7  -1   40.64    4.18
 -11  -7   1   35.55    4.02
 -11  -7  -2    3.38    1.92
 -11  -7   2    1.24    1.58
 -11  -7   3   10.52    2.52
 -11  -7  -3    8.38    2.19
 -11  -7   4  219.39   10.04
 -11  -7   5    6.30    2.21
 -11  -7   6  105.30    7.55
 -11  -7   7  102.59    7.65
 -11  -7   8  158.72    9.88
  -7  11   9    1.75    0.80
 -11  -7   9    1.89    2.19
 -11  -7  10   10.66    2.80
  -7  11  10   12.13    1.62
  11   7  11    9.78    1.52
  -7  11  11    8.68    1.46
 -11  -7  11    9.10    2.81
  -7  11  12    5.44    1.25
  11   7  12    5.53    1.26
  -7  11  13    2.35    1.13
  11   7  13    2.02    1.01
  11   7  13    1.14    0.87
  -7  11  14    4.44    1.17
  11   7  14    3.40    1.05
  11   7  14    1.91    0.95
  11   7  15   13.81    1.68
  -7  11  15   15.12    1.71
  11   7  15   14.80    1.77
  11   7  16   15.22    1.63
  11   7  16   14.90    1.64
  11   7  17    2.64    0.90
  11   7  17    2.49    0.83
 -11  -8   0   -0.30    1.50
 -11  -8   1   15.74    2.98
 -11  -8  -1   18.10    3.07
 -11  -8  -2   55.20    5.00
 -11  -8   2   56.22    5.15
 -11  -8   3    8.27    2.40
 -11  -8  -3   14.14    2.85
 -11  -8   4    1.21    1.60
 -11  -8   5   27.50    3.85
 -11  -8   6    0.58    1.71
 -11  -8   7    8.62    2.56
 -11  -8   8    7.73    2.48
 -11  -8   9    0.98    1.20
  -8  11   9    2.19    0.98
  -8  11  10   15.19    1.78
  11   8  10   14.95    1.75
  -8  11  11    1.60    0.98
  11   8  11   -0.52    0.82
 -11  -8  11    2.56    1.79
  11   8  12    1.70    1.00
  -8  11  12    2.91    1.07
  11   8  12    3.95    1.19
  -8  11  13    2.12    0.98
  11   8  13    0.19    0.75
  11   8  13    0.32    0.79
  -8  11  14    0.56    0.75
  11   8  14   -0.29    0.79
  11   8  14    1.44    0.95
  11   8  15    2.41    0.86
  11   8  15    3.49    1.05
  11   8  16   -0.60    0.87
  11   8  16    0.43    0.77
  11   8  17   -0.75    0.65
  11   8  17    1.02    0.68
 -11  -9   0   24.22    3.52
 -11  -9   1   -0.87    1.71
 -11  -9  -1    1.23    1.53
 -11  -9   2   46.30    4.79
 -11  -9  -2   50.38    4.92
 -11  -9  -3    9.26    2.58
 -11  -9   3   11.65    2.92
 -11  -9   4   18.21    3.36
 -11  -9   5   26.17    3.99
 -11  -9   6   26.49    4.04
 -11  -9   7    2.91    1.76
  -9  11   8    0.59    0.73
 -11  -9   8    1.76    1.73
  -9  11   9    6.40    1.29
  11   9   9    4.76    1.08
 -11  -9   9    4.16    2.10
  11   9  10   12.09    1.56
  -9  11  10   11.29    1.59
 -11  -9  10   10.35    3.02
  -9  11  11    8.43    1.35
  11   9  11   10.67    1.51
  -9  11  12    3.12    1.06
  11   9  12    4.01    1.14
  11   9  12    3.60    1.05
  -9  11  13    0.19    0.76
  11   9  13    1.23    1.00
  11   9  13    0.67    0.75
  11   9  14    4.28    1.13
  11   9  14    3.42    1.08
  11   9  15   -0.69    0.92
  11   9  15    1.68    0.88
  11   9  16    1.35    0.77
  11   9  16   -0.70    0.84
  11   9  17    0.31    0.61
  11   9  17    1.10    0.72
 -11 -10   0   38.50    4.40
 -11 -10   1   11.07    2.71
 -11 -10  -1    8.59    2.44
 -11 -10   2   34.20    4.27
 -11 -10  -2   33.19    4.29
 -11 -10   3   18.09    3.30
 -11 -10  -3   13.59    2.93
 -11 -10   4    4.69    1.95
 -11 -10   5    1.50    2.06
 -11 -10   6   15.23    3.28
 -11 -10   7    7.58    2.59
 -10  11   8    9.74    1.45
 -11 -10   8    9.06    2.80
  11  10   8   11.26    1.46
 -11 -10   9    2.01    1.74
  11  10   9    4.31    1.02
 -10  11   9    3.73    1.12
 -10  11  10    8.54    1.49
 -11 -10  10    6.28    2.35
 -10  11  11    7.78    1.38
  11  10  11    5.03    1.14
  11  10  11    4.71    1.18
  11  10  12    1.19    0.82
 -10  11  12    0.74    0.81
  10 -11  12    0.40    0.74
  11  10  12    1.50    0.98
  11  10  13   16.93    1.95
  10 -11  13   18.08    1.88
  11  10  13   15.46    1.72
  11  10  14   -0.74    0.86
  11  10  14   -0.76    0.88
  10 -11  14   -0.01    0.70
  11  10  15    0.74    0.79
  11  10  15    3.17    1.10
  11  10  16    0.73    0.76
  11  10  16    0.29    0.70
  11  10  17    0.62    0.65
  11  10  17    1.16    0.68
 -11 -11   0    2.89    1.52
 -11 -11  -1   -1.02    1.98
 -11 -11   1   -0.82    1.61
 -11 -11   2   26.25    3.95
 -11 -11  -2   25.78    3.93
 -11 -11  -3   37.37    4.63
 -11 -11   3   35.54    4.63
 -11 -11   4  337.66   13.56
 -11 -11   5   -0.49    1.46
 -11 -11   6   43.37    5.23
 -11  11   7   54.58    3.05
  11  11   7   58.37    3.01
  11  11   8   27.61    2.17
 -11 -11   8   32.42    4.76
 -11  11   8   30.27    2.39
  11  11   9    3.99    0.94
 -11  11   9    0.93    0.83
  11  11  10   -0.16    0.82
  11  11  10   -1.76    1.06
  11  11  11    0.05    0.77
  11  11  12   -0.04    0.86
  11 -11  12   -0.62    0.77
  11  11  13   -0.16    0.80
  11 -11  13    1.72    0.88
  11 -11  14    0.21    0.69
  11  11  14    0.79    0.88
  11  11  15   22.18    2.00
  11  11  15   19.69    1.71
  11 -11  15   19.51    1.73
  11  11  16    5.90    1.11
  11  11  17    1.48    0.69
 -11 -12   0   15.96    3.29
 -11 -12   1    2.86    1.61
 -11 -12  -1    2.67    1.86
 -11 -12  -2   30.65    4.38
 -11 -12   2   23.83    3.91
 -11 -12   3    1.52    1.88
 -11 -12  -3    1.72    1.44
 -11 -12  -4    2.99    2.31
 -11 -12   4    1.21    1.97
 -11 -12   5   55.04    5.81
 -11 -12   6   53.68    5.88
  11  12   6   54.25    2.95
  11  12   7    3.82    0.99
 -11 -12   7    6.07    2.44
 -11 -12   8   -3.27    1.85
  11  12   8    0.91    0.65
  11  12   9   -0.54    0.80
  11  12   9   -1.93    1.04
  11  12  10    2.77    0.93
  11  12  10    2.15    0.85
  11  12  11    1.76    0.85
  12 -11  12    1.63    0.87
  11  12  12    1.95    1.01
  11  12  13   15.47    1.85
  12 -11  13   12.35    1.61
  12 -11  14    5.13    1.10
  11  12  14    3.87    1.18
  11  12  15    0.98    0.84
  12 -11  15    0.11    0.66
  11  12  16    0.62    0.70
 -10 -12   0   75.89    6.41
 -10 -12   1   10.69    2.74
 -10 -12  -1   13.09    2.96
 -10 -12  -2   22.65    3.81
 -10 -12   2   20.62    3.71
 -10 -12  -3   15.58    3.28
 -10 -12   3   14.97    3.01
 -10 -12   4  173.66    9.72
 -10 -12   5    2.63    1.62
 -10 -12   6   19.92    3.63
  10  12   7    4.58    0.97
 -10 -12   7    2.13    1.48
  10  12   8   36.82    2.47
 -10 -12   8   30.24    4.60
  10  12   9    0.13    0.77
  10  12   9    1.23    0.78
  10  12  10    5.09    1.10
  10  12  10    5.33    1.27
  10  12  11    2.56    0.99
  12 -10  12    7.64    1.49
  10  12  12    8.80    1.52
  10  12  13    3.33    1.04
  12 -10  13    3.16    1.10
  10  12  14    2.83    1.12
  12 -10  14    2.99    1.04
  10  12  15   -0.20    0.85
  12 -10  15    0.37    0.75
  12 -10  16    6.78    1.04
  10  12  16    8.86    1.28
  10  12  17    1.78    0.71
  -9 -12   0   39.95    4.60
  -9 -12   1    8.97    2.32
  -9 -12  -1    8.36    2.47
  -9 -12  -2  210.24   10.28
  -9 -12   2  195.95    9.86
  -9 -12   3    5.93    2.02
  -9 -12   4   12.83    2.79
  -9 -12   5    4.01    1.83
  -9 -12   6   62.02    5.92
  -9 -12   7   15.94    3.33
   9  12   8    1.47    0.77
  -9 -12   8    1.78    1.60
   9  12   8    1.43    0.85
   9  12   9    2.96    0.90
  -9 -12   9    3.14    2.07
   9  12   9    3.86    0.92
   9  12  10   27.84    2.21
   9  12  10   27.39    2.33
   9  12  11    1.37    0.86
  12  -9  12   14.03    1.73
   9  12  12   10.69    1.62
  12  -9  13    4.42    1.20
   9  12  13    6.51    1.31
   9  12  14   33.34    2.55
  12  -9  14   35.86    2.53
   9  12  15    4.12    1.15
  12  -9  15    4.96    1.12
   9  12  16    0.55    0.77
  12  -9  16    2.40    0.83
   9  12  17    0.59    0.60
  12  -9  17   -1.81    0.77
  -8 -12   0    0.43    1.57
  -8 -12  -1   75.95    6.06
  -8 -12   1   65.98    5.59
  -8 -12   2    1.17    1.38
 -12   8   2    3.22    1.37
  -8 -12   3    3.67    1.79
 -12   8   3    4.54    1.45
  -8 -12   4    7.49    2.17
 -12   8   4   12.53    2.55
 -12   8   5    4.15    1.65
  -8 -12   5    3.96    1.81
 -12   8   6    7.45    2.40
  -8 -12   6    6.32    2.23
  -8 -12   7   22.17    3.62
  -8 -12   8    3.52    1.60
   8  12   8    2.84    0.78
  -8 -12   9    2.54    1.55
   8  12   9   -0.05    0.77
   8  12   9   -0.06    0.92
   8  12  10   29.43    2.36
   8  12  11    4.15    1.10
   8  12  12    0.40    0.82
   8  12  13    8.44    1.52
  12  -8  13    7.62    1.38
  12  -8  14    4.44    1.19
   8  12  14    2.54    0.94
   8  12  15    1.69    0.93
  12  -8  15    1.18    0.87
  12  -8  16    4.72    1.05
   8  12  16    2.43    0.88
   8  12  17    0.13    0.64
  12  -8  17   -0.59    0.67
  -7 -12   0   76.23    5.80
  -7 -12  -1   27.07    3.79
  -7 -12   1   23.02    3.38
 -12   7   1   28.89    2.78
 -12   7   2  334.62   10.08
  -7 -12   2  314.51   11.53
  -7 -12   3    1.93    1.44
 -12   7   3    4.25    1.34
  -7 -12   4    3.16    1.82
 -12   7   4    1.47    1.24
 -12   7   5    9.93    2.39
  -7 -12   5    4.89    1.94
  -7 -12   6  134.70    8.15
 -12   7   6  164.06    9.02
 -12   7   7   43.52    5.00
  -7 -12   7   36.48    4.46
  -7 -12   8    7.66    2.26
 -12   7   8    7.06    2.49
   7  12   9    6.19    1.09
   7  12   9    6.83    1.14
   7  12  10  110.82    4.44
   7  12  11    6.78    1.33
   7  12  12    4.40    1.17
  12  -7  13    3.66    1.13
   7  12  13    6.13    1.34
   7  12  14   23.62    2.21
  12  -7  14   25.11    2.31
   7  12  15    0.92    0.87
  12  -7  15    1.16    0.83
  12  -7  16    1.42    0.88
   7  12  16   -0.06    0.77
   7  12  17   -0.84    0.76
  12  -7  17   -1.48    0.87
  -6 -12   0  235.68    9.88
 -12   6   1   35.05    3.11
  -6 -12   1   35.63    4.00
 -12   6   2   41.80    3.66
  -6 -12   2   38.90    4.10
 -12   6   3   23.71    2.96
  -6 -12   3   23.47    3.31
  -6 -12   4    4.22    1.73
 -12   6   4    3.88    1.27
 -12   6   5    6.05    2.10
  -6 -12   5    5.09    1.86
  -6 -12   6    6.36    1.99
 -12   6   6    7.04    2.20
  -6 -12   7  106.34    7.33
 -12   6   7  104.68    7.58
 -12   6   8   25.50    4.17
  -6 -12   8   31.02    4.24
   6  12   9    5.37    1.11
 -12   6   9    7.89    2.50
   6  12  10   19.49    1.97
   6  12  11   10.66    1.54
   6  12  12   11.08    1.68
  12  -6  13    4.33    1.19
   6  12  13    6.97    1.38
   6  12  14    1.70    0.81
  12  -6  14    2.38    1.15
   6  12  14    3.15    1.18
   6  12  15    9.16    1.44
  12  -6  15   11.02    1.58
   6  12  15   11.87    1.45
  12  -6  16    2.11    0.93
   6  12  16   -0.45    0.81
   6  12  16    0.67    0.77
   6  12  17   -0.11    0.67
  12  -6  17   -1.40    0.85
  -5 -12   0   13.92    2.65
 -12   5   0   12.69    1.88
  -5 -12   1   53.19    4.61
 -12   5   1   62.02    4.10
 -12   5   2    1.83    1.13
  -5 -12   2    3.29    1.72
 -12   5   3  130.46    6.76
  -5 -12   3  106.30    6.44
  -5 -12   4    3.74    1.65
 -12   5   4    1.27    1.40
  -5 -12   5    0.59    1.08
 -12   5   5    1.05    1.27
 -12   5   6    4.45    2.02
  -5 -12   6    3.87    1.64
  -5 -12   7   27.32    3.63
 -12   5   7   27.46    4.00
 -12   5   8    1.11    1.58
   5  12   9   31.94    2.32
 -12   5   9   27.86    4.29
   5  12  10    2.85    0.93
 -12   5  10    2.35    1.65
   5  12  11    5.01    1.20
   5  12  12    2.87    1.00
   5  12  13    1.70    0.96
  12  -5  13    0.87    0.87
  12  -5  14    0.86    1.00
   5  12  14    0.14    0.86
   5  12  14    1.25    0.84
  12  -5  15   -0.36    0.97
   5  12  15    0.43    0.81
   5  12  15    0.76    0.74
   5  12  16   -0.49    0.92
  12  -5  16   -0.13    0.79
   5  12  16   -1.16    0.77
  12  -5  17    1.16    0.80
   5  12  17    1.86    0.79
   5  12  17    1.65    0.73
 -12   4   0   -0.24    0.83
  -4 -12   1    0.97    1.37
 -12   4  -1    2.36    0.94
 -12   4   1    0.50    0.88
 -12   4   2   32.01    3.26
  -4 -12   2   26.09    3.07
  -4 -12   3   19.09    2.75
 -12   4   3   21.57    2.82
 -12   4   4   55.23    4.71
  -4 -12   4   50.87    4.34
  -4 -12   5    3.46    1.52
 -12   4   5    2.62    1.56
  -4 -12   6   21.67    3.00
 -12   4   6   20.18    3.34
  -4 -12   7   58.57    5.01
 -12   4   7   50.17    5.36
 -12   4   8   16.61    3.35
   4  12   9    7.64    1.28
 -12   4   9    7.79    2.79
   4  12  10    1.51    0.73
 -12   4  10    1.22    1.45
   4  12  11   10.08    1.51
 -12   4  11    6.74    2.40
   4  12  12    5.01    1.22
   4  12  13    1.84    0.90
  12  -4  13    0.05    0.82
  12  -4  14    2.09    0.97
   4  12  14    1.66    0.95
   4  12  14    3.65    1.01
  12  -4  15    4.72    1.19
   4  12  15    2.68    1.08
   4  12  15    4.87    1.11
   4  12  16    4.51    1.08
  12  -4  16    5.18    1.15
   4  12  16    4.28    1.11
   4  12  17   -0.38    0.69
  12  -4  17    0.95    0.75
   4  12  17    0.77    0.73
  12  -4  18    0.27    0.68
   4  12  18    1.66    0.66
 -12   3   0   16.55    2.15
 -12   3  -1  134.14    5.41
  -3 -12   1  128.35    6.55
 -12   3   1  132.33    6.07
  -3 -12   2   22.26    2.93
 -12   3  -2   25.44    2.30
 -12   3   2   24.51    2.98
  -3 -12   3    4.25    1.47
 -12   3   3    3.42    1.44
 -12   3   4   30.32    3.66
  -3 -12   4   34.55    3.43
  -3 -12   5   53.54    4.22
 -12   3   5   63.47    5.30
 -12   3   6   53.33    5.25
  -3 -12   6   56.85    4.58
 -12   3   7   58.15    5.71
 -12   3   8    3.70    2.36
 -12   3   9   13.77    3.17
   3  12   9   12.60    1.50
   3  12  10   13.26    1.64
 -12   3  10   15.41    3.64
 -12   3  11   10.28    3.06
   3  12  11   13.50    1.71
   3  12  12   10.93    1.57
   3  12  13   16.70    1.77
   3  12  13   19.55    2.05
  12  -3  13   16.32    1.98
   3  12  14    6.23    1.27
   3  12  14    5.07    1.18
  12  -3  14    5.96    1.32
  12  -3  15    0.00    0.86
   3  12  15    0.26    0.88
   3  12  15   -0.71    0.76
   3  12  16    6.63    1.25
  12  -3  16    5.85    1.26
   3  12  16    5.76    1.17
  12  -3  17    8.24    1.30
   3  12  17    7.19    1.12
   3  12  17    7.95    1.21
   3  12  18    2.53    0.73
  12  -3  18    2.06    0.80
 -12   2   0   25.10    2.72
 -12   2  -1    5.28    1.29
 -12   2   1    5.84    1.52
  -2 -12   1    6.65    1.76
 -12   2  -2   46.77    3.19
 -12   2   2   44.89    3.90
  -2 -12   2   44.18    3.80
 -12   2   3  114.91    6.41
  -2 -12   3   98.58    5.43
 -12   2  -3  113.64    4.74
  -2 -12   4  300.96    9.42
 -12   2   4  315.28   11.14
  -2 -12   5    9.97    1.81
 -12   2   5   11.79    2.66
 -12   2   6   53.64    5.22
 -12   2   7   12.09    2.67
 -12   2   8  181.28   10.37
 -12   2   9    5.23    2.24
 -12   2  10    0.33    1.37
   2  12  10    1.03    0.79
   2  12  11    0.64    0.78
 -12   2  11    4.01    2.14
   2  12  12    7.74    1.33
   2  12  13    3.78    1.08
  12  -2  13    5.60    1.37
   2  12  13    6.01    1.21
   2  12  14   -0.59    0.88
  12  -2  14   -0.50    0.88
   2  12  14    1.32    0.93
   2  12  15    2.03    0.93
  12  -2  15    3.03    1.11
   2  12  15    4.18    1.18
   2  12  16   14.95    1.72
   2  12  16   14.99    1.60
  12  -2  16   14.72    1.81
   2  12  17    1.70    0.85
   2  12  17    0.13    0.69
  12  -2  17    1.54    0.89
  12  -2  18   -1.29    0.80
   2  12  18    0.36    0.54
 -12   1   0   19.26    2.45
 -12   1  -1   11.04    1.81
 -12   1   1   10.58    2.06
  -1 -12   1   11.74    1.99
 -12   1   2   68.50    4.82
  -1 -12   2   66.15    4.33
 -12   1  -2   73.67    4.19
  -1 -12   3   45.22    3.50
 -12   1   3   49.77    4.35
 -12   1  -3   51.94    3.49
  -1 -12   4   10.36    1.77
 -12   1   4    6.76    2.00
 -12   1  -4    9.66    1.69
  -1 -12   5   24.66    2.54
 -12   1   5   22.54    3.29
 -12   1   6   35.27    4.14
 -12   1   7    7.28    2.34
 -12   1   8    4.81    2.27
 -12   1   9   11.67    3.31
   1  12  10   43.43    2.78
 -12   1  10   39.88    5.40
   1  12  11    1.84    0.77
 -12   1  11    1.66    1.63
   1  12  12   -0.57    0.92
   1  12  13    1.15    0.94
  12  -1  13   -0.10    0.86
   1  12  14    0.61    0.84
  12  -1  14    0.33    0.91
   1  12  14    0.86    0.84
  12  -1  15    0.31    0.87
   1  12  15   -0.69    0.84
   1  12  15    1.80    0.89
   1  12  16    0.46    0.88
  12  -1  16    2.00    1.09
   1  12  16    1.74    0.90
  12  -1  17    1.66    0.87
   1  12  17    1.03    0.75
  12  -1  18    3.09    0.89
   1  12  18    5.00    0.88
 -12   0   0  163.29    6.78
 -12   0  -1    5.52    1.53
 -12   0   1    3.88    1.52
 -12   0   2   54.16    4.35
   0 -12   2   51.83    3.60
 -12   0  -2   51.67    3.71
 -12   0   3  102.59    6.21
 -12   0  -3   97.42    5.04
   0 -12   3  101.29    4.95
 -12   0   4  418.07   12.96
 -12   0  -4  430.42   10.36
   0 -12   4  431.30    9.94
 -12   0   5    0.89    1.35
 -12   0  -5    1.31    1.15
 -12   0   6   16.48    3.18
 -12   0   7   -0.33    1.42
 -12   0   8  229.47   11.55
 -12   0   9   48.75    5.90
 -12   0  10    8.66    2.77
   0  12  10   11.44    1.52
   0  12  11   -0.86    1.01
 -12   0  11    1.56    2.07
   0  12  12   17.80    1.94
   0  12  12   17.21    1.83
  12   0  13   -0.47    0.98
   0  12  13   -0.26    0.77
   0  12  13   -0.61    0.76
  12   0  14    2.07    1.05
   0  12  14    3.21    1.12
   0  12  14    2.45    0.98
   0  12  15   10.59    1.48
  12   0  15   10.24    1.64
   0  12  15   11.95    1.61
  12   0  15   11.43    1.47
   0  12  16   14.29    1.65
  12   0  16   12.33    1.69
   0  12  16   15.90    1.66
   0  12  17    0.11    0.69
  12   0  17    1.48    0.91
   0  12  18    1.04    0.64
  12   0  18    1.61    0.79
 -12  -1   0   19.44    2.58
 -12  -1  -1   10.44    1.95
 -12  -1   1    8.84    2.01
 -12  -1   2   69.38    4.93
   1 -12   2   66.72    3.86
 -12  -1  -2   77.27    4.75
 -12  -1  -3   52.07    3.95
   1 -12   3   54.90    3.39
 -12  -1   3   50.71    4.51
 -12  -1   4    6.45    2.22
 -12  -1  -4    7.01    1.75
 -12  -1   5   29.14    3.81
 -12  -1  -5   26.49    2.92
 -12  -1   6   43.39    4.72
 -12  -1  -6   50.06    3.99
 -12  -1   7    7.91    2.54
 -12  -1   8    2.66    2.13
 -12  -1   9   12.36    3.09
  -1  12  10   47.06    2.87
 -12  -1  10   45.62    5.70
 -12  -1  11    0.65    1.62
  -1  12  11    2.19    0.92
  -1  12  12    1.60    0.91
  -1  12  12    0.23    0.83
  -1  12  13    1.85    0.98
  12   1  13   -0.40    0.93
  -1  12  13    0.94    0.95
  12   1  14    1.59    1.04
  -1  12  14    1.12    0.86
  -1  12  14    1.03    0.83
  12   1  15   -1.61    1.07
  12   1  15    0.36    0.69
  -1  12  15    0.62    0.75
  -1  12  15    0.47    0.81
  12   1  16    0.56    0.88
  -1  12  16   -0.34    0.77
  -1  12  16    0.59    0.93
  12   1  17    2.74    0.95
  -1  12  17    2.82    0.90
  12   1  18    3.74    0.92
  -1  12  18    3.88    0.76
 -12  -2   0   25.42    3.07
 -12  -2   1    6.85    1.83
 -12  -2  -1    6.23    1.76
 -12  -2   2   44.94    4.13
 -12  -2  -2   44.88    3.82
   2 -12   2   44.70    3.01
 -12  -2   3  106.46    6.40
 -12  -2  -3  121.84    6.12
 -12  -2   4  325.57   11.68
 -12  -2  -4  332.71   10.23
 -12  -2   5   10.45    2.59
 -12  -2  -5    7.75    1.82
 -12  -2  -6   50.73    4.28
 -12  -2   6   47.95    4.99
 -12  -2   7   11.55    2.87
 -12  -2   8  193.33   10.67
 -12  -2   9    4.07    2.01
  -2  12  10    2.38    0.95
 -12  -2  10   -0.72    1.52
  -2  12  11    0.45    0.88
 -12  -2  11    3.56    2.50
  -2  12  12    9.99    1.52
  -2  12  12   11.47    1.66
  12   2  13    5.02    1.24
  -2  12  13    4.31    1.22
  -2  12  13    4.67    1.24
  -2  12  14    1.50    0.94
  -2  12  14    0.18    0.84
  12   2  14   -0.38    0.87
  12   2  14   -1.45    0.95
  -2  12  15    4.05    1.09
  12   2  15    2.85    1.07
  -2  12  15    4.42    1.18
  12   2  15    2.56    0.92
  -2  12  16   15.22    1.65
  12   2  16   14.53    1.51
  12   2  16   12.73    1.70
  12   2  17    0.58    0.83
  -2  12  17    1.05    0.71
  12   2  18    0.08    0.70
  -2  12  18    0.58    0.54
 -12  -3   0   14.09    2.40
 -12  -3  -1  130.28    6.61
 -12  -3   1  138.62    7.01
 -12  -3   2   21.08    2.96
 -12  -3  -2   21.31    2.80
 -12  -3   3    3.52    1.62
 -12  -3  -3    3.31    1.49
 -12  -3  -4   38.32    3.76
 -12  -3   4   37.38    4.18
 -12  -3   5   60.09    5.52
 -12  -3  -5   62.88    4.81
 -12  -3  -6   58.52    4.77
 -12  -3   6   57.73    5.58
 -12  -3   7   55.05    5.71
 -12  -3   8    4.90    2.26
 -12  -3   9   10.17    2.83
  -3  12   9   12.68    1.54
 -12  -3  10   19.11    3.98
  -3  12  10   14.53    1.72
 -12  -3  11   10.12    2.75
  -3  12  11   13.25    1.70
  -3  12  11   15.49    1.79
  -3  12  12    9.55    1.50
  -3  12  12   11.07    1.58
  -3  12  13   20.25    2.07
  12   3  13   19.22    2.12
  -3  12  13   19.84    1.96
  -3  12  14    5.82    1.28
  12   3  14    7.26    1.49
  12   3  14    5.93    1.24
  -3  12  15    0.02    0.80
  12   3  15   -0.24    0.93
  12   3  15   -1.19    0.84
  -3  12  15    0.87    0.92
  12   3  16    7.02    1.37
  -3  12  16    5.66    1.24
  12   3  16    5.02    1.05
  12   3  17    7.13    1.23
  12   3  17    9.09    1.11
  -3  12  17   10.42    1.30
  12   3  18    1.33    0.70
 -12  -4   0    0.31    1.27
 -12  -4   1    1.36    1.57
 -12  -4  -1    1.42    1.33
 -12  -4  -2   33.40    3.57
 -12  -4   2   28.95    3.55
 -12  -4   3   20.05    3.07
 -12  -4  -3   19.94    2.82
 -12  -4   4   49.47    4.75
 -12  -4  -4   54.40    4.57
 -12  -4  -5    4.69    1.75
 -12  -4   5    2.81    1.89
 -12  -4   6   23.39    3.70
 -12  -4   7   48.65    5.39
 -12  -4   8   21.39    3.95
  -4  12   9    7.75    1.22
 -12  -4   9    3.76    1.89
  -4  12  10    2.08    0.86
 -12  -4  10    4.13    2.10
  -4  12  11    8.81    1.51
 -12  -4  11    5.89    2.65
  -4  12  11    9.48    1.49
  -4  12  12    3.36    1.09
  12   4  12    4.03    1.24
  -4  12  12    5.58    1.27
  -4  12  13   -0.68    0.88
  -4  12  13    0.97    0.96
  12   4  13   -0.22    0.80
  -4  12  14    3.17    1.06
  12   4  14    2.70    0.97
  -4  12  14    4.39    1.27
  12   4  14    3.13    1.11
  -4  12  15    2.85    0.95
  12   4  15    3.24    1.10
  12   4  15    4.64    1.10
  12   4  16    4.72    1.21
  -4  12  16    3.47    1.09
  12   4  16    4.57    1.01
  -4  12  17    0.42    0.66
  12   4  17    0.90    0.61
  12   4  17   -0.34    0.94
  12   4  18    0.76    0.63
 -12  -5   0   11.12    2.31
 -12  -5   1   55.00    4.77
 -12  -5  -1   54.83    4.65
 -12  -5   2    2.14    1.49
 -12  -5  -2    3.09    1.58
 -12  -5   3  118.89    7.21
 -12  -5  -3  127.12    7.00
 -12  -5  -4    0.56    1.28
 -12  -5   4    0.43    1.47
 -12  -5  -5    1.56    1.18
 -12  -5   5   -0.10    1.60
 -12  -5   6    4.64    1.84
 -12  -5   7   25.75    4.07
 -12  -5   8    5.74    2.72
  -5  12   9   31.63    2.42
 -12  -5   9   27.28    4.28
  -5  12  10    3.25    0.99
 -12  -5  10    2.25    1.48
  -5  12  10    6.21    1.30
  -5  12  11    5.08    1.25
  -5  12  11    8.72    1.50
 -12  -5  11    6.44    2.87
  -5  12  12    3.22    1.17
  -5  12  12    2.67    1.10
  12   5  12    2.20    0.98
  -5  12  13    3.51    1.13
  12   5  13    1.34    0.91
  -5  12  14    1.24    0.91
  12   5  14    0.05    0.86
  12   5  14    1.16    0.94
  -5  12  15    1.89    0.94
  12   5  15    0.71    0.81
  12   5  15    1.22    0.82
  12   5  16    0.20    0.79
  -5  12  16    1.01    0.86
  12   5  16    1.78    0.90
  12   5  17    0.93    0.78
  12   5  17    2.98    0.82
 -12  -6   0  227.03    9.63
 -12  -6  -1   34.43    3.88
 -12  -6   1   31.12    3.75
 -12  -6  -2   42.22    4.34
 -12  -6   2   40.73    4.39
 -12  -6  -3   22.96    3.30
 -12  -6   3   24.29    3.47
 -12  -6  -4    3.57    1.79
 -12  -6   4    2.31    1.63
 -12  -6   5    7.28    2.32
 -12  -6  -5    6.82    2.04
 -12  -6   6    6.72    2.25
 -12  -6   7  109.95    8.11
 -12  -6   8   26.40    4.33
  -6  12   9    5.71    1.22
 -12  -6   9    5.86    2.74
 -12  -6  10   22.21    4.28
  -6  12  10   19.36    1.99
  -6  12  11    9.30    1.49
 -12  -6  11   11.52    2.98
  -6  12  12   12.02    1.68
  12   6  12   11.54    1.70
  -6  12  13    4.75    1.21
  12   6  13    3.30    1.09
  12   6  13    5.39    1.25
  -6  12  14    3.78    1.21
  12   6  14    2.46    1.00
  12   6  14    3.17    1.12
  -6  12  15   11.76    1.52
  12   6  15   10.97    1.52
  12   6  15   10.07    1.51
  12   6  16    0.76    0.82
  -6  12  16   -0.22    0.69
  12   6  16    0.68    0.74
  12   6  17    0.43    0.66
  12   6  17   -1.33    0.92
 -12  -7   0   65.73    5.42
 -12  -7   1   27.01    3.68
 -12  -7  -1   27.33    3.62
 -12  -7  -2  330.15   12.04
 -12  -7   2  313.17   11.81
 -12  -7   3    2.61    1.82
 -12  -7  -3    3.45    1.75
 -12  -7  -4    4.39    1.76
 -12  -7   4    2.23    1.68
 -12  -7   5    5.99    2.10
 -12  -7   6  156.58    9.45
 -12  -7   7   39.70    5.01
  -7  12   8    6.89    1.23
 -12  -7   8    6.39    2.54
  -7  12   9    7.38    1.32
 -12  -7   9    2.69    1.80
  -7  12  10  107.89    4.35
 -12  -7  10  112.18    9.07
  -7  12  11    7.07    1.30
  12   7  11    7.25    1.30
  -7  12  12    5.25    1.22
  12   7  12    4.79    1.25
  -7  12  13    5.77    1.28
  12   7  13    4.97    1.29
  12   7  13    4.72    1.21
  -7  12  14   24.54    2.17
  12   7  14   24.32    2.20
  12   7  14   23.26    2.19
  12   7  15    2.55    0.99
  12   7  15    1.71    0.88
  -7  12  15    2.16    0.97
  12   7  16   -0.64    0.85
  12   7  16   -0.13    0.72
  12   7  17   -0.84    0.79
  12   7  17    0.44    0.61
 -12  -8   0    0.39    1.45
 -12  -8   1   73.92    6.05
 -12  -8  -1   70.49    5.78
 -12  -8   2    2.21    1.90
 -12  -8  -2    4.14    2.02
 -12  -8   3    4.30    1.94
 -12  -8  -3    6.31    2.17
 -12  -8   4   12.43    2.81
 -12  -8  -4   10.92    2.62
 -12  -8   5    2.14    1.49
 -12  -8   6    6.93    2.63
 -12  -8   7   25.34    4.13
  -8  12   8    4.80    1.14
 -12  -8   8    5.99    2.61
 -12  -8   9    1.75    1.69
  -8  12   9    0.12    0.80
  -8  12  10   27.39    2.35
 -12  -8  10   24.52    4.39
  -8  12  11    5.07    1.22
  12   8  11    4.34    1.18
  -8  12  12    0.42    0.91
  12   8  12   -1.10    0.98
  -8  12  13    7.05    1.35
  12   8  13    6.06    1.29
  12   8  13    7.54    1.41
  12   8  14    3.33    1.08
  -8  12  14    2.17    0.96
  12   8  14    3.93    1.16
  12   8  15    2.60    0.99
  12   8  15    2.31    1.04
  12   8  16    1.73    0.82
  12   8  16    3.79    1.02
  12   8  17   -0.64    0.69
  12   8  17   -1.02    0.72
 -12  -9   0   45.15    4.76
 -12  -9   1    4.85    1.91
 -12  -9  -1    5.78    2.09
 -12  -9   2  205.87   10.08
 -12  -9  -2  210.84   10.27
 -12  -9   3    3.72    1.83
 -12  -9  -3    6.19    2.02
 -12  -9   4   14.31    2.93
 -12  -9  -4   11.89    2.70
 -12  -9   5    0.59    1.57
 -12  -9   6   71.30    6.58
 -12  -9   7   17.03    3.57
  -9  12   8    2.44    0.86
 -12  -9   8    3.61    2.10
  12   9   9    3.72    0.99
  -9  12   9    3.35    0.98
 -12  -9   9    1.84    1.79
  -9  12  10   26.28    2.31
  12   9  10   25.21    2.19
 -12  -9  10   20.07    3.97
  12   9  11    0.50    0.81
  -9  12  11    0.12    0.79
  12   9  12   14.94    1.78
  -9  12  12   13.41    1.74
  12   9  12   12.76    1.74
  -9  12  13    5.31    1.24
  12   9  13    6.22    1.30
  12   9  13    4.32    1.13
  12   9  14   37.41    2.65
  12   9  14   30.98    2.33
  12   9  15    1.04    0.83
  12   9  15    2.79    1.09
  12   9  16    1.26    0.75
  12   9  16    1.04    0.82
  12   9  17    0.06    0.58
  12   9  17    0.98    0.67
 -12 -10   0   72.77    6.17
 -12 -10   1   11.15    2.70
 -12 -10  -1   11.60    2.70
 -12 -10   2   20.01    3.64
 -12 -10  -2   16.93    3.57
 -12 -10   3   13.25    3.07
 -12 -10  -3   10.84    2.82
 -12 -10   4  181.31   10.09
 -12 -10  -4  181.57   10.06
 -12 -10  -5    6.82    2.31
 -12 -10   5    4.09    2.20
 -12 -10   6   22.82    3.94
 -12 -10   7    8.50    2.85
 -10  12   7    4.81    1.04
 -10  12   8   34.52    2.55
 -12 -10   8   37.88    5.28
  12  10   8   34.09    2.43
 -10  12   9    0.61    0.87
  12  10   9    1.24    0.67
 -12 -10   9   -1.22    1.57
  12  10  10    5.20    1.13
 -10  12  10    6.48    1.26
 -12 -10  10    5.50    2.37
  12  10  11    2.96    0.90
  12  10  11    1.79    1.07
 -10  12  11    3.57    1.06
  12  10  12    7.36    1.34
 -10  12  12    8.97    1.48
  12  10  12    8.67    1.48
  12  10  13    2.49    0.88
  12  10  13    2.89    0.98
  12  10  14    3.78    1.09
  12  10  14    3.15    1.12
  12  10  15   -0.01    0.88
  12  10  15   -0.52    0.89
  12  10  16    7.75    1.08
  12  10  16    8.65    1.25
  12  10  17    1.32    0.66
  12  10  17    1.10    0.60
 -12 -11   0   10.31    2.75
 -12 -11   1    0.93    1.74
 -12 -11  -1    2.11    2.00
 -12 -11   2   25.23    4.02
 -12 -11  -2   21.31    3.69
 -12 -11   3    0.71    1.58
 -12 -11  -3   -1.35    1.73
 -12 -11   4    0.11    1.53
 -12 -11  -4    2.68    2.06
 -12 -11   5   56.15    5.96
 -12 -11  -5   56.31    5.96
 -12 -11   6   60.75    6.35
 -12 -11   7    4.33    2.10
  12  11   7    4.92    1.12
  12  11   8    0.47    0.78
 -12 -11   8    0.84    1.59
  12  11   9   -1.36    0.95
 -12 -11   9    6.19    2.32
  12  11  10    1.95    0.75
  12  11  11    1.47    0.79
  12  11  12    1.13    0.96
  12  11  13   13.62    1.74
  12  11  14    3.92    1.15
  12  11  15   -0.99    0.79
  12  11  16   -0.68    0.71
 -12 -12   0  151.77    9.39
 -12 -12  -1   37.12    4.83
 -12 -12   1   37.22    4.90
 -12 -12   2   25.85    4.17
 -12 -12  -2   21.21    3.84
 -12 -12   3    4.26    2.09
 -12 -12  -3    0.81    1.66
 -12 -12   4    0.59    1.75
 -12 -12  -4    2.97    1.89
 -12 -12  -5   17.04    3.46
 -12 -12   5   16.77    3.44
  12  12   6    0.09    0.68
 -12 -12   6   -0.91    1.80
 -12  12   6   -0.43    0.70
 -12 -12   7   64.30    6.81
 -12  12   7   67.91    3.26
  12  12   7   58.82    3.14
  12  12   8    0.75    0.79
 -12 -12   8   -1.60    1.61
  12  12   9   -0.48    0.82
 -12 -12   9    2.20    1.51
  12  12  10    4.66    1.12
  12  12  10    4.86    1.17
  12  12  11    0.61    0.81
  12  12  12    2.38    0.95
  12  12  13   11.31    1.62
  12  12  14    0.55    0.84
  12  12  15    3.50    1.02
  12  12  16   -0.75    0.77
 -12 -13   0   -1.76    2.07
 -12 -13   1    3.39    2.20
 -12 -13  -1    0.02    1.58
 -12 -13  -2   57.04    6.10
 -12 -13   2   53.41    5.92
 -12 -13  -3   32.28    4.75
 -12 -13   3   33.75    4.79
  12  13   4    7.13    1.36
 -12 -13   4    1.16    1.43
 -13  12   4    6.88    1.30
 -12 -13  -4    5.39    2.16
  12  13   5    5.49    1.08
 -13  12   5    3.74    0.99
 -12 -13   5    2.25    1.46
 -12 -13  -5    2.36    1.90
 -12 -13   6    7.74    2.47
 -13  12   6    5.62    1.09
  12  13   6    5.75    1.08
 -12 -13  -6    6.30    2.59
  12  13   7    1.65    0.86
 -12 -13   7    1.03    1.47
 -13  12   7    5.00    1.10
  12  13   8    4.13    1.02
  12  13   8    1.64    0.87
  12  13   9   14.83    1.80
  12  13   9   13.37    1.73
  12  13  10   19.06    1.98
  12  13  10   21.97    2.01
  12  13  11    0.88    0.71
  12  13  11    0.62    0.76
  12  13  12    0.81    0.89
  12  13  13    4.44    1.20
  12  13  14    2.71    1.03
  12  13  15   -0.74    0.77
  12  13  16    0.26    0.61
 -11 -13   0   19.51    3.64
 -11 -13   1    1.18    1.67
 -11 -13  -1    0.99    1.75
 -11 -13   2    9.10    2.71
 -11 -13  -2    9.82    2.79
 -11 -13   3   11.78    2.88
 -11 -13  -3   11.28    3.10
 -11 -13  -4   10.99    2.84
 -11 -13   4   11.05    2.82
  11  13   5    1.45    0.92
 -11 -13   5    0.09    1.43
  11  13   6    5.30    1.02
 -11 -13   6    5.53    2.18
 -13  11   6    7.94    1.29
  11  13   7    5.78    1.06
 -11 -13   7    1.40    1.63
  11  13   8    0.93    0.71
  11  13   8    1.11    0.87
 -11 -13   8   -1.11    1.45
  11  13   9    0.87    0.71
  11  13   9    0.60    0.78
  11  13  10    1.44    0.93
  11  13  10    1.73    0.83
  11  13  11    1.37    0.93
  13 -11  12    4.33    1.15
  11  13  12    4.02    1.16
  13 -11  13    2.44    0.90
  11  13  13    2.19    0.98
  13 -11  14    0.95    0.88
  11  13  14    1.65    1.02
  11  13  15    2.70    0.95
  13 -11  15    4.53    0.98
  11  13  16   -0.71    0.75
 -10 -13   0   38.09    4.80
 -10 -13   1    3.51    2.11
 -10 -13  -1    2.31    1.77
 -10 -13  -2  335.32   13.74
 -10 -13   2  320.45   13.39
 -10 -13  -3    0.87    1.59
 -10 -13   3    1.72    1.51
 -10 -13   4   24.49    3.81
 -10 -13   5    1.10    1.25
 -10 -13   6   56.07    5.94
  10  13   6   61.77    3.12
  10  13   7    6.51    1.17
  10  13   7    7.74    1.29
 -10 -13   7    5.46    2.48
  10  13   8    0.23    0.70
  10  13   8   -0.41    0.74
  10  13   9    2.82    0.95
  10  13   9   -0.65    0.79
  10  13  10   18.12    1.91
  10  13  10   21.10    1.94
  10  13  11    0.62    0.81
  10  13  12    5.14    1.29
  13 -10  12    6.22    1.30
  13 -10  13    4.13    1.18
  10  13  13    4.20    1.22
  10  13  14   37.27    2.65
  13 -10  14   37.31    2.58
  10  13  15    0.75    0.83
  13 -10  15   -0.31    0.70
  13 -10  16   -0.68    0.73
  10  13  16    0.75    0.75
  -9 -13   0   11.67    2.90
  -9 -13   1    9.00    2.52
  -9 -13  -1    8.48    2.48
  -9 -13   2   17.92    3.33
  -9 -13  -2   15.11    3.31
  -9 -13   3   80.53    6.59
  -9 -13   4   -1.57    1.45
  -9 -13   5   17.70    3.31
  -9 -13   6    1.93    1.99
   9  13   7   27.32    2.18
   9  13   7   26.95    2.12
  -9 -13   7   20.36    3.64
   9  13   8    0.28    0.71
  -9 -13   8   -1.05    1.51
   9  13   8    0.40    0.83
   9  13   9    4.61    1.11
   9  13   9    5.35    1.16
   9  13  10    2.84    0.89
   9  13  10    1.46    0.86
   9  13  11   21.75    2.16
   9  13  12    1.96    0.92
  13  -9  13    3.66    1.06
   9  13  13    2.07    0.99
   9  13  14    3.71    1.25
  13  -9  14    2.23    1.04
   9  13  15   15.91    1.72
  13  -9  15   15.54    1.64
  13  -9  16    1.18    0.74
   9  13  16    0.56    0.74
  -8 -13   0   43.77    4.83
  -8 -13  -1   19.96    3.43
  -8 -13   1   15.70    3.06
  -8 -13   2   91.36    6.72
  -8 -13   3   11.35    2.64
 -13   8   3   10.00    2.22
 -13   8   4   38.60    4.14
  -8 -13   4   37.24    4.47
  -8 -13   5    2.06    1.24
 -13   8   5    2.45    1.47
  -8 -13   6   38.42    4.70
 -13   8   6   52.60    5.29
  -8 -13   7   14.29    3.14
   8  13   8    4.51    1.08
  -8 -13   8    2.27    1.60
   8  13   8    3.37    0.86
   8  13   9   12.06    1.59
   8  13   9   15.07    1.67
   8  13  10   -0.21    0.83
   8  13  10    0.17    0.72
   8  13  11    0.00    0.85
   8  13  12   -0.03    0.79
  13  -8  13    1.48    0.98
   8  13  13    3.86    1.18
  13  -8  14    4.26    1.21
   8  13  14    3.26    1.12
  13  -8  15   -0.56    0.83
   8  13  15   -0.49    0.92
  13  -8  16    1.75    0.82
   8  13  16    0.59    0.75
  13  -8  17   -1.30    0.72
   8  13  17   -1.10    0.69
  -7 -13   0  347.71   12.66
  -7 -13  -1   52.64    5.19
  -7 -13   1   51.44    5.03
  -7 -13   2   20.81    3.13
 -13   7   2   26.78    3.01
  -7 -13   3    6.39    2.11
 -13   7   3   10.52    2.20
  -7 -13   4   11.31    2.52
 -13   7   4    8.93    2.15
 -13   7   5    4.65    1.91
  -7 -13   5    3.63    1.83
  -7 -13   6    7.56    2.39
 -13   7   6    6.14    2.13
 -13   7   7   19.03    3.59
  -7 -13   7   19.28    3.36
   7  13   8   42.43    2.68
 -13   7   8   42.46    5.22
  -7 -13   8   43.94    5.14
   7  13   8   43.76    2.63
   7  13   9    4.46    1.06
   7  13   9    4.00    1.18
   7  13  10    5.88    1.22
   7  13  11    7.05    1.32
   7  13  12   11.72    1.65
   7  13  13    8.42    1.50
  13  -7  13    5.26    1.27
  13  -7  14    2.22    1.03
   7  13  14    2.67    1.09
  13  -7  15    0.54    0.79
   7  13  15    0.76    0.87
  13  -7  16    3.68    1.01
   7  13  16    2.68    0.98
  13  -7  17    0.76    0.71
   7  13  17    0.84    0.72
  -6 -13   0    9.64    2.28
 -13   6   1   42.26    3.50
  -6 -13   1   41.45    4.38
 -13   6   2   86.77    5.39
  -6 -13   2   82.31    5.95
  -6 -13   3   15.05    2.87
 -13   6   3    8.08    2.06
 -13   6   4    9.12    2.16
  -6 -13   4    9.76    2.30
 -13   6   5   11.41    2.44
  -6 -13   5   11.75    2.49
  -6 -13   6   65.23    5.62
 -13   6   6   70.79    6.16
  -6 -13   7    2.90    1.66
 -13   6   7    2.35    1.84
 -13   6   8   17.80    3.69
   6  13   8   22.13    1.94
   6  13   9   24.15    2.12
 -13   6   9   25.90    4.42
   6  13   9   23.52    2.02
   6  13  10   52.77    3.13
   6  13  11   17.43    1.93
   6  13  12    4.89    1.25
   6  13  13   -0.17    0.86
  13  -6  13    1.56    0.90
  13  -6  14    7.62    1.45
   6  13  14   10.35    1.58
  13  -6  15    1.08    0.85
   6  13  15    0.95    0.87
  13  -6  16    1.11    0.86
   6  13  16    0.62    0.77
  13  -6  17    3.15    0.89
   6  13  17    3.69    0.91
 -13   5   0  622.26   12.27
  -5 -13   0  629.33   16.05
  -5 -13   1    0.04    1.33
 -13   5   1    2.17    1.26
 -13   5   2   61.58    4.56
  -5 -13   2   62.87    5.16
 -13   5   3    3.20    1.53
  -5 -13   3    1.44    1.17
 -13   5   4    2.30    1.37
  -5 -13   4    2.48    1.35
  -5 -13   5    3.31    1.42
 -13   5   5    3.00    1.42
  -5 -13   6   21.42    3.19
 -13   5   6   18.56    3.29
 -13   5   7   10.70    2.79
  -5 -13   7   14.57    2.81
 -13   5   8  170.13   10.27
 -13   5   9    2.57    1.55
   5  13   9    6.15    1.23
   5  13   9    6.31    1.14
   5  13  10   13.21    1.70
 -13   5  10   14.49    3.68
   5  13  11   13.64    1.75
   5  13  12   24.46    2.32
  13  -5  13    1.25    1.01
   5  13  13    2.01    0.99
  13  -5  14    5.30    1.22
   5  13  14    6.90    1.34
  13  -5  15    0.82    0.87
   5  13  15    0.75    0.90
   5  13  16    7.44    1.21
  13  -5  16    7.46    1.29
  13  -5  17    0.18    0.71
   5  13  17    1.05    0.67
  -4 -13   0  199.22    8.74
 -13   4   0  195.32    7.18
 -13   4   1    7.72    1.84
  -4 -13   1    5.08    1.84
  -4 -13   2  379.55   11.93
 -13   4   2  401.77   11.56
  -4 -13   3    4.04    1.81
 -13   4   3    3.93    1.58
  -4 -13   4    8.19    1.92
 -13   4   4    8.40    2.20
  -4 -13   5   10.00    2.15
 -13   4   5   11.13    2.57
  -4 -13   6  235.90    9.86
 -13   4   6  226.36   10.80
 -13   4   7   48.69    5.40
 -13   4   8    8.24    2.87
   4  13   9   18.76    1.83
 -13   4   9   17.52    3.75
 -13   4  10  100.98    8.51
   4  13  10   97.32    4.14
   4  13  11    5.91    1.37
 -13   4  11    3.02    2.49
   4  13  12   20.02    2.05
   4  13  13    2.54    1.04
  13  -4  13    3.32    1.13
   4  13  14   45.36    2.94
  13  -4  14   42.33    3.04
  13  -4  15    3.93    1.21
   4  13  15    3.24    1.12
  13  -4  16    5.21    1.23
   4  13  16    4.27    1.08
  13  -4  17    2.64    0.93
   4  13  17    1.88    0.77
 -13   3   0    1.65    1.16
 -13   3  -1   40.00    3.19
 -13   3   1   39.55    3.53
  -3 -13   1   37.50    3.86
 -13   3   2   10.93    2.18
  -3 -13   2   11.21    2.21
  -3 -13   3   13.23    2.36
 -13   3   3   12.38    2.38
 -13   3   4  170.14    8.45
  -3 -13   4  161.36    7.52
  -3 -13   5   14.91    2.28
 -13   3   5   11.01    2.55
 -13   3   6   92.25    6.93
 -13   3   7   39.76    5.00
 -13   3   8  195.30   11.00
 -13   3   9   -1.15    1.92
   3  13   9    0.76    0.88
 -13   3  10    3.95    2.34
   3  13  10    1.31    0.88
 -13   3  11   23.53    4.28
   3  13  11   27.84    2.34
   3  13  12    0.89    0.90
   3  13  13    0.78    0.87
  13  -3  13    1.55    1.05
   3  13  14    3.28    1.07
  13  -3  14    2.17    1.02
  13  -3  15    2.77    1.13
   3  13  15    1.48    0.90
   3  13  16   16.89    1.73
  13  -3  16   15.03    1.79
  13  -3  17    0.45    0.75
   3  13  17   -0.46    0.66
 -13   2   0   16.24    2.35
 -13   2  -1   37.94    3.19
 -13   2   1   36.51    3.58
  -2 -13   1   38.67    3.71
 -13   2  -2   39.09    3.09
 -13   2   2   39.46    3.82
  -2 -13   2   37.63    3.62
  -2 -13   3    8.54    1.88
 -13   2   3    7.28    1.92
 -13   2   4   15.51    2.76
  -2 -13   4   21.24    2.80
  -2 -13   5   33.79    3.36
 -13   2   5   31.03    3.86
 -13   2   6    5.71    2.12
 -13   2   7    6.69    2.28
 -13   2   8    0.03    1.71
 -13   2   9    1.22    1.75
   2  13   9    2.50    0.90
   2  13  10    2.57    1.07
 -13   2  10    1.66    1.55
   2  13  11   14.19    1.78
 -13   2  11   14.84    3.49
   2  13  12    1.93    0.95
   2  13  13    3.08    1.13
  13  -2  13    2.74    1.07
   2  13  14    1.84    0.91
  13  -2  14    2.44    0.96
  13  -2  15    0.55    0.86
   2  13  15    1.78    1.00
  13  -2  16    4.60    1.14
   2  13  16    4.68    1.11
  13  -2  17    1.41    0.84
   2  13  17    1.57    0.74
 -13   1   0  375.31   10.51
 -13   1  -1   22.84    2.67
 -13   1   1   22.17    2.86
  -1 -13   1   21.24    2.78
 -13   1   2  160.66    7.66
  -1 -13   2  144.52    6.65
 -13   1  -2  159.41    6.48
 -13   1   3   59.18    4.93
  -1 -13   3   56.62    4.13
 -13   1  -3   65.04    4.10
 -13   1   4  200.23    9.27
  -1 -13   4  207.50    7.70
 -13   1   5    1.51    1.65
 -13   1   6   -0.20    1.43
 -13   1   7   15.65    3.11
 -13   1   8   35.84    4.84
   1  13   9    7.76    1.34
 -13   1   9    6.41    2.40
 -13   1  10   14.79    3.51
   1  13  10   14.53    1.66
   1  13  11   11.90    1.61
 -13   1  11   18.44    3.94
   1  13  12   32.05    2.54
   1  13  13    4.29    1.18
  13  -1  13    3.29    1.15
   1  13  14   -0.25    0.85
  13  -1  14   -1.52    1.08
   1  13  15    0.46    0.78
  13  -1  15    0.08    0.88
   1  13  15    0.66    0.87
  13  -1  16    3.04    1.10
   1  13  16    5.89    1.21
   1  13  16    4.99    1.09
  13  -1  17    0.50    0.76
   1  13  17    0.00    0.67
 -13   0   0   21.29    2.76
 -13   0   1    0.42    1.14
 -13   0  -1    2.24    1.07
   0 -13   1    1.53    1.11
   0 -13   2   77.36    4.64
 -13   0   2   81.17    5.50
 -13   0  -2   80.65    4.84
 -13   0   3  215.48    9.30
 -13   0  -3  211.92    7.69
   0 -13   3  210.37    7.49
 -13   0  -4   12.46    2.01
 -13   0   4   12.93    2.65
 -13   0   5   15.94    3.06
 -13   0   6  126.82    8.17
 -13   0   7   25.04    4.09
 -13   0   8   11.42    3.18
   0  13   9  148.03    4.87
 -13   0   9  137.97    9.74
 -13   0  10    0.86    1.70
   0  13  10   -0.40    0.76
   0  13  11   -1.13    0.99
 -13   0  11   -0.47    1.32
   0  13  12    6.85    1.41
   0  13  13    7.10    1.35
  13   0  13    7.96    1.51
   0  13  14    3.05    1.09
  13   0  14    3.10    1.11
   0  13  14    3.10    1.03
   0  13  15    1.31    0.84
  13   0  15    1.40    0.92
  13   0  15    1.36    0.76
   0  13  15    1.61    0.95
  13   0  16    3.89    1.21
   0  13  16    1.99    0.96
   0  13  17   16.22    1.55
  13   0  17   17.23    1.69
 -13  -1   0  377.77   11.06
 -13  -1   1   21.35    2.95
 -13  -1  -1   22.43    2.82
 -13  -1   2  144.74    7.26
   1 -13   2  158.63    6.26
 -13  -1  -2  165.16    7.15
 -13  -1   3   66.23    5.30
 -13  -1  -3   66.93    4.61
 -13  -1   4  201.92    9.45
 -13  -1  -4  216.21    8.12
 -13  -1  -5    1.23    0.97
 -13  -1   5    2.01    1.75
 -13  -1   6   -0.09    1.27
 -13  -1   7   17.94    3.53
 -13  -1   8   41.15    5.20
  -1  13   9    5.06    1.14
 -13  -1   9    7.96    2.80
  -1  13  10   14.70    1.77
 -13  -1  10   11.24    2.93
  -1  13  11    9.88    1.51
 -13  -1  11   12.02    3.24
  -1  13  12   34.87    2.63
  -1  13  13    6.50    1.34
  13   1  13    4.25    1.23
  -1  13  14    0.49    0.85
  13   1  14    0.05    0.95
  -1  13  14   -1.07    0.80
  -1  13  15   -0.61    0.84
  13   1  15    0.04    0.86
  13   1  15    0.10    0.65
  -1  13  16    3.65    1.04
  13   1  16    3.69    1.11
  13   1  16    3.46    0.88
  13   1  17    0.32    0.82
  -1  13  17   -0.49    0.64
 -13  -2   0   19.90    2.77
 -13  -2   1   37.17    3.73
 -13  -2  -1   35.73    3.60
 -13  -2   2   35.55    3.82
 -13  -2  -2   33.48    3.47
 -13  -2  -3    7.13    1.79
 -13  -2   3    8.78    2.12
 -13  -2   4   21.44    3.57
 -13  -2  -4   19.54    2.79
 -13  -2   5   32.21    4.15
 -13  -2  -5   33.65    3.52
 -13  -2   6    7.95    2.56
 -13  -2  -6    9.81    2.19
 -13  -2   7   10.86    2.82
 -13  -2   8    1.60    1.65
 -13  -2   9   -0.41    1.83
  -2  13   9    0.10    0.82
 -13  -2  10    3.37    1.84
  -2  13  10    1.11    0.78
 -13  -2  11   16.43    3.86
  -2  13  11   13.62    1.69
  -2  13  12    2.01    0.99
  -2  13  13    1.50    0.99
  13   2  13    1.97    1.11
  -2  13  13    2.60    0.98
  -2  13  14    1.92    0.96
  13   2  14    2.30    1.03
  -2  13  14    2.78    1.04
  -2  13  15    0.40    0.81
  13   2  15    0.60    0.89
  13   2  15    0.49    0.70
  -2  13  16    4.62    1.12
  13   2  16    2.35    0.80
  13   2  16    5.12    1.17
  13   2  17    0.12    0.80
  -2  13  17    2.88    0.85
 -13  -3   0    1.02    1.37
 -13  -3  -1   39.08    3.91
 -13  -3   1   37.01    3.83
 -13  -3  -2   12.63    2.43
 -13  -3   2    8.25    2.01
 -13  -3  -3   13.98    2.50
 -13  -3   3   12.95    2.74
 -13  -3   4  175.52    9.01
 -13  -3  -4  185.23    8.27
 -13  -3   5   13.43    2.82
 -13  -3  -5   13.95    2.53
 -13  -3   6   91.59    7.12
 -13  -3  -6  108.51    6.57
 -13  -3   7   36.59    4.85
 -13  -3   8  190.79   10.99
 -13  -3   9    0.49    1.77
  -3  13   9    0.33    0.73
  -3  13  10    3.36    1.06
 -13  -3  10    4.67    2.32
  -3  13  11   26.46    2.30
 -13  -3  11   28.20    4.75
  -3  13  12    1.07    0.87
  -3  13  13    0.90    0.89
  -3  13  13    2.46    1.08
  13   3  13    0.05    0.85
  13   3  14    3.43    1.10
  -3  13  14    4.49    1.24
  13   3  14    2.86    1.15
  -3  13  15    2.46    1.00
  13   3  15   -0.21    0.95
  13   3  15    1.90    0.94
  -3  13  16   13.18    1.58
  13   3  16   14.44    1.51
  13   3  16   17.81    1.82
  -3  13  17    0.82    0.76
  13   3  17   -1.07    0.87
  13   3  17   -0.03    0.59
 -13  -4   0  189.51    8.64
 -13  -4  -1    4.37    1.49
 -13  -4   1    6.84    2.01
 -13  -4   2  391.37   12.65
 -13  -4  -2  400.70   12.31
 -13  -4   3    4.04    1.78
 -13  -4  -3    4.03    1.58
 -13  -4   4    9.37    2.55
 -13  -4  -4    9.34    2.21
 -13  -4   5    9.08    2.69
 -13  -4  -5    8.49    2.20
 -13  -4   6  218.84   10.99
 -13  -4  -6  246.79   10.32
 -13  -4  -7   52.02    4.92
 -13  -4   7   46.76    5.42
 -13  -4   8    7.54    2.75
  -4  13   9   22.23    2.02
 -13  -4   9   22.92    4.07
 -13  -4  10   94.97    8.40
  -4  13  10  100.52    4.19
  -4  13  11    1.89    0.90
 -13  -4  11   -0.32    1.50
  -4  13  12   22.41    2.16
  13   4  12   21.98    2.26
  -4  13  12   23.83    2.20
  -4  13  13    2.79    1.06
  13   4  13    1.47    1.07
  13   4  14   46.66    2.97
  -4  13  14   48.74    3.01
  13   4  14   47.25    3.11
  13   4  15    3.92    1.14
  13   4  15    3.10    0.98
  -4  13  15    2.87    1.09
  13   4  16    4.20    1.09
  -4  13  16    4.07    1.00
  13   4  16    3.46    0.92
  -4  13  17    2.25    0.80
  13   4  17    0.95    0.73
  13   4  17    2.54    0.77
 -13  -5   0  628.45   16.07
 -13  -5  -1    2.27    1.59
 -13  -5   1    3.09    1.53
 -13  -5  -2   65.73    5.29
 -13  -5   2   61.98    5.31
 -13  -5   3    3.00    1.68
 -13  -5  -3    2.37    1.42
 -13  -5   4    4.23    1.52
 -13  -5  -4    3.17    1.88
 -13  -5   5    3.86    2.00
 -13  -5  -5    2.88    1.54
 -13  -5   6   17.04    3.55
 -13  -5  -6   15.61    2.84
 -13  -5  -7   13.81    2.75
 -13  -5   7   12.26    2.98
  -5  13   8  168.31    5.15
 -13  -5   8  158.00   10.22
  -5  13   9    4.62    1.10
 -13  -5   9    7.54    2.66
  -5  13  10   16.81    1.88
 -13  -5  10   16.90    3.77
  -5  13  11   12.63    1.69
 -13  -5  11   15.39    3.63
  -5  13  12   23.94    2.21
  13   5  12   22.69    2.29
  -5  13  13    1.63    0.98
  13   5  13    2.18    1.02
  -5  13  14    7.57    1.44
  13   5  14    7.53    1.43
  13   5  14    5.23    1.21
  -5  13  15    1.04    0.85
  13   5  15    0.50    0.80
  13   5  15    0.03    0.71
  13   5  16    6.97    1.25
  13   5  16    6.13    1.10
  -5  13  16    8.46    1.28
  13   5  17   -0.87    0.78
  13   5  17    0.93    0.69
 -13  -6   0    9.55    2.37
 -13  -6  -1   49.73    4.75
 -13  -6   1   40.39    4.33
 -13  -6  -2   94.80    6.49
 -13  -6   2   88.17    6.44
 -13  -6   3    8.85    2.38
 -13  -6  -3    9.22    2.34
 -13  -6   4   10.17    2.63
 -13  -6  -4    8.77    2.30
 -13  -6  -5   13.32    2.72
 -13  -6   5   11.59    2.82
 -13  -6   6   64.94    6.37
 -13  -6  -6   75.16    6.15
 -13  -6   7    3.04    1.93
 -13  -6  -7    5.92    2.30
  -6  13   8   23.78    2.11
 -13  -6   8   26.72    4.51
  -6  13   9   22.10    2.02
 -13  -6   9   28.51    4.59
  -6  13  10   58.55    3.27
 -13  -6  10   57.33    6.57
  -6  13  11   15.67    1.81
  -6  13  12    6.19    1.33
  13   6  12    5.84    1.27
  -6  13  13   -0.22    0.81
  13   6  13   -1.07    0.98
  13   6  14   13.02    1.69
  -6  13  14    9.47    1.51
  13   6  14   13.02    1.72
  -6  13  15    2.20    0.90
  13   6  15    2.00    0.87
  13   6  15    1.22    0.80
  13   6  16    1.47    0.89
  13   6  16    2.75    0.81
  13   6  17    4.21    0.86
  13   6  17    4.67    0.98
 -13  -7   0  345.31   12.65
 -13  -7  -1   42.33    4.62
 -13  -7   1   41.36    4.55
 -13  -7  -2   26.49    3.70
 -13  -7   2   26.06    3.81
 -13  -7   3    7.03    2.18
 -13  -7  -3    6.52    2.21
 -13  -7   4    7.20    2.11
 -13  -7  -4   10.32    2.56
 -13  -7   5    5.07    1.77
 -13  -7  -5    3.19    1.91
 -13  -7   6    5.67    2.40
 -13  -7  -6    6.77    2.30
 -13  -7   7   16.95    3.49
  -7  13   8   41.23    2.69
 -13  -7   8   42.28    5.42
  -7  13   9    5.96    1.29
 -13  -7   9    5.09    2.59
 -13  -7  10    6.52    2.57
  -7  13  10    7.54    1.35
  -7  13  11    7.62    1.38
  13   7  11   11.63    1.61
  13   7  12   11.34    1.65
  -7  13  12    9.55    1.51
  13   7  13    6.38    1.36
  -7  13  13    7.01    1.32
  13   7  13    5.12    1.25
  -7  13  14    3.79    1.10
  13   7  14    2.81    1.02
  13   7  14    1.63    0.89
  -7  13  15    1.50    0.73
  13   7  15    1.56    0.89
  13   7  15    0.16    0.79
  13   7  16    1.83    0.84
  13   7  16    5.27    1.06
  13   7  17    0.62    0.66
  13   7  17    1.16    0.70
 -13  -8   0   47.76    5.06
 -13  -8  -1   15.31    2.91
 -13  -8   1   12.18    2.77
 -13  -8  -2   98.30    7.04
 -13  -8   2   94.63    6.97
 -13  -8   3    9.87    2.69
 -13  -8  -3   11.01    2.71
 -13  -8   4   36.61    4.62
 -13  -8  -4   41.35    4.78
 -13  -8   5    1.58    1.54
 -13  -8  -5    3.08    1.36
 -13  -8   6   49.36    5.70
 -13  -8  -6   46.43    5.24
 -13  -8   7   13.91    3.23
  -8  13   7   12.62    1.52
  -8  13   8    4.42    1.16
 -13  -8   8    3.06    1.82
  -8  13   9   11.76    1.64
 -13  -8   9   14.22    3.45
  -8  13  10    0.65    0.93
 -13  -8  10   -2.07    1.69
  -8  13  11    0.17    0.91
  13   8  11   -1.74    1.05
  -8  13  12    0.78    0.97
  13   8  12   -0.18    0.88
  -8  13  13    2.49    0.92
  13   8  13    1.39    0.87
  13   8  13    3.63    1.12
  -8  13  14    3.22    1.15
  13   8  14    4.09    1.09
  13   8  14    4.25    1.13
  13   8  15    0.10    0.77
  13   8  15    1.89    0.88
  13   8  16    0.31    0.71
  13   8  16    3.19    0.95
  13   8  17    0.54    0.65
  13   8  17    0.93    0.63
 -13  -9   0    9.38    2.38
 -13  -9   1   10.05    2.77
 -13  -9  -1    9.16    2.46
 -13  -9   2   16.06    3.26
 -13  -9  -2   14.48    3.04
 -13  -9  -3   85.81    6.82
 -13  -9   3   73.02    6.44
 -13  -9   4    2.81    1.80
 -13  -9  -4   -0.71    1.65
 -13  -9   5   16.47    3.31
 -13  -9  -5   23.97    3.95
 -13  -9  -6    2.61    1.99
 -13  -9   6    1.84    1.87
 -13  -9   7   20.08    3.78
  -9  13   7   21.78    2.05
  -9  13   8    2.43    1.04
 -13  -9   8    0.11    1.60
 -13  -9   9    7.18    2.73
  -9  13   9    4.27    1.18
  13   9   9    5.76    1.19
  13   9  10   -0.10    0.73
  -9  13  10    2.34    1.07
  13   9  10    1.83    0.94
 -13  -9  10    1.50    1.32
  -9  13  11   20.16    2.08
  13   9  11   19.68    1.95
  13   9  12    1.92    0.94
  -9  13  12    2.84    1.08
  13   9  12    1.74    0.97
  -9  13  13    1.09    0.82
  13   9  13    0.95    0.88
  13   9  13    1.84    0.95
  13   9  14    1.89    1.05
  13   9  14    1.77    0.91
  13   9  15   14.39    1.62
  13   9  15   14.17    1.55
  13   9  16    1.22    0.80
  13   9  16   -0.99    0.80
 -13 -10   0   33.05    4.48
 -13 -10  -1    2.78    1.98
 -13 -10   1    1.42    1.57
 -13 -10  -2  321.85   13.33
 -13 -10   2  327.36   13.44
 -13 -10   3    3.03    1.72
 -13 -10  -3    0.24    1.86
 -13 -10   4   19.59    3.56
 -13 -10  -4   22.50    3.82
 -13 -10   5    0.47    1.35
 -13 -10  -5    0.12    1.67
 -10  13   6   64.87    3.32
 -13 -10   6   67.37    6.78
 -13 -10  -6   62.29    6.34
 -13 -10   7   10.50    2.77
 -13 -10  -7   13.39    3.18
 -10  13   7    8.65    1.45
 -10  13   7    8.08    1.26
 -10  13   8   -0.31    0.84
 -13 -10   8    1.35    1.51
 -13 -10   9    0.13    1.21
  13  10   9    1.09    0.73
 -10  13   9    1.73    1.00
 -10  13  10   20.86    2.10
  13  10  10   22.34    2.00
 -10  13  11   -0.07    0.95
  13  10  11    1.01    0.79
  13  10  12    3.61    1.16
  13  10  12    4.32    1.11
  13  10  13    4.75    1.22
  13  10  13    2.33    0.85
  13  10  14   34.60    2.54
  13  10  14   36.54    2.42
  13  10  15    0.21    0.73
  13  10  15    0.76    0.85
  13  10  16    0.58    0.65
  13  10  16    0.75    0.76
 -13 -11   0   17.98    3.51
 -13 -11   1   -1.13    1.80
 -13 -11  -1    1.45    1.56
 -13 -11   2    9.43    2.76
 -13 -11  -2    8.02    2.93
 -13 -11  -3    8.71    2.74
 -13 -11   3    8.81    2.67
 -13 -11   4   11.21    3.02
 -13 -11  -4   14.28    3.14
 -13 -11   5    4.09    2.35
 -13 -11  -5   -0.24    1.62
 -13 -11  -6    4.63    2.62
 -11  13   6    8.41    1.38
 -13 -11   6    4.30    1.83
 -13 -11   7    6.56    2.58
 -13 -11  -7    5.99    2.40
 -11  13   7    6.14    1.16
  13  11   8    0.46    0.71
 -13 -11   8    0.42    1.22
 -13 -11   9    5.26    2.32
  13  11   9    2.22    0.83
  13  11  10    1.11    0.75
  13  11  11    2.33    1.05
  13  11  12    3.32    1.08
  13  11  13    4.02    1.22
  13  11  14    0.04    0.90
  13  11  15    3.13    1.00
  13  11  16    1.06    0.65
 -13 -12   0   -0.91    1.73
 -13 -12   1    2.17    1.97
 -13 -12  -1    2.93    1.95
 -13 -12  -2   60.67    6.29
 -13 -12   2   48.92    5.64
 -13 -12  -3   41.13    5.20
 -13 -12   3   35.36    4.86
 -12  13   4    8.18    1.36
 -13 -12   4    9.19    2.61
 -13 -12  -4   10.23    3.12
 -12  13   5    3.51    0.95
 -13 -12  -5    2.73    1.98
 -13 -12   5    6.58    2.32
 -12  13   6    6.25    1.19
  13  12   6    7.22    1.30
 -13 -12   6    6.50    2.46
 -13 -12  -6    7.05    2.52
  13  12   7    3.93    0.92
 -12  13   7    1.92    0.90
 -13 -12   7    3.77    2.08
  13  12   8    2.07    0.83
 -13 -12   8    4.56    2.20
  13  12   9   14.30    1.65
  13  12  10   18.54    2.01
  13  12  10   21.46    1.95
  13  12  11   -0.46    0.87
  13  12  11    0.87    0.87
  13  12  12    1.44    1.06
  13  12  13    5.34    1.26
  13  12  14    3.84    1.15
  13  12  15    0.51    0.68
  13  12  16   -0.23    0.68
 -13 -13   0  255.29   12.77
 -13 -13  -1    9.62    3.02
 -13 -13   1   10.44    3.14
 -13  13  -2   82.95    3.63
 -13 -13   2   82.08    7.33
 -13 -13  -2   69.17    6.78
 -13  13   2   81.25    3.57
 -13 -13   3    1.24    1.55
 -13  13   3    1.30    0.81
 -13 -13  -3    1.16    2.29
 -13 -13   4  260.49   13.16
 -13 -13  -4  284.05   13.86
 -13  13   4  281.94    6.65
  13  13   5    3.36    1.06
 -13 -13  -5    1.74    1.86
 -13 -13   5    0.77    1.19
 -13  13   5    1.54    0.94
  13  13   6   10.08    1.41
 -13  13   6   11.78    1.57
 -13 -13  -6    6.83    2.42
 -13 -13   6   11.25    3.25
 -13  13   7    8.82    1.38
 -13 -13   7    6.75    2.38
  13  13   7    8.25    1.30
 -13 -13  -7    3.13    2.12
  13  13   8   33.81    2.52
  13  13   9   11.16    1.58
  13  13   9   12.04    1.59
  13  13  10    4.64    1.12
  13  13  10    5.81    1.31
  13  13  11    5.45    1.13
  13  13  11    6.24    1.34
  13  13  12   42.83    2.85
  13  13  13    0.67    0.85
  13  13  14    1.43    0.94
  13  13  15    0.70    0.71
 -13 -14   0    2.48    2.02
  13  14   0    2.30    0.91
 -14  13   0    2.57    1.06
 -13 -14   1    1.78    2.01
  13  14   1    0.20    0.71
 -14  13  -1    0.12    0.74
  13  14  -1    2.09    0.88
 -13 -14  -1   -0.30    1.90
 -14  13   1    2.45    0.94
  13  14  -2   11.52    1.47
  13  14   2   10.29    1.40
 -13 -14   2   11.26    3.24
 -14  13   2   10.92    1.52
 -13 -14  -2   11.79    2.98
 -14  13   3   33.76    2.44
  13  14   3   34.80    2.46
 -13 -14  -3   34.11    5.09
 -13 -14   3   30.89    4.75
 -14  13   4    5.33    1.28
  13  14   4    4.36    1.18
 -13 -14   4    3.60    1.97
 -13 -14  -4    6.46    2.63
 -14  13   5   18.48    1.89
  13  14   5   17.98    1.89
 -13 -14  -5   16.79    3.80
 -13 -14   5   17.74    3.74
 -14  13   6   10.87    1.45
  13  14   6   10.67    1.55
 -13 -14  -6   10.46    2.98
 -13 -14   6   13.33    3.51
  13  14   7    1.17    0.82
 -13 -14   7    2.90    1.80
  13  14   7    0.23    0.67
 -14  13   7    0.85    0.84
  13  14   8    2.74    1.01
  13  14   8    1.41    0.89
  13  14   9    1.17    0.80
  13  14   9   -0.74    0.77
  13  14  10    6.01    1.19
  13  14  10    4.18    1.14
  13  14  11    1.11    0.67
  13  14  11    1.76    1.05
  13  14  12    3.28    1.10
  13  14  13    4.24    1.11
  13  14  14    6.16    1.18
  13  14  15   -0.80    0.69
 -12 -14   0    8.03    2.61
 -12 -14   1    0.52    1.71
 -14  12   1    1.36    0.75
  12  14   2    7.17    1.25
 -14  12   2    9.38    1.40
 -12 -14   3    2.48    2.32
 -14  12   3    2.63    1.03
  12  14   3    3.12    1.03
 -12 -14  -3    3.36    2.37
  12  14   4    2.14    0.87
 -12 -14   4    3.88    2.31
 -14  12   4    2.35    0.89
 -12 -14  -4    1.29    1.79
  12  14   5    1.68    0.86
 -12 -14  -5    2.63    2.07
 -14  12   5    1.78    0.89
  12  14   6   -1.65    1.06
 -14  12   6    1.00    0.68
 -12 -14   6    1.98    2.12
 -12 -14   7    0.47    1.46
  12  14   7    1.08    0.82
  12  14   7    0.74    0.88
  12  14   8    6.84    1.27
 -12 -14   8    6.13    2.53
  12  14   8    6.13    1.23
  12  14   9    8.99    1.39
  12  14   9    6.54    1.32
  12  14  10    2.47    0.98
  12  14  10    1.20    0.82
  12  14  11    5.42    1.10
  12  14  11    5.11    1.24
  14 -12  12    0.87    0.78
  12  14  12    0.81    0.93
  12  14  13    1.29    0.92
  12  14  14   -0.06    0.80
  12  14  15    0.08    0.69
 -11 -14   0    4.75    2.16
 -11 -14   1   10.78    3.09
 -11 -14  -1    9.52    2.75
 -11 -14   2    2.37    1.80
 -11 -14  -2    0.82    1.67
 -11 -14   3   15.03    3.35
 -11 -14  -3   16.81    3.58
  11  14   4   10.35    1.38
 -14  11   4   11.79    1.45
 -11 -14   4   12.36    3.05
 -11 -14  -4   15.88    3.60
  11  14   5    7.41    1.25
 -14  11   5    8.57    1.38
 -11 -14   5    6.09    2.27
 -11 -14  -5    4.92    2.47
  11  14   6    2.55    0.89
  11  14   6    2.17    0.89
 -14  11   6    5.41    1.12
 -11 -14   6    3.33    1.90
  11  14   7    1.23    0.67
  11  14   7    1.77    0.86
  11  14   8    8.99    1.37
  11  14   8    8.01    1.34
 -11 -14   8    8.92    3.06
  11  14   9    2.03    0.87
  11  14   9    2.58    0.96
  11  14  10    7.38    1.31
  11  14  10   11.33    1.52
  11  14  11    1.13    0.96
  11  14  11    2.29    0.87
  14 -11  12   -1.87    1.02
  11  14  12    0.19    0.77
  14 -11  13    1.32    0.85
  11  14  13    2.25    0.98
  14 -11  14    0.36    0.72
  11  14  14    2.40    1.03
  14 -11  15    0.94    0.65
  11  14  15    0.24    0.72
  11  14  16   -0.32    0.65
 -10 -14   0   12.65    2.95
 -10 -14   1   18.76    3.60
 -10 -14  -1   21.33    3.96
 -10 -14   2    0.29    1.63
 -10 -14  -2    3.23    2.21
 -10 -14   3   -0.38    1.40
 -10 -14  -3   -1.14    1.71
 -10 -14   4    4.94    2.15
 -10 -14   5   24.53    4.06
  10  14   5   24.36    2.02
  10  14   6   16.79    1.70
  10  14   6   15.82    1.68
 -10 -14   6   19.41    3.89
  10  14   7    3.16    0.94
  10  14   7    4.88    1.05
 -10 -14   7    4.10    1.95
  10  14   8    2.37    0.92
 -10 -14   8    4.20    2.02
  10  14   8   -0.36    0.96
  10  14   9    6.55    1.23
  10  14   9    4.36    1.14
  10  14  10    1.54    0.90
  10  14  10    0.56    0.82
  10  14  11    1.29    0.91
  10  14  12    3.48    1.13
  14 -10  12    3.25    1.12
  14 -10  13    2.39    0.98
  10  14  13    0.68    0.87
  14 -10  14    0.09    0.75
  10  14  14    1.20    0.96
  14 -10  15    4.80    1.04
  10  14  15    2.75    0.97
  14 -10  16   -1.72    0.72
  10  14  16   -0.05    0.69
  -9 -14   0   20.71    3.56
  -9 -14   1    8.63    2.58
  -9 -14  -1   12.66    3.03
  -9 -14  -2  112.48    8.16
  -9 -14   2  108.01    7.75
  -9 -14  -3   52.39    5.69
  -9 -14   3   47.35    5.30
  -9 -14   4   10.19    2.75
  -9 -14   5   26.04    4.05
  -9 -14   6   54.53    5.86
   9  14   6   64.74    3.21
   9  14   6   65.91    3.23
   9  14   7    1.38    0.79
  -9 -14   7    2.53    1.70
   9  14   7    0.07    0.62
   9  14   8    3.93    1.14
   9  14   8    2.07    0.83
   9  14   9   45.21    2.90
   9  14   9   49.90    2.94
   9  14  10   18.92    2.00
   9  14  10   20.68    1.99
   9  14  11    3.91    1.13
   9  14  12    1.97    1.02
  14  -9  13    0.93    0.83
   9  14  13    3.51    1.13
   9  14  14   16.82    1.83
  14  -9  14   16.02    1.79
   9  14  15    0.11    0.82
  14  -9  15    2.48    0.87
  14  -9  16    0.41    0.63
   9  14  16   -0.69    0.74
  -8 -14   0   54.79    5.56
  -8 -14  -1    2.06    1.79
  -8 -14   1    3.69    1.93
  -8 -14   2   21.50    3.57
  -8 -14  -2   22.54    3.86
  -8 -14   3    0.19    1.38
  -8 -14   4    1.46    1.34
 -14   8   4    2.33    1.54
 -14   8   5   13.21    2.59
  -8 -14   5   10.44    2.72
 -14   8   6    8.18    2.73
  -8 -14   6    5.63    2.13
   8  14   7    1.30    0.67
   8  14   7    3.34    0.99
  -8 -14   7    2.75    1.51
   8  14   8   12.25    1.59
   8  14   8   15.51    1.66
   8  14   9    1.23    0.78
   8  14   9   -0.63    0.84
   8  14  10    0.78    0.89
   8  14  10    1.20    0.89
   8  14  11   24.58    2.31
   8  14  12    5.35    1.23
   8  14  13    2.17    1.10
  14  -8  13    0.84    0.87
  14  -8  14   -0.04    0.89
   8  14  14   -1.24    1.03
  14  -8  15    1.40    0.81
   8  14  15    0.01    0.83
  14  -8  16    0.49    0.66
   8  14  16    0.02    0.70
  -7 -14   0    2.23    1.64
  -7 -14  -1   14.37    2.87
  -7 -14   1   16.36    2.86
  -7 -14   2    0.51    1.34
  -7 -14   3   53.44    5.21
 -14   7   3   59.68    4.95
  -7 -14   4   19.83    3.34
 -14   7   4   19.08    3.07
 -14   7   5   12.96    2.67
  -7 -14   5   17.02    3.15
 -14   7   6    5.93    2.03
  -7 -14   6    4.45    1.84
  -7 -14   7    2.14    1.53
   7  14   7    2.17    0.84
   7  14   7    1.02    0.81
 -14   7   7    5.06    1.91
   7  14   8   18.80    1.80
   7  14   8   18.12    1.84
 -14   7   8   22.22    4.06
   7  14   9    9.78    1.36
   7  14   9    7.18    1.35
   7  14  10   23.53    2.17
   7  14  10   30.07    2.32
   7  14  11    0.10    0.78
   7  14  12   12.13    1.72
   7  14  13    4.08    1.11
  14  -7  13    1.50    0.99
  14  -7  14    2.13    0.93
   7  14  14    1.80    0.96
  14  -7  15    1.68    0.94
   7  14  15    0.98    0.81
  14  -7  16    1.86    0.81
   7  14  16    0.90    0.72
  14  -7  17   -0.14    0.61
   7  14  17   -0.68    0.65
  -6 -14   0   75.64    6.04
  -6 -14  -1    1.75    1.66
  -6 -14   1    2.73    1.78
  -6 -14   2    9.02    2.35
 -14   6   2    7.90    1.69
  -6 -14   3   -0.39    1.67
 -14   6   3    0.98    1.04
 -14   6   4   13.17    2.73
  -6 -14   4    5.65    1.90
 -14   6   5    2.96    1.87
  -6 -14   5    0.83    1.08
 -14   6   6    4.20    1.85
  -6 -14   6   -0.09    1.43
 -14   6   7    1.45    1.72
   6  14   8   10.76    1.46
   6  14   8   12.42    1.56
 -14   6   8   12.85    3.00
   6  14   9   -0.23    0.76
   6  14   9    0.97    0.75
   6  14  10    0.94    0.89
   6  14  10    0.35    0.79
   6  14  11    1.07    0.92
   6  14  12    3.01    1.11
   6  14  13    0.52    0.84
  14  -6  13    0.80    0.96
  14  -6  14    0.92    0.78
   6  14  14    0.55    0.83
  14  -6  15    0.35    0.91
   6  14  15   -1.16    1.00
  14  -6  16    3.69    1.00
   6  14  16    1.73    0.86
  14  -6  17    0.19    0.63
   6  14  17    1.38    0.64
  -5 -14   0    8.95    2.23
  -5 -14   1   33.88    4.07
 -14   5   1   34.51    3.37
 -14   5   2   28.63    3.32
  -5 -14   2   29.30    3.72
  -5 -14   3   17.13    2.93
 -14   5   3   19.27    2.98
  -5 -14   4    9.84    2.21
 -14   5   4    6.99    1.86
  -5 -14   5    3.46    1.40
 -14   5   5    5.43    1.84
 -14   5   6   26.53    3.89
  -5 -14   6   20.49    3.21
 -14   5   7    0.56    1.36
   5  14   8    2.18    0.87
   5  14   8   -0.17    0.77
   5  14   9   30.81    2.35
 -14   5   9   24.46    4.37
   5  14   9   30.60    2.28
 -14   5  10   27.19    4.65
   5  14  10   33.48    2.54
   5  14  11    2.56    1.02
   5  14  12    8.17    1.46
   5  14  13   -0.40    0.98
  14  -5  13    2.53    0.98
   5  14  14   11.35    1.61
  14  -5  14   10.54    1.67
   5  14  15   -0.20    0.90
  14  -5  15    0.47    0.85
  14  -5  16    0.29    0.73
   5  14  16    1.96    0.88
  14  -5  17    3.20    0.80
   5  14  17    3.57    0.89
  -4 -14   0  202.15    9.30
 -14   4   0  222.23    8.01
  -4 -14   1   53.10    4.85
 -14   4   1   59.67    4.47
 -14   4   2   15.53    2.52
  -4 -14   2   14.95    2.70
 -14   4   3    9.24    2.02
  -4 -14   3    6.49    1.78
  -4 -14   4    7.06    2.00
 -14   4   4    9.12    2.38
  -4 -14   5   16.90    2.68
 -14   4   5   17.20    3.11
 -14   4   6   12.92    2.87
 -14   4   7   15.28    3.07
   4  14   8   16.51    1.69
 -14   4   8   13.51    2.99
   4  14   8   17.49    1.70
   4  14   9    6.02    1.31
 -14   4   9    5.64    2.08
   4  14   9    5.57    1.09
   4  14  10    1.26    0.89
 -14   4  10    2.26    2.11
   4  14  11   24.53    2.27
   4  14  12   10.41    1.61
   4  14  13    1.29    0.88
  14  -4  13    0.62    0.94
   4  14  14    1.28    0.92
  14  -4  14    0.58    1.00
  14  -4  15    0.38    0.85
   4  14  15    1.61    0.82
  14  -4  16    1.85    0.84
   4  14  16    2.13    0.90
  14  -4  17    3.10    0.87
   4  14  17    2.71    0.83
 -14   3   0    9.39    1.93
 -14   3  -1   16.26    2.20
 -14   3   1   12.58    2.14
  -3 -14   1   14.08    2.47
  -3 -14   2   14.49    2.61
 -14   3   2   11.82    2.23
  -3 -14   3   11.21    2.27
 -14   3   3   11.36    2.26
  -3 -14   4    1.74    1.15
 -14   3   4    1.64    1.69
 -14   3   5    0.44    1.19
 -14   3   6   -4.09    1.99
 -14   3   7   16.76    3.29
   3  14   8    1.71    0.97
 -14   3   8    1.41    1.70
   3  14   9   -0.50    0.85
 -14   3   9    1.04    1.97
   3  14   9   -0.13    0.79
 -14   3  10    4.07    2.54
   3  14  10    0.33    0.82
   3  14  11    1.04    1.05
   3  14  12   -0.31    0.88
   3  14  13    5.49    1.27
  14  -3  13    3.83    1.28
   3  14  14    5.78    1.28
  14  -3  14    4.37    1.32
  14  -3  15    0.93    0.86
   3  14  15   -0.78    0.95
   3  14  16    0.24    0.72
  14  -3  16    1.07    0.83
  14  -3  17    0.35    0.71
   3  14  17    1.45    0.74
 -14   2   0    1.97    1.13
 -14   2   1   15.39    2.55
  -2 -14   1   15.93    2.67
 -14   2  -1   12.63    1.99
  -2 -14   2   51.00    4.36
 -14   2   2   51.43    4.57
 -14   2   3    5.64    1.93
  -2 -14   3    4.71    1.48
  -2 -14   4   16.79    2.49
 -14   2   4   17.57    3.11
 -14   2   5    7.45    2.15
 -14   2   6   29.42    4.15
 -14   2   7   -1.16    1.61
   2  14   8   22.97    1.97
 -14   2   8   23.02    4.03
 -14   2   9    1.71    1.80
   2  14   9    1.65    0.99
   2  14  10   13.28    1.63
 -14   2  10    8.16    2.91
   2  14  11    1.96    0.93
   2  14  12    0.08    0.86
  14  -2  13    0.99    1.00
   2  14  13   -0.45    0.79
  14  -2  14    5.43    1.30
   2  14  14    6.07    1.29
   2  14  15    7.77    1.38
  14  -2  15    5.38    1.28
  14  -2  16    2.64    1.02
   2  14  16    4.33    1.09
   2  14  17    1.55    0.75
  14  -2  17    1.15    0.77
 -14   1   0    3.37    1.46
 -14   1  -1    3.07    1.25
  -1 -14   1    2.09    1.34
 -14   1   1    3.28    1.41
 -14   1  -2   85.81    5.03
 -14   1   2   89.69    6.01
  -1 -14   2   88.52    5.41
 -14   1   3   83.22    5.98
  -1 -14   3   83.23    5.23
 -14   1   4   -0.47    1.31
 -14   1   5    2.51    1.67
 -14   1   6    0.41    1.41
 -14   1   7    4.32    2.31
 -14   1   8    3.88    2.17
   1  14   8    5.67    1.16
 -14   1   9   42.13    5.62
   1  14   9   39.99    2.66
 -14   1  10    7.13    2.69
   1  14  10    3.41    1.13
   1  14  11    0.44    0.78
   1  14  12    0.57    0.89
   1  14  13   -0.15    0.81
  14  -1  13   -1.54    1.07
   1  14  14    6.04    1.29
  14  -1  14    6.56    1.41
   1  14  15    2.53    1.00
  14  -1  15    1.66    0.99
  14  -1  15    1.41    0.75
  14  -1  16    0.23    0.84
   1  14  16    1.14    0.83
  14  -1  17    0.72    0.74
   1  14  17    1.03    0.72
 -14   0   0  613.13   14.43
 -14   0  -1    2.71    1.28
   0 -14   1    4.41    1.34
 -14   0   1    5.94    1.71
 -14   0   2  163.28    8.08
   0 -14   2  174.08    7.26
 -14   0  -2  165.01    7.18
 -14   0   3   51.11    4.79
 -14   0  -3   54.12    4.12
 -14   0   4   88.95    6.50
 -14   0   5    0.21    1.42
 -14   0   6   24.00    3.75
 -14   0   7    5.66    2.13
 -14   0   8   28.48    4.46
   0  14   8   34.65    2.41
   0  14   9   21.31    2.00
 -14   0   9   17.70    3.75
 -14   0  10   -2.88    2.08
   0  14  10   -0.04    0.79
   0  14  11    5.70    1.28
   0  14  12   47.92    3.10
   0  14  13    5.61    1.27
  14   0  13    3.44    1.13
   0  14  14    1.03    0.93
  14   0  14    0.01    0.89
   0  14  15   14.80    1.70
  14   0  15   12.41    1.70
  14   0  15   11.13    1.41
  14   0  16    2.83    1.05
   0  14  16    2.64    1.00
  14   0  17    1.30    0.81
   0  14  17   -0.47    0.64
 -14  -1   0    3.34    1.45
 -14  -1  -1    0.85    1.16
 -14  -1   1    2.51    1.44
   1 -14   1    2.66    1.19
 -14  -1   2   83.90    5.88
 -14  -1  -2   80.99    5.26
 -14  -1   3   70.67    5.65
 -14  -1  -3   81.10    5.25
 -14  -1  -4   -0.73    0.96
 -14  -1   4   -0.59    1.60
 -14  -1   5    0.20    1.36
 -14  -1   6    2.00    1.46
 -14  -1   7    2.65    1.94
 -14  -1   8    7.75    2.66
  -1  14   8    8.48    1.39
  -1  14   9   37.11    2.57
 -14  -1   9   29.67    4.61
  -1  14  10    2.71    1.06
 -14  -1  10    4.91    2.72
  -1  14  11   -0.13    0.88
  -1  14  12    0.11    0.80
  -1  14  13   -0.45    0.90
  14   1  13   -0.78    1.00
  -1  14  14    8.88    1.49
  14   1  14    7.95    1.45
  14   1  15    1.32    0.76
  -1  14  15    1.41    0.96
  14   1  15    1.41    0.92
  14   1  16   -0.80    0.66
  14   1  16    0.55    0.82
  -1  14  16    0.13    0.78
  14   1  17    0.90    0.80
  -1  14  17    0.18    0.64
 -14  -2   0    1.61    1.38
 -14  -2  -1   15.25    2.53
 -14  -2   1   12.20    2.56
   2 -14   1   15.96    2.21
 -14  -2   2   50.67    4.74
 -14  -2  -2   52.31    4.47
 -14  -2  -3    3.85    1.58
 -14  -2   3    5.57    1.95
 -14  -2   4   20.30    3.43
 -14  -2  -4   19.38    2.75
 -14  -2   5    5.15    2.06
 -14  -2  -5   11.14    2.14
 -14  -2   6   23.00    3.72
 -14  -2   7    1.52    2.01
  -2  14   8   23.06    2.01
 -14  -2   8   24.49    4.23
  -2  14   9    0.12    0.70
 -14  -2   9   -3.66    2.13
  -2  14  10   12.95    1.67
 -14  -2  10    8.05    2.79
  -2  14  11    3.43    1.15
  -2  14  12    1.07    0.89
  -2  14  13    0.30    0.79
  14   2  13    0.86    0.94
  -2  14  14    5.94    1.24
  14   2  14    5.36    1.29
  -2  14  15    7.72    1.40
  14   2  15    6.02    1.26
  14   2  15    5.23    1.12
  14   2  16    4.23    1.12
  -2  14  16    2.69    0.94
  14   2  16    2.82    0.81
  14   2  17    0.01    0.72
  -2  14  17   -0.14    0.63
 -14  -3   0    8.99    2.25
 -14  -3  -1   15.25    2.72
 -14  -3   1   11.20    2.34
 -14  -3  -2   16.34    2.70
 -14  -3   2   12.48    2.54
 -14  -3  -3   11.50    2.46
 -14  -3   3    8.20    2.30
 -14  -3  -4    3.15    1.46
 -14  -3   4    0.67    1.19
 -14  -3   5    1.35    1.43
 -14  -3  -5   -0.46    1.28
 -14  -3   6    0.42    1.61
 -14  -3  -6    0.94    1.19
 -14  -3   7   15.42    3.31
  -3  14   8    0.67    0.75
 -14  -3   8    2.73    1.93
 -14  -3   9    1.14    1.87
  -3  14   9    0.64    0.67
  -3  14  10    1.60    0.73
 -14  -3  10    0.79    1.94
  -3  14  11    0.91    0.94
  -3  14  12    1.03    0.95
  -3  14  13    7.15    1.42
  14   3  13    4.69    1.23
  -3  14  14    4.22    1.16
  14   3  14    6.46    1.35
  14   3  14    5.32    1.16
  -3  14  15    0.48    0.86
  14   3  15    0.28    0.82
  14   3  15   -0.33    0.79
  14   3  16    1.38    0.89
  -3  14  16    0.88    0.78
  14   3  16   -0.82    0.73
  14   3  17   -0.93    0.81
  -3  14  17    0.98    0.66
  14   3  17    1.18    0.62
 -14  -4   0  215.18    9.51
 -14  -4  -1   52.37    4.73
 -14  -4   1   53.16    4.96
 -14  -4   2   16.52    3.01
 -14  -4  -2   18.36    2.97
 -14  -4  -3    8.79    2.22
 -14  -4   3    9.32    2.49
 -14  -4   4    6.69    2.17
 -14  -4  -4    7.26    2.02
 -14  -4   5   18.60    3.51
 -14  -4  -5   21.30    3.18
 -14  -4   6    8.49    2.59
 -14  -4  -6   13.80    2.66
 -14  -4   7   15.99    3.47
  -4  14   8   14.47    1.68
 -14  -4   8   17.37    3.90
 -14  -4   9    3.17    1.96
  -4  14   9    5.11    1.16
  -4  14  10    1.91    1.02
 -14  -4  10    2.84    2.67
  -4  14  11   22.52    2.17
  -4  14  12    9.89    1.55
  -4  14  13    3.59    1.16
  14   4  13    1.80    0.97
  -4  14  14    0.67    0.95
  14   4  14    1.34    0.94
  14   4  14    0.68    0.86
  14   4  15    0.57    0.74
  -4  14  15    1.28    0.93
  14   4  15    0.50    0.91
  -4  14  16    2.03    0.87
  14   4  16    2.17    0.89
  14   4  16    0.96    0.66
  14   4  17    1.84    0.63
  14   4  17    1.73    0.76
 -14  -5   0    8.96    2.37
 -14  -5  -1   32.07    3.96
 -14  -5   1   35.72    4.22
 -14  -5  -2   31.17    3.88
 -14  -5   2   31.62    4.00
 -14  -5   3   17.21    3.10
 -14  -5  -3   20.80    3.19
 -14  -5   4    7.59    2.37
 -14  -5  -4    9.59    2.19
 -14  -5  -5    5.04    1.75
 -14  -5   5    6.60    2.55
 -14  -5   6   21.02    3.82
 -14  -5  -6   25.85    3.58
 -14  -5   7    1.64    1.87
 -14  -5  -7    0.86    1.45
  -5  14   8    1.63    0.84
 -14  -5   8    0.14    1.60
  -5  14   9   24.00    2.15
 -14  -5   9   21.68    4.11
  -5  14  10   30.09    2.42
 -14  -5  10   30.58    4.96
  -5  14  11    3.80    1.13
  -5  14  12    6.50    1.37
  14   5  12    6.38    1.44
  -5  14  13    0.81    0.84
  14   5  13    0.38    0.84
  14   5  14   13.13    1.66
  -5  14  14   11.42    1.60
  14   5  14   14.37    1.81
  -5  14  15    2.12    0.97
  14   5  15    0.43    0.78
  14   5  15    0.17    0.79
  -5  14  16    0.53    0.68
  14   5  16    0.68    0.77
  14   5  16    0.79    0.71
  14   5  17    1.69    0.77
  14   5  17    3.14    0.78
 -14  -6   0   69.05    5.82
 -14  -6  -1    3.07    1.81
 -14  -6   1    5.14    2.21
 -14  -6  -2    9.92    2.31
 -14  -6   2    8.51    2.54
 -14  -6   3   -1.51    1.75
 -14  -6  -3    1.15    1.67
 -14  -6   4   10.13    2.70
 -14  -6  -4   10.05    2.41
 -14  -6  -5    1.62    1.53
 -14  -6   5    0.48    1.51
 -14  -6   6    2.32    1.52
 -14  -6  -6    2.35    1.67
 -14  -6  -7   -0.07    1.55
 -14  -6   7    1.93    1.71
  -6  14   7    0.98    0.83
  -6  14   8   12.18    1.55
 -14  -6   8   13.22    3.19
  -6  14   9    2.42    1.03
 -14  -6   9   -0.85    1.46
 -14  -6  10    1.58    1.56
  -6  14  10    1.31    0.95
  -6  14  11    0.41    0.82
  -6  14  12    2.69    1.09
  14   6  12    4.73    1.18
  -6  14  13    1.18    0.91
  14   6  13   -0.11    0.83
  -6  14  14    1.22    0.91
  14   6  14    0.95    0.89
  14   6  14    2.44    0.99
  -6  14  15   -0.65    0.80
  14   6  15    0.63    0.82
  14   6  15    0.05    0.78
  14   6  16    1.42    0.82
  14   6  16    2.42    0.85
  14   6  17    0.53    0.57
  14   6  17   -0.09    0.66
 -14  -7   0    0.04    1.58
 -14  -7  -1   13.72    2.96
 -14  -7   1   13.27    2.80
 -14  -7  -2    0.91    1.41
 -14  -7   2    0.75    1.60
 -14  -7   3   50.25    5.29
 -14  -7  -3   55.67    5.38
 -14  -7   4   22.13    3.70
 -14  -7  -4   22.56    3.67
 -14  -7  -5   19.28    3.42
 -14  -7   5   17.68    3.50
 -14  -7   6   11.60    3.17
 -14  -7  -6    5.29    1.85
  -7  14   7    2.14    0.97
 -14  -7  -7   -2.95    1.80
  -7  14   8   20.34    1.87
  -7  14   8   19.09    1.94
 -14  -7   8   12.37    3.27
 -14  -7  -8   18.88    3.68
  -7  14   9    8.53    1.46
 -14  -7   9    6.36    2.54
 -14  -7  10   19.76    4.08
  -7  14  10   23.72    2.22
  -7  14  11    1.21    0.99
  14   7  11    0.05    0.82
  -7  14  12   12.25    1.71
  14   7  12   14.11    1.87
  -7  14  13    3.79    1.13
  14   7  13    4.76    1.21
  14   7  13    3.43    1.10
  -7  14  14    2.50    1.01
  14   7  14    2.18    0.94
  14   7  14    2.89    1.00
  14   7  15    1.90    0.87
  14   7  15    0.86    0.79
  14   7  16   -1.07    0.80
  14   7  16    1.88    0.86
  14   7  17    0.23    0.60
  14   7  17    0.29    0.56
 -14  -8   0   58.20    5.69
 -14  -8  -1    5.70    2.11
 -14  -8   1    3.55    1.71
 -14  -8   2   19.55    3.47
 -14  -8  -2   23.25    3.63
 -14  -8   3   -1.75    1.81
 -14  -8  -3   -0.86    1.87
 -14  -8   4    1.92    2.06
 -14  -8  -4    3.72    2.02
 -14  -8   5    9.73    2.79
 -14  -8  -5   13.23    3.03
  -8  14   6    7.49    1.26
 -14  -8  -6    8.52    2.58
 -14  -8   6    4.65    2.09
 -14  -8   7    1.98    1.92
  -8  14   7    3.32    0.97
  -8  14   7    3.47    0.87
  -8  14   8   13.34    1.66
 -14  -8   8   12.92    3.27
  -8  14   8   13.61    1.61
 -14  -8  -8    9.64    2.51
  -8  14   9   -0.60    0.89
 -14  -8   9    0.03    1.80
  14   8  10    3.76    1.11
  -8  14  10    0.76    0.92
  -8  14  11   23.03    2.23
  14   8  11   26.37    2.39
  -8  14  12    5.69    1.33
  14   8  12    4.43    1.18
  -8  14  13    1.39    0.89
  14   8  13    2.71    1.07
  14   8  13    1.35    0.83
  -8  14  14    0.12    0.80
  14   8  14    0.97    0.83
  14   8  14   -0.01    0.89
  14   8  15    0.28    0.70
  14   8  15    0.55    0.77
  14   8  16   -0.38    0.68
  14   8  16   -0.29    0.68
 -14  -9   0   14.31    3.22
 -14  -9  -1   11.16    2.86
 -14  -9   1   20.90    3.76
 -14  -9  -2  111.42    7.90
 -14  -9   2  101.90    7.73
 -14  -9  -3   46.72    5.23
 -14  -9   3   43.35    5.32
 -14  -9   4    8.72    2.44
 -14  -9  -4    6.74    2.22
 -14  -9   5   18.03    3.55
 -14  -9  -5   25.90    4.05
  -9  14   6   64.52    3.32
 -14  -9   6   66.00    6.72
 -14  -9  -6   60.27    6.14
  -9  14   6   64.97    3.20
  -9  14   7    0.32    0.90
  -9  14   7    0.07    0.86
 -14  -9  -7   -2.07    1.71
 -14  -9   7    2.35    2.07
  -9  14   8    3.64    1.14
 -14  -9   8    3.60    2.03
  -9  14   8    3.67    1.08
 -14  -9  -8   -1.12    1.52
  14   9   9   47.30    2.86
  -9  14   9   43.13    2.91
 -14  -9  -9   46.50    5.75
 -14  -9   9   39.01    5.58
  -9  14  10   18.66    2.01
  14   9  10   20.00    1.91
  14   9  10   15.84    1.87
  -9  14  11    5.26    1.29
  14   9  11    4.30    1.10
  -9  14  12    2.37    1.03
  14   9  12    1.51    0.88
  14   9  12    2.20    1.12
  14   9  13    1.37    0.82
  14   9  13    1.53    0.92
  14   9  14   16.26    1.81
  14   9  14   15.91    1.69
  14   9  15    1.61    0.80
  14   9  15    0.55    0.73
  14   9  16   -0.90    0.69
  14   9  16    0.13    0.62
 -14 -10   0    9.36    2.62
 -14 -10  -1   22.65    3.87
 -14 -10   1   17.54    3.38
 -14 -10   2   -0.31    1.66
 -14 -10  -2   -0.15    1.59
 -14 -10   3   -0.36    1.58
 -14 -10  -3    1.38    1.42
 -14 -10  -4    4.32    2.03
 -14 -10   4    2.39    1.59
 -10  14   5   27.86    2.21
 -14 -10   5   27.56    4.39
 -14 -10  -5   20.74    3.84
 -10  14   6   18.31    1.91
 -14 -10  -6   17.61    3.68
 -10  14   6   17.98    1.82
 -14 -10   6   20.08    3.98
 -14 -10   7    5.87    2.36
 -10  14   7    3.51    0.88
 -10  14   7    4.04    1.06
 -14 -10  -7    2.99    1.65
 -10  14   8    2.02    1.00
 -14 -10   8    0.52    1.34
 -10  14   8    0.63    0.74
 -14 -10  -8   -1.42    1.64
  14  10   9    5.24    1.28
 -10  14   9    5.23    1.31
 -14 -10  -9    1.28    1.58
  14  10  10    0.61    0.78
 -10  14  10   -0.86    0.89
 -10  14  11    1.15    0.87
  14  10  12    4.99    1.15
  14  10  12    2.54    0.98
  14  10  13   -0.16    0.74
  14  10  13    1.16    0.82
  14  10  14    0.95    0.76
  14  10  14   -0.65    0.83
  14  10  15    2.04    0.65
  14  10  15    3.11    0.97
  14  10  16    1.08    0.73
 -14 -11   0    5.51    2.06
 -14 -11  -1    8.09    2.54
 -14 -11   1    7.17    2.62
 -14 -11   2    7.43    2.77
 -14 -11  -2    5.00    2.45
 -14 -11   3   15.29    3.53
 -14 -11  -3   21.28    4.01
 -11  14   4   11.18    1.51
 -14 -11   4   12.98    3.04
 -14 -11  -4   10.92    2.97
 -11  14   5    6.60    1.18
 -14 -11   5    4.79    2.12
 -14 -11  -5    6.62    2.21
 -11  14   6    3.94    1.04
 -14 -11  -6    0.41    1.30
 -14 -11   6    2.55    1.96
 -14 -11   7    1.90    1.77
 -11  14   7   -0.21    0.69
 -14 -11  -7    3.19    1.81
 -11  14   8   11.02    1.45
  14  11   8    8.09    1.34
 -14 -11   8    8.16    2.72
  14  11   9    3.13    0.93
  14  11  10   10.96    1.50
  14  11  11    1.25    0.80
  14  11  12   -1.07    1.00
  14  11  13    1.76    0.96
  14  11  14    0.26    0.79
  14  11  15    0.08    0.75
  14  11  16    0.65    0.65
 -14 -12   0    7.01    2.49
 -12  14   1    1.74    0.71
 -14 -12  -1    1.23    1.58
 -12  14  -2    9.07    1.37
 -14 -12   2    6.18    2.47
 -12  14   2    8.72    1.32
 -14 -12  -2    8.11    2.87
 -14 -12   3    5.32    2.51
 -12  14  -3    2.70    0.98
 -12  14   3    2.98    0.94
 -14 -12  -3    0.77    1.75
 -12  14   4    3.40    1.05
 -14 -12   4    7.59    2.62
 -14 -12  -4    4.70    2.48
 -12  14   5    1.74    0.82
 -14 -12   5    0.47    1.50
 -12  14   6   -0.75    0.82
 -14 -12  -6   -5.84    2.56
 -14 -12   6   -2.34    2.21
 -14 -12   7    1.16    1.36
  14  12   7    0.41    0.71
 -14 -12  -7    2.73    1.96
 -12  14   7    0.37    0.75
 -12  14   8    6.13    1.18
  14  12   8    5.86    1.11
  14  12   9    8.71    1.36
  14  12  10    1.97    0.92
  14  12  10    1.73    0.89
  14  12  11    5.95    1.20
  14  12  11    4.75    1.18
  14  12  12    0.44    0.84
  14  12  13    1.11    0.92
  14  12  14    0.98    0.79
  14  12  15    0.23    0.66
 -14 -13   0    0.33    1.76
 -13  14   0    1.46    0.91
 -14 -13  -1   -0.52    1.60
 -13  14  -1    0.52    0.65
 -14 -13   1   -1.40    2.34
 -13  14   1    2.57    0.93
 -14 -13  -2   10.89    2.99
  14  13  -2   10.39    1.35
 -13  14  -2   12.12    1.64
 -14 -13   2   10.60    2.93
 -13  14   2    9.37    1.47
 -14 -13   3   27.08    4.53
 -13  14   3   32.61    2.40
 -14 -13  -3   24.12    4.26
 -13  14   4    4.68    1.17
 -14 -13  -4    2.56    1.51
 -13  14   5   19.18    1.88
  14  13   5   19.37    1.96
 -14 -13  -5   22.36    4.17
 -14 -13   5   15.47    3.66
  14  13   6   10.22    1.50
 -13  14   6   11.86    1.49
 -14 -13  -6    8.57    3.13
 -14 -13   6   10.44    2.91
 -14 -13   7   -0.59    1.35
  14  13   7   -0.60    0.82
 -13  14   7   -0.23    0.70
  14  13   8    1.39    0.68
 -13  14   8    2.77    1.03
  14  13   9    1.10    0.82
  14  13   9   -1.35    0.93
  14  13  10    4.50    1.11
  14  13  10    4.88    1.18
  14  13  11    0.30    0.82
  14  13  11    2.07    0.79
  14  13  12    3.27    1.14
  14  13  13    5.67    1.26
  14  13  14    5.65    1.15
  14  13  15    0.77    0.70
 -14  14   0  103.34    4.16
 -14 -14   0  111.55    8.94
  14  14   0  107.83    4.16
 -14  14  -1    2.69    0.94
 -14 -14  -1    1.03    1.63
  14  14  -1    1.54    0.73
  14  14   1    3.17    0.85
 -14 -14   1    0.26    1.85
 -14  14   1    2.11    0.94
  14  14  -2    1.69    0.85
 -14  14   2    1.53    0.92
 -14 -14   2    2.01    2.02
  14  14   2    0.05    0.69
 -14  14   3    3.13    0.96
  14  14   3    3.66    1.08
 -14 -14   3    4.57    1.90
 -14 -14  -3    1.79    1.89
  14  14   4    7.18    1.30
 -14  14   4    6.92    1.30
 -14 -14   4    9.44    2.95
 -14 -14  -4   11.78    3.24
  14  14   5   15.18    1.75
 -14  14   5   14.24    1.70
 -14 -14   5   13.41    3.46
 -14 -14  -5   11.06    3.20
 -14  14   6   19.86    1.98
  14  14   6   16.48    1.77
 -14 -14  -6   22.02    4.35
 -14 -14   6   19.71    4.12
  14  14   7    1.07    0.74
 -14  14   7    1.77    0.90
  14  14   7    2.84    0.95
  14  14   8   -0.86    0.87
  14  14   8    0.75    0.72
  14  14   9   -0.88    0.90
  14  14   9   -0.72    0.86
  14  14  10    1.15    0.86
  14  14  10    1.47    0.79
  14  14  11    3.10    0.95
  14  14  11    2.64    1.05
  14  14  12    4.30    1.11
  14  14  13    0.60    0.85
  14  14  14    0.04    0.68
  14  14  15   -0.49    0.65
 -14 -15   0   36.63    5.37
  14  15   0   38.48    2.55
  14  15  -1   -0.89    0.93
  14  15   1    0.18    0.74
 -14 -15  -1    0.76    1.73
 -14 -15   1   -0.79    1.82
 -15  14   1    0.17    0.66
 -14 -15  -2    2.41    1.86
  14  15  -2    4.52    1.06
  14  15   2    2.04    0.91
 -15  14   2    5.08    1.25
 -14 -15   2    5.29    2.33
  14  15   3    6.17    1.23
 -14 -15   3    2.50    1.72
 -15  14   3    6.13    1.27
 -14 -15  -3    8.58    2.91
  14  15   4    3.60    1.00
 -14 -15   4    3.47    2.16
 -14 -15  -4    2.40    1.85
 -15  14   4    4.52    1.17
  14  15   5    0.51    0.72
 -15  14   5    0.67    0.74
  14  15   6    2.13    0.84
  14  15   6    2.67    0.93
  14  15   7   -0.33    0.85
  14  15   7    0.33    0.68
  14  15   8    1.20    0.82
  14  15   8    1.00    0.71
  14  15   9    2.24    0.93
  14  15   9    0.80    0.77
  14  15  10    0.55    0.73
  14  15  10    0.26    0.79
  14  15  11    1.62    0.93
  14  15  11    0.88    0.78
  14  15  12    1.00    0.86
  14  15  13    0.26    0.73
  14  15  14    3.20    0.92
 -13 -15   0   -0.69    1.56
  13  15   0   -0.75    0.82
 -13 -15   1   15.29    3.55
  13  15  -1   14.07    1.59
 -13 -15  -1   11.58    3.04
  13  15   1   14.67    1.73
 -15  13   1   11.52    1.57
  13  15  -2    3.36    1.06
  13  15   2    0.60    0.90
 -13 -15   2    1.44    2.20
 -13 -15  -2    3.55    2.50
 -15  13   2    3.28    1.03
  13  15   3    2.81    0.93
 -13 -15   3   -1.56    2.17
 -15  13   3    3.17    1.06
 -13 -15  -3    3.04    2.23
  13  15   4   49.70    2.98
 -13 -15  -4   45.54    6.11
 -15  13   4   46.80    2.87
 -13 -15   4   47.63    6.01
  13  15   5    4.98    1.09
 -13 -15   5    4.95    2.51
 -15  13   5    5.56    1.19
  13  15   5    3.87    0.98
  13  15   6   20.11    1.92
  13  15   6   17.82    1.86
 -13 -15  -6   15.35    3.68
 -13 -15   6   17.37    3.77
  13  15   7    2.40    0.90
  13  15   7    2.09    0.89
  13  15   8   10.96    1.51
  13  15   8   13.39    1.72
  13  15   9    0.51    0.74
  13  15   9    0.47    0.79
  13  15  10    0.26    0.70
  13  15  10    1.39    0.94
  13  15  11    6.93    1.32
  13  15  11    6.64    1.19
  13  15  12    7.02    1.33
  13  15  13    1.64    1.00
  13  15  14    0.44    0.73
  13  15  15   -0.82    0.70
 -12 -15   0    2.92    2.08
  12  15   0    0.76    0.80
  12  15  -1   40.62    2.50
 -12 -15   1   40.84    5.47
  12  15   1   38.53    2.48
 -12 -15  -1   40.64    5.44
  12  15  -2   10.29    1.37
  12  15   2    8.65    1.33
 -12 -15   2   10.47    2.80
 -15  12   2   10.48    1.50
 -12 -15  -2   11.15    3.02
  12  15   3    7.59    1.29
 -12 -15   3    6.80    2.60
 -15  12   3    7.17    1.22
 -12 -15  -3    9.03    2.61
 -12 -15   4   13.56    3.18
 -15  12   4    9.54    1.42
  12  15   4    7.59    1.39
 -12 -15  -4   12.15    3.39
  12  15   5   33.59    2.37
  12  15   5   30.77    2.35
 -12 -15  -5   30.23    4.98
 -12 -15   5   33.09    4.99
  12  15   6    2.11    0.89
  12  15   6    0.85    0.66
 -12 -15   6   -0.56    1.69
 -12 -15   7    1.58    1.54
  12  15   7    0.46    0.78
  12  15   7   -0.45    0.80
  12  15   8    2.21    0.95
  12  15   8    0.87    0.75
  12  15   9    2.02    0.89
  12  15   9    3.04    1.03
  12  15  10    2.70    1.00
  12  15  10    2.94    0.98
  12  15  11    0.55    0.87
  12  15  11   -0.80    0.83
  15 -12  12    1.38    0.95
  12  15  12    0.72    0.75
  15 -12  13    3.98    0.99
  12  15  13    6.38    1.29
  12  15  14    1.60    0.87
  12  15  15    1.10    0.70
 -11 -15   0   29.40    4.45
  11  15   1    4.17    1.09
 -11 -15   1    6.84    2.43
 -11 -15  -1    3.02    2.01
 -11 -15   2   23.40    4.07
  11  15   2   22.14    1.95
 -11 -15  -2   25.06    4.25
  11  15   3    7.73    1.25
 -11 -15   3   10.35    2.70
 -11 -15  -3   10.49    2.94
  11  15   4   78.89    3.61
 -11 -15  -4   73.59    7.28
 -11 -15   4   67.72    6.83
  11  15   5    1.68    0.98
 -11 -15   5    2.97    1.87
  11  15   5    3.28    0.97
 -11 -15  -5    5.51    2.38
  11  15   6    7.82    1.31
  11  15   6    8.36    1.35
 -11 -15   6    6.62    2.20
 -11 -15   7    3.10    1.85
  11  15   7    4.18    1.12
  11  15   7    3.13    0.95
  11  15   8    4.94    1.17
  11  15   8    3.30    1.06
  11  15   9    1.93    0.93
  11  15   9    0.43    0.70
  11  15  10    0.30    0.68
  11  15  10    0.96    0.85
  11  15  11   -0.25    0.80
  11  15  11    0.53    0.73
  15 -11  12    0.86    0.81
  11  15  12    4.44    1.26
  15 -11  13   -0.33    0.82
  11  15  13    0.51    0.81
  15 -11  14    0.73    0.70
  11  15  14    1.04    0.88
  15 -11  15    2.90    0.75
  11  15  15    1.58    0.78
 -10 -15   0   17.62    3.74
 -10 -15   1    0.47    1.28
 -10 -15  -1    1.76    1.66
 -10 -15  -2   82.33    7.34
 -10 -15   2   79.19    7.06
 -10 -15   3   20.12    3.78
  10  15   3   19.59    1.84
 -10 -15  -3   25.39    4.29
 -10 -15  -4   35.17    5.07
  10  15   4   28.98    2.21
 -10 -15   4   35.65    4.85
  10  15   5    7.24    1.28
 -10 -15   5    4.80    2.28
 -10 -15   6   47.33    5.79
  10  15   6   54.60    3.02
  10  15   6   56.74    3.13
  10  15   7    3.96    1.15
  10  15   7    2.16    0.82
  10  15   8   21.51    2.03
  10  15   8   19.58    1.96
  10  15   9    6.52    1.28
  10  15   9    5.03    1.22
  10  15  10   17.58    1.95
  10  15  10   18.55    1.91
  10  15  11    4.56    1.09
  10  15  11    6.61    1.34
  10  15  12    5.26    1.24
  15 -10  12    3.28    1.13
  15 -10  13   -0.04    0.86
  10  15  13    2.83    1.07
  15 -10  14    3.74    1.03
  10  15  14    3.73    1.11
  10  15  15    2.15    0.88
  15 -10  15    2.12    0.79
  -9 -15   0  205.82   11.10
  -9 -15   1    5.18    2.11
  -9 -15  -1    7.17    2.53
  -9 -15   2    5.57    2.35
  -9 -15  -2    8.26    2.87
  -9 -15   3   37.90    4.85
  -9 -15  -3   36.75    5.00
  -9 -15   4   20.52    3.74
   9  15   4   21.38    1.88
  -9 -15   5   14.45    3.24
   9  15   5   12.99    1.57
   9  15   6   18.73    1.87
   9  15   6   18.14    1.82
  -9 -15   6   13.30    3.23
   9  15   7    3.53    1.02
  -9 -15   7    1.70    1.46
   9  15   7    0.80    0.74
   9  15   8   18.17    1.91
   9  15   8   21.67    1.99
   9  15   9   -0.03    0.76
   9  15   9   -0.21    0.74
   9  15  10   14.44    1.71
   9  15  10   12.65    1.69
   9  15  11    4.28    1.15
   9  15  11    1.40    0.88
   9  15  12   34.57    2.60
  15  -9  13    1.03    0.86
   9  15  13    1.64    0.94
  15  -9  14   -0.02    0.78
   9  15  14    0.38    0.83
  15  -9  15    0.62    0.73
   9  15  15    0.63    0.73
  15  -9  16    4.11    0.84
   9  15  16    4.20    0.94
  -8 -15   0    7.78    2.71
  -8 -15   1   11.77    2.80
  -8 -15  -1   13.18    3.17
  -8 -15   2   11.02    2.80
  -8 -15  -2   11.25    3.03
  -8 -15   3   22.16    3.62
  -8 -15   4    1.53    1.33
   8  15   5    0.09    0.73
 -15   8   5    0.80    1.38
  -8 -15   5    0.10    1.10
   8  15   6    1.96    0.87
 -15   8   6    2.18    1.41
   8  15   6    0.51    0.70
  -8 -15   6    1.26    1.19
   8  15   7    3.07    0.99
   8  15   7    3.73    1.00
   8  15   8    8.08    1.50
   8  15   8    5.73    1.23
   8  15   9   14.02    1.77
   8  15   9   15.62    1.79
   8  15  10    0.82    0.88
   8  15  10    0.36    0.75
   8  15  11    3.91    1.18
   8  15  12    1.51    1.05
   8  15  13    0.42    0.83
  15  -8  13   -0.97    0.93
  15  -8  14   -1.09    0.97
   8  15  14    0.12    0.85
  15  -8  15    3.38    0.94
   8  15  15    4.45    1.11
  15  -8  16    1.16    0.73
   8  15  16    0.68    0.73
  -7 -15   0  240.23   11.28
  -7 -15  -1   -1.05    1.84
  -7 -15   1    1.13    1.45
  -7 -15  -2   20.86    3.69
  -7 -15   2   14.84    2.94
  -7 -15   3    4.21    1.95
 -15   7   4  174.51    9.04
  -7 -15   4  167.52    9.44
 -15   7   5    7.30    2.20
  -7 -15   5    2.93    1.24
  -7 -15   6   47.05    5.18
   7  15   6   52.57    2.92
 -15   7   6   54.25    5.67
   7  15   7    3.70    0.96
 -15   7   7    6.05    2.22
   7  15   7    7.59    1.32
   7  15   8  103.65    4.22
 -15   7   8   94.83    8.06
   7  15   8  103.37    4.20
   7  15   9   -0.01    0.80
   7  15   9    2.58    1.06
   7  15  10   -0.94    0.87
   7  15  10    1.87    0.90
   7  15  11    4.06    1.19
   7  15  12   20.29    2.08
   7  15  13   -0.12    0.88
  15  -7  13   -0.08    0.83
  15  -7  14    2.21    1.04
   7  15  14    2.62    0.98
  15  -7  15    5.07    1.17
   7  15  15    2.97    0.99
  15  -7  16    9.96    1.25
   7  15  16   10.85    1.31
  -6 -15   0   10.71    2.67
  -6 -15   1   44.35    4.90
  -6 -15  -1   43.74    4.83
  -6 -15   2    4.13    1.82
 -15   6   3   29.05    3.59
  -6 -15   3   30.29    4.03
 -15   6   4    4.18    1.95
  -6 -15   4    6.12    2.20
  -6 -15   5   51.23    5.15
 -15   6   5   49.51    5.28
 -15   6   6    2.25    1.49
  -6 -15   6    4.10    1.66
   6  15   7   12.83    1.53
   6  15   7   13.68    1.55
   6  15   8    7.50    1.29
   6  15   8    6.33    1.26
 -15   6   8    5.69    2.29
   6  15   9   13.04    1.67
   6  15   9   14.61    1.67
   6  15  10    1.88    0.85
   6  15  10    0.83    0.87
   6  15  11    9.26    1.52
   6  15  12    0.81    0.84
   6  15  13    8.99    1.52
  15  -6  13    8.44    1.46
   6  15  14    3.21    1.08
  15  -6  14    2.03    0.97
  15  -6  15    1.45    0.90
   6  15  15    1.12    0.77
  15  -6  16    0.40    0.74
   6  15  16    1.78    0.85
  -5 -15   0   17.74    3.21
  -5 -15   1   20.33    3.34
  -5 -15   2    3.72    1.53
 -15   5   2    4.10    1.40
  -5 -15   3    8.11    2.12
 -15   5   3    9.01    2.15
  -5 -15   4   11.40    2.39
 -15   5   4    9.91    2.26
 -15   5   5   11.90    2.74
  -5 -15   5   10.32    2.24
 -15   5   6   17.77    3.43
 -15   5   7    7.63    2.34
   5  15   7    8.13    1.28
   5  15   7    8.14    1.30
   5  15   8    7.46    1.32
 -15   5   8    6.30    2.41
   5  15   8    6.46    1.20
   5  15   9    3.93    1.05
 -15   5   9    4.56    2.05
   5  15   9    1.31    0.94
   5  15  10    1.03    0.88
   5  15  10    1.79    0.82
   5  15  11    2.32    1.03
   5  15  12    1.59    0.99
   5  15  13   -0.17    0.88
  15  -5  13   -1.48    1.00
   5  15  14   -0.32    0.85
  15  -5  14    0.57    0.84
  15  -5  15    1.31    0.87
   5  15  15    1.11    0.85
  15  -5  16    0.08    0.70
   5  15  16    0.16    0.77
  -4 -15   0   70.16    5.72
 -15   4   1    7.34    1.78
  -4 -15   1   13.34    2.75
  -4 -15   2   36.45    4.14
 -15   4   2   30.69    3.58
  -4 -15   3   55.68    5.05
 -15   4   3   53.65    4.90
 -15   4   4   21.30    3.27
  -4 -15   4   25.13    3.49
 -15   4   5    6.01    2.05
 -15   4   6   56.35    5.80
   4  15   7    1.80    0.85
 -15   4   7   -0.26    1.61
   4  15   7    0.89    0.76
   4  15   8    6.35    1.22
   4  15   8    7.68    1.29
   4  15   9   36.23    2.48
   4  15   9   36.66    2.63
 -15   4   9   40.06    5.45
 -15   4  10    5.34    2.31
   4  15  10    2.56    0.99
   4  15  11    1.47    0.95
   4  15  12    1.25    0.95
   4  15  13   -0.46    0.87
  15  -4  13   -0.09    0.99
   4  15  14    0.56    0.88
  15  -4  14    0.33    0.84
   4  15  15    1.86    0.98
  15  -4  15    2.36    1.03
  15  -4  16    0.16    0.75
   4  15  16    0.21    0.72
  15  -4  17   -0.18    0.67
   4  15  17    0.71    0.68
 -15   3   0    0.39    0.78
  -3 -15   0    2.04    1.46
 -15   3   1    7.73    1.97
  -3 -15   1    8.46    2.29
  -3 -15   2   17.80    2.87
 -15   3   2   18.01    2.82
  -3 -15   3   55.11    4.83
 -15   3   3   56.08    5.00
 -15   3   4    2.91    1.74
  -3 -15   4    1.73    1.05
 -15   3   5    1.68    1.66
 -15   3   6    6.15    2.43
 -15   3   7   26.76    4.26
 -15   3   8    6.85    2.62
   3  15   8    4.91    1.09
   3  15   8    7.66    1.25
   3  15   9   13.22    1.58
   3  15   9   13.78    1.70
 -15   3   9   14.44    3.53
 -15   3  10    5.36    2.48
   3  15  10    2.33    1.01
   3  15  11    3.59    1.13
   3  15  12   10.08    1.55
   3  15  13    0.75    0.95
   3  15  14   -0.14    0.87
  15  -3  14    0.63    0.88
   3  15  15   18.13    1.81
  15  -3  15   14.77    1.81
  15  -3  16   -0.72    0.83
   3  15  16    0.54    0.68
  15  -3  17    0.84    0.69
   3  15  17    1.49    0.68
 -15   2   0   63.73    4.79
  -2 -15   0   65.15    5.21
 -15   2   1    0.95    1.15
  -2 -15   1    0.70    0.95
 -15   2  -1    1.19    1.12
 -15   2   2  210.53    9.35
  -2 -15   2  222.48    9.17
 -15   2   3   23.56    3.42
  -2 -15   3   28.49    3.31
 -15   2   4    9.76    2.42
 -15   2   5    5.81    2.05
 -15   2   6   62.37    6.06
 -15   2   7    1.00    1.58
   2  15   8   14.26    1.54
   2  15   8   14.76    1.72
 -15   2   8   12.51    3.46
 -15   2   9    6.14    2.54
   2  15   9    3.20    0.99
   2  15   9    7.12    1.28
   2  15  10   57.76    3.31
 -15   2  10   54.17    6.52
   2  15  11   12.02    1.65
   2  15  12    5.99    1.29
   2  15  13    5.36    1.29
   2  15  14    6.87    1.32
  15  -2  14    6.70    1.44
   2  15  15    0.76    0.88
  15  -2  15    0.33    0.88
  15  -2  16   -0.99    0.88
   2  15  16    0.30    0.75
  15  -2  17   -0.20    0.66
   2  15  17    0.68    0.65
 -15   1   0   13.00    2.41
 -15   1   1    2.66    1.50
 -15   1  -1    1.72    0.93
  -1 -15   1    4.73    1.60
 -15   1  -2   37.03    3.48
 -15   1   2   36.27    4.11
  -1 -15   2   36.34    3.72
 -15   1   3   17.40    2.98
 -15   1   4  125.06    7.90
 -15   1   5   14.80    3.13
 -15   1   6   42.99    5.14
 -15   1   7   -0.47    1.51
   1  15   8   16.04    1.74
   1  15   8   20.54    1.90
 -15   1   8   17.44    3.73
   1  15   9    9.61    1.44
   1  15   9   11.56    1.47
 -15   1   9   11.52    3.16
 -15   1  10    2.40    1.80
   1  15  10    3.01    1.06
   1  15  11    2.99    1.04
   1  15  12    1.58    0.94
   1  15  13    0.25    0.81
  15  -1  13   -0.51    0.95
   1  15  14    2.82    1.11
  15  -1  14    3.34    1.20
   1  15  15    1.49    0.98
  15  -1  15    0.83    0.89
  15  -1  15    0.96    0.77
  15  -1  16    4.86    1.12
   1  15  16    6.04    1.16
  15  -1  17    1.30    0.80
   1  15  17    0.83    0.67
 -15   0   0   36.68    3.72
 -15   0  -1    4.06    1.56
   0 -15   1    6.86    1.67
 -15   0   1    5.19    1.87
 -15   0  -2  112.21    6.18
 -15   0   2  113.13    7.12
 -15   0   3   17.45    3.04
 -15   0   4    0.92    1.48
 -15   0   5   15.04    3.00
 -15   0   6  107.47    7.97
 -15   0   7   39.87    5.20
   0  15   8    3.15    0.97
 -15   0   8    2.66    1.81
   0  15   8    3.25    0.99
   0  15   9   17.80    1.88
   0  15   9   17.47    1.74
 -15   0   9   15.97    3.63
 -15   0  10    7.51    2.79
   0  15  10   13.94    1.68
   0  15  11    1.30    0.93
   0  15  12    6.07    1.30
   0  15  13   17.56    1.97
  15   0  13   15.87    1.94
   0  15  14   43.27    2.86
  15   0  14   35.49    2.79
   0  15  15    0.37    0.81
  15   0  15   -0.01    0.88
  15   0  15    0.97    0.70
  15   0  16    0.41    0.78
   0  15  16   -0.54    0.69
  15   0  17    0.24    0.72
   0  15  17   -0.02    0.62
 -15  -1   0    6.49    1.92
 -15  -1  -1    2.18    1.16
 -15  -1   1    3.78    1.50
   1 -15   1    2.68    1.20
 -15  -1   2   36.09    4.17
 -15  -1  -2   40.11    3.93
 -15  -1   3   16.40    3.05
 -15  -1  -3   18.99    2.73
 -15  -1   4  124.54    8.03
 -15  -1   5   17.42    3.29
 -15  -1   6   45.24    5.36
 -15  -1   7    0.42    1.70
  -1  15   8   17.64    1.84
 -15  -1   8   18.82    3.86
  -1  15   8   19.50    1.85
  -1  15   9    9.48    1.43
  -1  15   9   11.72    1.46
  -1  15  10    1.81    0.95
 -15  -1  10   -1.40    1.59
  -1  15  11    3.79    1.10
  -1  15  12   -0.17    0.80
  -1  15  13    0.70    0.84
  15   1  13    0.08    1.00
  15   1  14    1.62    1.04
  -1  15  14    2.76    1.01
  15   1  15    0.36    0.69
  -1  15  15    2.57    1.02
  15   1  15    1.29    0.94
  -1  15  16    4.59    1.09
  15   1  16    4.95    1.13
  15   1  16    1.70    0.67
  15   1  17   -0.02    0.62
  -1  15  17    1.44    0.69
 -15  -2   0   55.72    4.81
 -15  -2  -1    1.28    1.32
 -15  -2   1    0.61    1.20
 -15  -2   2  194.55    9.35
 -15  -2  -2  210.54    9.07
 -15  -2   3   26.45    3.80
 -15  -2  -3   26.52    3.38
 -15  -2  -4    6.13    1.72
 -15  -2   4    8.59    2.45
 -15  -2   5    7.37    2.35
 -15  -2   6   66.22    6.48
 -15  -2   7    1.64    1.37
 -15  -2   8   12.10    3.24
  -2  15   8   12.67    1.61
  -2  15   8   16.38    1.71
  -2  15   9    5.53    1.22
 -15  -2   9    4.92    2.14
  -2  15   9    6.21    1.28
  -2  15  10   58.12    3.30
 -15  -2  10   62.22    7.08
  -2  15  11    9.66    1.54
  -2  15  12    5.65    1.33
  -2  15  13    6.41    1.38
  15   2  13    5.27    1.32
  -2  15  14    8.92    1.46
  15   2  14    7.19    1.47
  -2  15  15    0.51    0.88
  15   2  15   -0.05    0.86
  15   2  15    0.08    0.71
  -2  15  16   -0.29    0.74
  15   2  16    0.56    0.83
  15   2  16   -0.59    0.68
  15   2  17    0.31    0.70
  -2  15  17   -0.11    0.58
 -15  -3   0   -0.28    1.18
 -15  -3  -1    8.96    2.21
 -15  -3   1    6.87    2.01
 -15  -3  -2   14.65    2.72
 -15  -3   2   15.33    2.97
 -15  -3   3   52.89    5.23
 -15  -3  -3   59.54    5.12
 -15  -3   4    1.74    1.85
 -15  -3  -4   -0.10    1.29
 -15  -3  -5    4.83    1.72
 -15  -3   5    2.13    1.61
 -15  -3   6   12.93    3.17
  -3  15   7   23.80    2.01
 -15  -3   7   18.53    3.82
  -3  15   8    6.18    1.29
 -15  -3   8    4.23    1.82
  -3  15   8    6.54    1.22
  -3  15   9   12.01    1.65
 -15  -3   9   10.71    3.07
  -3  15  10    3.02    1.12
 -15  -3  10    4.35    2.20
  -3  15  11    3.44    1.12
  -3  15  12   10.20    1.59
  -3  15  13    3.85    1.16
  15   3  13    0.20    0.90
  -3  15  14    1.51    1.02
  15   3  14    0.19    0.86
  -3  15  15   18.06    1.85
  15   3  15   16.62    1.69
  15   3  15   17.52    1.89
  -3  15  16   -0.57    0.73
  15   3  16    0.53    0.78
  15   3  16    0.22    0.65
  15   3  17    0.05    0.63
  15   3  17    0.36    0.51
 -15  -4   0   63.60    5.47
 -15  -4  -1   10.27    2.51
 -15  -4   1   11.39    2.44
 -15  -4   2   27.33    3.68
 -15  -4  -2   32.32    3.97
 -15  -4   3   49.59    5.18
 -15  -4  -3   51.27    4.84
 -15  -4  -4   21.78    3.22
 -15  -4   4   24.05    3.79
 -15  -4   5    1.77    1.76
 -15  -4  -5    0.52    1.40
 -15  -4   6   60.24    6.29
  -4  15   7    2.20    0.97
 -15  -4   7    0.78    1.91
  -4  15   8    6.15    1.30
 -15  -4   8    6.47    2.57
  -4  15   8    6.70    1.19
 -15  -4   9   35.03    5.24
  -4  15   9   36.23    2.59
  -4  15  10    2.02    0.99
 -15  -4  10    2.16    1.78
  -4  15  11   -0.20    0.85
  -4  15  12    2.72    1.09
  -4  15  13    0.57    0.88
  15   4  13   -0.36    0.87
  -4  15  14    0.76    0.85
  15   4  14    0.16    0.77
  15   4  14    0.39    0.80
  -4  15  15    1.92    0.95
  15   4  15    3.41    1.07
  15   4  15    2.41    0.93
  -4  15  16    0.44    0.73
  15   4  16    1.49    0.84
  15   4  16   -0.19    0.68
  15   4  17    0.18    0.72
  15   4  17    1.17    0.60
 -15  -5   0   13.21    2.84
 -15  -5  -1   18.70    3.18
 -15  -5   1   15.87    3.12
 -15  -5  -2    2.38    1.68
 -15  -5   2    3.39    1.85
 -15  -5  -3    6.20    2.05
 -15  -5   3    8.90    2.50
 -15  -5  -4   16.32    3.01
 -15  -5   4    9.44    2.36
 -15  -5   5    7.76    2.58
 -15  -5  -5   10.34    2.56
 -15  -5   6   19.58    3.72
 -15  -5  -6   20.37    3.39
  -5  15   7    5.11    1.09
 -15  -5   7    3.06    1.91
  -5  15   7    5.66    1.10
  -5  15   8    6.50    1.30
 -15  -5   8    8.88    2.93
  -5  15   8    7.37    1.31
  -5  15   9    2.42    1.00
 -15  -5   9    1.83    1.53
  -5  15  10    1.43    0.99
  -5  15  11    0.45    0.76
  -5  15  12    1.55    1.02
  15   5  12    1.43    0.94
  -5  15  13   -0.50    0.85
  15   5  13   -0.73    0.96
  -5  15  14    1.00    0.83
  15   5  14   -0.33    0.91
  15   5  14    0.82    0.82
  -5  15  15    3.40    1.06
  15   5  15    1.85    0.89
  15   5  15    1.43    0.76
  -5  15  16    0.42    0.67
  15   5  16   -0.90    0.78
  15   5  16    1.00    0.69
 -15  -6   0    8.22    2.29
 -15  -6   1   41.41    4.80
 -15  -6  -1   35.12    4.32
 -15  -6  -2    4.83    2.21
 -15  -6   2    1.45    1.40
 -15  -6   3   34.34    4.53
 -15  -6  -3   33.28    4.29
 -15  -6   4    2.29    1.82
 -15  -6  -4    2.03    1.65
 -15  -6   5   52.95    5.95
 -15  -6  -5   60.52    5.71
 -15  -6   6    0.43    1.69
 -15  -6  -6    0.72    1.29
  -6  15   7   11.53    1.57
 -15  -6   7    9.76    3.03
  -6  15   7   12.24    1.52
 -15  -6  -7   13.38    2.98
  -6  15   8    6.24    1.32
  -6  15   8    5.88    1.26
 -15  -6   8    7.47    2.87
  -6  15   9   11.67    1.60
 -15  -6   9    8.32    2.74
  -6  15  10    1.83    1.10
  -6  15  11    9.53    1.52
  -6  15  12    1.47    1.07
  15   6  12    1.12    0.83
  -6  15  13    6.67    1.38
  15   6  13   10.42    1.61
  -6  15  14    3.34    1.05
  15   6  14    3.23    1.02
  15   6  14    2.30    0.93
  15   6  15   -0.68    0.84
  -6  15  15    0.92    0.83
  15   6  15    1.53    0.90
  15   6  16    2.07    0.83
  15   6  16    0.26    0.63
 -15  -7   0  243.49   11.40
 -15  -7  -1    0.98    1.73
 -15  -7   1    0.11    1.38
 -15  -7  -2   14.53    2.90
 -15  -7   2   16.96    3.26
 -15  -7   3    4.65    1.80
 -15  -7  -3    7.01    2.47
 -15  -7   4  156.77    9.68
 -15  -7  -4  169.07    9.63
 -15  -7  -5    3.96    1.94
 -15  -7   5    1.66    1.61
  -7  15   6   49.22    2.95
 -15  -7   6   51.98    6.03
  -7  15   6   52.56    2.88
 -15  -7  -6   53.02    5.58
  -7  15   7    5.02    1.14
 -15  -7   7    5.62    2.78
  -7  15   7    6.65    1.25
 -15  -7  -7    5.15    2.20
  -7  15   8   94.57    4.11
  -7  15   8  104.39    4.10
 -15  -7   8   93.34    8.42
  -7  15   9    0.24    0.79
 -15  -7   9    4.81    2.33
  -7  15  10    1.16    0.98
  -7  15  11    4.14    1.26
  -7  15  12   18.70    2.06
  15   7  12   21.55    2.13
  -7  15  13    1.33    1.04
  15   7  13    0.80    0.90
  15   7  13   -0.98    0.93
  -7  15  14    1.85    0.94
  15   7  14    2.34    1.06
  15   7  14    0.70    0.80
  15   7  15    3.31    0.97
  15   7  15    4.25    1.08
  15   7  16    9.82    1.25
  15   7  16   10.38    1.25
 -15  -8   0    8.54    2.85
 -15  -8  -1   10.51    3.02
 -15  -8   1   13.63    3.07
 -15  -8  -2   12.82    2.95
 -15  -8   2   10.76    2.75
 -15  -8   3   20.69    3.74
 -15  -8  -3   25.95    4.02
 -15  -8   4    1.28    2.07
 -15  -8  -4    2.47    1.72
  -8  15   5    1.01    0.77
 -15  -8   5    1.30    2.22
 -15  -8  -5    0.73    1.62
 -15  -8   6    1.02    1.48
  -8  15   6    0.44    0.80
  -8  15   6    1.99    0.95
 -15  -8  -6    0.91    1.54
  -8  15   7    3.72    1.05
 -15  -8   7   -0.74    1.65
  -8  15   7    3.22    1.07
 -15  -8  -7    2.35    1.78
  -8  15   8    5.46    1.24
 -15  -8   8    8.26    2.77
  -8  15   8    4.32    1.16
 -15  -8  -8    9.47    2.79
  -8  15   9    8.70    1.48
 -15  -8   9   14.24    3.55
  15   8  10    1.50    0.82
  -8  15  10    1.52    1.03
  -8  15  11    3.31    1.07
  15   8  11    2.28    1.00
  -8  15  12    0.18    0.81
  15   8  12   -0.16    0.72
  -8  15  13   -0.74    0.91
  15   8  13    0.00    0.74
  15   8  13    1.24    0.92
  15   8  14   -0.58    0.81
  15   8  14   -1.76    1.08
  15   8  15    2.17    0.85
  15   8  15    2.14    0.90
  15   8  16   -0.70    0.68
  15   8  16    0.57    0.70
 -15  -9   0  209.72   11.12
 -15  -9  -1    5.79    2.32
 -15  -9   1    6.31    2.37
 -15  -9  -2    4.15    1.98
 -15  -9   2    8.95    2.47
 -15  -9   3   31.82    4.64
 -15  -9  -3   35.88    4.74
 -15  -9   4   17.44    3.72
 -15  -9  -4   16.21    3.32
  -9  15   5   14.38    1.66
  -9  15   5   12.00    1.61
 -15  -9   5   13.61    3.29
 -15  -9  -5   15.44    3.30
 -15  -9   6   17.95    3.65
  -9  15   6   18.24    1.92
  -9  15   6   15.32    1.68
 -15  -9  -6   17.41    3.54
 -15  -9   7    0.33    1.58
  -9  15   7    1.53    0.92
  -9  15   7    2.28    0.94
 -15  -9  -7    0.40    1.44
  -9  15   8   16.57    1.94
  -9  15   8   21.16    1.95
 -15  -9  -8   18.84    3.79
  -9  15   9    0.28    0.92
  15   9  10   15.71    1.77
  -9  15  10   12.79    1.71
  -9  15  11    1.53    0.99
  15   9  11    2.81    1.06
  -9  15  12   33.88    2.62
  15   9  12   34.48    2.63
  15   9  12   32.82    2.45
  15   9  13    2.29    0.96
  15   9  13    0.68    0.82
  15   9  14   -0.55    0.72
  15   9  14   -1.03    0.95
  15   9  15   -0.35    0.73
  15   9  15    0.72    0.71
  15   9  16    1.80    0.64
  15   9  16    4.51    0.94
 -15 -10   0   15.36    3.43
 -15 -10  -1    0.70    1.56
 -15 -10   1    1.42    1.90
 -15 -10  -2   72.16    6.78
 -15 -10   2   75.84    7.02
 -15 -10   3   23.03    4.00
 -10  15   3   20.26    1.89
 -15 -10  -3   24.36    4.08
 -15 -10   4   34.13    4.81
 -10  15   4   29.85    2.30
 -15 -10  -4   33.40    4.79
 -10  15   5    6.71    1.24
 -15 -10   5    7.53    2.60
 -15 -10  -5    9.39    2.77
 -15 -10   6   56.09    6.59
 -15 -10  -6   51.97    6.12
 -10  15   6   55.77    3.06
 -10  15   7    3.11    1.08
 -15 -10   7    6.30    2.57
 -15 -10  -7    4.04    2.57
 -15 -10   8   18.15    3.85
 -10  15   8   17.79    1.97
 -15 -10  -8   22.84    4.11
 -10  15   8   22.33    2.05
  15  10   9    5.64    1.20
 -10  15   9    5.56    1.29
  15  10  10   15.52    1.73
  15  10  12    3.09    0.94
  15  10  12    5.81    1.23
  15  10  13    1.40    0.84
  15  10  13    1.72    0.97
  15  10  14    4.39    0.96
  15  10  14    3.33    1.03
  15  10  15    3.01    0.95
 -15 -11   0   29.21    4.54
 -11  15   0   26.77    2.14
 -15 -11  -1    4.61    2.01
 -15 -11   1    5.67    2.38
 -11  15  -1    5.71    1.20
 -11  15   1    5.89    1.22
 -15 -11  -2   23.56    4.20
 -15 -11   2   20.40    4.03
 -11  15   2   22.21    2.00
 -11  15  -2   24.34    2.09
 -15 -11   3    5.69    2.24
 -11  15   3    9.74    1.41
 -11  15  -3    8.30    1.37
 -15 -11  -3    7.73    2.78
 -15 -11  -4   72.99    7.12
 -15 -11   4   72.25    7.22
 -11  15  -4   75.11    3.42
 -11  15   4   74.69    3.53
 -11  15   5    0.60    0.68
 -15 -11   5    0.07    1.97
 -11  15   6    6.86    1.22
 -15 -11  -6    9.84    3.07
 -15 -11   6   12.68    3.69
 -15 -11   7    1.07    1.82
 -11  15   7    3.68    1.04
 -15 -11  -7    3.46    2.14
 -11  15   8    5.61    1.15
  15  11   8    4.46    1.14
  15  11   9    0.71    0.75
  15  11  10    1.18    0.79
  15  11  11    0.22    0.77
  15  11  11   -0.32    0.87
  15  11  12    1.53    0.94
  15  11  13   -0.29    0.83
  15  11  14   -0.11    0.74
  15  11  15    2.60    0.87
 -15 -12   0   -2.35    2.21
 -12  15   0    0.57    0.75
 -15 -12   1   31.33    4.80
 -12  15   1   34.89    2.52
 -12  15  -1   40.09    2.58
 -15 -12  -1   34.68    4.92
 -12  15   2   11.29    1.53
 -15 -12  -2   12.41    3.14
 -15 -12   2   10.74    3.05
 -12  15  -2   10.65    1.50
 -15 -12   3    8.49    2.88
 -12  15  -3    6.78    1.20
 -12  15   3    7.82    1.34
 -15 -12  -3   13.48    3.52
 -15 -12   4   11.78    3.09
 -12  15   4    8.18    1.36
 -15 -12  -4   11.72    3.34
 -12  15   5   29.93    2.38
 -15 -12   5   26.47    4.39
 -15 -12  -5   27.66    4.66
 -12  15   6   -0.29    0.78
 -15 -12   6    0.67    1.25
  15  12   7    0.47    0.73
 -12  15   7   -0.30    0.76
  15  12   8    0.39    0.67
 -12  15   8    0.76    0.73
  15  12   9    2.64    1.00
  15  12  10    3.06    0.97
  15  12  10    2.09    0.89
  15  12  11   -1.59    0.80
  15  12  11   -0.82    0.94
  15  12  12    0.99    0.89
  15  12  13    6.45    1.32
  15  12  14    1.06    0.85
  15  12  15    0.35    0.64
 -15 -13   0    0.58    2.00
 -13  15   0   -0.89    0.80
 -15 -13  -1   13.40    3.32
 -13  15   1   14.10    1.67
 -15 -13   1   12.61    3.37
 -13  15  -1   12.44    1.57
 -15 -13  -2    5.69    2.55
 -15 -13   2    5.29    2.44
 -13  15  -2    2.09    0.86
 -13  15   2    2.11    0.89
 -15 -13  -3    2.93    2.20
 -15 -13   3   -0.60    1.45
 -13  15   3    3.20    1.07
 -15 -13   4   41.72    5.62
 -13  15   4   46.26    2.88
 -15 -13  -4   44.94    5.93
  15  13   5    5.99    1.26
 -15 -13   5    7.11    2.39
 -13  15   5    5.21    1.25
 -15 -13  -5    2.36    1.59
 -13  15   6   20.51    1.98
  15  13   6   17.13    1.87
  15  13   7    3.53    1.10
 -13  15   7    4.11    1.09
  15  13   8   11.06    1.56
 -13  15   8   11.52    1.54
  15  13   9    0.54    0.68
  15  13   9    0.57    0.74
  15  13  10    0.91    0.86
  15  13  10   -0.51    0.81
  15  13  11    6.01    1.13
  15  13  11    5.17    1.25
  15  13  12    6.52    1.32
  15  13  13    2.32    0.92
  15  13  14    0.64    0.74
  15  13  15    0.44    0.66
 -14  15   0   35.42    2.55
  15  14   0   31.38    2.37
 -15 -14  -1    2.06    1.72
  15  14  -1   -0.14    0.75
  15  14   1   -0.24    0.80
 -15 -14   1   -1.89    1.77
 -14  15   1    0.09    0.80
 -14  15  -1    0.66    0.84
 -15 -14  -2    0.10    1.80
  15  14  -2    2.01    0.90
  15  14   2    4.04    1.11
 -15 -14   2   -2.20    1.93
 -14  15   2    4.23    1.20
 -15 -14  -3   10.42    3.16
  15  14   3    6.22    1.29
 -15 -14   3    5.28    2.29
 -14  15   3    5.49    1.21
  15  14   4    2.52    0.98
 -14  15   4    3.90    1.09
 -15 -14  -4    5.90    2.23
  15  14   5    1.28    0.88
 -14  15   5    1.67    0.92
 -15 -14   5    0.18    1.29
  15  14   6    0.64    0.85
 -14  15   6    1.48    0.99
  15  14   7    1.12    0.74
 -14  15   7   -0.46    0.73
  15  14   8    1.67    0.84
  15  14   8    0.25    0.71
  15  14   9    2.05    0.88
  15  14   9    2.30    0.92
  15  14  10   -0.57    0.83
  15  14  10    1.02    0.78
  15  14  11    0.91    0.74
  15  14  11    1.85    0.83
  15  14  12   -1.21    0.91
  15  14  13    0.81    0.81
  15  14  14    3.79    0.93
  15  15   0    9.66    1.36
 -15  15   0    7.41    1.29
 -15 -15   0    6.90    2.80
  15  15  -1    8.27    1.30
  15  15   1    7.64    1.33
 -15 -15  -1    7.35    2.76
 -15 -15   1   10.79    3.25
 -15  15   1    5.79    1.28
 -15 -15  -2   10.72    3.13
  15  15  -2    7.82    1.33
  15  15   2    8.33    1.42
 -15 -15   2    9.08    2.95
 -15  15   2    8.30    1.41
  15  15   3    1.29    0.81
 -15 -15   3    0.24    1.01
 -15  15   3    0.98    0.91
 -15 -15  -3    3.19    2.30
  15  15   4    6.69    1.35
 -15  15   4   10.76    1.52
  15  15   5    0.96    0.84
 -15  15   5    0.51    0.75
  15  15   6    9.31    1.48
  15  15   6   10.54    1.48
  15  15   7   16.20    1.80
  15  15   7   14.27    1.74
  15  15   8   -0.79    0.74
  15  15   8   -0.72    0.78
  15  15   9    0.41    0.77
  15  15   9    0.94    0.79
  15  15  10    0.61    0.77
  15  15  10    0.50    0.78
  15  15  11    4.30    1.12
  15  15  11    3.76    0.94
  15  15  12    0.54    0.76
  15  15  13    0.94    0.76
  15  15  14   -0.06    0.63
  15  16   0   -0.51    0.80
  15  16  -1    0.50    0.74
  15  16   1    1.10    0.74
  15  16  -2   50.44    2.95
  15  16   2   47.40    2.98
  15  16   3    8.05    1.36
  15  16   4    7.66    1.39
  15  16   5    2.07    0.91
  15  16   6   48.78    2.89
  15  16   6   46.47    2.96
  15  16   7    0.27    0.69
  15  16   7    0.72    0.71
  15  16   8    8.97    1.38
  15  16   8   10.82    1.51
  15  16   9    1.39    0.81
  15  16   9    0.53    0.76
  15  16  10   31.56    2.34
  15  16  10   34.21    2.39
  15  16  11    1.36    0.82
  15  16  11    1.66    0.82
  15  16  12    0.88    0.81
  15  16  13    0.15    0.69
  14  16   0    1.74    0.85
 -14 -16   0   -0.87    1.67
  14  16  -1    1.26    0.80
  14  16   1    1.70    0.81
 -14 -16   1    2.38    1.57
 -14 -16  -2    9.42    3.01
  14  16   2    8.58    1.43
 -14 -16   2   13.42    3.39
  14  16  -2    7.98    1.30
  14  16   3    9.71    1.50
 -14 -16   3    7.10    2.72
 -14 -16  -3   12.73    3.56
  14  16   4   10.92    1.55
  14  16   5    2.10    0.95
  14  16   6    3.79    0.96
  14  16   6    5.00    1.13
  14  16   7    2.00    0.91
  14  16   7    1.67    0.79
  14  16   8    0.82    0.83
  14  16   8    0.65    0.71
  14  16   9   -0.26    0.81
  14  16   9   -0.29    0.75
  14  16  10    0.38    0.74
  14  16  10    0.39    0.71
  14  16  11   -0.78    0.90
  14  16  11    0.35    0.73
  14  16  12    0.24    0.76
  14  16  13   -0.71    0.74
  14  16  14   -0.52    0.69
  13  16   0    6.47    1.17
 -13 -16   0    6.09    2.60
 -13 -16   1   28.20    4.60
 -13 -16  -1   27.25    4.59
  13  16  -1   25.20    2.08
  13  16   1   25.44    2.15
  13  16  -2   76.10    3.49
 -13 -16  -2   71.17    7.45
  13  16   2   67.69    3.44
 -13 -16   2   80.70    7.73
  13  16   3    1.29    0.81
 -13 -16   3    1.92    1.71
 -13 -16  -3    0.77    1.82
 -13 -16   4   14.31    3.47
  13  16   4   12.71    1.60
 -13 -16  -4   12.90    3.38
  13  16   5    2.48    0.95
 -13 -16   5    2.50    2.01
  13  16   6    6.19    1.21
  13  16   6    7.09    1.20
  13  16   7   15.38    1.73
  13  16   7   13.41    1.68
  13  16   8    2.02    0.92
  13  16   8    0.03    0.73
  13  16   9    1.14    0.83
  13  16   9    2.87    1.02
  13  16  10   38.30    2.80
  13  16  10   19.72    1.89
  13  16  11    2.55    0.90
  13  16  11    4.21    1.11
  13  16  12    6.99    1.30
  13  16  13    2.69    0.98
  13  16  14    4.59    1.00
  12  16   0   39.61    2.56
 -12 -16   0   39.40    5.42
  12  16  -1    7.57    1.31
  12  16   1    7.03    1.23
 -12 -16   1   10.48    2.85
 -12 -16  -1    5.18    2.38
  12  16  -2    5.89    1.25
  12  16   2    4.95    1.19
 -12 -16   2    5.52    2.43
 -12 -16  -2    1.80    2.20
 -12 -16  -3    2.06    2.03
  12  16   3    3.39    1.01
 -12 -16   3    7.01    2.69
 -12 -16   4  145.84   10.24
 -12 -16  -4  164.41   11.06
  12  16   4  150.51    5.07
  12  16   5    2.61    0.95
 -12 -16   5    5.74    2.18
 -12 -16  -5    2.04    1.63
  12  16   6    8.40    1.44
  12  16   6    9.62    1.47
 -12 -16   6   11.62    3.20
  12  16   7    2.80    1.04
  12  16   7    1.80    0.81
  12  16   8   43.14    2.82
  12  16   8   45.41    2.87
  12  16   9    4.87    1.11
  12  16   9    3.33    1.02
  12  16  10    6.62    1.27
  12  16  10    6.64    1.24
  12  16  11    3.37    1.06
  12  16  11    4.61    0.99
  12  16  12   22.84    2.05
  16 -12  12   25.11    2.01
  16 -12  13    1.45    0.75
  12  16  13    0.75    0.83
  12  16  14    1.55    0.78
  11  16   0   16.53    1.72
 -11 -16   0   15.18    3.49
  11  16  -1    4.00    1.00
  11  16   1    3.98    1.07
 -11 -16   1    3.91    1.95
 -11 -16  -1    5.03    2.64
 -11 -16  -2   47.09    5.91
  11  16  -2   51.18    2.82
 -11 -16   2   51.67    5.98
  11  16   2   53.49    3.00
  11  16   3   -0.90    0.78
 -11 -16   3    0.23    1.33
 -11 -16  -3   -0.76    1.70
  11  16   4    8.82    1.39
 -11 -16   4    5.14    2.29
 -11 -16  -4    8.29    2.88
 -11 -16   5   26.30    4.50
 -11 -16  -5   24.78    4.56
  11  16   5   25.84    2.19
  11  16   6   29.84    2.30
  11  16   6   29.01    2.34
 -11 -16  -6   21.76    4.34
 -11 -16   6   29.41    4.48
  11  16   7    4.12    1.12
  11  16   7    3.19    1.04
  11  16   8    0.22    0.74
  11  16   8    1.29    0.82
  11  16   9    5.97    1.23
  11  16   9    4.38    1.09
  11  16  10   10.18    1.50
  11  16  10   13.71    1.66
  11  16  11    1.72    0.97
  11  16  11    1.18    0.77
  11  16  12    1.16    0.93
  16 -11  12    0.74    0.81
  16 -11  13    5.09    1.06
  11  16  13    7.13    1.33
  16 -11  14    4.86    0.93
  11  16  14    3.34    0.97
  16 -11  15    1.36    0.66
  11  16  15   -0.49    0.68
 -10 -16   0  117.53    8.64
  10  16   0  118.63    4.23
 -10 -16   1   15.53    3.37
  10  16   1   16.49    1.74
 -10 -16  -1   13.61    3.27
  10  16   2    1.74    0.82
 -10 -16   2    1.34    1.77
 -10 -16  -2   -0.47    1.43
  10  16   3    5.85    1.18
 -10 -16   3    8.22    2.68
 -10 -16  -3    6.10    2.71
  10  16   4    3.46    0.93
 -10 -16   4    2.75    1.76
 -10 -16  -4    3.55    2.04
  10  16   5   18.92    1.78
 -10 -16   5   15.33    3.41
  10  16   5   18.48    1.87
 -10 -16  -5   18.80    4.01
  10  16   6    1.35    0.83
  10  16   6    2.06    1.02
 -10 -16   6    4.08    1.94
  10  16   7    2.45    1.01
  10  16   7    1.70    0.79
  10  16   8    5.13    1.12
  10  16   8    5.56    1.23
  10  16   9    1.75    0.79
  10  16   9    1.17    0.83
  10  16  10    9.30    1.45
  10  16  10    7.70    1.37
  10  16  11   11.77    1.49
  10  16  11    9.81    1.50
  10  16  12   12.40    1.67
  16 -10  12   12.50    1.67
  16 -10  13   -0.92    0.92
  10  16  13   -0.70    0.91
  16 -10  14    0.15    0.74
  10  16  14    0.53    0.74
  16 -10  15    4.13    0.87
  10  16  15    2.50    0.83
  -9 -16   0    5.05    2.56
  -9 -16   1   14.65    3.03
  -9 -16  -1   13.31    3.10
   9  16   2   55.06    2.95
  -9 -16   2   57.28    6.18
  -9 -16  -2   54.35    6.08
  -9 -16   3   20.04    3.67
  -9 -16  -3   14.93    3.38
   9  16   3   16.29    1.70
   9  16   4   11.98    1.48
  -9 -16   4   10.93    2.57
  -9 -16  -4   11.22    3.19
   9  16   5   14.05    1.60
  -9 -16   5   10.15    2.71
  -9 -16   6   74.85    6.95
   9  16   6   82.46    3.67
   9  16   6   77.23    3.62
   9  16   7    9.21    1.46
   9  16   7    9.58    1.41
   9  16   8    8.63    1.33
   9  16   8    8.25    1.38
   9  16   9    8.02    1.37
   9  16   9    9.10    1.40
   9  16  10    8.12    1.41
   9  16  10    7.69    1.29
   9  16  11    0.44    0.85
   9  16  11   -0.04    0.68
   9  16  12    2.71    1.08
   9  16  13    2.52    0.98
  16  -9  13    2.05    0.96
  16  -9  14    2.71    0.96
   9  16  14    1.43    0.96
  16  -9  15    1.29    0.71
   9  16  15   -0.11    0.69
  -8 -16   0    3.14    1.88
  -8 -16   1    2.75    1.60
  -8 -16  -1    4.37    2.02
  -8 -16   2    4.43    1.67
  -8 -16  -2    9.12    2.73
  -8 -16  -3    9.22    3.02
  -8 -16   3    9.97    2.65
   8  16   4    8.50    1.34
  -8 -16   4   15.16    3.32
   8  16   5    1.90    0.85
  -8 -16   5    0.78    1.21
   8  16   6    5.40    1.10
 -16   8   6    2.97    1.30
   8  16   6    3.73    1.00
  -8 -16   6    2.16    1.59
   8  16   7   15.18    1.71
   8  16   7   16.40    1.83
   8  16   8    4.28    0.98
   8  16   8    6.52    1.25
   8  16   9   10.84    1.62
   8  16   9   11.67    1.66
   8  16  10   12.54    1.64
   8  16  10   10.71    1.57
   8  16  11    2.28    1.01
   8  16  11    1.02    0.81
   8  16  12    1.12    0.90
   8  16  13    0.49    0.89
  16  -8  13    1.07    0.90
  16  -8  14    0.46    0.74
   8  16  14    0.08    0.79
  16  -8  15    3.23    0.91
   8  16  15    3.73    0.97
  16  -8  16    1.94    0.70
   8  16  16    2.05    0.80
  -7 -16   0    4.53    2.20
  -7 -16  -1   35.96    4.78
  -7 -16   1   32.67    4.50
  -7 -16   2    1.19    1.64
  -7 -16  -2    4.24    2.01
  -7 -16   3   33.25    4.50
   7  16   4   -0.06    0.75
  -7 -16   4    1.28    1.56
   7  16   5    3.22    0.93
 -16   7   5    1.78    1.06
   7  16   6    0.67    0.70
 -16   7   6    0.87    1.27
   7  16   6    0.90    0.73
   7  16   7   32.09    2.40
   7  16   7   33.58    2.41
 -16   7   7   25.21    4.21
 -16   7   8    0.74    2.15
   7  16   8    1.63    0.96
   7  16   8    2.28    1.08
   7  16   9   28.61    2.27
   7  16   9   30.85    2.44
   7  16  10    2.00    1.02
   7  16  10    0.24    0.71
   7  16  11    2.65    1.10
   7  16  11    2.05    0.77
   7  16  12    1.02    0.92
   7  16  13   11.67    1.61
  16  -7  13   10.01    1.55
   7  16  14    1.43    0.94
  16  -7  14    1.51    0.95
  16  -7  15    2.59    0.96
   7  16  15    1.02    0.81
  16  -7  16    2.18    0.72
   7  16  16    1.76    0.80
  -6 -16   0  304.54   12.77
  -6 -16  -1    2.43    1.77
  -6 -16   1    2.14    1.20
  -6 -16   2   21.17    3.69
  -6 -16   3    3.01    1.58
 -16   6   4  216.00   10.42
  -6 -16   4  201.38   10.29
 -16   6   5    2.45    1.35
  -6 -16   5    5.58    2.16
   6  16   5    3.36    0.96
   6  16   6   48.01    2.77
   6  16   6   43.31    2.70
   6  16   7    2.44    0.99
 -16   6   7   -0.63    2.01
   6  16   7    2.17    1.00
 -16   6   8  166.10   10.72
   6  16   8  150.87    5.10
   6  16   8  154.80    5.13
 -16   6   9    5.14    2.84
   6  16   9    5.16    1.17
   6  16   9    5.90    1.25
   6  16  10    0.20    0.88
   6  16  10   -1.20    0.95
   6  16  11    3.14    1.14
   6  16  12   24.94    2.28
   6  16  13    1.44    0.90
  16  -6  13    0.19    0.87
   6  16  14    4.62    1.21
  16  -6  14    3.09    1.14
  16  -6  15    0.20    0.76
   6  16  15   -0.04    0.78
   6  16  16   17.40    1.58
  16  -6  16   17.43    1.57
  -5 -16   0   14.66    3.18
  -5 -16   1   33.13    4.30
  -5 -16  -1   30.27    4.19
  -5 -16   2   17.04    3.03
  -5 -16   3   23.73    3.57
 -16   5   3   19.52    3.02
  -5 -16   4    3.57    1.59
 -16   5   4   -2.50    1.58
 -16   5   5    9.75    2.58
   5  16   6    6.04    1.18
 -16   5   6    9.33    2.75
   5  16   6    5.62    1.15
   5  16   7   13.08    1.53
 -16   5   7   10.07    2.81
   5  16   7   15.36    1.68
   5  16   8    0.76    0.83
   5  16   8    3.52    1.14
   5  16   9    7.86    1.43
 -16   5   9    9.49    2.90
   5  16   9    9.17    1.43
   5  16  10    1.02    0.88
   5  16  10    0.80    0.71
   5  16  11    9.75    1.52
   5  16  12    1.71    1.02
   5  16  13    3.21    1.07
  16  -5  13    0.75    0.99
   5  16  14    5.64    1.28
  16  -5  14    4.23    1.19
  16  -5  15    2.08    0.95
   5  16  15    1.09    0.81
  16  -5  16    1.13    0.79
   5  16  16    1.59    0.84
  -4 -16   0  171.33    9.21
  -4 -16   1   12.16    2.76
  -4 -16   2   28.96    3.71
 -16   4   2   27.79    3.60
  -4 -16   3   10.77    2.31
 -16   4   3    7.04    1.99
 -16   4   4   11.97    2.67
 -16   4   5   20.90    3.50
 -16   4   6    4.91    1.80
   4  16   6    4.51    1.05
 -16   4   7   11.98    2.76
   4  16   7    7.63    1.32
   4  16   7    8.69    1.37
   4  16   8   16.91    1.83
 -16   4   8   17.37    3.64
   4  16   8   20.11    1.94
 -16   4   9    0.66    1.33
   4  16   9    1.88    0.98
   4  16   9    1.88    0.81
   4  16  10    7.89    1.47
   4  16  10    6.39    1.25
   4  16  11    1.12    0.91
   4  16  12   22.00    2.17
   4  16  13    2.80    1.07
   4  16  14    3.14    1.16
  16  -4  14    2.58    1.09
   4  16  15    0.45    0.80
  16  -4  15    0.19    0.78
  16  -4  16    2.98    0.93
   4  16  16    2.63    0.90
  -3 -16   0   95.38    6.74
 -16   3   1   18.16    2.73
  -3 -16   1   22.73    3.40
  -3 -16   2  338.43   12.12
 -16   3   2  336.18   12.09
  -3 -16   3   15.95    2.69
 -16   3   3   16.51    3.04
 -16   3   4    7.07    2.24
 -16   3   5    7.53    2.42
   3  16   6  178.11    5.23
 -16   3   6  167.76   10.09
   3  16   7    0.24    0.76
 -16   3   7    1.03    1.37
   3  16   7    3.63    1.01
   3  16   8   19.26    1.89
 -16   3   8   18.48    3.79
   3  16   8   18.01    1.82
   3  16   9    8.62    1.33
   3  16   9    8.11    1.33
 -16   3   9    8.41    3.02
   3  16  10   87.32    4.04
   3  16  10   93.23    3.94
   3  16  11    0.76    0.86
   3  16  12    3.52    1.16
   3  16  13    3.09    1.09
   3  16  14   21.04    2.05
  16  -3  14   18.05    2.04
   3  16  15    1.11    0.88
  16  -3  15    0.81    0.86
  16  -3  16    0.14    0.69
   3  16  16    0.37    0.72
 -16   2   0   35.94    3.73
  -2 -16   0   37.46    4.17
 -16   2   1   32.91    3.75
  -2 -16   1   30.77    3.79
 -16   2   2    4.47    1.86
  -2 -16   2    4.05    1.63
 -16   2   3   79.46    6.22
 -16   2   4   53.74    5.38
 -16   2   5    1.60    1.33
 -16   2   6   13.32    3.09
   2  16   7   31.78    2.32
   2  16   7   29.08    2.21
 -16   2   7   27.73    4.38
   2  16   8    8.45    1.38
   2  16   8    7.16    1.23
 -16   2   8    4.98    2.04
   2  16   9   16.28    1.87
   2  16   9   16.27    1.75
   2  16  10    3.98    1.21
   2  16  10    2.38    0.90
   2  16  11   -0.28    0.83
   2  16  12    4.32    1.18
   2  16  13    2.07    0.92
   2  16  14    2.36    1.12
  16  -2  14    0.07    0.92
   2  16  15   20.28    1.85
  16  -2  15   15.58    1.81
  16  -2  16   -0.41    0.73
   2  16  16    0.32    0.69
  -1 -16   0   10.16    2.32
 -16   1   0    8.60    1.91
 -16   1   1    8.17    2.15
 -16   1  -1    7.81    1.88
  -1 -16   1    9.17    1.96
 -16   1   2   16.79    2.94
 -16   1   3    6.70    2.32
 -16   1   4   -0.28    1.24
 -16   1   5   38.04    4.89
 -16   1   6   26.83    4.28
   1  16   7   10.10    1.39
 -16   1   7   10.40    3.18
   1  16   7   11.31    1.48
   1  16   8    2.21    0.88
 -16   1   8   -0.28    1.62
   1  16   8    2.47    0.87
 -16   1   9    0.50    1.60
   1  16   9    0.51    0.68
   1  16   9    1.27    0.85
   1  16  10    1.07    0.97
   1  16  11    3.70    1.11
   1  16  12    3.26    1.08
   1  16  13   10.34    1.55
   1  16  14    7.22    1.41
  16  -1  14    7.80    1.49
   1  16  15    0.81    0.90
  16  -1  15    1.32    0.96
  16  -1  15    0.57    0.62
  16  -1  16    0.50    0.77
   1  16  16    1.57    0.81
 -16   0   0    1.52    1.26
 -16   0  -1    3.49    1.53
 -16   0   1    1.91    1.24
 -16   0  -2   21.56    2.90
 -16   0   2   20.88    3.25
 -16   0   3   21.65    3.53
 -16   0   4  239.76   11.31
 -16   0   5   20.60    3.74
 -16   0   6   25.99    4.15
   0  16   7   31.68    2.34
   0  16   7   33.97    2.39
 -16   0   7   33.73    4.75
 -16   0   8   41.63    5.51
   0  16   8   36.34    2.56
   0  16   8   42.09    2.69
   0  16   9    1.37    0.83
   0  16   9    0.44    0.65
   0  16  10   -1.01    0.87
   0  16  11    4.76    1.22
   0  16  12    3.32    1.08
   0  16  13    0.81    0.93
  16   0  13   -0.15    0.98
   0  16  14    2.16    1.11
  16   0  14    3.97    1.22
   0  16  15    1.06    0.82
  16   0  15    1.10    0.94
  16   0  15    0.48    0.69
   0  16  16    4.62    1.02
  16   0  16    5.86    1.19
 -16  -1   0   10.26    2.32
 -16  -1  -1    8.32    2.07
 -16  -1   1   11.06    2.46
 -16  -1  -2   15.11    2.55
 -16  -1   2   15.75    2.92
 -16  -1   3    2.37    1.59
 -16  -1   4    0.20    1.64
 -16  -1   5   36.70    4.87
 -16  -1   6   28.63    4.43
 -16  -1   7   13.14    3.30
  -1  16   7   10.22    1.41
  -1  16   7   10.29    1.38
  -1  16   8    2.04    0.87
  -1  16   8    2.96    0.88
  -1  16   9    0.22    0.79
 -16  -1   9   -0.74    2.00
  -1  16   9   -0.47    0.79
  -1  16  10    0.96    0.87
  -1  16  11    4.87    1.23
  -1  16  12    5.35    1.29
  -1  16  13   10.00    1.56
  16   1  13   10.87    1.66
  -1  16  14    8.72    1.49
  16   1  14    5.77    1.36
  16   1  15   -0.97    0.79
  -1  16  15   -0.28    0.77
  16   1  15   -0.11    0.89
  16   1  16    0.41    0.58
  -1  16  16    1.04    0.72
  16   1  16    2.23    0.92
 -16  -2   0   37.88    4.24
 -16  -2   1   24.18    3.44
 -16  -2  -1   29.45    3.64
 -16  -2  -2    6.24    1.88
 -16  -2   2    5.65    1.97
 -16  -2   3   81.09    6.58
 -16  -2  -3   86.34    6.04
 -16  -2   4   55.38    5.71
 -16  -2   5    2.58    2.02
 -16  -2   6    8.84    2.61
  -2  16   7   32.30    2.37
 -16  -2   7   25.84    4.38
  -2  16   7   33.26    2.41
 -16  -2   8    6.21    2.15
  -2  16   8    8.30    1.36
  -2  16   8    6.48    1.15
  -2  16   9   13.47    1.73
 -16  -2   9   15.89    3.80
  -2  16   9   16.06    1.71
  -2  16  10    2.12    1.04
  -2  16  11    0.88    0.95
  -2  16  12    4.86    1.20
  -2  16  13    2.94    1.09
  16   2  13    2.10    1.03
  -2  16  14    2.58    1.05
  16   2  14    0.63    0.92
  16   2  15   17.62    1.84
  -2  16  15   18.51    1.82
  16   2  15   17.30    1.67
  -2  16  16    0.02    0.66
  16   2  16   -0.22    0.69
  16   2  16   -1.48    0.73
 -16  -3   0   84.35    6.32
 -16  -3  -1   19.49    3.00
 -16  -3   1   18.15    3.06
 -16  -3   2  328.46   12.80
 -16  -3  -2  346.71   12.43
 -16  -3  -3   17.04    2.96
 -16  -3   3   17.10    3.29
 -16  -3  -4    4.88    1.88
 -16  -3   4    5.72    2.10
 -16  -3   5    2.94    1.96
 -16  -3   6  157.88   10.13
  -3  16   7    2.02    0.89
  -3  16   7    2.53    0.93
  -3  16   8   14.78    1.75
  -3  16   8   17.71    1.81
 -16  -3   8   11.44    3.20
 -16  -3   9    9.36    3.06
  -3  16   9    6.65    1.34
  -3  16   9    7.00    1.27
  -3  16  10   81.29    3.92
  -3  16  11    0.27    0.89
  -3  16  12    4.04    1.32
  -3  16  13    3.06    1.15
  16   3  13    2.49    1.08
  -3  16  14   23.76    2.12
  16   3  14   20.91    2.12
  -3  16  15    1.07    0.91
  16   3  15    1.31    0.90
  16   3  15    1.03    0.79
  -3  16  16    0.01    0.64
  16   3  16    0.25    0.66
  16   3  16    0.17    0.58
 -16  -4   0  161.38    8.86
 -16  -4  -1   17.16    3.09
 -16  -4   1   12.51    2.74
 -16  -4   2   28.27    4.04
 -16  -4  -2   22.12    3.41
 -16  -4  -3    7.09    2.13
 -16  -4   3    6.77    2.33
 -16  -4  -4    7.79    2.25
 -16  -4   4    7.57    2.59
 -16  -4  -5   24.18    3.45
 -16  -4   5   20.86    3.83
  -4  16   6    5.26    1.12
  -4  16   6    6.93    1.19
  -4  16   7    7.98    1.39
 -16  -4   7    7.17    2.63
  -4  16   7    8.27    1.31
  -4  16   8   17.72    1.78
  -4  16   8   16.13    1.78
 -16  -4   8   19.01    3.91
 -16  -4   9    1.76    1.61
  -4  16   9    1.58    0.78
  -4  16   9    2.01    0.93
  -4  16  10    6.07    1.33
  -4  16  11    3.23    1.09
  -4  16  12   26.64    2.33
  -4  16  13    4.08    1.16
  16   4  13    3.65    1.16
  -4  16  14    1.75    0.95
  16   4  14    2.15    0.92
  16   4  14    1.27    0.89
  -4  16  15    1.17    0.83
  16   4  15   -0.75    0.84
  16   4  15    0.32    0.76
  -4  16  16    3.28    0.89
  16   4  16    2.40    0.84
  16   4  16    2.19    0.74
 -16  -5   0    8.06    2.41
 -16  -5  -1   33.93    4.29
 -16  -5   1   28.76    4.01
 -16  -5   2   13.26    2.93
 -16  -5  -2   18.34    3.24
 -16  -5  -3   21.34    3.49
 -16  -5   3   20.87    3.54
 -16  -5  -4    4.60    1.86
 -16  -5   4    1.59    2.02
 -16  -5  -5   10.38    2.66
 -16  -5   5    8.29    2.79
 -16  -5   6   11.45    3.15
  -5  16   6    4.96    1.16
  -5  16   6    9.28    1.43
  -5  16   7   13.43    1.64
 -16  -5   7   12.13    3.21
  -5  16   7   13.02    1.56
  -5  16   8    1.97    1.03
 -16  -5   8    4.36    2.13
  -5  16   8    2.60    1.03
  -5  16   9    9.68    1.52
  -5  16   9    9.22    1.41
  -5  16  10   -0.46    0.94
  -5  16  11   12.87    1.73
  -5  16  12    2.94    1.06
  16   5  12    1.66    0.94
  -5  16  13    3.82    1.18
  16   5  13    3.35    1.02
  -5  16  14    4.77    1.22
  16   5  14    3.90    1.15
  16   5  14    3.76    1.05
  -5  16  15    1.69    0.86
  16   5  15    1.58    0.83
  16   5  15    1.33    0.80
  16   5  16    2.36    0.87
  16   5  16    1.47    0.73
 -16  -6   0  288.56   12.52
 -16  -6  -1    0.68    1.40
 -16  -6   1    4.25    2.02
 -16  -6  -2   13.45    3.00
 -16  -6   2   10.19    2.61
 -16  -6  -3    4.48    1.71
 -16  -6   3    1.37    1.65
 -16  -6   4  189.44   10.86
 -16  -6  -4  197.21   10.38
 -16  -6   5    4.37    2.21
  -6  16   5    1.85    0.88
  -6  16   6   50.30    2.95
 -16  -6   6   57.85    6.43
 -16  -6  -6   51.60    5.50
  -6  16   6   49.60    2.85
  -6  16   7    1.33    1.02
 -16  -6   7    3.56    2.07
  -6  16   7    3.51    1.10
  -6  16   8  156.80    5.28
  -6  16   8  151.91    4.99
 -16  -6   8  151.94   10.77
  -6  16   9    5.15    1.30
  -6  16   9    4.07    1.18
  -6  16  10   -0.01    0.99
  -6  16  11    1.41    0.99
  -6  16  12   24.10    2.22
  16   6  12   25.60    2.32
  -6  16  13    1.00    0.97
  16   6  13    1.08    0.78
  16   6  14    2.65    1.03
  16   6  14    3.33    1.07
  16   6  15    1.79    0.86
  16   6  15   -0.69    0.77
  16   6  16   18.11    1.54
  16   6  16   18.97    1.58
 -16  -7   0    2.38    2.04
 -16  -7  -1   32.74    4.41
 -16  -7   1   38.12    4.86
 -16  -7  -2    5.90    2.11
 -16  -7   2    2.34    1.92
 -16  -7  -3   32.12    4.50
 -16  -7   3   25.93    3.98
 -16  -7   4   -1.27    2.23
 -16  -7  -4    0.80    1.25
  -7  16   5    3.71    1.04
  -7  16   5    4.60    1.16
 -16  -7   5    5.79    2.24
 -16  -7  -5    4.08    2.00
 -16  -7   6   -0.09    1.42
  -7  16   6    0.81    0.73
  -7  16   6    0.18    0.77
 -16  -7  -6   -0.79    1.47
  -7  16   7   26.97    2.25
 -16  -7   7   27.90    4.63
  -7  16   7   32.30    2.39
  -7  16   8    1.90    1.07
 -16  -7   8    1.87    1.82
  -7  16   8    0.06    0.72
  -7  16   9   26.73    2.35
  -7  16   9   28.31    2.25
  -7  16  10    1.08    0.93
  -7  16  11    0.59    0.82
  -7  16  12    2.03    1.03
  16   7  12    1.45    0.97
  -7  16  13   10.66    1.56
  16   7  13   10.70    1.56
  16   7  13   11.56    1.62
  -7  16  14    1.41    0.95
  16   7  14    0.71    0.86
  16   7  14    0.03    0.85
  16   7  15    2.90    0.90
  16   7  15    0.87    0.70
  16   7  16    0.31    0.60
  16   7  16    1.72    0.77
 -16  -8   0    1.97    1.46
 -16  -8  -1    2.71    1.72
 -16  -8   1    3.50    2.27
 -16  -8  -2    4.55    2.22
 -16  -8   2    2.63    1.82
 -16  -8  -3    4.85    2.17
 -16  -8   3    6.60    2.24
 -16  -8  -4   12.56    2.97
  -8  16   4    8.93    1.33
 -16  -8   4    5.82    2.22
  -8  16   4    9.62    1.43
  -8  16   5   -0.50    0.79
  -8  16   5   -0.35    0.82
 -16  -8   5   -0.28    1.43
 -16  -8  -5   -0.03    1.50
 -16  -8   6    5.13    2.29
  -8  16   6    4.19    1.10
  -8  16   6    3.17    0.99
 -16  -8  -6    1.34    1.46
  -8  16   7   14.86    1.72
  -8  16   7   13.71    1.77
 -16  -8   7   17.76    4.03
 -16  -8  -7   20.07    3.94
  -8  16   8    4.64    1.25
 -16  -8   8    1.00    1.67
  -8  16   8    2.72    0.89
  -8  16   9    9.64    1.58
  -8  16   9   10.90    1.50
  -8  16  10    9.91    1.59
  16   8  10   13.62    1.61
  -8  16  11    1.27    0.99
  16   8  11    1.72    0.97
  -8  16  12    1.57    1.01
  16   8  12    0.43    0.76
  -8  16  13    0.08    0.88
  16   8  13    0.91    0.80
  16   8  13    1.68    0.88
  16   8  14    0.78    0.70
  16   8  14    0.52    0.81
  16   8  15    3.35    0.91
  16   8  15    1.91    0.78
  16   8  16    0.13    0.67
  16   8  16    1.01    0.67
 -16  -9   0    3.42    1.87
 -16  -9  -1   15.49    3.28
 -16  -9   1   12.86    3.12
  -9  16   2   50.80    2.86
 -16  -9  -2   57.10    6.17
 -16  -9   2   53.60    5.98
 -16  -9  -3   16.96    3.71
  -9  16   3   14.47    1.71
 -16  -9   3   13.00    3.19
  -9  16  -4   11.52    1.48
 -16  -9   4    8.92    2.83
  -9  16   4    9.21    1.44
  -9  16   5   12.33    1.56
 -16  -9   5   10.50    2.65
 -16  -9  -5   15.71    3.38
  -9  16   6   72.09    3.67
 -16  -9   6   80.71    7.78
  -9  16   6   74.65    3.57
 -16  -9  -6   74.39    7.13
  -9  16   7    7.79    1.40
 -16  -9   7    6.55    2.11
  -9  16   7    9.37    1.44
 -16  -9  -7    9.29    2.63
  -9  16   8    7.07    1.43
  -9  16   8    9.84    1.43
  -9  16   9    6.15    1.38
  -9  16  10    7.08    1.37
  16   9  10    7.36    1.40
  -9  16  11   -0.14    0.83
  16   9  11    0.33    0.78
  16   9  12    1.88    0.94
  16   9  12    0.12    0.86
  16   9  13    1.83    0.84
  16   9  13    2.14    0.79
  16   9  14    2.94    0.91
  16   9  14    1.69    0.89
  16   9  15   -0.86    0.77
  16   9  15   -0.12    0.68
 -10  16   0  120.56    4.38
 -16 -10   0  106.40    8.35
 -16 -10  -1   13.91    3.22
 -16 -10   1   13.18    3.10
 -10  16  -1   14.49    1.67
 -10  16   1   13.03    1.56
 -16 -10  -2    0.79    1.65
 -16 -10   2    1.25    1.64
 -10  16   2    1.23    0.84
 -10  16  -2    1.93    0.82
 -16 -10  -3    8.01    2.74
 -16 -10   3    7.46    2.35
 -10  16   3    5.44    1.12
 -10  16  -3    6.67    1.27
 -16 -10  -4    3.48    1.63
 -10  16  -4    1.45    0.79
 -16 -10   4    4.12    2.30
 -10  16   4    2.63    0.85
 -10  16   5   18.41    1.89
 -10  16  -5   14.90    1.69
 -16 -10   5   17.64    3.79
 -16 -10  -5   12.80    3.17
 -16 -10   6   -0.03    1.36
 -10  16   6    1.29    0.81
 -16 -10  -6    1.80    1.85
 -10  16   7    1.37    0.87
 -16 -10   7   -0.01    1.22
 -16 -10  -7    2.31    1.66
 -10  16   8    5.75    1.21
  16  10   9    1.11    0.77
  16  10  10    9.24    1.44
  16  10  11    9.88    1.36
  16  10  12    8.34    1.47
  16  10  13   -0.42    0.74
  16  10  13    0.41    0.83
  16  10  14    2.16    0.92
  16  10  15    2.48    0.88
 -16 -11   0   18.48    3.73
 -11  16   0   18.45    1.86
 -16 -11  -1    2.40    2.05
 -16 -11   1    3.02    2.08
 -11  16   1    2.86    0.98
 -11  16  -1    4.28    1.11
 -11  16  -2   51.62    2.94
 -16 -11  -2   52.03    6.09
 -11  16   2   47.54    2.86
 -16 -11   2   52.73    6.14
 -16 -11  -3   -0.17    2.07
 -16 -11   3   -1.66    1.73
 -11  16   3   -0.02    0.78
 -11  16  -3   -1.27    0.89
 -16 -11  -4    5.76    2.17
 -11  16   4    7.33    1.33
 -11  16  -4    8.96    1.47
 -16 -11   4    8.58    2.82
 -11  16   5   25.14    2.17
 -16 -11   5   28.70    4.72
 -16 -11  -5   26.67    4.39
 -16 -11   6   28.53    4.83
 -11  16   6   27.21    2.26
 -16 -11  -6   24.69    4.24
 -11  16   7    2.48    1.05
 -11  16   8    3.13    0.99
  16  11   8    1.31    0.85
  16  11   9    5.02    1.09
  16  11  10   12.11    1.55
  16  11  11   -0.02    0.65
  16  11  11    0.94    0.91
  16  11  12    0.63    0.84
  16  11  13    6.96    1.29
  16  11  14    2.00    0.79
  16  11  15    0.14    0.62
 -16 -12   0   39.21    5.41
 -12  16   0   37.11    2.57
 -16 -12  -1    9.72    2.96
 -16 -12   1    8.46    2.79
 -12  16   1    6.67    1.24
 -12  16  -1    9.07    1.40
 -16 -12  -2    3.80    2.14
 -16 -12   2    3.90    2.42
 -12  16  -2    5.74    1.27
 -12  16   2    6.24    1.31
 -16 -12  -3    1.13    1.97
 -16 -12   3   -1.01    2.05
 -12  16   3    3.61    0.99
 -12  16  -3    2.19    0.89
 -16 -12  -4  145.17   10.20
 -16 -12   4  149.57   10.58
 -12  16   4  140.30    4.97
 -12  16   5    4.22    1.11
 -16 -12   5    3.23    1.63
 -12  16   6   10.48    1.51
 -16 -12  -6    7.58    2.66
  16  12   7    1.80    0.91
 -12  16   7    2.86    1.03
 -12  16   8   37.57    2.56
  16  12   8   41.97    2.76
  16  12   9    3.13    1.00
  16  12  10    9.90    1.45
  16  12  10    7.39    1.37
  16  12  11    5.74    1.07
  16  12  11    4.66    1.18
  16  12  12   23.18    2.09
  16  12  13    1.31    1.01
  16  12  14    1.11    0.77
 -16 -13   0    5.26    2.48
 -13  16   0    7.15    1.27
 -16 -13  -1   25.70    4.48
 -16 -13   1   23.52    4.45
 -13  16  -1   24.88    2.20
 -13  16   1   21.85    2.05
 -13  16  -2   67.52    3.46
 -13  16   2   62.61    3.32
 -16 -13  -2   71.08    7.37
 -16 -13   2   65.18    7.04
 -16 -13  -3   -0.95    1.83
 -16 -13   3    0.58    1.54
 -13  16   3   -0.11    0.73
 -16 -13  -4   11.63    3.13
 -13  16   4   12.92    1.65
 -16 -13   4   11.16    3.09
  16  13   5    4.02    1.06
 -13  16   5    4.06    1.09
  16  13   6    5.68    1.20
 -13  16   6    7.91    1.38
 -13  16   7   13.89    1.69
  16  13   7   17.14    1.83
  16  13   8    0.37    0.73
 -13  16   8   -0.16    0.73
  16  13   9    0.93    0.86
  16  13   9    1.15    0.77
  16  13  10   23.03    2.15
  16  13  10   21.15    1.94
  16  13  11    3.41    1.11
  16  13  11    3.72    1.05
  16  13  12    5.59    1.23
  16  13  13    1.56    0.86
  16  13  14    5.91    1.05
  16  14   0    2.14    0.96
 -16 -14   0    0.35    1.39
 -14  16   0    3.30    1.08
 -14  16   1    2.01    0.91
 -14  16  -1    2.43    0.95
  16  14  -1    2.10    0.84
  16  14   1    1.69    0.82
 -16 -14   1    3.81    2.16
 -16 -14  -2    9.39    3.37
  16  14  -2    9.29    1.44
  16  14   2   10.38    1.56
 -16 -14   2   11.39    3.27
 -14  16   2    8.34    1.51
 -16 -14  -3    9.43    3.06
  16  14   3    8.35    1.31
 -16 -14   3    6.39    2.63
 -14  16   3    8.33    1.41
  16  14   4    9.00    1.40
 -14  16   4    8.57    1.44
 -14  16   5    2.05    0.93
  16  14   5    3.63    1.07
  16  14   6    5.75    1.26
 -14  16   6    3.02    1.00
  16  14   7    2.60    0.97
 -14  16   7    0.28    0.79
  16  14   8    2.63    1.02
  16  14   8    0.68    0.81
  16  14   9    0.59    0.71
  16  14   9   -0.02    0.74
  16  14  10    0.94    0.79
  16  14  10    1.35    0.90
  16  14  11   -0.21    0.73
  16  14  11    0.27    0.78
  16  14  12    0.48    0.80
  16  14  13   -0.01    0.69
  16  14  14   -0.03    0.59
  16  15   0   -0.96    0.78
 -15  16   0    0.50    0.86
  16  15  -1    1.44    0.84
  16  15   1    0.48    0.78
 -15  16   1    0.02    0.80
 -15  16   2   44.49    2.90
  16  15  -2   49.71    2.92
  16  15   2   46.85    2.94
  16  15   3    9.46    1.49
 -15  16   3    8.30    1.43
  16  15   4    8.01    1.44
 -15  16   4    7.58    1.36
  16  15   5    2.33    0.99
 -15  16   5    3.14    1.06
  16  15   6   49.40    2.92
  16  15   6   47.68    2.98
  16  15   7   -0.05    0.82
  16  15   7   -0.18    0.71
  16  15   8   11.42    1.53
  16  15   8   10.59    1.50
  16  15   9    1.27    0.80
  16  15   9    1.17    0.88
  16  15  10   33.36    2.40
  16  15  10   32.86    2.35
  16  15  11    1.08    0.86
  16  15  11    1.68    0.80
  16  15  12    1.01    0.76
  16  15  13    0.06    0.62
  16  16   0    0.66    0.77
  16  16  -1    4.31    1.11
  16  16   1    2.10    0.91
  16  16  -2   -0.36    0.80
  16  16   2   -0.72    0.88
  16  16   3   36.26    2.66
  16  16   4   -2.37    0.97
  16  16   5    3.56    1.00
  16  16   6    1.64    0.99
  16  16   6    1.57    0.75
  16  16   7    0.48    0.68
  16  16   7    1.08    0.83
  16  16   8    2.45    0.97
  16  16   8    4.56    1.08
  16  16   9    8.68    1.39
  16  16   9    7.67    1.29
  16  16  10    0.54    0.73
  16  16  10    0.75    0.92
  16  16  11    2.57    0.93
  16  16  11    2.72    0.84
  16  16  12    0.92    0.74
  16  16  13    2.51    0.75
  16  17   0   -0.01    0.87
  16  17  -1    2.83    0.94
  16  17   1    0.86    0.77
  16  17  -2    6.72    1.30
  16  17   2    5.13    1.05
  16  17   3    0.61    0.84
  16  17   4    2.05    0.88
  16  17   5   -0.55    0.73
  16  17   6    3.75    1.09
  16  17   7    2.00    0.86
  16  17   7    3.35    0.93
  16  17   8    2.48    0.92
  16  17   8    3.20    0.91
  16  17   9    1.08    0.76
  16  17   9    1.68    0.88
  16  17  10    3.29    0.98
  16  17  10    3.08    0.88
  16  17  11    0.70    0.73
  16  17  11    1.87    0.84
  16  17  12    0.69    0.68
  15  17   0    0.39    0.73
  15  17  -1    1.23    0.76
  15  17   1    0.34    0.73
  15  17  -2    3.26    0.95
  15  17   2    0.77    0.86
  15  17   3    6.35    1.28
  15  17   4    5.40    1.25
  15  17   5    4.49    1.16
  15  17   6    3.06    1.01
  15  17   7    1.35    0.89
  15  17   7    0.87    0.79
  15  17   8    2.60    0.86
  15  17   8    2.24    0.92
  15  17   9    0.46    0.69
  15  17   9    1.45    0.76
  15  17  10    0.93    0.84
  15  17  10    1.38    0.85
  15  17  11    0.09    0.68
  15  17  11    0.34    0.72
  15  17  12    0.90    0.69
  15  17  13    1.19    0.69
  14  17   0    8.64    1.40
  14  17  -1    0.23    0.73
  14  17   1    0.84    0.76
  14  17  -2   20.03    1.88
  14  17   2   16.49    1.80
  14  17   3    4.10    1.13
  14  17   4    1.75    0.96
  14  17   5   -0.20    0.70
  14  17   6    0.35    0.82
  14  17   6    1.12    0.70
  14  17   7    2.18    0.91
  14  17   7    3.25    0.99
  14  17   8    0.68    0.71
  14  17   8    0.67    0.71
  14  17   9    3.40    0.96
  14  17   9    5.23    1.18
  14  17  10    4.35    1.11
  14  17  10    4.81    1.16
  14  17  11    1.77    0.88
  14  17  11    2.07    0.94
  14  17  12    0.98    0.83
  14  17  13    1.58    0.76
  13  17   0   24.12    2.14
 -13 -17   0   34.61    5.30
  13  17  -1    6.44    1.23
  13  17   1    8.68    1.42
 -13 -17  -1   10.85    3.13
 -13 -17   1    7.28    2.33
 -13 -17  -2   17.30    3.74
  13  17  -2   15.92    1.76
 -13 -17   2   20.54    4.02
  13  17   2   17.18    1.87
  13  17   3    4.85    1.19
 -13 -17   3    2.96    1.94
  13  17   4   10.25    1.54
  13  17   5   -0.12    0.82
  13  17   6    0.35    0.78
  13  17   6   -0.18    0.72
  13  17   7    0.68    0.77
  13  17   7    0.92    0.78
  13  17   8    0.40    0.76
  13  17   8    0.64    0.80
  13  17   9    0.53    0.77
  13  17   9    0.71    0.82
  13  17  10    0.40    0.79
  13  17  10    0.91    0.81
  13  17  11    5.67    1.16
  13  17  11    5.35    1.08
  13  17  12    0.96    0.76
  13  17  13    0.48    0.71
  13  17  14   -0.03    0.65
  12  17   0    6.77    1.16
 -12 -17   0    4.94    2.28
 -12 -17  -1   19.25    4.00
 -12 -17   1   17.66    3.80
  12  17  -1   20.80    1.97
  12  17   1   19.11    1.91
  12  17  -2    1.52    0.83
  12  17   2    1.35    0.74
 -12 -17   2    1.35    1.52
 -12 -17  -2    2.17    2.26
  12  17   3    2.46    0.99
 -12 -17   3    4.40    2.27
 -12 -17  -3    5.34    2.40
  12  17   4    4.13    1.11
 -12 -17   4    2.40    1.96
 -12 -17  -4    4.24    2.15
  12  17   5    3.78    1.09
  12  17   6    0.99    0.81
  12  17   6    0.49    0.65
  12  17   7    8.58    1.43
  12  17   7    9.56    1.44
  12  17   8    4.09    1.14
  12  17   8    4.15    1.13
  12  17   9    6.81    1.31
  12  17   9    5.08    1.15
  12  17  10    4.54    1.14
  12  17  10    4.45    1.10
  12  17  11    3.31    1.00
  12  17  11    4.92    1.13
  17 -12  12    5.66    1.07
  12  17  12    6.77    1.28
  17 -12  13    2.29    0.79
  12  17  13    2.62    0.97
  12  17  14   -0.26    0.71
  11  17   0    0.09    0.84
 -11 -17   0    0.07    1.75
 -11 -17  -1    8.66    2.85
  11  17  -1    5.29    1.09
  11  17   1    6.92    1.31
 -11 -17   1    5.68    2.30
  11  17   2    3.58    1.05
  11  17  -2    4.69    0.94
 -11 -17   2    1.92    1.39
 -11 -17  -2    5.43    2.17
  11  17   3    2.69    0.97
 -11 -17   3    3.85    2.09
 -11 -17   4   12.89    3.23
  11  17   4   13.78    1.71
 -11 -17  -4   15.95    3.73
 -11 -17   5    1.20    1.42
 -11 -17  -5    0.89    1.48
  11  17   6    4.02    1.03
  11  17   6    3.79    0.97
  11  17   7   -0.45    0.72
  11  17   7   -1.18    0.81
  11  17   8    4.76    1.15
  11  17   8    2.38    0.87
  11  17   9    0.68    0.83
  11  17   9    0.58    0.74
  11  17  10   -0.04    0.77
  11  17  10   -0.67    0.83
  11  17  11    0.34    0.72
  11  17  11   -0.11    0.77
  11  17  12    2.84    1.00
  17 -11  12    2.41    0.96
  17 -11  13    0.04    0.67
  11  17  13    1.92    0.90
  17 -11  14   -0.25    0.62
  11  17  14   -0.58    0.78
 -10 -17   0    0.18    1.77
  10  17   0    0.78    0.77
  10  17  -1    4.34    1.01
  10  17   1    4.85    1.08
 -10 -17   1    4.21    2.11
 -10 -17  -1    1.13    1.64
  10  17  -2   -1.37    0.91
  10  17   2   -0.23    0.89
 -10 -17   2    1.51    1.65
 -10 -17  -2   -0.17    1.74
  10  17   3    3.94    1.04
 -10 -17   3    7.84    2.56
  10  17   4    0.51    0.78
 -10 -17   4    2.35    1.82
 -10 -17  -4    1.26    2.00
  10  17   5    1.57    0.91
 -10 -17  -5   -0.78    1.70
 -10 -17   5   -2.61    1.71
  10  17   6   -0.14    0.81
  10  17   6   -0.11    0.70
  10  17   7    2.19    0.84
  10  17   7    3.25    0.99
  10  17   8    0.29    0.80
  10  17   8    0.47    0.72
  10  17   9    1.74    0.92
  10  17   9    0.17    0.70
  10  17  10    2.09    0.92
  10  17  10    2.73    0.95
  10  17  11    1.14    0.90
  10  17  11    0.16    0.84
  10  17  12   -0.44    0.91
  17 -10  12    1.18    0.93
  10  17  13    0.76    0.75
  17 -10  13    0.07    0.78
  17 -10  14   -0.08    0.64
  10  17  14   -0.38    0.75
  17 -10  15    0.85    0.64
  10  17  15    0.52    0.67
   9  17   0  144.75    4.73
  -9 -17   0  143.41    9.68
   9  17  -1   -0.22    0.83
   9  17   1    1.04    0.93
  -9 -17  -1    1.70    1.73
  -9 -17   2   29.73    4.65
   9  17  -2   23.31    1.95
   9  17   2   23.11    2.04
  -9 -17  -2   25.25    4.46
  -9 -17   3   17.46    3.70
  -9 -17  -3   18.61    3.96
   9  17   3   17.93    1.82
  -9 -17  -4   17.74    3.79
   9  17   4   20.81    1.93
  -9 -17   4   21.00    3.75
   9  17   5    8.55    1.36
  -9 -17   5    4.22    2.08
   9  17   6    2.19    0.99
   9  17   6    1.40    0.77
   9  17   7    1.55    0.89
   9  17   7    0.21    0.68
   9  17   8   17.79    1.89
   9  17   8   16.39    1.85
   9  17   9    6.75    1.30
   9  17   9    6.03    1.28
   9  17  10   13.46    1.70
   9  17  10   14.74    1.70
   9  17  11    1.74    0.99
   9  17  11    0.67    0.66
   9  17  12   15.63    1.79
   9  17  13    1.23    0.91
  17  -9  13    0.24    0.80
  17  -9  14    2.11    0.87
   9  17  14    0.72    0.80
  17  -9  15    0.87    0.64
   9  17  15   -0.40    0.66
  -8 -17   0   37.54    5.06
   8  17   1   10.47    1.45
  -8 -17   1    7.94    2.58
  -8 -17  -1   13.21    3.25
   8  17   2   28.69    2.18
  -8 -17   2   37.57    5.04
  -8 -17  -2   27.75    4.44
   8  17   3   -0.34    0.76
  -8 -17   3    2.02    1.61
  -8 -17  -3    1.44    2.10
   8  17   4    1.49    0.88
  -8 -17   4    0.81    1.38
   8  17   5   -1.09    0.93
  -8 -17   5   -1.37    1.28
   8  17   6    7.52    1.22
   8  17   6    8.49    1.37
   8  17   7    8.59    1.42
   8  17   7    8.54    1.38
   8  17   8   12.17    1.59
   8  17   8    9.80    1.49
   8  17   9    3.04    1.09
   8  17   9    4.56    1.19
   8  17  10    1.70    0.98
   8  17  10    2.16    0.88
   8  17  11    1.44    0.91
   8  17  11    0.29    0.66
   8  17  12    3.53    1.14
   8  17  13    2.04    0.95
  17  -8  13    1.57    0.95
   8  17  14    0.83    0.81
  17  -8  14    0.70    0.76
  17  -8  15    1.79    0.81
   8  17  15    1.15    0.78
  -7 -17   0   10.98    3.13
  -7 -17   1   -1.84    1.89
  -7 -17  -1    0.62    1.49
   7  17   2   10.79    1.43
  -7 -17   2   10.63    2.78
  -7 -17  -2   13.99    3.41
   7  17   3    4.56    1.12
  -7 -17   3    2.83    1.85
  -7 -17  -3    2.21    1.68
  -7 -17   4   25.88    4.07
   7  17   4   26.19    2.17
   7  17   5    0.61    0.77
   7  17   6    3.34    0.96
   7  17   6    2.95    0.94
 -17   7   6    2.47    1.71
   7  17   7    3.54    1.07
 -17   7   7    5.81    2.40
   7  17   7    2.99    0.90
   7  17   8   23.38    2.13
   7  17   8   19.49    1.97
   7  17   9    4.08    1.14
   7  17   9    4.43    1.18
   7  17  10    4.93    1.26
   7  17  10    4.07    0.97
   7  17  11   -0.83    0.93
   7  17  11    1.12    0.77
   7  17  12    6.50    1.26
   7  17  13    0.51    0.91
  17  -7  13   -0.62    0.82
   7  17  14    0.37    0.76
  17  -7  14    1.05    0.88
  17  -7  15    0.89    0.74
   7  17  15    1.11    0.75
  -6 -17   0    1.33    1.75
  -6 -17  -1    4.56    2.18
  -6 -17   1    4.65    1.97
  -6 -17   2   11.99    2.85
  -6 -17  -2   16.20    3.62
   6  17   3    5.81    1.07
  -6 -17   3    4.96    1.98
  -6 -17   4   22.69    3.63
   6  17   4   25.54    2.12
   6  17   5    0.66    0.74
 -17   6   5   -3.73    1.87
   6  17   6   17.19    1.74
   6  17   6   16.10    1.78
 -17   6   6   19.43    3.71
   6  17   7   18.23    1.85
 -17   6   7   17.25    3.46
   6  17   7   17.04    1.86
   6  17   8    3.76    1.10
   6  17   8    5.43    1.23
   6  17   9    0.55    0.79
   6  17   9    1.74    0.83
   6  17  10    0.83    0.87
   6  17  10    1.82    0.89
   6  17  11   -0.64    0.89
   6  17  11    1.87    0.81
   6  17  12    0.58    0.95
   6  17  13    0.95    0.89
  17  -6  13    0.74    0.89
   6  17  14    1.90    0.91
  17  -6  14    0.19    0.81
  17  -6  15    1.09    0.80
   6  17  15    0.13    0.70
  -5 -17   0   66.97    6.15
  -5 -17  -1    7.68    2.30
  -5 -17   1    4.28    1.91
  -5 -17   2    5.40    1.98
  -5 -17   3   25.84    3.71
 -17   5   4   -0.78    1.91
   5  17   4   -0.27    0.85
 -17   5   5    3.26    2.12
   5  17   5    1.78    0.80
   5  17   6    2.47    0.90
   5  17   6    2.11    0.87
   5  17   7    6.83    1.27
   5  17   7    6.29    1.21
 -17   5   7    5.84    1.91
 -17   5   8    5.11    2.19
   5  17   8    5.78    1.22
   5  17   8    6.23    1.29
   5  17   9   -0.09    0.73
   5  17   9   -0.42    0.85
   5  17  10   31.31    2.48
   5  17  10   32.36    2.40
   5  17  11    2.47    0.99
   5  17  12    8.02    1.40
   5  17  13    1.41    0.93
  17  -5  13    0.50    0.88
   5  17  14    0.55    0.78
  17  -5  14   -0.20    0.93
   5  17  15    2.52    0.91
  17  -5  15    3.63    1.03
  17  -5  16    0.26    0.62
   5  17  16    0.16    0.60
  -4 -17   0   56.60    5.54
  -4 -17  -1    7.18    2.40
  -4 -17   1   10.82    2.72
  -4 -17   2   27.52    3.80
 -17   4   3   18.54    3.27
 -17   4   4   14.76    3.12
   4  17   4   14.48    1.58
   4  17   5   12.69    1.55
 -17   4   5    5.14    2.07
   4  17   6    7.63    1.28
   4  17   6    7.65    1.29
   4  17   7   28.06    2.25
 -17   4   7   24.77    4.35
   4  17   7   28.51    2.28
   4  17   8    5.57    1.17
 -17   4   8    4.45    2.00
   4  17   8    5.69    1.25
   4  17   9   32.37    2.51
   4  17   9   32.65    2.44
   4  17  10    2.84    1.09
   4  17  10    2.41    0.93
   4  17  11    4.39    1.20
   4  17  12    1.40    0.94
   4  17  13    3.22    1.10
   4  17  14    2.43    0.99
  17  -4  14    2.47    1.11
   4  17  15    0.94    0.79
  17  -4  15    0.68    0.81
  17  -4  16    1.43    0.76
   4  17  16    0.08    0.66
  -3 -17   0   24.04    3.65
  -3 -17  -1   28.74    4.03
  -3 -17   1   25.08    3.64
  -3 -17   2   26.12    3.51
 -17   3   2   20.71    3.30
 -17   3   3    5.81    1.87
 -17   3   4    4.11    1.87
   3  17   5   15.43    1.70
 -17   3   5   12.16    2.93
   3  17   6   -0.23    0.80
 -17   3   6    0.67    1.48
   3  17   6    0.14    0.65
   3  17   7   11.77    1.52
   3  17   7   11.59    1.50
 -17   3   7    8.27    2.48
   3  17   8    1.99    0.90
   3  17   8    3.43    1.04
   3  17   9    7.90    1.45
   3  17   9    7.97    1.35
   3  17  10    3.85    1.08
   3  17  10    2.12    0.88
   3  17  11    7.30    1.37
   3  17  12    3.04    1.06
   3  17  13    6.21    1.32
   3  17  14    2.60    1.09
  17  -3  14    0.38    0.93
   3  17  15    1.29    0.88
  17  -3  15    1.73    0.90
  17  -3  16    0.84    0.71
   3  17  16   -0.18    0.66
  -2 -17   0   22.23    3.53
 -17   2   1   17.38    2.96
  -2 -17   1   13.05    2.56
 -17   2   2   56.16    5.30
 -17   2   3    0.09    1.28
 -17   2   4    4.48    1.90
 -17   2   5    1.20    1.37
   2  17   5    0.82    0.70
   2  17   6   12.57    1.60
   2  17   6   12.69    1.52
 -17   2   6   10.63    2.63
   2  17   7    7.04    1.21
 -17   2   7    4.38    2.35
   2  17   7    6.47    1.17
 -17   2   8   -1.61    1.44
   2  17   8   -0.98    0.88
   2  17   8    0.61    0.69
   2  17   9    2.07    0.96
   2  17   9    1.31    0.85
   2  17  10    0.50    0.88
   2  17  10    2.23    0.94
   2  17  11    1.45    0.94
   2  17  12    0.50    0.84
   2  17  13    7.20    1.38
   2  17  14    4.12    1.16
  17  -2  14    1.14    0.98
   2  17  15    0.64    0.79
  17  -2  15    0.76    0.91
  17  -2  16    1.56    0.79
   2  17  16    0.59    0.71
 -17   1   0   48.48    4.63
  -1 -17   0   50.67    4.96
 -17   1   1    1.71    1.36
 -17   1   2   25.80    3.74
 -17   1   3   15.85    3.06
 -17   1   4    5.13    2.23
 -17   1   5    6.42    2.18
   1  17   5    4.19    1.05
 -17   1   6    7.99    2.36
   1  17   6    7.95    1.25
   1  17   6    6.04    1.19
   1  17   7    3.87    1.05
 -17   1   7    3.19    1.52
   1  17   7    5.76    1.15
   1  17   8    1.36    0.85
 -17   1   8   -0.96    1.68
   1  17   8    0.84    0.69
 -17   1   9    8.65    2.80
   1  17   9    7.32    1.40
   1  17   9    8.15    1.38
   1  17  10    3.30    1.22
   1  17  10    2.34    0.90
   1  17  11    2.39    1.01
   1  17  12    2.94    1.15
   1  17  13   -0.41    0.85
  17  -1  13   -0.15    0.90
   1  17  14    1.20    1.03
  17  -1  14    0.94    0.95
  17  -1  15    0.68    0.89
  17  -1  15    0.39    0.59
   1  17  16    0.21    0.68
  17  -1  16    1.22    0.75
 -17   0   0   46.26    4.61
   0 -17   0   49.65    4.75
 -17   0   1    0.53    1.30
 -17   0  -1    4.47    1.50
 -17   0   2  159.85    8.97
 -17   0   3    9.43    2.59
 -17   0   4   35.14    4.69
 -17   0   5    8.81    2.72
   0  17   5    3.68    1.05
   0  17   6   61.07    3.17
   0  17   6   59.80    3.16
 -17   0   6   57.65    6.22
 -17   0   7    0.99    1.22
   0  17   7    0.31    0.74
   0  17   7    0.86    0.87
   0  17   8   -0.11    0.65
   0  17   8   -1.37    0.94
   0  17   9    8.77    1.45
   0  17   9   10.84    1.54
 -17   0   9    9.29    3.07
   0  17  10    4.06    1.16
   0  17  10    6.38    1.26
   0  17  11   14.37    1.79
   0  17  12    6.99    1.36
   0  17  13    3.20    1.14
  17   0  13    1.90    1.11
   0  17  14   18.97    1.91
  17   0  14   16.45    1.94
   0  17  15    0.21    0.74
  17   0  15    1.02    0.91
  17   0  15   -0.18    0.61
   0  17  16    0.93    0.69
  17   0  16   -0.09    0.72
 -17  -1   0   41.41    4.43
 -17  -1  -1    1.90    1.44
 -17  -1   1    4.90    1.78
 -17  -1  -2   25.36    3.32
 -17  -1   2   29.05    4.10
 -17  -1   3   14.11    3.02
 -17  -1   4    1.49    1.38
 -17  -1   5    2.85    1.61
  -1  17   5    4.80    1.06
  -1  17   6    9.35    1.38
 -17  -1   6    7.08    2.58
  -1  17   6    7.76    1.28
 -17  -1   7    5.96    2.47
  -1  17   7    6.02    1.26
  -1  17   7    5.01    1.16
  -1  17   8    2.67    1.03
 -17  -1   8    1.07    1.76
  -1  17   8    1.50    0.69
  -1  17   9    8.22    1.42
  -1  17   9    8.74    1.47
  -1  17  10    2.40    1.00
  -1  17  10    0.94    0.77
  -1  17  11    3.97    1.18
  -1  17  12    2.64    1.00
  -1  17  13    1.50    0.94
  17   1  13    0.61    0.95
  -1  17  14    0.27    0.83
  17   1  14    0.08    0.87
  -1  17  15    2.19    0.92
  17   1  15    0.05    0.82
  17   1  15    0.86    0.68
  -1  17  16   -0.10    0.62
  17   1  16    0.72    0.70
  17   1  16    0.78    0.53
 -17  -2   0   22.92    3.46
 -17  -2  -1   19.11    3.19
 -17  -2   1   17.45    3.12
 -17  -2   2   49.53    5.23
 -17  -2  -2   52.97    4.89
 -17  -2   3   -1.25    1.84
 -17  -2   4    4.70    2.24
 -17  -2   5   -0.15    1.40
  -2  17   5    0.98    0.71
  -2  17   6   13.17    1.56
  -2  17   6   13.75    1.66
 -17  -2   6   11.94    3.03
  -2  17   7    6.23    1.20
  -2  17   7    5.75    1.15
 -17  -2   7    7.06    2.53
 -17  -2   8   -1.20    1.67
  -2  17   8    0.86    0.83
  -2  17   8   -0.09    0.80
  -2  17   9    0.42    0.80
  -2  17   9    1.57    0.75
  -2  17  10    2.42    1.01
  -2  17  11   -0.29    0.77
  -2  17  12    1.44    0.98
  -2  17  13    6.12    1.31
  17   2  13    4.86    1.28
  -2  17  14    3.92    1.13
  17   2  14    3.56    1.14
  -2  17  15    0.51    0.72
  17   2  15    0.83    0.82
  17   2  15    1.49    0.80
  -2  17  16    0.57    0.63
  17   2  16    0.22    0.69
  17   2  16   -1.63    0.72
 -17  -3   0   21.83    3.42
 -17  -3  -1   24.90    3.53
 -17  -3   1   23.37    3.59
 -17  -3  -2   22.97    3.45
 -17  -3   2   25.20    3.87
 -17  -3  -3    7.68    2.16
 -17  -3   3    7.57    2.55
 -17  -3   4   -0.50    1.42
 -17  -3   5   13.47    3.27
  -3  17   5   13.08    1.57
  -3  17   6   -0.36    0.73
 -17  -3   6    0.57    1.50
  -3  17   6    0.66    0.78
  -3  17   7    9.27    1.39
 -17  -3   7   10.46    2.97
  -3  17   7   12.64    1.52
  -3  17   8    2.07    0.92
  -3  17   8    1.77    0.85
  -3  17   9    5.18    1.20
  -3  17   9    8.57    1.39
  -3  17  10    3.68    1.08
  -3  17  11    7.17    1.43
  -3  17  12    1.44    0.91
  -3  17  13    6.40    1.38
  17   3  13    5.69    1.35
  -3  17  14    0.90    0.85
  17   3  14    2.41    0.99
  -3  17  15    1.18    0.78
  17   3  15    2.10    0.90
  17   3  15    2.12    0.85
  -3  17  16   -0.09    0.63
  17   3  16    0.29    0.64
  17   3  16   -0.84    0.63
 -17  -4   0   51.54    5.31
 -17  -4  -1    4.35    1.91
 -17  -4   1    6.46    2.22
 -17  -4   2   30.35    4.21
 -17  -4  -2   33.91    4.26
 -17  -4  -3   19.27    3.24
 -17  -4   3   20.79    3.74
 -17  -4   4   11.72    3.06
 -17  -4  -4   13.94    2.81
 -17  -4   5   12.39    3.05
  -4  17   5   10.72    1.46
  -4  17   5   12.61    1.60
  -4  17   6    6.77    1.30
 -17  -4   6    5.37    1.95
  -4  17   6    7.33    1.28
  -4  17   7   26.64    2.22
 -17  -4   7   20.32    4.06
  -4  17   7   25.45    2.17
  -4  17   8    5.38    1.27
  -4  17   8    7.91    1.41
  -4  17   9   29.44    2.42
  -4  17   9   31.83    2.41
  -4  17  10    0.99    0.91
  -4  17  11    6.43    1.38
  -4  17  12    1.59    0.96
  -4  17  13    4.64    1.19
  17   4  13    4.03    1.25
  -4  17  14    3.00    1.11
  17   4  14    1.67    0.91
  17   4  14    1.86    0.86
  -4  17  15    0.47    0.76
  17   4  15    0.53    0.77
  17   4  15    0.51    0.73
  17   4  16    0.47    0.65
  17   4  16   -0.45    0.62
 -17  -5   0   63.43    6.00
 -17  -5  -1    4.64    2.04
 -17  -5   1    4.24    2.18
 -17  -5  -2    4.49    2.03
 -17  -5   2    3.90    1.95
 -17  -5  -3   22.06    3.60
 -17  -5   3   18.81    3.67
 -17  -5  -4   -0.65    1.36
  -5  17   4   -0.07    0.74
 -17  -5   5    1.25    1.64
  -5  17   5    0.70    0.68
  -5  17   5    0.64    0.78
  -5  17   6    3.49    1.14
 -17  -5   6    1.26    1.73
  -5  17   6    2.73    0.97
  -5  17   7    8.69    1.43
 -17  -5   7    9.81    3.22
  -5  17   7    6.43    1.21
  -5  17   8    3.29    1.11
 -17  -5   8    1.42    1.51
  -5  17   8    4.22    1.14
  -5  17   9    1.57    1.03
  -5  17   9    1.30    0.87
  -5  17  10   28.67    2.45
  -5  17  11    3.53    1.17
  -5  17  12    9.05    1.51
  17   5  12    8.52    1.54
  -5  17  13    3.10    1.04
  17   5  13    2.45    0.94
  -5  17  14    0.07    0.83
  17   5  14    0.96    0.86
  17   5  14    0.94    0.85
  -5  17  15    1.91    0.87
  17   5  15    2.97    0.90
  17   5  15    3.10    0.93
  17   5  16    0.35    0.61
  17   5  16    0.93    0.64
 -17  -6   0    1.51    1.96
 -17  -6  -1    3.88    1.89
 -17  -6   1    0.88    1.41
 -17  -6  -2    9.60    2.68
 -17  -6   2   13.17    3.14
 -17  -6  -3    2.64    1.69
 -17  -6   3    4.20    1.98
  -6  17   3    4.69    1.04
 -17  -6  -4   19.58    3.73
  -6  17   4   22.19    2.01
  -6  17   4   24.46    2.06
 -17  -6   4   23.66    4.17
 -17  -6   5   -0.68    1.50
 -17  -6  -5    1.46    1.44
  -6  17   5    0.70    0.76
  -6  17   5    0.61    0.73
  -6  17   6   15.83    1.81
 -17  -6   6   18.48    3.88
  -6  17   6   17.59    1.84
  -6  17   7   17.35    1.89
 -17  -6   7   17.58    3.80
  -6  17   7   20.90    2.01
 -17  -6   8    4.70    2.28
  -6  17   8    3.63    1.20
  -6  17   8    4.50    1.14
  -6  17   9   -0.48    0.89
  -6  17   9    2.07    0.78
  -6  17  10    0.28    0.82
  -6  17  11    0.67    0.87
  -6  17  12    1.91    1.05
  17   6  12    0.18    0.85
  -6  17  13   -0.14    0.83
  17   6  13    0.17    0.79
  -6  17  14    1.95    0.91
  17   6  14    2.62    0.99
  17   6  14    1.16    0.76
  17   6  15    0.06    0.67
  17   6  15    0.43    0.72
 -17  -7   0   10.77    2.91
 -17  -7  -1    3.48    1.94
 -17  -7   1   -0.07    1.43
 -17  -7  -2    9.52    2.56
 -17  -7   2   10.54    2.85
  -7  17   2   11.65    1.49
 -17  -7  -3    8.44    2.84
  -7  17   3    4.61    1.18
 -17  -7  -4   29.75    4.43
  -7  17   4   23.32    2.06
  -7  17   4   26.46    2.18
 -17  -7   4   22.94    4.20
 -17  -7   5    0.80    1.49
 -17  -7  -5    2.50    1.96
  -7  17   5    2.19    0.91
  -7  17   5   -0.30    0.64
 -17  -7  -6    4.75    2.15
 -17  -7   6    5.17    2.53
  -7  17   6    4.11    1.17
  -7  17   6    3.15    1.02
  -7  17   7    3.52    1.11
 -17  -7   7    0.17    1.36
  -7  17   7    2.89    1.04
  -7  17   8   20.14    1.95
  -7  17   8   18.85    2.06
  -7  17   9    3.77    1.13
  -7  17   9    4.82    1.12
  -7  17  10    4.21    1.16
  -7  17  11   -0.32    0.93
  -7  17  12    7.69    1.44
  17   7  12    7.64    1.41
  -7  17  13   -0.29    0.85
  17   7  13    0.27    0.81
  17   7  13    0.59    0.84
  17   7  14    0.54    0.68
  17   7  14    0.63    0.85
  17   7  15    1.33    0.74
  17   7  15    0.25    0.71
  -8  17   0   32.64    2.36
 -17  -8   0   35.39    4.92
 -17  -8  -1    8.95    2.81
 -17  -8   1   12.73    3.09
  -8  17  -1   12.59    1.57
  -8  17   1   10.88    1.49
  -8  17   2   28.03    2.22
 -17  -8  -2   30.11    4.42
 -17  -8   2   25.45    4.22
  -8  17  -2   27.99    2.26
 -17  -8  -3    0.46    1.81
  -8  17  -3    1.19    0.75
  -8  17   3    1.20    0.80
 -17  -8   3   -0.60    1.58
 -17  -8  -4    4.08    2.02
  -8  17   4    0.14    0.74
  -8  17  -4    1.63    0.81
 -17  -8   4    0.17    2.00
 -17  -8  -5   -2.88    1.90
  -8  17   5   -0.99    0.86
  -8  17   5   -0.13    0.67
 -17  -8  -6    5.34    3.01
 -17  -8   6    5.16    2.22
  -8  17   6    9.41    1.51
  -8  17   6    8.61    1.39
  -8  17   7    9.03    1.51
 -17  -8   7    6.55    2.41
  -8  17   7    7.83    1.43
  -8  17   8    9.54    1.60
  -8  17   8   12.25    1.57
  -8  17   9    2.30    1.10
  -8  17   9    2.56    0.88
  17   8  10    2.75    0.97
  -8  17  10    3.35    1.16
  -8  17  11   -0.60    0.87
  17   8  11    0.14    0.83
  -8  17  12    3.13    1.08
  17   8  12    1.57    0.89
  17   8  13    3.27    1.07
  17   8  13    2.35    1.01
  17   8  14    1.71    0.87
  17   8  14    2.55    0.89
  17   8  15    0.52    0.61
  17   8  15    1.15    0.73
  -9  17   0  138.15    4.71
 -17  -9   0  131.40    9.35
 -17  -9  -1    2.79    2.03
 -17  -9   1    2.05    1.72
  -9  17  -1   -0.65    0.81
  -9  17   1    0.83    0.74
 -17  -9  -2   20.58    3.79
 -17  -9   2   25.91    4.33
  -9  17  -2   22.93    2.07
  -9  17   2   22.07    2.05
 -17  -9  -3   14.81    3.28
 -17  -9   3   19.21    3.90
  -9  17   3   18.72    1.89
  -9  17  -3   16.46    1.76
 -17  -9  -4   24.85    4.30
  -9  17  -4   18.80    1.87
  -9  17   4   21.36    1.98
 -17  -9   4   21.06    3.97
 -17  -9  -5    9.86    2.91
  -9  17   5    6.11    1.18
 -17  -9   5    5.42    2.47
 -17  -9  -6    5.50    2.31
 -17  -9   6    5.77    2.58
  -9  17   6    2.99    1.04
  -9  17   7    1.32    0.95
  -9  17   7    0.78    0.80
  -9  17   8   15.46    1.92
  -9  17   8   14.31    1.71
  -9  17   9    4.87    1.22
  -9  17   9    5.62    1.16
  17   9  10   10.72    1.47
  -9  17  10   12.09    1.68
  17   9  10   15.44    1.80
  17   9  11    2.98    0.98
  17   9  11    0.18    0.73
  17   9  12   14.10    1.66
  17   9  12   13.03    1.69
  17   9  13    1.18    0.85
  17   9  13    1.79    0.84
  17   9  14    1.97    0.79
  17   9  14    2.78    0.90
  17   9  15   -0.88    0.62
  17   9  15    1.06    0.76
 -17 -10   0    2.51    2.01
 -10  17   0    2.24    0.92
 -17 -10  -1    4.58    2.25
 -17 -10   1    7.12    2.41
 -10  17   1    3.94    1.04
 -10  17  -1    2.88    0.95
 -17 -10  -2   -2.51    2.05
 -17 -10   2   -0.05    1.45
 -10  17  -2    0.09    0.85
 -10  17   2    0.21    0.84
 -17 -10  -3    2.44    1.73
 -10  17  -3    2.49    0.92
 -10  17   3    2.79    1.01
 -17 -10   3    0.24    1.60
 -17 -10  -4    2.81    1.95
 -10  17  -4    1.42    0.82
 -10  17   4    0.42    0.80
 -17 -10   4    3.75    2.19
 -10  17  -5   -0.20    0.66
 -10  17   5    0.05    0.75
 -17 -10   5   -1.64    1.69
 -17 -10   6   -2.92    2.07
 -10  17   6   -0.25    0.82
 -10  17   7    3.65    1.04
 -10  17   8   -0.75    0.84
  17  10   9    1.46    0.84
 -10  17   9   -0.11    0.68
  17  10  10    3.15    1.09
  17  10  11    1.77    0.90
  17  10  12   -0.53    0.94
  17  10  13   -0.22    0.86
  17  10  14    0.64    0.70
  17  10  15   -0.11    0.62
 -17 -11   0    3.82    2.03
 -11  17   0    0.32    0.73
 -17 -11  -1    7.95    2.63
 -11  17  -1    4.54    1.19
 -11  17   1    4.71    1.05
 -17 -11  -2    2.64    2.06
 -17 -11   2    4.37    2.15
 -11  17  -2    4.40    1.08
 -11  17   2    4.42    1.07
 -11  17   3    4.13    1.03
 -17 -11  -3    2.33    1.74
 -17 -11   3    1.53    1.81
 -11  17  -3    4.10    1.08
 -17 -11  -4   19.59    3.86
 -11  17  -4   13.90    1.68
 -11  17   4   12.34    1.60
 -17 -11   4   11.27    3.32
 -11  17   5    3.92    1.06
 -17 -11   5    7.44    2.73
 -11  17   6    5.74    1.25
 -11  17   7   -0.54    0.71
 -11  17   8    4.89    1.19
  17  11   8    4.08    1.11
  17  11   9    1.46    0.85
 -11  17   9    3.67    1.04
  17  11  10    1.00    0.73
  17  11  11    1.04    0.65
  17  11  11    0.09    0.89
  17  11  12    0.61    0.84
  17  11  13   -0.32    0.84
  17  11  14   -0.26    0.68
 -12  17   0    6.37    1.27
 -17 -12   0    9.83    2.89
 -17 -12  -1   25.42    4.43
 -17 -12   1   16.58    3.84
 -12  17  -1   16.83    1.86
 -12  17   1   16.76    1.87
 -17 -12  -2    3.19    2.30
 -17 -12   2    3.24    2.12
 -12  17  -2    1.22    0.83
 -12  17   2   -0.76    0.84
 -17 -12  -3   -0.89    1.89
 -17 -12   3    3.34    1.96
 -12  17  -3    3.66    1.01
 -12  17   3    3.11    1.03
 -12  17   4    4.27    1.20
 -17 -12   4    5.04    2.25
 -12  17   5    3.86    0.98
 -12  17   6    1.24    0.81
  17  12   7   10.14    1.54
 -12  17   7   10.23    1.46
  17  12   8    2.95    1.01
 -12  17   8    2.99    0.96
  17  12   9    5.37    1.20
 -12  17   9    6.91    1.26
  17  12  10    3.67    0.97
  17  12  10    4.69    1.18
  17  12  11    5.47    1.15
  17  12  11    2.52    0.99
  17  12  12    6.38    1.28
  17  12  13    1.48    0.82
  17  12  14    0.18    0.65
 -17 -13   0   22.46    4.18
 -13  17   0   21.80    2.09
 -17 -13  -1    8.92    2.97
 -17 -13   1    8.04    2.71
 -13  17  -1    5.10    1.17
 -13  17   1    5.49    1.24
 -13  17   2   13.71    1.75
 -17 -13  -2   18.06    3.94
 -17 -13   2   11.72    3.28
 -13  17  -2   17.29    1.89
 -17 -13  -3    3.62    2.03
 -13  17   3    4.57    1.16
 -13  17   4   10.63    1.56
  17  13   5   -0.27    0.78
 -13  17   5   -0.27    0.77
  17  13   6   -0.56    0.72
 -13  17   6   -0.55    0.84
  17  13   7    0.78    0.73
 -13  17   7    1.13    0.84
  17  13   8    0.11    0.74
 -13  17   8    0.49    0.79
  17  13   9    0.17    0.76
  17  13   9    0.00    0.76
  17  13  10    1.17    0.71
  17  13  10    0.35    0.75
  17  13  11    7.16    1.18
  17  13  11    5.11    1.22
  17  13  12    0.10    0.73
  17  13  13    0.69    0.74
  17  13  14    0.49    0.65
  17  14   0    9.34    1.50
 -14  17   0    9.27    1.48
 -14  17   1    0.96    0.84
  17  14  -1    1.40    0.84
  17  14   1    0.68    0.78
 -14  17  -1    0.40    0.70
  17  14   2   16.83    1.88
 -14  17   2   17.79    1.94
  17  14  -2   16.39    1.82
  17  14   3    4.83    1.10
 -14  17   3    3.63    1.11
  17  14   4    1.20    0.82
 -14  17   4    2.40    1.03
  17  14   5   -0.77    0.83
 -14  17   5   -0.54    0.75
  17  14   6    1.33    0.94
 -14  17   6    1.32    0.90
  17  14   7    2.59    1.01
 -14  17   7    1.54    0.80
  17  14   8   -0.63    0.84
  17  14   8    1.07    0.70
  17  14   9    5.21    1.09
  17  14   9    3.10    1.00
  17  14  10    3.99    1.06
  17  14  10    2.90    0.91
  17  14  11    0.61    0.77
  17  14  11    1.66    0.90
  17  14  12   -0.18    0.80
  17  14  13    2.77    0.89
  17  15   0   -0.17    0.78
 -15  17   0    0.88    0.77
  17  15  -1    0.59    0.81
  17  15   1    0.83    0.83
 -15  17   1    0.32    0.83
  17  15  -2    0.24    0.73
  17  15   2    1.43    0.84
 -15  17   2    1.64    0.94
  17  15   3    5.26    1.19
 -15  17   3    6.00    1.31
  17  15   4    5.63    1.27
 -15  17   4    4.11    1.11
  17  15   5    2.88    1.02
 -15  17   5    2.34    1.03
  17  15   6    3.83    1.09
  17  15   6    3.70    1.00
  17  15   7    1.03    0.70
  17  15   7    0.25    0.82
  17  15   8    1.41    0.85
  17  15   8    1.60    0.84
  17  15   9    0.34    0.67
  17  15   9    0.43    0.69
  17  15  10    0.97    0.84
  17  15  10    1.93    0.89
  17  15  11   -0.55    0.72
  17  15  11    1.16    0.79
  17  15  12    1.03    0.73
  17  15  13    1.29    0.70
  17  16   0   -0.22    0.83
  17  16  -1    1.80    0.93
  17  16   1    1.04    0.82
  17  16  -2    4.56    1.06
  17  16   2    4.42    1.18
  17  16   3    0.76    0.79
  17  16   4    2.93    1.00
  17  16   5    0.14    0.67
  17  16   6    4.04    1.11
  17  16   6    4.35    0.94
  17  16   7    2.51    1.01
  17  16   7    2.60    0.89
  17  16   8    2.32    0.97
  17  16   8    2.81    0.94
  17  16   9    3.30    0.91
  17  16   9    2.04    0.88
  17  16  10    3.83    0.98
  17  16  10    4.93    1.10
  17  16  11   -0.47    0.70
  17  16  11   -0.25    0.63
  17  16  12    1.89    0.81
  17  17   0    0.43    0.74
  17  17  -1    0.50    0.85
  17  17   1   -0.65    0.83
  17  17  -2    6.84    1.20
  17  17   2    5.30    1.20
  17  17   3    3.92    1.08
  17  17   4    0.42    0.73
  17  17   5    0.69    0.76
  17  17   6   -0.72    0.82
  17  17   7    0.46    0.67
  17  17   7    0.05    0.72
  17  17   8   -0.13    0.77
  17  17   8    0.51    0.79
  17  17   9    3.32    0.92
  17  17   9    3.35    0.85
  17  17  10    4.05    0.95
  17  17  10    2.71    0.93
  17  17  11    1.39    0.67
  17  17  11    2.11    0.75
  17  17  12    1.25    0.66
  17  18   0    4.72    1.10
  17  18  -1    3.06    0.97
  17  18   1    1.69    0.86
  17  18   2   12.07    1.62
  17  18  -2   14.09    1.58
  17  18   3    6.57    1.29
  17  18   4    2.24    0.93
  17  18   5    0.91    0.78
  17  18   6    3.69    1.03
  17  18   7    1.51    0.85
  17  18   8    1.79    0.88
  17  18   8    2.52    0.89
  17  18   9    1.83    0.78
  17  18   9    1.33    0.74
  17  18  10    2.05    0.74
  17  18  10    1.71    0.69
  17  18  11   -0.71    0.63
  17  18  11   -0.55    0.62
  16  18   0    3.86    1.12
  16  18  -1    2.41    1.02
  16  18   1    1.01    0.83
  16  18  -2    0.29    0.72
  16  18   2    0.10    0.74
  16  18   3    0.42    0.72
  16  18   4    9.78    1.54
  16  18   5    0.98    0.91
  16  18   6    3.08    1.00
  16  18   7    1.75    0.82
  16  18   8    3.80    0.98
  16  18   8    4.70    1.07
  16  18   9    1.59    0.80
  16  18   9    1.06    0.84
  16  18  10    3.75    0.94
  16  18  10    2.09    0.79
  16  18  11    1.27    0.71
  16  18  11    1.74    0.68
  16  18  12   -1.02    0.67
  15  18   0    7.97    1.37
  15  18  -1   -0.29    0.81
  15  18   1    0.31    0.74
  15  18  -2    1.79    0.87
  15  18   2    3.29    0.99
  15  18   3    1.16    0.95
  15  18   4    2.86    1.08
  15  18   5    2.14    0.99
  15  18   6    8.81    1.44
  15  18   7   -1.21    0.94
  15  18   7    0.54    0.61
  15  18   8   -0.46    0.76
  15  18   8    1.27    0.75
  15  18   9    0.77    0.73
  15  18   9    1.47    0.88
  15  18  10    5.49    1.08
  15  18  10    6.02    1.11
  15  18  11   -0.22    0.66
  15  18  11    1.07    0.79
  15  18  12   -0.10    0.61
  14  18   0   37.23    2.62
  14  18  -1    1.72    0.85
  14  18   1    1.77    0.94
  14  18  -2    0.94    0.76
  14  18   2    1.34    0.72
  14  18   3    3.48    1.07
  14  18   4   12.85    1.65
  14  18   5    8.49    1.39
  14  18   6    1.41    0.90
  14  18   7    2.66    0.89
  14  18   7    1.53    0.79
  14  18   8    9.10    1.44
  14  18   8    8.83    1.32
  14  18   9    2.63    0.97
  14  18   9    0.05    0.74
  14  18  10    3.39    0.98
  14  18  10    3.21    0.95
  14  18  11    4.12    1.01
  14  18  11    3.21    0.87
  14  18  12    4.08    0.91
  14  18  13   -0.01    0.58
  13  18   0   17.72    1.91
  13  18  -1    2.00    0.95
  13  18   1    3.91    1.14
  13  18  -2    6.49    1.22
  13  18   2    4.80    1.17
  13  18   3   16.30    1.83
  13  18   4    0.39    0.84
  13  18   5    6.78    1.30
  13  18   6    1.32    0.98
  13  18   7    0.58    0.72
  13  18   7    0.83    0.71
  13  18   8    1.01    0.74
  13  18   8    1.40    0.88
  13  18   9   12.63    1.61
  13  18   9   10.59    1.46
  13  18  10    0.64    0.75
  13  18  10    0.93    0.81
  13  18  11    0.35    0.78
  13  18  11   -0.58    0.68
  13  18  12   -0.02    0.69
  13  18  13    2.70    0.84
 -12 -18   0   10.06    3.00
  12  18   0   13.26    1.74
  12  18  -1    5.35    1.21
  12  18   1    5.23    1.18
 -12 -18  -1    7.71    2.81
 -12 -18   1    6.43    2.46
  12  18  -2    4.56    1.04
  12  18   2    2.48    0.97
  12  18   3   12.87    1.68
  12  18   4   24.61    2.18
  12  18   5    1.13    0.83
  12  18   6    1.06    0.69
  12  18   7    0.13    0.80
  12  18   7   -0.49    0.77
  12  18   8   11.57    1.56
  12  18   8   12.60    1.62
  12  18   9    2.08    0.91
  12  18   9    0.80    0.85
  12  18  10    5.81    1.19
  12  18  10    4.04    1.04
  12  18  11    0.37    0.81
  12  18  11    0.72    0.75
  12  18  12    6.09    1.14
  18 -12  12    5.66    1.12
  18 -12  13    1.27    0.69
  12  18  13   -0.83    0.77
  11  18   0    0.05    0.72
 -11 -18   0   -4.83    2.21
 -11 -18  -1    7.47    2.55
  11  18  -1    6.79    1.24
  11  18   1    6.24    1.18
 -11 -18   1   11.72    3.26
  11  18  -2    2.69    0.81
  11  18   2    2.02    1.03
 -11 -18   2    3.00    1.91
 -11 -18  -2    5.16    2.20
  11  18   3    2.78    0.95
 -11 -18  -3   -0.68    1.68
  11  18   4    0.72    0.78
 -11 -18   4   -1.59    1.74
  11  18   5   -1.13    0.96
  11  18   6    2.73    0.90
  11  18   6    5.91    1.18
  11  18   7    1.81    0.82
  11  18   7    2.55    0.95
  11  18   8   -0.06    0.80
  11  18   8    2.69    1.01
  11  18   9    1.24    0.78
  11  18   9    0.28    0.83
  11  18  10    1.16    0.83
  11  18  10    1.15    0.71
  11  18  11    0.35    0.76
  11  18  11    0.70    0.67
  11  18  12    0.46    0.76
  18 -11  12   -0.28    0.77
  18 -11  13   -1.24    0.73
  11  18  13   -0.40    0.76
  18 -11  14    0.54    0.54
  11  18  14    1.45    0.71
  10  18   0    0.28    0.81
 -10 -18   0    0.19    1.48
  10  18  -1    5.36    1.13
  10  18   1    4.62    1.08
 -10 -18   1    9.62    2.93
 -10 -18  -1    9.46    2.86
  10  18  -2    6.92    1.21
  10  18   2    4.50    1.04
 -10 -18   2    6.47    2.45
 -10 -18  -2    6.13    2.78
  10  18   3   10.02    1.47
 -10 -18   3   13.16    3.12
 -10 -18  -3   10.09    3.09
  10  18   4    0.53    0.77
 -10 -18   4    0.17    1.74
 -10 -18  -4   -0.62    1.88
  10  18   5    1.69    0.81
  10  18   6   15.32    1.69
  10  18   6   14.39    1.75
  10  18   7    9.70    1.46
  10  18   7   11.07    1.54
  10  18   8    3.63    1.06
  10  18   8    1.39    0.85
  10  18   9    2.57    0.96
  10  18   9    2.10    0.95
  10  18  10    1.62    0.94
  10  18  10    1.27    0.87
  10  18  11    3.70    1.08
  10  18  11    3.89    0.98
  10  18  12    0.41    0.81
  18 -10  12   -0.30    0.82
  10  18  13    0.48    0.80
  18 -10  13    0.18    0.69
  18 -10  14    1.45    0.68
  10  18  14    1.15    0.77
  -9 -18   0   24.66    4.28
   9  18   0   29.25    2.23
   9  18  -1    7.01    1.20
   9  18   1    5.03    1.11
  -9 -18   1    4.57    2.15
  -9 -18  -1    4.86    2.21
   9  18   2  155.62    5.12
   9  18  -2  161.26    5.00
  -9 -18  -2  159.70   10.66
  -9 -18   2  148.03   10.07
  -9 -18   3   26.15    4.35
   9  18   3   24.69    2.14
  -9 -18  -3   23.36    4.49
   9  18   4    1.51    0.80
  -9 -18   4   -1.10    1.47
   9  18   5    2.73    0.87
  -9 -18  -5    7.06    2.87
   9  18   6   69.34    3.39
   9  18   6   67.74    3.51
   9  18   7    2.41    1.00
   9  18   7    3.72    1.10
   9  18   8    8.35    1.41
   9  18   8    7.16    1.29
   9  18   9    5.66    1.27
   9  18   9    7.27    1.32
   9  18  10   23.85    2.12
   9  18  10   27.91    2.24
   9  18  11    0.94    0.82
   9  18  11    0.82    0.70
   9  18  12    2.19    0.90
   9  18  13   -0.45    0.74
  18  -9  13   -0.45    0.80
   9  18  14   11.57    1.38
  18  -9  14   12.91    1.43
   8  18   0   56.28    3.04
  -8 -18   0   50.63    5.78
   8  18  -1    3.94    1.02
   8  18   1    2.72    0.98
  -8 -18   1    2.62    2.25
  -8 -18  -1    6.03    2.41
   8  18   2    9.66    1.45
  -8 -18   2    6.22    2.15
  -8 -18  -2   12.00    3.28
   8  18  -2    8.83    1.37
   8  18   3    2.69    0.94
  -8 -18   3    6.22    2.42
  -8 -18  -3    4.47    2.34
   8  18   4    1.26    0.86
  -8 -18   4    3.80    1.76
  -8 -18  -4    6.30    2.88
   8  18   5    0.90    0.75
   8  18   6    1.96    0.87
   8  18   6    1.75    0.91
   8  18   7    0.59    0.82
   8  18   7    0.37    0.81
   8  18   8   14.59    1.72
   8  18   8   13.90    1.73
   8  18   9    0.42    0.80
   8  18   9   -0.50    0.85
   8  18  10    2.44    1.02
   8  18  10   -0.16    0.82
   8  18  11    6.42    1.27
   8  18  11    8.35    1.28
   8  18  12    1.27    0.87
   8  18  13    0.46    0.75
  18  -8  13    0.49    0.86
   8  18  14    0.69    0.79
  18  -8  14    0.49    0.70
  18  -8  15    0.56    0.61
   8  18  15    0.85    0.71
   7  18   0    8.35    1.27
  -7 -18   0    8.62    2.69
  -7 -18   1   12.87    2.97
   7  18  -1   17.12    1.66
   7  18   1   14.62    1.68
  -7 -18  -1   12.28    3.09
   7  18   2   33.15    2.41
   7  18  -2   33.69    2.35
  -7 -18  -2   39.37    5.34
  -7 -18   2   37.12    5.01
  -7 -18   3   14.89    3.30
   7  18   3   17.86    1.80
  -7 -18  -3   14.50    3.40
   7  18   4    1.95    0.85
   7  18   5    2.01    0.83
   7  18   6    4.80    1.11
   7  18   6    6.77    1.30
   7  18   7    3.19    1.02
   7  18   7    2.05    0.85
   7  18   8    3.63    1.07
   7  18   8    5.14    1.16
   7  18   9    8.78    1.44
   7  18   9   11.99    1.63
   7  18  10    7.32    1.34
   7  18  10    5.79    1.23
   7  18  11    2.02    0.99
   7  18  11    0.76    0.70
   7  18  12    1.08    0.79
   7  18  13    3.56    1.00
  18  -7  13    3.10    1.05
   7  18  14    0.55    0.71
  18  -7  14    0.29    0.80
  18  -7  15   -0.40    0.73
   7  18  15    0.58    0.70
  -6 -18   0   60.29    6.17
   6  18   0   56.26    2.98
  -6 -18   1    0.53    1.38
  -6 -18  -1    4.01    1.97
   6  18  -1    3.73    1.00
   6  18   1    1.24    0.77
  -6 -18   2    4.18    1.96
  -6 -18  -2    2.97    1.98
   6  18   2    2.77    0.94
  -6 -18   3   17.92    3.58
   6  18   3   13.75    1.62
   6  18   4    8.91    1.33
   6  18   5    1.95    0.88
 -18   6   6    0.62    1.41
   6  18   6    0.18    0.74
   6  18   6    0.42    0.81
   6  18   7    0.13    0.69
 -18   6   7    0.97    1.34
   6  18   7    1.68    0.93
   6  18   8   32.84    2.49
   6  18   8   30.43    2.39
   6  18   9    2.66    0.99
   6  18   9    2.41    0.95
   6  18  10    4.15    1.14
   6  18  10    7.20    1.33
   6  18  11   -0.07    0.84
   6  18  11    0.11    0.77
   6  18  12    8.77    1.44
   6  18  13    2.92    1.07
  18  -6  13    0.60    0.89
   6  18  14    0.77    0.77
  18  -6  14   -0.29    0.78
   6  18  15    2.23    0.82
  18  -6  15    0.66    0.69
  -5 -18   0    2.35    1.69
  -5 -18   1   25.61    3.91
   5  18   1   20.06    1.83
  -5 -18  -1   27.87    4.26
  -5 -18  -2   36.97    5.01
  -5 -18   2   34.72    4.56
   5  18   2   32.64    2.33
   5  18   3   24.71    2.07
   5  18   4    7.43    1.32
   5  18   5   16.25    1.68
 -18   5   5   16.00    3.16
   5  18   5   14.93    1.73
   5  18   6   38.99    2.59
 -18   5   6   38.21    5.05
   5  18   6   41.09    2.71
   5  18   7    3.29    0.95
   5  18   7    3.66    1.11
   5  18   8    7.99    1.40
   5  18   8    6.65    1.25
   5  18   9    3.54    1.06
   5  18   9    1.77    1.03
   5  18  10    4.90    1.24
   5  18  10    6.26    1.30
   5  18  11    1.24    0.91
   5  18  11    2.61    0.85
   5  18  12    0.23    0.82
   5  18  13    5.26    1.18
  18  -5  13    6.70    1.40
   5  18  14    3.98    1.01
  18  -5  14    5.10    1.21
   5  18  15    1.21    0.77
  18  -5  15    1.23    0.82
  -4 -18   0   77.10    6.68
  -4 -18  -1   10.87    2.75
  -4 -18   1   14.49    2.95
   4  18   2    3.91    1.06
   4  18   3   21.35    1.94
 -18   4   4    2.13    1.50
   4  18   4   -0.14    0.73
   4  18   5   26.12    2.08
   4  18   5   28.91    2.29
 -18   4   5   20.98    3.78
 -18   4   6   -0.92    1.48
   4  18   6    1.09    0.73
   4  18   6   -0.06    0.71
 -18   4   7    3.75    1.77
   4  18   7    2.03    0.92
   4  18   7    1.37    0.85
   4  18   8    4.97    1.18
   4  18   8    2.17    0.88
   4  18   9   -0.07    0.81
   4  18   9    0.47    0.78
   4  18  10    8.06    1.40
   4  18  10    9.26    1.40
   4  18  11   34.88    2.62
   4  18  11   39.06    2.55
   4  18  12    4.88    1.17
   4  18  13    1.90    0.98
  18  -4  13    3.67    1.16
   4  18  14    0.23    0.76
  18  -4  14    0.22    0.91
   4  18  15    2.95    0.91
  18  -4  15    2.61    0.86
  -3 -18   0    3.65    1.72
  -3 -18  -1   11.14    2.72
  -3 -18   1    4.93    1.67
 -18   3   3    0.82    1.44
   3  18   3    1.78    0.86
 -18   3   4   17.78    3.29
   3  18   4   19.80    1.93
   3  18   5    5.04    0.97
 -18   3   5    5.13    2.03
   3  18   5    8.00    1.26
   3  18   6   34.90    2.47
   3  18   6   28.18    2.22
 -18   3   6   27.90    4.52
 -18   3   7    7.25    2.76
   3  18   7   12.01    1.59
   3  18   7   11.13    1.53
 -18   3   8    0.28    1.36
   3  18   8    0.74    0.73
   3  18   8    0.54    0.83
   3  18   9    0.22    0.77
   3  18   9    1.34    0.84
   3  18  10   13.00    1.68
   3  18  10   11.46    1.57
   3  18  11    0.70    0.94
   3  18  12    4.95    1.23
   3  18  13    2.83    0.98
   3  18  14    9.70    1.46
  18  -3  14    8.79    1.43
   3  18  15    0.97    0.77
  18  -3  15    0.57    0.78
  -2 -18   0    7.56    2.13
  -2 -18  -1    2.01    1.76
 -18   2   2   -4.04    1.69
 -18   2   3    3.25    1.71
   2  18   3    3.81    1.02
 -18   2   4   28.04    4.10
   2  18   4   30.34    2.27
   2  18   5   -0.17    0.83
   2  18   5    1.45    0.80
   2  18   6    1.38    0.80
 -18   2   6    0.90    1.58
   2  18   6    2.04    0.82
   2  18   7    1.02    0.80
   2  18   7   -0.96    0.72
   2  18   8    1.18    0.71
   2  18   8   -0.28    0.76
   2  18   9    4.00    1.18
   2  18   9    3.37    1.05
   2  18  10   -0.33    0.76
   2  18  10    0.39    0.69
   2  18  11   -0.67    0.92
   2  18  12    1.10    0.90
   2  18  13    1.87    0.98
   2  18  14    0.58    0.83
  18  -2  14   -1.53    0.94
   2  18  15    0.41    0.78
  18  -2  15   -0.56    0.83
  18  -2  15   -1.00    0.65
 -18   1   1    0.22    1.09
 -18   1   2   11.85    2.69
   1  18   3   52.34    2.90
 -18   1   3   51.10    5.43
 -18   1   4    5.41    2.11
   1  18   4    5.88    1.20
 -18   1   5    1.73    1.31
   1  18   5    1.87    0.74
   1  18   5    1.83    0.88
 -18   1   6    1.75    1.61
   1  18   6   -0.84    0.92
   1  18   6    0.45    0.76
   1  18   7    1.92    0.96
   1  18   7    0.39    0.70
   1  18   8    1.72    0.96
 -18   1   8    1.25    1.54
   1  18   8    0.63    0.71
   1  18   9   13.41    1.71
   1  18   9   17.44    1.86
   1  18  10    0.67    0.86
   1  18  10    1.83    0.79
   1  18  11    1.17    0.86
   1  18  12    0.75    0.94
   1  18  13    3.17    1.09
  18  -1  13    3.42    1.25
   1  18  14    1.20    0.86
  18  -1  14    0.46    0.90
   1  18  15    0.20    0.75
  18  -1  15   -0.39    0.87
  18  -1  15    1.01    0.67
 -18   0   0  325.06   12.56
 -18   0   1    8.17    2.25
 -18   0   2   66.75    6.16
 -18   0   3   -0.38    1.23
   0  18   3   -1.29    0.93
   0  18   4  223.59    5.94
 -18   0   4  226.40   11.76
   0  18   5    0.64    0.74
 -18   0   5   -0.36    1.17
   0  18   5    0.07    0.71
 -18   0   6    2.04    1.59
   0  18   6    3.20    0.98
   0  18   6    0.39    0.76
 -18   0   7    3.11    2.31
   0  18   7    4.10    1.12
   0  18   7    3.02    0.99
   0  18   8   32.23    2.46
   0  18   8   31.43    2.41
 -18   0   8   32.96    5.13
   0  18   9    0.22    0.83
   0  18   9    0.83    0.72
   0  18  10    8.31    1.45
   0  18  10   10.07    1.44
   0  18  11    0.79    0.88
   0  18  12   39.72    2.74
   0  18  13    0.99    0.92
  18   0  13    0.83    0.86
   0  18  14   -0.12    0.87
  18   0  14   -0.14    0.84
   0  18  15    1.15    0.78
  18   0  15    2.35    0.92
  18   0  15    1.08    0.61
 -18  -1   0    8.08    2.38
 -18  -1  -1    0.02    1.20
 -18  -1   1    1.75    1.41
 -18  -1   2    7.12    2.08
 -18  -1   3   48.55    5.49
  -1  18   3   48.17    2.81
 -18  -1   4    4.03    2.04
  -1  18   4    5.18    1.20
  -1  18   5    2.13    0.90
 -18  -1   5    0.84    1.75
  -1  18   5   -0.03    0.75
  -1  18   6   -0.19    0.78
  -1  18   6   -0.48    0.81
 -18  -1   6   -0.24    1.11
  -1  18   7    0.03    0.73
  -1  18   7    0.24    0.73
  -1  18   8    0.24    0.75
 -18  -1   8   -2.18    1.76
  -1  18   8   -0.65    0.83
  -1  18   9   14.06    1.77
  -1  18   9   17.05    1.88
  -1  18  10    1.06    0.93
  -1  18  10    1.59    0.80
  -1  18  11    0.90    0.88
  -1  18  12    1.21    0.97
  -1  18  13    3.44    1.21
  18   1  13    2.08    0.98
  -1  18  14    0.18    0.79
  18   1  14   -0.59    0.86
  -1  18  15    0.45    0.76
  18   1  15    1.50    0.83
  18   1  15   -0.37    0.64
 -18  -2   0    6.72    1.99
 -18  -2  -1    1.68    1.38
 -18  -2   1   -0.48    1.20
 -18  -2   2    2.90    1.73
 -18  -2   3    2.34    1.67
  -2  18   3    3.70    1.05
 -18  -2   4   28.42    4.42
  -2  18   4   29.01    2.24
  -2  18   5    2.36    0.84
 -18  -2   5    1.72    1.76
  -2  18   5    1.65    0.86
  -2  18   6    1.98    0.89
  -2  18   6    1.76    0.86
  -2  18   7   -0.04    0.69
  -2  18   7   -0.73    0.88
 -18  -2   8   -0.37    1.60
  -2  18   8    1.80    0.99
  -2  18   8    0.11    0.74
  -2  18   9    2.77    1.05
  -2  18   9    3.19    1.02
  -2  18  10    1.59    0.97
  -2  18  10   -0.20    0.81
  -2  18  11    0.37    0.89
  -2  18  12    1.83    1.04
  -2  18  13    1.53    0.98
  18   2  13    0.42    0.89
  -2  18  14    0.67    0.85
  18   2  14   -0.60    0.90
  -2  18  15    0.50    0.79
  18   2  15   -0.48    0.74
  18   2  15   -0.30    0.65
 -18  -3   0    1.98    1.03
 -18  -3  -1   11.16    2.64
 -18  -3   1    8.89    2.44
 -18  -3   2   26.78    4.04
 -18  -3  -2   27.96    3.84
  -3  18   2   33.78    2.37
 -18  -3   3   -0.63    1.53
  -3  18   3    0.67    0.79
  -3  18   4   22.35    1.98
 -18  -3   4   18.08    3.69
  -3  18   4   22.39    2.03
  -3  18   5    8.07    1.32
 -18  -3   5    5.08    2.39
  -3  18   5    7.21    1.21
  -3  18   6   32.94    2.45
 -18  -3   6   35.92    5.24
  -3  18   6   31.81    2.38
  -3  18   7   12.50    1.66
  -3  18   7   10.65    1.52
 -18  -3   7   13.29    3.54
  -3  18   8   -0.96    0.82
  -3  18   8   -0.35    0.78
  -3  18   9    1.17    1.01
  -3  18   9   -0.88    0.78
  -3  18  10    9.48    1.57
  -3  18  10   12.10    1.54
  -3  18  11    1.75    1.03
  -3  18  12    5.43    1.29
  -3  18  13    4.90    1.25
  18   3  13    2.18    1.02
  -3  18  14    9.06    1.37
  18   3  14    8.44    1.38
  18   3  14   10.21    1.39
  -3  18  15    0.59    0.78
  18   3  15    0.49    0.74
  18   3  15    0.59    0.80
 -18  -4   0   69.39    6.26
 -18  -4  -1    5.81    1.87
 -18  -4   1    7.95    2.41
 -18  -4  -2   -1.21    1.45
  -4  18   2    0.55    0.73
 -18  -4   2   -0.97    1.50
 -18  -4  -3   21.37    3.54
  -4  18   3   23.16    2.03
 -18  -4   3   20.33    3.79
 -18  -4   4    0.30    1.38
  -4  18   4    0.82    0.73
  -4  18   4    2.58    0.91
  -4  18   5   29.16    2.29
 -18  -4   5   28.61    4.61
  -4  18   5   28.10    2.24
  -4  18   6    0.39    0.74
  -4  18   6    0.20    0.76
  -4  18   7    1.41    0.93
 -18  -4   7    0.34    1.36
  -4  18   7    1.06    0.83
  -4  18   8    2.74    1.00
  -4  18   8    2.43    0.92
  -4  18   9   -0.09    0.78
  -4  18   9    0.60    0.79
  -4  18  10    9.62    1.54
  -4  18  10   10.32    1.50
  -4  18  11   33.43    2.60
  -4  18  12    4.92    1.27
  -4  18  13    0.84    0.88
  18   4  13    1.73    0.97
  -4  18  14    1.57    0.89
  18   4  14   -0.66    0.86
  18   4  14    0.37    0.73
  -4  18  15    0.28    0.68
  18   4  15    2.24    0.86
  18   4  15    2.32    0.77
 -18  -5   0    3.63    1.93
  -5  18   0    1.37    0.95
 -18  -5  -1   17.09    3.24
 -18  -5   1   23.53    3.93
  -5  18   1   18.93    1.82
 -18  -5   2   32.76    4.65
  -5  18   2   32.03    2.31
 -18  -5  -2   31.77    4.33
  -5  18  -3   19.66    1.88
 -18  -5  -3   23.84    3.76
  -5  18   3   25.38    2.12
 -18  -5   3   19.35    3.76
 -18  -5   4    8.02    2.89
  -5  18   4    7.29    1.25
  -5  18   4    8.53    1.35
  -5  18   5   18.50    1.86
 -18  -5   5   17.70    4.01
  -5  18   5   17.64    1.89
  -5  18   6   36.50    2.57
 -18  -5   6   37.78    5.34
  -5  18   6   39.93    2.67
  -5  18   7    2.73    0.99
 -18  -5   7    1.40    1.47
  -5  18   7    2.73    0.92
  -5  18   8    8.87    1.49
  -5  18   8    7.36    1.33
  -5  18   9    3.94    1.21
  -5  18   9    2.16    0.88
  -5  18  10    5.18    1.24
  -5  18  11    2.06    1.04
  -5  18  12    2.38    1.11
  18   5  12    0.07    0.87
  -5  18  13    4.36    1.22
  18   5  13    3.57    1.07
  -5  18  14    5.63    1.18
  18   5  14    4.23    1.12
  18   5  14    5.84    1.13
  18   5  15    0.91    0.75
  18   5  15   -0.18    0.63
  -6  18   0   53.05    2.93
 -18  -6   0   51.98    5.72
 -18  -6  -1    2.96    1.52
 -18  -6   1    0.37    1.33
  -6  18  -1    2.15    0.85
  -6  18   1    1.85    0.94
 -18  -6  -2    4.72    1.82
 -18  -6   2    0.71    1.43
  -6  18  -2    2.43    1.02
  -6  18   2    1.65    0.88
  -6  18   3   12.64    1.56
 -18  -6  -3   11.57    2.83
  -6  18  -3   12.59    1.54
 -18  -6   3   11.81    2.89
  -6  18   4    9.08    1.35
  -6  18  -4    6.23    1.17
  -6  18   4    8.08    1.35
 -18  -6   4    8.82    2.99
  -6  18   5    1.46    0.77
  -6  18   5    2.57    0.98
  -6  18   6    1.02    0.77
 -18  -6   6    1.83    2.28
  -6  18   6    1.24    0.77
  -6  18   7    0.38    0.79
  -6  18   7   -0.22    0.72
  -6  18   8   29.29    2.44
  -6  18   8   30.65    2.39
  -6  18   9    4.89    1.27
  -6  18   9    2.21    0.95
  -6  18  10    6.11    1.35
  -6  18  11    0.38    0.83
  -6  18  12   10.87    1.58
  18   6  12   11.12    1.61
  -6  18  13    2.43    1.07
  18   6  13    2.33    0.97
  18   6  14    1.35    0.80
  18   6  14   -0.97    0.81
  18   6  15    2.35    0.78
  18   6  15    2.98    0.86
 -18  -7   0    9.81    2.85
  -7  18   0    8.51    1.38
 -18  -7  -1   15.17    3.36
 -18  -7   1   11.78    2.95
  -7  18  -1   13.75    1.64
  -7  18   1   14.29    1.66
 -18  -7   2   33.67    4.92
 -18  -7  -2   31.76    4.59
  -7  18  -2   30.46    2.32
  -7  18   2   32.58    2.39
 -18  -7  -3   11.84    2.74
  -7  18  -3   17.28    1.78
  -7  18   3   18.26    1.88
 -18  -7   3   14.78    3.34
 -18  -7  -4    2.30    1.50
  -7  18  -4    3.87    0.99
  -7  18   4    2.54    0.93
 -18  -7   4    2.09    1.99
 -18  -7   5    2.94    2.33
 -18  -7  -5    2.21    1.87
  -7  18   5    2.32    0.95
  -7  18   5    2.65    0.96
  -7  18   6    6.21    1.35
 -18  -7   6    5.71    2.36
  -7  18   6    4.87    1.17
  -7  18   7    3.71    1.15
  -7  18   7    1.94    0.91
  -7  18   8    3.27    1.11
  -7  18   8    4.12    1.08
  -7  18   9    9.76    1.59
  -7  18   9   11.03    1.51
  -7  18  10    5.79    1.29
  -7  18  11    1.34    0.93
  18   7  11   -0.14    0.76
  -7  18  12   -0.27    0.94
  18   7  12    0.15    0.77
  18   7  13    2.97    0.90
  18   7  13    3.35    1.02
  18   7  14    1.00    0.76
  18   7  14    2.41    0.93
  18   7  15    0.02    0.58
  18   7  15    0.99    0.68
  -8  18   0   52.10    3.03
 -18  -8   0   47.88    5.76
 -18  -8  -1    1.18    1.62
 -18  -8   1    2.77    1.93
  -8  18  -1    1.57    0.83
  -8  18   1    2.73    1.12
 -18  -8  -2    7.95    2.77
 -18  -8   2    8.21    2.82
  -8  18  -2    8.42    1.44
  -8  18   2    9.39    1.47
  -8  18   3    4.76    1.09
  -8  18  -3    3.13    0.98
 -18  -8  -4    1.60    1.61
  -8  18  -4    2.11    0.85
  -8  18   4    2.50    0.95
 -18  -8   4    3.09    2.37
 -18  -8   5   -1.28    1.74
 -18  -8  -5    2.74    1.76
  -8  18   5    3.40    1.12
  -8  18   6    3.38    1.16
 -18  -8   6    0.09    1.25
  -8  18   6    2.35    0.94
  -8  18   7    1.01    0.90
  -8  18   7    1.53    0.91
  -8  18   8   12.38    1.75
  -8  18   8   14.38    1.76
  -8  18   9    0.94    0.97
  -8  18   9    0.33    0.86
  18   8  10    0.68    0.76
  -8  18  10    0.46    0.94
  -8  18  11    5.60    1.29
  18   8  11    5.41    1.20
  18   8  12    1.04    0.78
  18   8  13    0.11    0.75
  18   8  13   -0.02    0.81
  18   8  14    0.60    0.62
  18   8  14    1.36    0.83
  18   8  15    0.03    0.56
  18   8  15    0.60    0.62
  -9  18   0   28.30    2.31
 -18  -9   0   30.77    4.68
 -18  -9  -1    4.85    2.11
  -9  18  -1    5.35    1.21
  -9  18   1    3.53    1.01
 -18  -9   2  151.57   10.35
  -9  18  -2  148.01    4.97
  -9  18   2  144.72    4.97
 -18  -9  -2  145.41    9.95
 -18  -9  -3   23.77    4.27
  -9  18   3   23.38    2.14
  -9  18  -3   22.39    2.04
 -18  -9   3   23.40    4.43
 -18  -9  -4   -2.01    1.67
  -9  18  -4   -0.51    0.84
  -9  18   4    0.04    0.73
 -18  -9   4    0.38    1.84
 -18  -9   5    3.54    2.02
 -18  -9  -5   -0.40    1.48
  -9  18   5    1.66    0.85
  -9  18   6   60.41    3.32
  -9  18   7    2.99    1.02
  -9  18   8    5.40    1.11
  -9  18   9    7.13    1.25
  18   9  10   24.13    2.06
  18   9  10   23.57    2.11
  18   9  11    1.74    0.84
  18   9  11    2.26    0.82
  18   9  12    1.83    0.78
  18   9  12    2.78    1.03
  18   9  13    0.58    0.70
  18   9  13   -0.52    0.82
  18   9  14   12.84    1.44
  18   9  14   12.75    1.26
 -18 -10   0   -2.43    1.97
 -10  18   0    1.28    0.83
 -18 -10  -1    4.50    2.19
 -18 -10   1    3.50    2.24
 -10  18   1    4.93    1.13
 -10  18  -1    4.75    1.19
 -18 -10  -2    8.65    2.77
 -18 -10   2    6.12    2.69
 -10  18  -2    5.81    1.25
 -10  18   2    5.50    1.21
 -18 -10  -3    7.50    2.70
 -10  18  -3    8.54    1.35
 -18 -10   3    4.43    2.35
 -10  18   3    8.25    1.38
 -10  18  -4    0.16    0.76
 -10  18   4    1.02    0.84
 -18 -10   4    2.50    1.79
 -18 -10  -5    0.35    1.57
 -10  18  -5    2.95    1.04
 -10  18   5    1.40    0.85
 -10  18   6   14.59    1.74
 -10  18   7   10.24    1.51
 -10  18   8    3.30    1.02
  18  10   9    3.97    1.13
 -10  18   9    2.12    0.90
  18  10  10    0.59    0.70
  18  10  11    3.36    0.94
  18  10  12   -0.23    0.90
  18  10  13   -0.87    0.83
  18  10  14    2.94    0.88
 -18 -11   0    0.95    1.55
 -11  18   0    0.66    0.74
 -18 -11  -1    8.24    2.74
 -18 -11   1    7.49    2.66
 -11  18  -1    8.27    1.52
 -11  18   1    6.08    1.26
 -18 -11  -2    1.82    1.69
 -18 -11   2    2.72    1.46
 -11  18  -2    1.91    0.95
 -11  18   2    1.76    0.92
 -18 -11  -3    0.71    1.53
 -11  18  -3    3.67    0.98
 -18 -11   3    4.41    2.14
 -11  18   3    3.12    1.01
 -18 -11  -4   -1.59    1.53
 -11  18  -4    0.46    0.88
 -11  18   4   -0.38    0.74
 -11  18   5   -0.03    0.76
 -11  18   6    3.34    0.94
 -11  18   7    0.94    0.82
  18  11   8    2.32    0.95
 -11  18   8    2.02    0.88
  18  11   9   -0.11    0.74
 -11  18   9    0.07    0.81
  18  11  10    0.87    0.76
  18  11  11    2.54    0.94
  18  11  11    0.90    0.81
  18  11  12    0.29    0.81
  18  11  13   -0.95    0.74
  18  11  14    0.41    0.62
 -18 -12   0    6.77    3.09
 -12  18   0   12.43    1.72
 -18 -12  -1    1.82    1.82
 -18 -12   1    6.31    2.52
 -12  18   1    3.10    1.02
 -12  18  -1    2.90    0.91
 -18 -12  -2    5.56    2.27
 -18 -12   2    3.63    1.83
 -12  18  -2    3.94    1.08
 -12  18   2    4.88    1.27
 -12  18  -3   15.27    1.77
 -12  18   3   13.10    1.72
 -12  18   4   22.36    2.14
 -12  18   5    2.09    0.92
 -12  18   6    2.93    1.04
  18  12   7    2.49    0.95
 -12  18   7   -0.21    0.71
 -12  18   8   11.20    1.51
  18  12   8   10.91    1.57
  18  12   9    0.86    0.81
 -12  18   9    1.84    0.82
  18  12  10    4.80    1.09
  18  12  10    3.18    1.11
  18  12  11    0.11    0.74
  18  12  11    1.28    0.87
  18  12  12    5.24    1.14
  18  12  13    0.11    0.65
 -13  18   0   19.26    2.02
 -13  18  -1    1.25    0.89
 -13  18   1    0.74    0.84
 -13  18  -2    7.27    1.40
 -13  18   2    6.37    1.30
 -13  18   3   13.08    1.72
 -13  18   4    0.06    0.79
  18  13   5    8.13    1.37
 -13  18   5    5.28    1.23
  18  13   6    0.98    0.81
 -13  18   6    0.37    0.72
  18  13   7    0.65    0.74
 -13  18   7   -0.28    0.70
  18  13   8    0.05    0.70
 -13  18   8    0.14    0.71
  18  13   9   10.61    1.56
  18  13   9   10.38    1.48
  18  13  10    0.23    0.72
  18  13  10    0.41    0.78
  18  13  11    0.25    0.69
  18  13  11    0.16    0.86
  18  13  12    0.86    0.77
  18  13  13    0.42    0.63
 -14  18   0   35.19    2.63
  18  14   0   35.71    2.54
  18  14  -1    0.71    0.77
  18  14   1    3.14    1.03
 -14  18  -1    1.69    0.98
 -14  18   1    2.38    0.99
  18  14  -2    1.19    0.90
  18  14   2    1.15    0.79
 -14  18   2    1.83    0.82
  18  14   3    3.83    1.05
 -14  18   3    3.77    1.12
  18  14   4   11.54    1.63
 -14  18   4   11.10    1.57
 -14  18   5    9.31    1.45
  18  14   5   10.59    1.59
  18  14   6    0.51    0.76
 -14  18   6    1.17    0.90
  18  14   7    1.42    0.85
 -14  18   7    0.98    0.80
  18  14   7    2.46    0.90
  18  14   8    7.52    1.35
  18  14   8    7.94    1.36
  18  14   9    1.78    0.81
  18  14   9    1.22    0.77
  18  14  10    2.75    0.92
  18  14  10    3.57    1.00
  18  14  11    1.65    0.77
  18  14  11    4.42    1.04
  18  14  12    6.68    1.15
  18  14  13    0.30    0.64
  18  15   0    7.28    1.33
  18  15  -1    1.06    0.80
  18  15   1    0.98    0.80
 -15  18   1    1.34    0.84
  18  15  -2    2.47    0.93
  18  15   2    2.02    0.89
 -15  18   2    2.85    1.08
  18  15   3    0.91    0.91
 -15  18   3    0.88    0.79
  18  15   4    1.92    0.97
 -15  18   4    2.34    0.96
  18  15   5    1.47    0.79
 -15  18   5    2.16    0.83
  18  15   6    8.37    1.39
  18  15   6   11.08    1.45
  18  15   7    0.60    0.81
  18  15   7   -0.58    0.79
  18  15   8    1.72    0.89
  18  15   8    0.20    0.72
  18  15   9   -0.53    0.79
  18  15   9    1.00    0.85
  18  15  10    6.02    1.15
  18  15  10    5.76    1.17
  18  15  11   -0.14    0.66
  18  15  11    3.65    0.87
  18  15  12    0.11    0.62
  18  16   0    3.30    1.10
  18  16  -1    1.35    0.80
  18  16   1    1.30    0.80
  18  16  -2   -0.27    0.80
  18  16   2    0.07    0.81
  18  16   3    0.29    0.72
  18  16   4    8.60    1.36
  18  16   5    0.09    0.72
  18  16   6    1.48    0.86
  18  16   7    0.81    0.68
  18  16   7    1.17    0.72
  18  16   8    5.38    1.11
  18  16   8    5.28    1.08
  18  16   9    0.64    0.76
  18  16   9   -0.14    0.68
  18  16  10    1.23    0.77
  18  16  10    1.30    0.75
  18  16  11    1.15    0.69
  18  16  11    0.99    0.64
  18  16  12   -0.06    0.58
  18  17   0    3.24    1.00
  18  17  -1    2.97    1.04
  18  17   1    2.57    0.97
  18  17  -2   13.23    1.60
  18  17   2   11.91    1.62
  18  17   3    3.47    1.09
  18  17   4    2.46    1.06
  18  17   5    1.58    0.89
  18  17   6    4.21    1.07
  18  17   7    1.38    0.85
  18  17   8    3.58    1.01
  18  17   8    0.87    0.78
  18  17   9    0.70    0.72
  18  17   9    1.75    0.69
  18  17  10    1.83    0.75
  18  17  10    1.41    0.75
  18  17  11   -0.36    0.58
  18  17  11    0.63    0.62
  18  18   0   30.32    2.31
  18  18  -1    0.72    0.76
  18  18   1    1.21    0.76
  18  18  -2    3.22    0.95
  18  18   2    2.28    0.94
  18  18   3    6.13    1.20
  18  18   4   11.06    1.53
  18  18   5    1.45    0.78
  18  18   6   -1.17    0.85
  18  18   7    1.15    0.81
  18  18   8   10.42    1.41
  18  18   8   15.12    1.42
  18  18   9   -0.57    0.56
  18  18   9    0.08    0.64
  18  18  10    1.08    0.66
  18  18  10    1.25    0.60
  18  19   0    0.66    0.87
  18  19  -1    4.35    1.09
  18  19   1    3.48    1.00
  18  19  -2    0.08    0.76
  18  19   2   -0.38    0.81
  18  19   3    4.94    1.11
  18  19   4    0.74    0.79
  18  19   5    0.19    0.75
  18  19   6    0.72    0.73
  18  19   7   -0.06    0.69
  18  19   8   -0.10    0.66
  18  19   9    1.01    0.68
  18  19  10    0.10    0.49
  18  19  10   -0.25    0.58
  17  19   0   -0.33    0.79
  17  19  -1    0.96    0.80
  17  19   1    0.98    0.74
  17  19  -2   -0.09    0.71
  17  19   2    1.48    0.84
  17  19   3    3.47    1.00
  17  19   4    2.42    0.92
  17  19   5    0.60    0.66
  17  19   6    1.73    0.90
  17  19   7   -0.44    0.82
  17  19   8    0.70    0.74
  17  19   9    0.97    0.68
  17  19   9    0.61    0.68
  17  19  10   -0.81    0.62
  17  19  10    0.12    0.60
  16  19   0   -0.89    0.81
  16  19  -1    6.00    1.11
  16  19   1    7.29    1.30
  16  19  -2    5.79    1.13
  16  19   2    5.10    1.14
  16  19   3   -0.67    0.91
  16  19   4    0.52    0.69
  16  19   5    0.28    0.71
  16  19   6    6.30    1.24
  16  19   7   -0.04    0.75
  16  19   8    0.24    0.62
  16  19   8    1.30    0.81
  16  19   9    4.20    0.91
  16  19   9    3.11    0.88
  16  19  10    0.09    0.63
  16  19  10    1.48    0.72
  16  19  11   -0.11    0.54
  16  19  11    1.32    0.64
  15  19   0   12.10    1.58
  15  19  -1    1.54    0.79
  15  19   1    3.43    1.02
  15  19  -2    6.99    1.21
  15  19   2    6.90    1.33
  15  19   3   -0.09    0.78
  15  19   4   18.68    1.94
  15  19   5    5.74    1.18
  15  19   6   14.39    1.73
  15  19   7   -0.43    0.79
  15  19   8   14.54    1.54
  15  19   8   14.84    1.66
  15  19   9    3.58    0.93
  15  19   9    1.92    0.89
  15  19  10    0.31    0.63
  15  19  10    0.75    0.77
  15  19  11    1.13    0.63
  15  19  11    2.79    0.81
  15  19  12    0.66    0.55
  14  19   0    4.21    1.13
  14  19  -1    6.20    1.22
  14  19   1    8.38    1.39
  14  19  -2    2.65    0.91
  14  19   2    1.26    0.89
  14  19   3    0.54    0.79
  14  19   4    3.01    1.00
  14  19   5    2.69    1.02
  14  19   6    1.58    0.84
  14  19   7    1.46    0.97
  14  19   8    2.65    0.94
  14  19   8    0.77    0.79
  14  19   9    0.55    0.75
  14  19   9    0.08    0.72
  14  19  10    0.04    0.68
  14  19  10    0.63    0.74
  14  19  11    3.77    0.92
  14  19  11    5.94    1.02
  14  19  12    0.87    0.65
  13  19   0   57.29    3.21
  13  19  -1    0.43    0.73
  13  19   1    1.66    0.97
  13  19  -2    5.08    1.15
  13  19   2    2.89    1.02
  13  19   3    1.87    0.96
  13  19   4   33.29    2.53
  13  19   5    2.50    0.96
  13  19   6    0.81    0.75
  13  19   7    3.05    1.05
  13  19   7    2.52    0.92
  13  19   8   20.68    1.91
  13  19   8   18.80    1.91
  13  19   9    2.95    1.00
  13  19   9    2.86    0.94
  13  19  10    5.15    1.19
  13  19  10    4.16    1.03
  13  19  11    0.94    0.73
  13  19  11    3.58    0.93
  13  19  12   14.66    1.43
  12  19   0    2.88    1.04
  12  19  -1    1.79    0.73
  12  19   1    0.63    0.78
  12  19  -2   26.58    2.18
  12  19   2   22.48    2.10
  12  19   3   20.92    2.03
  12  19   4    3.68    1.15
  12  19   5    1.17    0.76
  12  19   6   15.93    1.82
  12  19   7    1.46    0.93
  12  19   7    3.21    0.93
  12  19   8    7.11    1.29
  12  19   8    5.42    1.19
  12  19   9    1.85    0.90
  12  19   9    1.50    0.88
  12  19  10   25.37    2.08
  12  19  10   27.77    2.14
  12  19  11    1.34    0.79
  12  19  11    1.79    0.78
  12  19  12    0.81    0.67
  19 -12  12    0.89    0.74
  12  19  13    0.21    0.62
 -11 -19   0   21.36    4.44
  11  19   0   32.76    2.42
  11  19  -1    0.81    0.83
  11  19   1    0.10    0.73
 -11 -19   1    0.68    1.59
  11  19   2    6.16    1.10
  11  19  -2    8.56    1.31
  11  19   3    4.33    1.11
  11  19   4    0.07    0.84
  11  19   5    2.65    1.04
  11  19   6    6.70    1.27
  11  19   7   -0.42    0.73
  11  19   7    0.53    0.74
  11  19   8    7.73    1.32
  11  19   8    5.05    1.15
  11  19   9    0.67    0.77
  11  19   9    1.54    0.81
  11  19  10    1.65    0.94
  11  19  10   -0.42    0.79
  11  19  11    1.49    0.82
  11  19  11    2.18    0.78
  11  19  12   -0.96    0.81
  19 -11  12    0.55    0.70
  19 -11  13    0.55    0.65
  11  19  13    0.47    0.64
  10  19   0   -0.73    0.87
 -10 -19   0    2.71    1.86
  10  19  -1    6.17    1.26
  10  19   1    6.02    1.24
 -10 -19   1   10.05    2.90
  10  19  -2   34.74    2.43
  10  19   2   31.29    2.41
 -10 -19  -2   40.55    5.68
 -10 -19   2   38.73    5.27
  10  19   3    1.34    0.75
 -10 -19   3   -0.91    1.34
  10  19   4    1.54    0.88
  10  19   5    2.85    0.99
  10  19   6   23.40    2.18
  10  19   7   -0.29    0.69
  10  19   7   -0.45    0.67
  10  19   8    1.46    0.79
  10  19   8    0.97    0.75
  10  19   9    1.85    0.84
  10  19   9    2.57    0.97
  10  19  10   12.18    1.53
  10  19  10   12.33    1.54
  10  19  11   -0.36    0.87
  10  19  11   -0.09    0.71
  10  19  12   -1.48    0.91
  19 -10  12    1.71    0.86
  10  19  13    0.56    0.73
  19 -10  13    0.49    0.69
  19 -10  14    4.67    0.88
  10  19  14    6.86    1.01
   9  19   0   -0.33    0.79
  -9 -19   0    4.52    2.17
  -9 -19   1    7.92    2.78
   9  19  -1   14.66    1.66
   9  19   1   12.75    1.57
  -9 -19  -1   19.62    3.92
   9  19   2    0.86    0.93
  -9 -19  -2    0.38    1.39
   9  19  -2    1.17    0.72
   9  19   3   12.14    1.61
  -9 -19   3    6.58    1.94
  -9 -19  -3    8.05    2.73
   9  19   4    5.29    1.11
  -9 -19  -4    7.82    2.80
   9  19   5   11.56    1.57
   9  19   6   18.06    1.97
   9  19   7    9.35    1.44
   9  19   7    7.17    1.34
   9  19   8    9.37    1.42
   9  19   8    9.70    1.46
   9  19   9    8.21    1.35
   9  19   9    9.09    1.40
   9  19  10    3.45    1.05
   9  19  10    1.86    0.87
   9  19  11   10.31    1.50
   9  19  11   10.51    1.37
   9  19  12    4.19    1.09
   9  19  13    0.28    0.69
  19  -9  13   -0.02    0.70
  19  -9  14    2.57    0.78
   9  19  14    2.11    0.80
  -8 -19   0   -5.13    2.27
   8  19   0    0.15    0.68
  -8 -19   1    3.85    1.94
  -8 -19  -1    5.61    2.97
   8  19  -1    2.59    0.99
   8  19   1    3.89    1.11
   8  19   2    3.27    1.00
  -8 -19  -2    1.39    1.38
   8  19  -2    3.53    1.00
  -8 -19  -3   40.44    5.53
   8  19   3   38.83    2.68
  -8 -19   3   38.12    5.19
  -8 -19  -4    1.71    1.70
   8  19   4    0.06    0.83
   8  19   5   24.90    2.20
   8  19   6    3.59    0.94
   8  19   6    3.06    1.01
   8  19   7    3.25    0.99
   8  19   7    5.50    1.22
   8  19   8    1.98    0.93
   8  19   8    1.44    0.85
   8  19   9    8.59    1.39
   8  19   9    7.55    1.28
   8  19  10    0.29    0.86
   8  19  10    1.96    0.80
   8  19  11    2.05    0.92
   8  19  11    3.00    0.95
   8  19  12    0.57    0.83
   8  19  13    1.81    0.80
  19  -8  13    2.20    0.92
   8  19  14    1.06    0.72
  19  -8  14    0.04    0.65
   7  19   0   29.16    2.28
  -7 -19   0   34.81    5.09
  -7 -19   1    8.83    2.90
  -7 -19  -1    6.31    2.27
   7  19  -1    7.63    1.27
   7  19   1    7.08    1.25
  -7 -19   2    3.14    2.06
  -7 -19  -2    3.26    1.92
   7  19  -2    1.27    0.88
   7  19   2    2.43    0.99
  -7 -19  -3   12.00    3.22
   7  19   3    5.83    1.20
  -7 -19  -4    0.54    1.99
   7  19   4    0.06    0.76
   7  19   5    7.08    1.25
   7  19   6    4.99    1.11
   7  19   6    3.26    1.10
   7  19   7    2.49    1.03
   7  19   7    3.33    1.05
   7  19   8    7.08    1.32
   7  19   8    5.27    1.17
   7  19   9    1.02    0.85
   7  19   9    0.88    0.88
   7  19  10    0.00    0.86
   7  19  10    0.52    0.75
   7  19  11    7.06    1.32
   7  19  11    5.70    1.07
   7  19  12    1.58    0.83
   7  19  13   -0.21    0.79
  19  -7  13   -1.37    0.88
   7  19  14    0.43    0.75
  19  -7  14    0.57    0.79
   6  19   0   70.61    3.45
  -6 -19   0   78.68    7.26
  -6 -19  -1    0.62    1.58
   6  19  -1    1.60    0.96
   6  19   1    2.11    1.04
   6  19  -2  112.35    4.23
   6  19   2  116.03    4.41
  -6 -19  -2  111.54    8.77
  -6 -19   2  126.87    8.94
   6  19   3   29.18    2.29
  -6 -19  -3   27.36    4.52
   6  19   4    2.72    0.97
   6  19   5    1.54    0.85
   6  19   6   54.68    3.03
   6  19   6   49.55    3.03
   6  19   7   13.24    1.62
   6  19   7   10.63    1.55
   6  19   8   13.81    1.69
   6  19   8   16.62    1.85
   6  19   9    1.63    0.96
   6  19   9    1.48    0.96
   6  19  10   22.38    2.10
   6  19  10   23.22    2.06
   6  19  11    6.44    1.34
   6  19  11    8.30    1.31
   6  19  12    2.55    0.98
   6  19  13   -0.06    0.74
  19  -6  13    0.77    0.83
   6  19  14    6.35    1.12
  19  -6  14    5.78    1.11
   5  19   0   88.20    3.81
  -5 -19   0   93.80    7.75
  -5 -19   1   13.90    3.02
  -5 -19  -1   11.65    3.03
   5  19  -1   10.62    1.49
   5  19   1    9.82    1.43
  -5 -19  -2    5.38    2.28
   5  19  -2    5.87    1.22
   5  19   2    6.12    1.21
  -5 -19  -3   -0.65    1.72
   5  19   3    3.45    1.05
   5  19   4    8.38    1.35
   5  19   5   28.37    2.27
   5  19   6    9.42    1.44
   5  19   6    7.10    1.31
   5  19   7    5.27    1.17
   5  19   7    4.54    1.10
   5  19   8    5.99    1.26
   5  19   8    5.63    1.21
   5  19   9    1.42    0.87
   5  19   9    4.21    1.06
   5  19  10    0.71    0.76
   5  19  10    1.88    0.91
   5  19  11    8.65    1.43
   5  19  11    9.07    1.32
   5  19  12    3.52    1.08
   5  19  13    0.42    0.74
  19  -5  13   -0.77    1.00
   5  19  14    0.50    0.79
  19  -5  14    1.26    0.85
   5  19  15    0.98    0.69
  19  -5  15   -0.01    0.67
  -4 -19   0    5.60    2.14
   4  19   0    8.19    1.40
   4  19  -1    4.79    1.00
   4  19   1    5.04    1.06
   4  19  -2  105.10    4.03
   4  19   2   99.84    4.08
   4  19   3    1.58    0.84
   4  19   4    2.50    1.06
   4  19   5    0.60    0.75
 -19   4   5   -2.23    2.25
   4  19   6   29.87    2.30
 -19   4   6   35.75    5.14
   4  19   6   31.53    2.41
   4  19   7    2.92    1.03
 -19   4   7    3.13    1.56
   4  19   7    2.28    0.93
   4  19   8    0.93    0.78
   4  19   8    1.39    0.83
   4  19   9    2.21    0.87
   4  19   9    1.43    0.83
   4  19  10   12.46    1.70
   4  19  10   11.18    1.50
   4  19  11    1.68    0.88
   4  19  11    3.43    1.03
   4  19  12    3.76    1.12
   4  19  13   -0.04    0.78
  19  -4  13    0.13    0.84
   4  19  14   13.59    1.51
  19  -4  14   11.85    1.52
   4  19  15   -0.13    0.62
  19  -4  15    0.10    0.65
   3  19   0   42.62    2.64
  -3 -19   0   49.04    5.40
  -3 -19  -1    4.02    1.78
   3  19  -1    2.07    0.82
   3  19   1    1.86    0.88
  -3 -19  -2   41.31    5.30
   3  19   2   39.08    2.61
   3  19  -2   36.57    2.46
   3  19   3   13.06    1.62
 -19   3   4  181.89   10.49
   3  19   4  178.43    5.44
   3  19   5   15.44    1.79
   3  19   5   14.02    1.60
 -19   3   5   16.42    3.88
   3  19   6    7.47    1.35
 -19   3   6   10.25    3.28
   3  19   6    7.93    1.36
 -19   3   7    1.97    1.82
   3  19   7    3.52    1.06
   3  19   7    2.79    0.99
   3  19   8   19.04    1.92
   3  19   8   19.46    1.96
   3  19   9    6.45    1.28
   3  19   9    7.19    1.34
   3  19  10    4.31    1.15
   3  19  10    6.84    1.24
   3  19  11    0.32    0.84
   3  19  11   -1.27    0.75
   3  19  12   14.37    1.71
   3  19  13    2.90    1.08
  19  -3  13    2.51    1.09
   3  19  14    1.50    0.86
  19  -3  14   -0.28    0.80
   3  19  15    0.66    0.67
  19  -3  15    1.88    0.82
   2  19   0    4.50    1.13
   2  19   1   15.60    1.68
   2  19  -1   17.92    1.78
  -2 -19  -1   17.20    3.04
   2  19  -2    6.42    1.26
   2  19   2    5.12    1.14
   2  19   3    5.62    1.17
 -19   2   3    8.19    2.66
 -19   2   4    9.33    2.84
   2  19   4   12.17    1.62
   2  19   5   29.89    2.23
 -19   2   5   29.70    4.52
   2  19   5   30.59    2.36
   2  19   6    0.47    0.76
   2  19   6    0.53    0.85
   2  19   7    0.06    0.77
   2  19   7    0.64    0.71
   2  19   8    1.37    0.82
   2  19   8    0.86    0.95
   2  19   9    0.00    0.75
   2  19   9    1.70    0.90
   2  19  10    1.52    0.96
   2  19  10    0.00    0.77
   2  19  11    4.24    1.20
   2  19  11    5.40    1.09
   2  19  12    1.44    1.01
   2  19  13    6.14    1.25
  19  -2  13    5.08    1.27
   2  19  14   -0.16    0.72
  19  -2  14   -0.17    0.82
   2  19  15   -0.24    0.65
  19  -2  15   -0.57    0.77
  19  -2  15   -0.06    0.55
   1  19   0   67.13    3.31
   1  19  -1    1.57    0.89
   1  19   1    3.08    0.94
   1  19  -2    3.47    0.92
   1  19   2    4.24    0.94
 -19   1   3    6.04    2.19
   1  19   3    3.06    1.06
   1  19   4   17.98    1.82
 -19   1   4   15.34    3.50
   1  19   5    0.52    0.71
   1  19   5    1.25    0.90
   1  19   6    4.02    1.08
 -19   1   6    4.19    2.22
   1  19   6    2.62    0.89
   1  19   7   15.80    1.79
   1  19   7   13.85    1.70
 -19   1   7   11.31    3.13
   1  19   8    7.14    1.35
   1  19   8    7.58    1.37
   1  19   9    6.45    1.29
   1  19   9    8.32    1.43
   1  19  10    4.39    1.13
   1  19  10    5.50    1.13
   1  19  11    2.22    0.98
   1  19  12    8.98    1.45
   1  19  13    1.49    0.93
  19  -1  13    1.24    0.95
   1  19  14    0.99    0.81
  19  -1  14   -0.02    0.84
   1  19  15    0.00    0.65
  19  -1  15   -0.82    0.78
  19  -1  15    1.41    0.66
   0  19   0   -0.43    0.70
 -19   0   1    9.88    2.47
   0  19  -1    7.49    1.23
   0  19   1    7.99    1.29
 -19   0   2    1.99    1.62
   0  19  -2    1.54    0.86
   0  19   2    2.23    0.86
   0  19   3   72.75    3.46
 -19   0   3   76.11    6.86
   0  19   4   15.86    1.73
 -19   0   4   20.98    3.97
   0  19   5   56.62    3.03
   0  19   5   54.22    3.07
 -19   0   5   47.64    5.81
 -19   0   6   18.97    3.85
   0  19   6   17.67    1.86
   0  19   6   17.51    1.87
   0  19   7    0.68    0.80
   0  19   7    1.67    0.93
   0  19   8    2.45    1.01
   0  19   8    3.19    1.06
   0  19   9    4.32    1.19
   0  19   9    4.11    1.01
   0  19  10    2.24    1.00
   0  19  10    2.67    0.92
   0  19  11    3.87    1.15
   0  19  12    6.48    1.35
   0  19  13    4.35    1.18
  19   0  13    3.04    1.13
   0  19  14    1.93    0.89
  19   0  14    1.75    0.88
   0  19  15    6.39    1.07
  19   0  15    4.70    1.01
  19   0  15    4.14    0.82
 -19  -1   0   73.61    6.38
  -1  19   0   69.16    3.36
 -19  -1   1    3.51    2.05
  -1  19  -1    2.65    0.92
  -1  19   1    1.14    0.70
 -19  -1   2    2.66    1.61
  -1  19  -2    2.96    1.00
  -1  19   2    3.70    0.95
 -19  -1   3    3.26    1.93
  -1  19   3    4.05    1.01
 -19  -1   4   12.50    3.12
  -1  19   4   18.42    1.88
  -1  19   5   -0.30    0.77
  -1  19   5    0.05    0.74
  -1  19   6    4.78    1.06
  -1  19   6    5.98    1.25
 -19  -1   6    7.34    2.66
  -1  19   7   14.01    1.68
 -19  -1   7   12.84    3.30
  -1  19   7   11.18    1.47
  -1  19   8    6.39    1.28
  -1  19   8    8.39    1.41
  -1  19   9    6.45    1.31
  -1  19   9    6.45    1.21
  -1  19  10    3.38    1.09
  -1  19  10    3.87    1.02
  -1  19  11    2.23    1.03
  -1  19  12    7.89    1.45
  -1  19  13    2.32    1.02
  19   1  13    1.04    0.93
  -1  19  14    0.76    0.79
  19   1  14    1.03    0.84
  -1  19  15    0.00    0.70
  19   1  15   -0.46    0.70
  19   1  15    0.58    0.60
  -2  19   0    5.86    1.21
 -19  -2   0    6.54    2.18
  -2  19  -1   15.25    1.72
  -2  19   1   15.37    1.67
 -19  -2   1   16.68    3.23
 -19  -2   2    4.26    1.86
  -2  19  -2    5.97    1.19
  -2  19   2    6.57    1.24
 -19  -2   3    7.31    2.00
  -2  19  -3    5.30    1.18
  -2  19   3    6.03    1.15
  -2  19   4   12.58    1.66
 -19  -2   4    8.09    2.55
  -2  19   4   11.11    1.60
  -2  19   5   31.84    2.36
 -19  -2   5   29.06    4.64
  -2  19   5   32.22    2.47
  -2  19   6    1.51    0.85
  -2  19   6    0.02    0.81
 -19  -2   7   -1.48    1.54
  -2  19   7   -0.53    0.88
  -2  19   7   -0.93    0.82
  -2  19   8    0.43    0.79
  -2  19   8    2.15    0.98
  -2  19   9    1.15    0.86
  -2  19   9    2.06    0.90
  -2  19  10    0.88    0.91
  -2  19  10    1.60    0.86
  -2  19  11    4.76    1.24
  -2  19  12    2.49    1.05
  -2  19  13    6.96    1.31
  19   2  13    5.26    1.19
  -2  19  14    0.61    0.82
  19   2  14   -1.21    0.89
  -2  19  15    0.12    0.70
  19   2  15    0.25    0.69
  19   2  15   -0.39    0.67
 -19  -3   0   40.35    4.86
  -3  19   0   41.88    2.63
 -19  -3  -1    3.54    1.74
  -3  19  -1    3.18    1.05
  -3  19   1    2.36    0.78
 -19  -3   1    1.90    1.77
 -19  -3   2   36.57    4.94
  -3  19  -2   37.80    2.56
  -3  19   2   38.48    2.57
 -19  -3   3   15.39    3.27
  -3  19  -3   12.79    1.59
  -3  19   3   14.95    1.76
  -3  19   4  181.36    5.33
 -19  -3   4  190.08   11.39
  -3  19   4  175.78    5.43
  -3  19   5   13.94    1.72
 -19  -3   5   13.18    3.30
  -3  19   5   15.55    1.82
  -3  19   6    9.53    1.47
 -19  -3   6    8.76    2.96
  -3  19   6    8.62    1.45
  -3  19   7    3.89    1.14
  -3  19   7    1.81    0.81
  -3  19   8   17.94    1.94
  -3  19   8   18.75    1.94
  -3  19   9    6.86    1.35
  -3  19   9    8.35    1.43
  -3  19  10    5.48    1.26
  -3  19  10    6.08    1.20
  -3  19  11    0.61    0.86
  -3  19  12   12.28    1.64
  -3  19  13    3.41    1.05
  19   3  13    1.24    0.93
  -3  19  14    1.87    0.94
  19   3  14    1.65    0.82
  19   3  14    2.60    0.83
  -3  19  15   -0.23    0.64
  19   3  15   -0.32    0.64
  19   3  15   -0.18    0.62
  -4  19   0    5.60    1.23
 -19  -4   0    6.41    2.45
 -19  -4  -1    5.76    1.86
  -4  19  -1    4.69    1.17
 -19  -4   1    1.89    1.37
  -4  19   1    5.19    1.12
 -19  -4  -2   94.65    7.41
 -19  -4   2  105.37    8.28
  -4  19  -2   99.37    4.01
  -4  19   2   96.20    4.01
 -19  -4   3    0.45    1.43
  -4  19  -3   -0.21    0.72
  -4  19   3    0.10    0.70
  -4  19   4    1.83    0.87
  -4  19   4    2.69    1.04
  -4  19   5    0.72    0.74
 -19  -4   5   -0.34    1.98
  -4  19   5    0.58    0.77
  -4  19   6   29.91    2.37
 -19  -4   6   32.81    5.21
  -4  19   6   26.89    2.32
  -4  19   7    3.13    1.01
  -4  19   7    1.86    0.82
  -4  19   8    0.56    0.81
  -4  19   8    0.06    0.81
  -4  19   9    0.52    0.92
  -4  19   9    1.91    0.86
  -4  19  10   11.58    1.65
  -4  19  10   12.88    1.66
  -4  19  11    2.42    1.03
  -4  19  12    1.94    1.02
  19   4  12    1.43    0.88
  -4  19  13    1.08    0.99
  19   4  13    0.37    0.85
  -4  19  14   13.89    1.55
  19   4  14   14.34    1.56
  19   4  14   10.99    1.43
  19   4  15    0.38    0.66
  19   4  15   -0.69    0.63
 -19  -5   0   85.52    7.33
  -5  19   0   84.27    3.75
 -19  -5  -1    7.97    2.42
 -19  -5   1    7.75    2.52
  -5  19  -1   10.42    1.44
  -5  19   1    8.79    1.39
 -19  -5  -2    9.16    2.69
  -5  19  -2    4.98    1.12
  -5  19   2    5.92    1.30
 -19  -5   2    3.83    2.04
  -5  19  -3    2.96    0.87
  -5  19   3    3.05    0.90
 -19  -5   3    0.94    1.55
  -5  19   4    7.01    1.28
  -5  19   4    8.87    1.41
  -5  19   5   31.58    2.40
  -5  19   5   29.21    2.37
  -5  19   6    8.46    1.42
  -5  19   6    8.33    1.48
  -5  19   7    3.74    1.09
  -5  19   7    5.46    1.21
  -5  19   8    5.85    1.23
  -5  19   8    5.63    1.26
  -5  19   9    2.67    0.96
  -5  19   9    2.66    0.98
  -5  19  10    2.73    1.08
  -5  19  10    0.81    0.79
  -5  19  11    8.72    1.49
  -5  19  12    4.54    1.21
  19   5  12    4.35    1.12
  -5  19  13   -0.54    0.85
  19   5  13   -0.07    0.74
  19   5  14    1.30    0.80
  19   5  14    0.37    0.69
  19   5  15    1.11    0.68
  19   5  15   -0.19    0.61
 -19  -6   0   73.54    6.94
  -6  19   0   65.53    3.40
 -19  -6  -1    0.51    1.87
 -19  -6   1    0.69    1.82
  -6  19  -1    0.07    0.68
  -6  19   1    0.25    0.73
 -19  -6   2  111.08    8.60
  -6  19  -2  106.22    4.20
  -6  19   2  104.71    4.25
 -19  -6  -2  110.87    8.37
 -19  -6  -3   25.51    4.19
  -6  19  -3   25.58    2.12
  -6  19   3   29.13    2.36
 -19  -6   3   31.27    4.74
 -19  -6   4    5.34    2.21
  -6  19   4    2.70    0.88
  -6  19  -4    3.03    0.96
  -6  19   4    3.28    1.04
 -19  -6   5    1.33    1.92
  -6  19   5    0.26    0.80
  -6  19   5    1.47    0.90
  -6  19   6   48.41    3.07
  -6  19   6   47.80    2.96
  -6  19   7   10.99    1.60
  -6  19   7   13.20    1.70
  -6  19   8   14.47    1.82
  -6  19   8   15.37    1.81
  -6  19   9    1.93    1.08
  -6  19   9    1.77    0.83
  -6  19  10   21.14    2.13
  -6  19  10   21.73    1.97
  -6  19  11    6.77    1.41
  -6  19  12    2.28    1.04
  19   6  12    2.71    1.05
  19   6  13   -0.48    0.79
  19   6  13   -0.08    0.74
  19   6  14    7.44    1.18
  19   6  14    6.07    1.13
 -19  -7   0   28.25    4.34
  -7  19   0   29.12    2.32
 -19  -7  -1   11.55    3.06
 -19  -7   1    7.27    2.55
  -7  19  -1    5.86    1.20
  -7  19   1    7.18    1.29
  -7  19  -2    1.34    0.83
  -7  19   2    1.39    0.76
  -7  19  -3    4.75    1.09
  -7  19   3    4.64    1.13
 -19  -7   3    5.19    2.29
 -19  -7   4    0.65    2.06
  -7  19  -4    0.08    0.77
  -7  19   4    0.10    0.71
 -19  -7   5   10.12    3.31
  -7  19   5    6.38    1.27
  -7  19   6    3.99    1.25
  -7  19   6    3.96    1.06
  -7  19   7    3.20    1.05
  -7  19   7    3.57    1.03
  -7  19   8    7.11    1.44
  -7  19   8    6.36    1.25
  -7  19   9    1.79    0.97
  -7  19   9   -0.03    0.71
  -7  19  10    1.26    0.99
  -7  19  10   -0.73    0.78
  -7  19  11    6.22    1.30
  19   7  11    3.64    1.07
  19   7  12    1.45    0.86
  19   7  13    0.08    0.71
  19   7  13   -0.31    0.78
  19   7  14    0.79    0.72
  19   7  14    1.37    0.75
 -19  -8   0    1.37    1.54
  -8  19   0    1.06    0.76
 -19  -8  -1    5.78    2.40
 -19  -8   1    7.27    2.62
  -8  19  -1    2.29    0.86
  -8  19   1    2.38    0.96
 -19  -8  -2    4.96    2.30
  -8  19  -2    2.58    0.97
 -19  -8   2    1.99    1.86
  -8  19   2    1.29    0.92
  -8  19  -3   37.08    2.55
  -8  19   3   30.05    2.40
 -19  -8   3   31.97    5.02
  -8  19  -4    0.89    0.80
  -8  19   4    1.08    0.74
 -19  -8   4   -0.03    1.49
  -8  19   5   19.85    2.02
  -8  19   6    2.35    1.06
  -8  19   7    3.29    1.08
  -8  19   8    3.39    1.08
  -8  19   9    7.48    1.28
  19   8  10    1.20    0.79
  19   8  11    4.54    1.03
  19   8  11    1.05    0.85
  19   8  12    1.20    0.80
  19   8  13    1.58    0.83
  19   8  13    1.38    0.77
  19   8  14    0.30    0.58
  19   8  14    0.69    0.75
 -19  -9   0   -2.00    1.60
  -9  19   0   -0.59    0.80
 -19  -9  -1   17.62    3.89
 -19  -9   1   11.01    3.33
  -9  19  -1   11.41    1.60
  -9  19   1   12.40    1.60
 -19  -9  -2   -1.98    1.67
 -19  -9   2    1.69    1.53
  -9  19  -2    0.33    0.77
  -9  19   2    0.37    0.80
 -19  -9  -3   12.40    3.17
  -9  19  -3   12.83    1.62
  -9  19   3    9.71    1.53
 -19  -9   3    6.27    2.67
  -9  19  -4    4.51    1.10
  -9  19   4    4.86    1.19
 -19  -9   4    7.95    2.91
  -9  19   5    8.91    1.44
  -9  19   6   16.07    1.84
  -9  19   7    8.97    1.48
  -9  19   8   10.18    1.49
  19   9   9    7.10    1.29
  -9  19   9    7.04    1.26
  19   9  10    3.91    1.11
  19   9  10    2.42    0.94
  19   9  11    9.39    1.43
  19   9  11   12.22    1.47
  19   9  12    4.75    1.08
  19   9  12    5.25    1.20
  19   9  13    1.45    0.75
  19   9  13   -0.40    0.78
  19   9  14    2.71    0.84
 -19 -10   0    0.16    1.18
 -10  19   0   -0.16    0.81
 -19 -10  -1   10.61    2.99
 -19 -10   1    6.47    2.37
 -10  19  -1    5.65    1.21
 -10  19   1    5.02    1.09
 -19 -10  -2   36.42    5.29
 -10  19  -2   29.19    2.36
 -10  19   2   30.18    2.42
 -19 -10   2   32.28    5.17
 -19 -10  -3   -0.56    1.36
 -10  19  -3    2.45    0.95
 -10  19   3    2.60    1.02
 -10  19  -4    2.72    1.01
 -10  19   4    1.12    0.78
 -10  19   5    0.72    0.78
 -10  19   6   22.81    2.13
 -10  19   7   -0.27    0.78
 -10  19   8    2.23    0.94
  19  10   9    2.62    0.98
 -10  19   9    3.01    0.97
  19  10  10   11.84    1.52
  19  10  11    0.64    0.68
  19  10  12   -0.36    0.78
  19  10  13    0.53    0.77
  19  10  14    7.23    1.07
 -11  19   0   30.27    2.40
 -11  19  -1    0.19    0.73
 -11  19   1    1.21    0.92
 -11  19  -2    6.19    1.24
 -11  19   2    7.29    1.38
 -11  19  -3    4.69    1.15
 -11  19   3    4.65    1.17
 -11  19  -4    1.36    0.90
 -11  19   4    0.47    0.70
 -11  19   5    2.01    0.89
 -11  19   6    6.46    1.30
 -11  19   7   -0.21    0.79
  19  11   8    5.51    1.22
 -11  19   8    4.35    1.10
  19  11   9    1.22    0.78
 -11  19   9    1.48    0.88
  19  11  10    0.38    0.81
  19  11  11    2.21    0.77
  19  11  11    1.20    0.82
  19  11  12    0.28    0.76
  19  11  13   -0.19    0.74
 -12  19   0    1.36    0.88
 -12  19   1   -0.75    0.81
 -12  19  -1    0.57    0.77
 -12  19  -2   20.29    2.07
 -12  19   2   23.28    2.19
 -12  19  -3   18.18    1.97
 -12  19   3   19.12    2.00
 -12  19   4    3.72    1.10
 -12  19   5   -0.01    0.68
 -12  19   6   16.18    1.83
  19  12   7    1.36    0.90
 -12  19   7    0.01    0.71
  19  12   8    6.87    1.37
 -12  19   8    6.63    1.28
  19  12   9    2.00    0.81
 -12  19   9    1.21    0.81
  19  12  10   25.47    2.15
  19  12  10   25.63    2.03
  19  12  11    2.14    0.86
  19  12  11    1.62    0.86
  19  12  12    4.06    1.05
  19  12  13    0.34    0.61
 -13  19   0   49.73    3.09
 -13  19  -1    0.49    0.69
 -13  19   1    0.96    0.73
  19  13  -2    3.42    1.05
 -13  19  -2    3.21    1.06
 -13  19   2    3.80    1.07
 -13  19   3    0.58    0.83
 -13  19   4   28.31    2.37
  19  13   5    2.43    0.98
 -13  19   5    2.38    0.97
  19  13   6    1.20    0.85
 -13  19   6    0.92    0.90
  19  13   7    1.98    0.86
 -13  19   7    1.85    0.89
 -13  19   8   19.99    1.90
  19  13   8   19.24    1.91
  19  13   9    1.65    0.85
  19  13   9    0.80    0.83
  19  13  10    3.06    0.98
  19  13  10    2.05    0.96
  19  13  11    1.64    0.85
  19  13  11    1.73    0.83
  19  13  12   16.70    1.58
  19  14   0    2.31    0.88
 -14  19   0    3.57    1.08
  19  14  -1    6.82    1.28
  19  14   1    6.17    1.19
 -14  19   1    6.54    1.29
 -14  19  -1    4.93    1.13
  19  14  -2    3.07    1.04
  19  14   2    2.38    0.97
 -14  19   2    2.27    0.99
  19  14   3    0.37    0.75
 -14  19   3   -0.11    0.72
  19  14   4    3.12    1.06
 -14  19   4    3.68    1.10
  19  14   5    1.86    0.88
 -14  19   5    2.47    0.96
  19  14   6    2.09    0.85
 -14  19   6    1.58    0.84
  19  14   7    0.28    0.69
  19  14   7    1.70    0.89
 -14  19   7    0.92    0.70
  19  14   8    0.22    0.67
  19  14   8    0.79    0.70
  19  14   9   -0.43    0.83
  19  14   9   -1.34    0.92
  19  14  10    0.44    0.81
  19  14  10    0.75    0.76
  19  14  11    3.85    0.91
  19  14  11    4.26    0.99
  19  14  12    0.69    0.66
  19  15   0   11.49    1.57
  19  15  -1    6.11    1.21
  19  15   1    4.95    1.15
  19  15  -2    7.22    1.27
  19  15   2    5.72    1.18
 -15  19   2    4.70    1.12
  19  15   3    1.08    0.77
 -15  19   3    0.02    0.75
 -15  19   4   16.33    1.85
  19  15   4   17.29    1.90
  19  15   5    5.38    1.22
 -15  19   5    4.39    1.13
  19  15   6   16.09    1.72
  19  15   6   15.00    1.74
  19  15   7    0.29    0.74
  19  15   7   -0.10    0.61
  19  15   8   14.68    1.59
  19  15   8   14.14    1.66
  19  15   9    2.17    0.87
  19  15   9    0.83    0.69
  19  15  10    1.15    0.75
  19  15  10    1.14    0.75
  19  15  11    0.87    0.63
  19  15  11    1.61    0.66
  19  15  12    1.35    0.68
  19  16   0    0.07    0.71
  19  16  -1    6.76    1.21
  19  16   1    5.97    1.16
  19  16  -2    6.37    1.20
  19  16   2    4.38    1.03
  19  16   3   -1.31    0.89
  19  16   4    1.12    0.83
  19  16   5    1.18    0.92
  19  16   6    7.02    1.29
  19  16   7    1.22    0.82
  19  16   7    0.40    0.65
  19  16   8    1.49    0.85
  19  16   8    1.85    0.78
  19  16   9    3.17    0.95
  19  16   9    3.60    0.91
  19  16  10    0.32    0.63
  19  16  10    1.39    0.73
  19  16  11    0.30    0.63
  19  16  11    0.58    0.59
  19  17   0   -0.62    0.82
  19  17  -1    0.26    0.74
  19  17   1    1.69    0.84
  19  17  -2    1.59    0.81
  19  17   2    1.30    0.89
  19  17   3    4.01    1.04
  19  17   4    1.75    0.86
  19  17   5    0.88    0.82
  19  17   6    2.10    0.86
  19  17   7    0.10    0.71
  19  17   8   -0.01    0.79
  19  17   8    1.44    0.66
  19  17   9   -0.34    0.60
  19  17   9    0.74    0.63
  19  17  10    0.64    0.62
  19  17  10   -0.42    0.64
  19  18   0    0.67    0.77
  19  18  -1    4.26    1.07
  19  18   1    3.80    1.08
  19  18  -2    1.03    0.75
  19  18   2    0.80    0.89
  19  18   3    3.08    1.01
  19  18   4    0.73    0.74
  19  18   5    0.46    0.76
  19  18   6    0.75    0.76
  19  18   7    0.45    0.69
  19  18   8    1.71    0.77
  19  18   9    3.38    0.76
  19  18   9    2.30    0.82
  19  18  10    1.73    0.63
  19  18  10    0.33    0.56
  19  19   0   55.94    2.96
  19  19  -1    0.96    0.80
  19  19   1    0.26    0.75
  19  19  -2   -0.76    0.85
  19  19   2    0.60    0.66
  19  19   3   -0.22    0.69
  19  19   4    0.75    0.77
  19  19   5    0.04    0.67
  19  19   6    0.37    0.71
  19  19   7    0.50    0.73
  19  19   8    8.84    1.19
  19  19   9    0.22    0.57
  19  20   0    0.80    0.70
  19  20   1   -0.31    0.72
  19  20  -1   -1.66    0.83
  19  20   2    4.14    1.03
  19  20   3    2.77    0.94
  19  20   4    2.25    0.85
  19  20   5    2.96    0.92
  19  20   6    2.45    0.83
  19  20   7    0.90    0.70
  19  20   8    3.13    0.76
  18  20   0   13.01    1.57
  18  20   1   -0.50    0.73
  18  20  -1    0.06    0.69
  18  20   2   -0.36    0.75
  18  20   3    0.17    0.82
  18  20   4    2.75    0.91
  18  20   5    0.24    0.69
  18  20   6   -0.25    0.73
  18  20   7   -1.22    0.79
  18  20   8    1.44    0.75
  18  20   9    0.38    0.62
  17  20   0    0.33    0.74
  17  20  -1    3.36    0.99
  17  20   1    1.91    0.82
  17  20   2    0.97    0.80
  17  20  -2    0.38    0.68
  17  20   3    2.04    0.90
  17  20   4    2.04    0.90
  17  20   5    2.14    0.93
  17  20   6   -0.80    0.74
  17  20   7    3.06    0.89
  17  20   8    0.10    0.65
  17  20   9    0.40    0.67
  17  20  10    0.93    0.54
  16  20   0   15.86    1.74
  16  20  -1    0.92    0.69
  16  20   1    0.54    0.69
  16  20   2   -0.32    0.74
  16  20  -2   -0.79    0.82
  16  20   3    0.49    0.69
  16  20   4   12.22    1.58
  16  20   5   -0.12    0.72
  16  20   6    4.86    1.14
  16  20   7    2.00    0.88
  16  20   8   20.19    1.79
  16  20   9    0.51    0.65
  16  20  10    0.18    0.52
  16  20  10   -0.01    0.55
  15  20   0    2.42    0.97
  15  20  -1    4.50    0.93
  15  20   1    5.75    1.20
  15  20   2    3.45    1.05
  15  20  -2    3.37    0.96
  15  20   3    1.25    0.82
  15  20   4    0.81    0.87
  15  20   5    1.17    0.87
  15  20   6    8.10    1.36
  15  20   7    1.12    0.68
  15  20   8    1.73    0.91
  15  20   9    1.48    0.75
  15  20   9    1.79    0.79
  15  20  10    1.69    0.66
  15  20  10    1.89    0.70
  15  20  11    1.21    0.57
  15  20  11    1.27    0.60
  14  20   0   -0.27    0.73
  14  20  -1   -0.71    0.82
  14  20   1   -0.52    0.83
  14  20   2    3.13    1.06
  14  20  -2    3.55    0.93
  14  20   3   -0.13    0.77
  14  20   4    0.70    0.77
  14  20   5    0.31    0.73
  14  20   6    4.41    1.13
  14  20   7    1.52    0.82
  14  20   8   -0.03    0.79
  14  20   9   -0.10    0.68
  14  20   9   -0.19    0.67
  14  20  10    0.33    0.62
  14  20  10   -0.15    0.64
  14  20  11   -0.07    0.58
  14  20  11    2.00    0.72
  13  20   0    1.36    0.81
  13  20   1    1.26    0.92
  13  20  -1    1.50    0.83
  13  20   2    1.36    0.75
  13  20  -2    2.78    0.90
  13  20   3    1.28    0.90
  13  20   4   -0.05    0.86
  13  20   5    0.05    0.78
  13  20   6    5.85    1.22
  13  20   7    1.86    0.93
  13  20   8    3.47    1.00
  13  20   8    0.84    0.70
  13  20   9    2.00    0.79
  13  20   9    2.74    0.89
  13  20  10    6.21    1.06
  13  20  10    8.80    1.26
  13  20  11    1.87    0.71
  13  20  11    1.82    0.77
  13  20  12    0.01    0.56
  12  20   0    0.40    0.71
  12  20   1    5.02    1.16
  12  20  -1    3.34    1.03
  12  20   2    5.59    1.23
  12  20  -2    7.80    1.37
  12  20   3    3.87    1.06
  12  20   4    1.63    0.85
  12  20   5   -0.13    0.69
  12  20   6    2.62    1.05
  12  20   7    7.20    1.32
  12  20   8    1.48    0.78
  12  20   8    2.88    1.04
  12  20   9    0.15    0.71
  12  20   9   -0.22    0.82
  12  20  10    1.87    0.84
  12  20  10    2.70    0.92
  12  20  11    2.34    0.80
  20 -12  11    4.60    1.02
  12  20  11    3.36    0.89
  12  20  12   -0.53    0.65
  20 -12  12    0.26    0.63
  11  20   0   20.81    2.03
  11  20   1    8.46    1.45
  11  20  -1    9.11    1.44
  11  20  -2   30.43    2.35
  11  20   2   30.81    2.44
  11  20   3    2.18    0.97
  11  20   4    1.72    0.84
  11  20   5    2.54    0.95
  11  20   6    8.76    1.45
  11  20   7    0.43    0.76
  11  20   8   -0.38    0.78
  11  20   8    0.42    0.76
  11  20   9    3.18    0.88
  11  20   9    3.74    1.04
  11  20  10    5.00    1.10
  11  20  10    7.51    1.22
  11  20  11   -0.41    0.67
  11  20  11    2.29    0.79
  11  20  12    0.00    0.67
  20 -11  12    0.92    0.71
  11  20  13    1.39    0.68
  20 -11  13    2.77    0.68
  10  20   0    5.68    1.14
  10  20  -1    0.99    0.73
  10  20   1    1.48    0.97
  10  20   2    1.21    0.78
  10  20  -2    2.09    0.96
  10  20   3    3.22    1.06
  10  20   4    7.33    1.31
  10  20   5    1.49    0.86
  10  20   6    6.00    1.26
  10  20   7    0.87    0.67
  10  20   7    1.37    0.90
  10  20   8    9.62    1.38
  10  20   8   12.87    1.62
  10  20   9    6.57    1.18
  10  20   9    8.43    1.36
  10  20  10   -0.19    0.85
  10  20  10    1.10    0.74
  10  20  11   -0.81    0.80
  10  20  11   -1.51    0.82
  10  20  12    2.38    0.83
  20 -10  12    2.79    0.95
  10  20  13    1.19    0.68
  20 -10  13    0.11    0.62
  -9 -20   0   10.82    3.52
   9  20   0    0.08    0.80
  -9 -20  -1   -0.25    1.12
  -9 -20   1   -1.67    1.75
   9  20   1    0.60    0.77
   9  20  -2   15.43    1.68
   9  20   2   14.43    1.79
   9  20   3    5.11    1.20
   9  20   4    2.58    0.95
   9  20   5    7.89    1.31
   9  20   6    3.47    1.05
   9  20   7    0.99    0.70
   9  20   7    0.03    0.74
   9  20   8    0.52    0.71
   9  20   8    0.07    0.75
   9  20   9    1.24    0.80
   9  20   9    2.10    0.91
   9  20  10    5.51    1.15
   9  20  10    2.96    0.99
   9  20  11   -0.01    0.76
   9  20  11    0.52    0.67
   9  20  12   -0.14    0.68
  20  -9  12    0.33    0.78
   9  20  13   -1.15    0.70
  20  -9  13   -0.19    0.68
  -8 -20   0    1.21    1.65
   8  20   0    1.38    0.93
  -8 -20   1    0.57    1.77
   8  20  -1    1.78    0.81
   8  20   1    1.06    0.71
   8  20  -2    1.05    0.80
   8  20   2    0.63    0.81
  -8 -20  -3    3.86    2.05
   8  20   3   -0.03    0.81
   8  20   4    8.02    1.39
   8  20   5    1.67    0.91
   8  20   6    4.59    1.16
   8  20   7    0.23    0.74
   8  20   7    0.52    0.75
   8  20   8    1.83    0.91
   8  20   8    3.95    1.07
   8  20   9    0.12    0.74
   8  20   9   -0.07    0.70
   8  20  10    1.90    0.98
   8  20  10    1.47    0.89
   8  20  11   -0.25    0.74
   8  20  11    0.46    0.71
   8  20  12    3.83    1.02
   8  20  13   -0.85    0.68
  20  -8  13    0.53    0.82
   8  20  14    1.42    0.68
  20  -8  14    0.78    0.68
  -7 -20   0    0.65    1.54
   7  20   0    5.67    1.15
  -7 -20  -1    2.13    1.69
   7  20  -1    5.71    1.23
   7  20   1    5.31    1.23
   7  20  -2   66.43    3.32
   7  20   2   64.51    3.39
  -7 -20  -2   73.22    7.31
  -7 -20  -3    5.74    2.76
   7  20   3    1.86    0.86
   7  20   4    7.11    1.28
   7  20   5    6.80    1.25
   7  20   6   34.66    2.59
   7  20   7    1.69    0.85
   7  20   7    1.72    0.83
   7  20   8    4.78    1.05
   7  20   8    5.78    1.28
   7  20   9    2.45    0.97
   7  20   9    2.23    0.91
   7  20  10   23.86    2.07
   7  20  10   21.28    1.97
   7  20  11    0.37    0.76
   7  20  11    1.79    0.76
   7  20  12    0.00    0.82
   7  20  13    1.83    0.83
  20  -7  13    2.67    0.96
   7  20  14    2.69    0.79
  20  -7  14    2.57    0.88
  -6 -20   0   -2.70    1.84
   6  20   0    0.29    0.78
  -6 -20  -1    1.94    1.77
   6  20  -1    1.91    0.86
   6  20   1    2.25    0.95
  -6 -20  -2    2.41    1.79
   6  20  -2    3.18    0.94
   6  20   2    3.86    1.11
  -6 -20  -3    0.25    1.28
   6  20   3    4.50    1.26
  -6 -20  -4    3.95    2.04
   6  20   4    0.98    0.69
   6  20   5    0.60    0.81
   6  20   6   10.98    1.47
   6  20   6   13.45    1.70
   6  20   7   12.32    1.55
   6  20   7   12.83    1.69
   6  20   8    2.40    0.96
   6  20   8    1.49    0.92
   6  20   9    2.16    0.96
   6  20   9    2.13    0.89
   6  20  10    1.75    0.95
   6  20  10    0.62    0.75
   6  20  11    3.24    1.01
   6  20  11    2.69    0.88
   6  20  12   -0.23    0.74
   6  20  13    0.56    0.75
  20  -6  13    0.29    0.76
   6  20  14   -0.22    0.66
  20  -6  14   -0.32    0.66
   5  20   0    2.71    0.94
  -5 -20   0    8.26    2.47
  -5 -20  -1    0.59    1.31
   5  20  -1    1.70    0.84
   5  20   1    2.98    0.98
   5  20  -2    0.84    0.75
   5  20   2    0.68    0.85
  -5 -20  -3    1.78    2.03
   5  20   3    0.87    0.78
   5  20   4    0.71    0.66
   5  20   5    1.01    0.73
   5  20   6    6.83    1.21
   5  20   6    6.12    1.28
   5  20   7    2.22    0.93
   5  20   7    2.19    0.89
   5  20   8    1.96    0.92
   5  20   8    1.01    0.77
   5  20   9   -0.09    0.73
   5  20   9   -1.29    0.86
   5  20  10    1.19    0.77
   5  20  10    1.16    0.80
   5  20  11    0.32    0.75
   5  20  11    0.08    0.71
   5  20  12   -0.02    0.81
   5  20  13    0.65    0.80
  20  -5  13    0.12    0.77
   5  20  14   -1.13    0.74
  20  -5  14    0.08    0.68
   4  20   0    1.67    0.81
   4  20  -1   11.77    1.49
   4  20   1   10.95    1.49
  -4 -20  -2    0.38    1.32
   4  20  -2    2.12    0.88
   4  20   2    3.04    1.02
  -4 -20  -3    5.10    2.11
   4  20   3    2.81    1.03
   4  20   4   16.74    1.84
   4  20   5    1.67    0.91
   4  20   6    5.76    1.13
   4  20   6    7.53    1.33
   4  20   7    3.97    1.03
   4  20   7    2.56    0.92
   4  20   8    1.78    0.92
   4  20   8    2.46    0.89
   4  20   9    2.42    0.99
   4  20   9    3.01    0.98
   4  20  10    0.84    0.87
   4  20  10    3.21    0.94
   4  20  11    0.32    0.78
   4  20  11    0.75    0.65
   4  20  12    1.67    0.99
   4  20  13    0.01    0.76
  20  -4  13   -0.23    0.84
   4  20  14    0.05    0.69
  20  -4  14   -0.40    0.75
   3  20   0    0.95    0.79
   3  20   1   20.66    1.96
   3  20  -1   21.61    1.98
  -3 -20  -2    4.42    1.94
   3  20  -2    4.55    1.01
   3  20   2    6.80    1.33
   3  20   3    2.83    0.97
   3  20   4    1.60    1.01
   3  20   5   14.05    1.72
   3  20   6    1.19    0.74
   3  20   6    0.91    0.73
   3  20   7    6.11    1.24
   3  20   7    7.46    1.33
   3  20   8    2.93    1.07
   3  20   8    2.75    1.04
   3  20   9    1.96    0.88
   3  20   9    2.24    0.88
   3  20  10    2.68    1.04
   3  20  10    4.61    1.09
   3  20  11    0.94    0.84
   3  20  11   -0.13    0.74
   3  20  12    1.64    0.96
   3  20  13    9.93    1.44
  20  -3  13    7.48    1.49
   3  20  14   -0.56    0.74
  20  -3  14   -0.56    0.74
   2  20   0   11.46    1.54
   2  20   1   12.26    1.57
   2  20  -1   10.33    1.45
  -2 -20  -2    0.11    0.96
   2  20  -2    1.22    0.87
   2  20   2    0.91    0.79
   2  20  -3    6.44    1.27
   2  20   3    4.11    1.10
   2  20   4   93.81    4.05
 -20   2   5    3.92    2.23
   2  20   5    3.29    1.06
   2  20   6   11.40    1.50
   2  20   6   11.82    1.63
 -20   2   6   14.36    3.56
   2  20   7    4.86    1.16
   2  20   7    4.26    1.09
   2  20   8   18.89    1.96
   2  20   8   19.60    1.97
   2  20   9    0.77    0.84
   2  20   9    1.26    0.78
   2  20  10    1.16    0.80
   2  20  10    0.69    0.91
   2  20  11    7.18    1.33
   2  20  11    7.98    1.23
   2  20  12    7.62    1.36
   2  20  13    1.56    0.93
  20  -2  13   -0.14    0.89
   2  20  14   -0.34    0.70
  20  -2  14    0.83    0.81
   1  20   0    3.38    1.13
   1  20  -1    3.60    1.07
   1  20   1    2.85    0.95
   1  20  -2   16.39    1.76
   1  20   2   15.62    1.76
   1  20  -3    8.96    1.44
   1  20   3    7.48    1.30
 -20   1   4    3.70    1.91
   1  20   4    4.08    1.17
 -20   1   5    2.33    1.95
   1  20   5    2.58    0.92
   1  20   5    3.14    1.04
   1  20   6    8.07    1.32
 -20   1   6    7.25    2.81
   1  20   6    8.70    1.37
   1  20   7    1.35    0.94
   1  20   7    1.42    0.79
   1  20   8    7.41    1.35
   1  20   8    6.99    1.31
   1  20   9    3.57    1.08
   1  20   9    2.39    0.96
   1  20  10    9.96    1.49
   1  20  10    8.36    1.35
   1  20  11    5.16    1.18
   1  20  11    5.06    1.07
   1  20  12    0.52    0.86
   1  20  13    2.43    1.00
  20  -1  13    3.48    1.12
   1  20  14    1.79    0.81
  20  -1  14   -0.56    0.82
   0  20   0  107.99    4.23
   0  20  -1   -0.62    0.76
   0  20   1   -0.04    0.68
   0  20  -2    4.63    1.02
   0  20   2    4.01    1.05
   0  20  -3    0.62    0.72
   0  20   3    0.61    0.81
   0  20   4   11.95    1.58
 -20   0   4    7.50    2.58
 -20   0   5   -1.29    1.52
   0  20   5    0.08    0.78
   0  20   5   -0.28    0.75
   0  20   6    5.01    1.16
 -20   0   6    7.51    2.66
   0  20   6    5.71    1.17
   0  20   7    1.02    0.81
   0  20   7   -0.81    0.92
   0  20   8    1.56    0.86
   0  20   8    2.67    1.00
   0  20   9   -0.28    0.74
   0  20   9    1.10    0.86
   0  20  10    4.75    1.21
   0  20  10    7.05    1.23
   0  20  11    1.90    1.01
   0  20  11    3.00    0.95
   0  20  12    5.04    1.18
   0  20  13    0.07    0.75
  20   0  13   -0.17    0.83
   0  20  14    0.90    0.72
  20   0  14    0.33    0.73
  -1  20   0    4.75    1.14
  -1  20  -1    2.50    0.80
  -1  20   1    2.87    0.90
  -1  20  -2   14.04    1.58
 -20  -1   2   18.20    3.55
  -1  20   2   15.24    1.73
 -20  -1   3    9.42    2.71
  -1  20  -3    9.28    1.41
  -1  20   3    6.74    1.35
 -20  -1   4    5.15    2.36
  -1  20   4    3.35    1.05
  -1  20   5    2.50    0.94
  -1  20   5    2.91    1.02
  -1  20   6    7.52    1.30
  -1  20   6    8.42    1.42
  -1  20   7    1.51    0.84
  -1  20   7    0.91    0.79
  -1  20   8    8.32    1.44
  -1  20   8    8.80    1.41
  -1  20   9    1.94    0.89
  -1  20   9    1.50    0.82
  -1  20  10    7.95    1.37
  -1  20  10   10.70    1.50
  -1  20  11    4.14    1.15
  -1  20  12    1.41    0.90
  -1  20  13    0.19    0.82
  20   1  13   -0.56    1.02
  -1  20  14    1.94    0.87
  20   1  14    1.99    0.87
  20   1  14    0.51    0.69
  -2  20   0   12.94    1.61
 -20  -2   1   15.05    3.25
  -2  20   1   12.81    1.60
  -2  20  -1   11.41    1.54
  -2  20  -2    1.75    0.86
  -2  20   2    0.40    0.72
 -20  -2   3    0.58    1.19
  -2  20  -3    3.61    1.01
  -2  20   3    3.83    1.09
  -2  20   4   91.31    3.88
  -2  20   4   91.62    4.03
 -20  -2   4   92.42    8.18
  -2  20   5    2.10    0.93
 -20  -2   5    1.69    1.64
  -2  20   5    2.15    1.02
  -2  20   6   11.93    1.66
  -2  20   6   11.89    1.58
  -2  20   7    6.04    1.29
  -2  20   7    5.12    1.19
  -2  20   8   17.10    1.90
  -2  20   8   19.56    2.01
  -2  20   9    0.91    0.88
  -2  20   9    1.18    0.88
  -2  20  10    1.08    0.90
  -2  20  10    0.98    0.78
  -2  20  11    8.92    1.45
  -2  20  12    8.96    1.41
  -2  20  13    0.19    0.76
  20   2  13   -0.92    0.87
  20   2  14    0.01    0.71
  20   2  14   -0.69    0.68
  -3  20   0    0.30    0.77
 -20  -3   0    0.24    1.32
  -3  20  -1   19.63    1.92
  -3  20   1   19.05    1.93
 -20  -3   1   22.01    3.93
 -20  -3   2    5.72    2.29
  -3  20  -2    5.38    1.21
  -3  20   2    7.02    1.34
  -3  20  -3    2.86    0.93
  -3  20   3    2.00    0.94
  -3  20   4    2.41    1.06
 -20  -3   4    0.40    1.60
  -3  20   4    1.16    0.87
  -3  20   5   13.28    1.64
 -20  -3   5   18.38    3.95
  -3  20   5   14.26    1.78
  -3  20   6    0.44    0.87
  -3  20   6    0.63    0.70
  -3  20   7    5.19    1.21
  -3  20   7    5.10    1.15
  -3  20   8    4.81    1.24
  -3  20   8    2.78    1.02
  -3  20   9    1.16    0.83
  -3  20   9    1.89    0.87
  -3  20  10    2.59    1.07
  -3  20  10    2.50    0.92
  -3  20  11   -0.48    0.91
  -3  20  12    0.49    0.83
  -3  20  13    7.58    1.31
  20   3  13    6.70    1.32
  -3  20  14   -0.52    0.77
  20   3  14   -0.64    0.77
  20   3  14   -0.31    0.64
 -20  -4   0    1.65    1.48
  -4  20   0    2.06    0.98
 -20  -4  -1   10.97    2.70
  -4  20  -1   10.09    1.51
  -4  20   1   10.25    1.45
 -20  -4   1   11.34    3.11
 -20  -4   2    0.32    1.42
  -4  20  -2    3.53    0.98
  -4  20   2    3.49    1.06
 -20  -4   3    1.48    1.64
  -4  20  -3    1.66    0.80
  -4  20   3    1.89    0.90
  -4  20   4   14.38    1.71
 -20  -4   4   15.67    4.12
  -4  20   4   16.56    1.84
  -4  20   5    2.34    1.08
  -4  20   5    0.76    0.77
  -4  20   6    6.94    1.33
  -4  20   6    7.90    1.38
  -4  20   7    3.59    1.10
  -4  20   7    3.20    0.93
  -4  20   8    1.92    0.90
  -4  20   8    2.44    0.89
  -4  20   9    1.10    0.84
  -4  20   9    3.99    1.14
  -4  20  10    0.50    0.83
  -4  20  10    3.91    1.04
  -4  20  11   -0.17    0.87
  -4  20  12    2.26    1.05
  20   4  12    1.89    1.01
  -4  20  13    0.54    0.79
  20   4  13    1.48    0.93
  20   4  14   -0.38    0.70
  20   4  14    1.04    0.72
 -20  -5   0    2.70    1.46
  -5  20   0    3.34    1.09
 -20  -5  -1    2.90    1.88
  -5  20  -1    2.13    1.01
  -5  20   1    3.14    0.97
 -20  -5   1    3.96    1.93
  -5  20  -2    0.69    0.69
  -5  20   2    0.10    0.71
 -20  -5   3    1.37    1.59
  -5  20  -3    0.21    0.79
  -5  20   3    1.86    0.95
  -5  20   4    0.87    0.76
 -20  -5   4    0.56    1.78
  -5  20  -4    0.51    0.74
  -5  20   4    0.36    0.73
  -5  20   5    0.61    0.86
  -5  20   5    0.99    0.81
  -5  20   6    8.51    1.44
  -5  20   6    5.49    1.27
  -5  20   7    1.21    0.80
  -5  20   7    2.40    0.91
  -5  20   8    1.09    0.84
  -5  20   8    1.17    0.82
  -5  20   9    0.12    0.83
  -5  20   9   -0.39    0.75
  -5  20  10    1.78    0.96
  -5  20  10    2.92    0.98
  -5  20  11    0.97    0.96
  -5  20  12    0.02    0.84
  20   5  12    0.41    0.84
  -5  20  13    1.34    0.87
  20   5  13    0.60    0.75
  20   5  14    0.94    0.69
  20   5  14    0.47    0.63
 -20  -6   0    8.37    2.70
  -6  20   0    0.35    0.72
  -6  20  -1   -0.16    0.75
 -20  -6   1    2.66    1.83
  -6  20   1    1.13    0.88
 -20  -6  -2    4.88    2.14
  -6  20  -2    4.96    1.17
  -6  20   2    3.28    1.02
 -20  -6   2    3.97    1.97
  -6  20  -3    3.18    1.06
  -6  20   3    3.00    1.00
 -20  -6   4    3.04    1.77
  -6  20  -4    1.51    0.88
  -6  20   4    0.94    0.84
  -6  20   5    0.40    0.84
  -6  20   6   11.72    1.69
  -6  20   6    9.91    1.55
  -6  20   7   12.67    1.69
  -6  20   7   12.48    1.66
  -6  20   8    2.75    1.05
  -6  20   8    2.20    0.97
  -6  20   9    1.10    0.95
  -6  20   9    0.87    0.76
  -6  20  10    1.68    1.05
  -6  20  10    2.59    0.94
  -6  20  11    3.21    1.08
  20   6  12   -1.52    0.94
  20   6  13    0.01    0.73
  20   6  13   -0.34    0.75
  20   6  14   -0.21    0.58
  20   6  14   -0.49    0.73
 -20  -7   0    5.26    2.26
  -7  20   0    6.21    1.29
 -20  -7   1    3.21    1.91
  -7  20  -1    3.02    0.98
  -7  20   1    3.61    1.11
 -20  -7   2   59.72    6.64
  -7  20  -2   60.79    3.30
  -7  20   2   61.16    3.35
 -20  -7  -2   66.51    6.72
 -20  -7  -3    0.38    1.31
  -7  20  -3    0.82    0.75
  -7  20   3    1.52    0.82
 -20  -7   3    3.00    1.79
  -7  20  -4    5.85    1.19
  -7  20   4    6.52    1.32
  -7  20   5    8.02    1.41
  -7  20   6   35.33    2.61
  -7  20   7    1.06    0.79
  -7  20   8    3.22    1.15
  -7  20   8    4.25    1.13
  -7  20   9    3.67    1.15
  -7  20   9    3.11    0.98
  20   7  10   21.72    1.93
  -7  20  10   19.68    1.79
  20   7  11    1.01    0.74
  20   7  11    1.55    0.89
  20   7  12    0.15    0.77
  20   7  13    3.63    0.91
  20   7  13    2.68    0.84
  20   7  14    3.64    0.80
  20   7  14    2.77    0.84
 -20  -8   0   -2.30    1.75
  -8  20   0    0.60    0.69
 -20  -8  -1   -1.47    1.34
  -8  20  -1    0.95    0.90
  -8  20   1    1.07    0.80
 -20  -8  -2    0.36    1.30
  -8  20  -2   -0.59    0.72
  -8  20   2    0.31    0.85
 -20  -8   2   -1.25    1.56
 -20  -8  -3    4.21    2.17
  -8  20  -3    1.28    0.85
  -8  20   3    2.17    0.89
  -8  20  -4    5.55    1.08
  -8  20   4    6.14    1.28
  -8  20   5    0.98    0.84
  -8  20   6    4.66    1.15
  -8  20   7    0.30    0.79
  -8  20   8    2.37    0.91
  -8  20   9   -0.38    0.69
  20   8  10    0.54    0.77
  -8  20  10    0.20    0.65
  20   8  11   -0.17    0.67
  20   8  11   -0.53    0.80
  20   8  12    2.19    0.82
  20   8  12    2.68    0.96
  20   8  13   -0.28    0.64
  20   8  13    0.07    0.69
  20   8  14    1.70    0.60
  20   8  14    3.16    0.89
 -20  -9   0    7.05    2.50
  -9  20   0    0.54    0.72
  -9  20  -1    0.76    0.70
  -9  20   1    1.39    0.80
  -9  20  -2   14.02    1.74
  -9  20   2   11.96    1.64
  -9  20  -3    4.16    1.13
  -9  20   3    4.11    1.17
  -9  20  -4    1.48    0.83
  -9  20   4    1.96    0.90
  -9  20   5    6.08    1.24
  -9  20   6    5.66    1.18
  -9  20   7    1.74    0.83
  -9  20   8    0.42    0.76
  20   9   9    1.19    0.85
  -9  20   9    2.44    0.88
  20   9  10    6.07    1.18
  20   9  11    1.50    0.80
  20   9  12    0.31    0.73
  20   9  13   -0.85    0.74
 -10  20   0    3.51    1.00
 -10  20  -1    0.63    0.79
 -10  20   1    0.90    0.67
 -10  20  -2    0.56    0.78
 -10  20   2    0.57    0.78
 -10  20   3    3.07    1.11
 -10  20  -3    2.45    0.94
 -10  20  -4    9.09    1.49
 -10  20   4    5.29    1.20
 -10  20   5    1.85    0.97
 -10  20   6    6.30    1.30
 -10  20   7   -0.31    0.78
 -10  20   8    9.94    1.47
  20  10   9    6.18    1.28
 -10  20   9    5.57    1.08
  20  10  10    1.43    0.83
  20  10  11    0.52    0.67
  20  10  11    0.49    0.80
  20  10  12    2.61    0.88
  20  10  13    0.43    0.68
 -11  20   0   19.57    2.01
 -11  20  -1    7.86    1.42
 -11  20   1    8.87    1.42
 -11  20  -2   26.54    2.27
 -11  20   2   26.28    2.33
 -11  20  -3    1.01    0.82
 -11  20   3    1.93    0.90
 -11  20  -4    2.10    0.88
 -11  20   4    0.81    0.75
 -11  20   5    4.00    1.14
 -11  20   6    8.54    1.42
 -11  20   7    1.35    0.83
  20  11   8    0.30    0.79
 -11  20   8    0.97    0.85
 -11  20   9    2.17    0.86
  20  11   9    4.01    1.04
  20  11  10    5.01    1.07
  20  11  11    0.60    0.69
  20  11  11   -0.30    0.74
  20  11  12    1.00    0.76
  20  11  13    2.50    0.83
 -12  20   0   -0.45    0.87
 -12  20   1    3.42    1.10
 -12  20  -1    4.57    1.20
 -12  20  -2    5.16    1.22
 -12  20   2    4.41    1.15
 -12  20  -3    3.46    1.11
 -12  20   3    1.23    0.82
 -12  20   4    2.37    1.00
 -12  20   5    0.68    0.72
  20  12   6    2.58    1.07
 -12  20   6    1.70    0.88
  20  12   7    6.29    1.23
 -12  20   7    6.33    1.28
  20  12   8    1.35    0.83
 -12  20   8    2.04    0.84
  20  12   9    0.48    0.81
 -12  20   9   -0.96    0.76
  20  12  10    2.64    0.93
  20  12  10    3.96    1.06
  20  12  11    2.66    0.86
  20  12  11    2.66    0.91
  20  12  12    1.13    0.72
 -13  20   0    0.85    0.73
 -13  20   1    1.30    0.84
 -13  20  -1    2.00    0.93
  20  13  -2    2.11    0.85
 -13  20  -2    0.16    0.73
 -13  20   2    0.96    0.77
 -13  20   3    0.79    0.84
 -13  20   4   -0.67    0.71
  20  13   5   -0.97    0.82
 -13  20   5    1.66    0.84
  20  13   6    4.61    1.15
 -13  20   6    3.49    1.06
  20  13   7    0.51    0.70
 -13  20   7   -0.73    0.81
  20  13   8    2.31    0.83
 -13  20   8    2.17    0.86
  20  13   8    1.40    0.86
  20  13   9    0.75    0.80
  20  13   9    1.26    0.85
  20  13  10    8.61    1.20
  20  13  10    6.62    1.13
  20  13  11    2.64    0.79
  20  13  11    2.60    0.91
  20  13  12    0.81    0.64
  20  14   0    0.10    0.82
 -14  20   0    1.47    0.81
  20  14  -1    0.37    0.74
  20  14   1    0.06    0.69
 -14  20  -1    0.57    0.74
 -14  20   1    0.68    0.77
  20  14  -2    3.18    0.99
  20  14   2    3.15    1.06
 -14  20   2    2.23    0.91
  20  14   3    1.88    0.92
 -14  20   3    0.14    0.75
  20  14   4    1.05    0.83
 -14  20   4    2.00    0.90
  20  14   5    0.71    0.78
 -14  20   5    1.37    0.91
  20  14   6    5.37    1.19
 -14  20   6    3.38    1.01
  20  14   6    5.00    1.06
  20  14   7    2.71    0.87
  20  14   7    2.86    0.95
  20  14   8    0.24    0.73
  20  14   8    0.42    0.71
  20  14   9    1.05    0.77
  20  14   9   -0.97    0.84
  20  14  10    1.46    0.75
  20  14  10   -0.93    0.79
  20  14  11    0.34    0.56
  20  14  11    0.95    0.72
  20  15   0   -0.88    0.77
  20  15  -1    4.02    1.06
  20  15   1    5.88    1.24
  20  15  -2    2.94    0.91
  20  15   2    2.78    0.97
 -15  20   2    2.66    1.01
  20  15   3    0.07    0.77
 -15  20   3   -1.00    0.83
  20  15   4    0.95    0.84
 -15  20   4    1.64    0.91
  20  15   5    1.55    0.81
  20  15   6    7.40    1.33
  20  15   7    0.32    0.75
  20  15   7    0.26    0.71
  20  15   8    2.37    0.84
  20  15   8    2.73    0.85
  20  15   9    1.48    0.79
  20  15   9    1.68    0.80
  20  15  10    2.25    0.80
  20  15  10    1.73    0.78
  20  15  11   -0.39    0.58
  20  15  11    0.48    0.56
  20  16   0   14.55    1.71
  20  16  -1    0.41    0.81
  20  16   1    0.51    0.72
  20  16  -2    0.05    0.75
  20  16   2    2.06    0.85
  20  16   3   -0.08    0.71
  20  16   4    9.95    1.44
  20  16   5    0.05    0.76
  20  16   6    5.71    1.20
  20  16   7    2.48    0.90
  20  16   7    2.34    0.82
  20  16   8   16.29    1.50
  20  16   8   17.24    1.69
  20  16   9    1.02    0.73
  20  16   9   -0.05    0.65
  20  16  10   -0.31    0.53
  20  16  10    0.81    0.63
  20  17   0    0.16    0.74
  20  17  -1    2.32    0.92
  20  17   1    3.42    1.06
  20  17  -2    1.06    0.80
  20  17   2    0.08    0.75
  20  17   3    1.53    0.91
  20  17   4    1.56    0.84
  20  17   5    1.54    0.88
  20  17   6   -1.00    0.84
  20  17   7    2.00    0.85
  20  17   8   -0.33    0.68
  20  17   9    0.23    0.60
  20  17   9    0.59    0.56
  20  17  10    0.51    0.52
  20  17  10    1.59    0.61
  20  18   0    9.93    1.39
  20  18  -1   -0.36    0.80
  20  18   1    0.41    0.79
  20  18  -2    0.41    0.65
  20  18   2    1.55    0.80
  20  18   3    0.68    0.85
  20  18   4    3.45    0.96
  20  18   5    0.91    0.72
  20  18   6    0.85    0.81
  20  18   7   -0.65    0.69
  20  18   8    2.71    0.84
  20  18   9    0.28    0.63
  20  19   0    0.43    0.74
  20  19  -1   -0.63    0.79
  20  19   1   -0.04    0.71
  20  19   2    3.21    0.98
  20  19   3    1.75    0.77
  20  19   4    1.26    0.81
  20  19   5   -0.94    0.79
  20  19   6    5.09    1.05
  20  19   7    0.05    0.63
  20  19   8    3.12    0.82
  20  20   0   -0.73    0.78
  20  20   1    0.61    0.71
  20  20  -1   -0.26    0.70
  20  20   2    0.50    0.66
  20  20   3    0.82    0.76
  20  20   4    1.87    0.80
  20  20   5   -0.20    0.64
  20  20   6    2.55    0.80
  20  20   7    1.09    0.67
  20  21   0    0.12    0.67
  20  21  -1    3.06    0.81
  20  21   1    1.52    0.74
  20  21   2    1.25    0.67
  20  21   3   -0.49    0.73
  20  21   4   -0.12    0.65
  20  21   5   -0.43    0.61
  19  21   0   -0.18    0.75
  19  21  -1    0.51    0.66
  19  21   1    0.64    0.70
  19  21   2    1.02    0.74
  19  21   3    0.72    0.73
  19  21   4    4.79    1.00
  19  21   5    0.98    0.69
  19  21   6    1.51    0.73
  19  21   7   -0.04    0.55
  18  21   0    0.83    0.76
  18  21  -1    2.05    0.87
  18  21   1    0.93    0.76
  18  21   2    2.42    0.89
  18  21   3    1.26    0.71
  18  21   4    1.46    0.82
  18  21   5    1.66    0.80
  18  21   6    0.70    0.63
  18  21   7    1.11    0.74
  18  21   8   -0.10    0.55
  17  21   0    1.57    0.82
  17  21  -1    0.50    0.74
  17  21   1    1.84    0.89
  17  21   2    3.51    0.95
  17  21   3    2.00    0.86
  17  21   4    0.42    0.70
  17  21   5    0.66    0.66
  17  21   6    0.79    0.77
  17  21   7   -0.76    0.72
  17  21   8    0.28    0.67
  17  21   9    1.57    0.68
  16  21   0    0.50    0.70
  16  21  -1    2.65    0.94
  16  21   1    1.90    0.89
  16  21  -2   17.02    1.64
  16  21   2   15.59    1.70
  16  21   3    1.20    0.81
  16  21   4    1.65    0.80
  16  21   5   -0.93    0.79
  16  21   6    4.29    1.03
  16  21   7    2.52    0.86
  16  21   8    0.76    0.61
  16  21   9    1.13    0.72
  15  21   0    1.16    0.86
  15  21  -1    4.01    1.09
  15  21   1    1.63    0.84
  15  21   2    0.19    0.74
  15  21  -2    1.57    0.80
  15  21   3    0.46    0.78
  15  21   4    1.81    0.80
  15  21   5    0.61    0.73
  15  21   6    1.08    0.77
  15  21   7    3.36    0.96
  15  21   8    0.38    0.67
  15  21   9   -0.09    0.62
  15  21  10    0.56    0.56
  14  21   0    6.92    1.23
  14  21  -1    0.52    0.82
  14  21   1   -0.30    0.77
  14  21  -2    8.73    1.25
  14  21   2    5.99    1.20
  14  21   3    1.16    0.85
  14  21   4    2.16    0.86
  14  21   5    3.74    1.02
  14  21   6   -1.33    0.87
  14  21   7    0.46    0.81
  14  21   8    1.27    0.75
  14  21   9    3.34    0.91
  14  21  10    1.73    0.69
  14  21  10   -0.46    0.64
  14  21  11    1.50    0.66
  14  21  11   -0.52    0.55
  13  21   0    4.16    1.03
  13  21  -1    0.29    0.72
  13  21   1   -0.99    0.79
  13  21  -2    1.83    0.80
  13  21   2    1.76    0.90
  13  21   3    1.13    0.85
  13  21   4    7.64    1.36
  13  21   5    0.62    0.84
  13  21   6   -0.05    0.71
  13  21   7    1.14    0.78
  13  21   8    0.84    0.74
  13  21   9   -0.15    0.61
  13  21   9   -1.42    0.83
  13  21  10    0.37    0.59
  13  21  10    0.46    0.63
  13  21  11    1.52    0.65
  13  21  11    2.56    0.74
  12  21   0    1.90    0.88
  12  21  -1    7.38    1.31
  12  21   1    6.16    1.26
  12  21  -2    0.41    0.73
  12  21   2    0.52    0.78
  12  21   3   -0.33    0.82
  12  21   4    2.45    0.92
  12  21   5    3.67    1.00
  12  21   6    1.08    0.82
  12  21   7   11.60    1.54
  12  21   8    1.59    0.84
  12  21   9    0.04    0.66
  12  21   9   -0.60    0.79
  12  21  10   -0.18    0.64
  12  21  10    0.44    0.72
  12  21  11    0.38    0.58
  21 -12  11    0.95    0.67
  12  21  11    0.69    0.63
  12  21  12    0.05    0.52
  21 -12  12   -1.91    0.65
  11  21   0    0.92    0.90
  11  21  -1    7.82    1.36
  11  21   1    7.89    1.42
  11  21  -2    1.15    0.90
  11  21   2    1.06    0.81
  11  21   3    0.43    0.76
  11  21   4   10.42    1.56
  11  21   5    0.26    0.75
  11  21   6    1.62    0.91
  11  21   7   13.33    1.64
  11  21   8    4.47    0.98
  11  21   8    3.91    1.07
  11  21   9   -0.97    0.86
  11  21   9   -0.27    0.77
  11  21  10    0.77    0.64
  11  21  10   -0.24    0.73
  11  21  11    1.29    0.71
  11  21  11    0.05    0.60
  11  21  12    1.19    0.66
  21 -11  12    0.91    0.66
  10  21   0    3.43    1.11
  10  21  -1    1.38    0.88
  10  21   1    0.57    0.82
  10  21  -2    4.96    1.19
  10  21   2    4.42    1.06
  10  21   3    1.22    0.92
  10  21   4    4.77    1.15
  10  21   5    1.44    0.89
  10  21   6    7.28    1.36
  10  21   7    0.20    0.72
  10  21   8    1.92    0.89
  10  21   8   -0.25    0.80
  10  21   9   -0.02    0.70
  10  21   9    1.49    0.89
  10  21  10    2.50    0.83
  10  21  10    3.16    0.83
  10  21  11   -0.06    0.69
  10  21  11   -0.08    0.70
  10  21  12    0.56    0.62
  21 -10  12    0.38    0.67
   9  21   0   32.74    2.47
   9  21  -1    0.39    0.68
   9  21   1    1.28    0.92
   9  21  -2   -0.39    0.78
   9  21   2   -0.55    0.83
   9  21   3   -1.05    0.83
   9  21   4    2.59    0.97
   9  21   5    0.91    0.75
   9  21   6    5.89    1.25
   9  21   7    0.97    0.77
   9  21   8   18.77    1.76
   9  21   8   19.18    1.93
   9  21   9    1.87    0.81
   9  21   9    3.19    1.02
   9  21  10    1.79    0.82
   9  21  10    2.22    0.79
   9  21  11   -0.38    0.71
   9  21  11    0.31    0.64
   9  21  12    2.08    0.76
  21  -9  12    2.60    0.90
   9  21  13    0.78    0.66
  21  -9  13    0.00    0.63
   8  21   0    4.33    1.17
   8  21  -1    1.89    0.87
   8  21   1    2.96    0.96
   8  21  -2   -0.95    0.82
   8  21   2   -0.73    0.89
   8  21   3    4.90    1.17
   8  21   4    3.49    1.11
   8  21   5    1.97    0.99
   8  21   6    0.09    0.74
   8  21   7    0.86    0.74
   8  21   7    0.52    0.80
   8  21   8    3.55    1.01
   8  21   8    2.42    0.88
   8  21   9    2.44    0.94
   8  21   9    2.05    0.90
   8  21  10    0.97    0.73
   8  21  10    0.40    0.79
   8  21  11    1.76    0.82
   8  21  11    1.92    0.79
   8  21  12   -0.38    0.67
   8  21  13    0.62    0.62
  21  -8  13    0.14    0.62
   7  21   0   13.20    1.65
   7  21  -1    5.21    1.16
   7  21   1    4.70    1.16
   7  21  -2    1.68    0.90
   7  21   2    1.59    0.90
   7  21   3    0.15    0.75
   7  21   4   15.17    1.80
   7  21   5    3.84    1.06
   7  21   6    1.39    0.93
   7  21   7    3.62    0.92
   7  21   7    1.56    0.82
   7  21   8   32.86    2.37
   7  21   8   31.42    2.41
   7  21   9    1.40    0.82
   7  21   9    3.98    1.09
   7  21  10    0.61    0.75
   7  21  10   -0.53    0.84
   7  21  11    0.05    0.73
   7  21  11    1.25    0.69
   7  21  12    4.33    1.03
   7  21  13    0.59    0.63
  21  -7  13   -0.28    0.75
   6  21   0    3.27    1.06
   6  21   1   12.32    1.66
   6  21  -1   11.53    1.52
   6  21  -2   -1.16    0.96
   6  21   2    0.16    0.71
   6  21   3    7.79    1.40
   6  21   4    0.87    0.71
   6  21   5    3.72    1.08
   6  21   6    0.05    0.74
   6  21   7    1.82    0.84
   6  21   7    1.43    0.79
   6  21   8    3.38    1.08
   6  21   8    1.17    0.83
   6  21   9    4.38    1.09
   6  21   9    2.26    0.96
   6  21  10    1.54    0.86
   6  21  10    1.23    0.79
   6  21  11    0.92    0.76
   6  21  11    0.77    0.69
   6  21  12    0.95    0.79
   6  21  13    0.68    0.67
  21  -6  13    0.23    0.80
   5  21   0    0.89    0.82
   5  21  -1    1.97    0.96
   5  21   1    0.58    0.79
  -5 -21  -2    3.75    1.80
   5  21  -2    3.91    1.09
   5  21   2    3.40    0.99
  -5 -21  -3   13.98    3.41
   5  21   3    8.80    1.37
   5  21   4    2.41    0.92
   5  21   5    2.28    1.01
   5  21   6    0.34    0.75
   5  21   7    0.16    0.68
   5  21   7    0.55    0.81
   5  21   8    1.68    0.88
   5  21   8    2.54    0.98
   5  21   9    0.42    0.84
   5  21   9    1.21    0.85
   5  21  10    1.19    0.83
   5  21  10    1.58    0.78
   5  21  11    5.45    1.13
   5  21  11    4.99    1.07
   5  21  12    1.21    0.89
   5  21  13    1.02    0.72
  21  -5  13    1.19    0.73
   4  21   0    0.95    0.85
   4  21  -1    2.56    0.97
   4  21   1    3.62    1.10
  -4 -21  -2    1.27    1.78
   4  21  -2    2.43    0.96
   4  21   2    3.08    1.04
   4  21   3   12.80    1.66
  -4 -21  -3    9.79    2.77
   4  21   4   15.12    1.79
   4  21   5    0.43    0.79
   4  21   6    1.66    0.77
   4  21   6   -0.45    0.84
   4  21   7    0.16    0.69
   4  21   7    1.06    0.82
   4  21   8    0.51    0.77
   4  21   8    0.60    0.72
   4  21   9    8.36    1.41
   4  21   9    8.39    1.38
   4  21  10    1.75    0.85
   4  21  10    4.99    1.06
   4  21  11    1.79    0.91
   4  21  11    3.69    0.97
   4  21  12   -0.61    0.80
   4  21  13    0.74    0.73
  21  -4  13   -0.55    0.85
   4  21  14   -1.02    0.73
  21  -4  14    0.47    0.67
   3  21   0   10.27    1.49
   3  21  -1   22.81    2.05
   3  21   1   22.61    2.10
   3  21  -2   10.04    1.47
   3  21   2    9.60    1.40
  -3 -21  -3   14.53    3.35
   3  21   3   12.46    1.60
   3  21   4   10.29    1.50
   3  21   5    3.59    1.12
   3  21   6   -0.54    0.76
   3  21   6    0.08    0.69
   3  21   7    5.30    1.07
   3  21   7    5.87    1.23
   3  21   8    0.18    0.71
   3  21   8   -0.05    0.78
   3  21   9    0.83    0.73
   3  21   9    1.14    0.79
   3  21  10    2.45    0.98
   3  21  10    3.68    1.05
   3  21  11    2.08    0.95
   3  21  11    2.82    0.89
   3  21  12    1.85    0.86
   3  21  13    2.04    0.93
  21  -3  13    0.71    0.82
   3  21  14    1.26    0.77
  21  -3  14    0.11    0.70
  21  -3  14   -0.89    0.55
   2  21   0    6.59    1.25
   2  21  -1   14.02    1.68
   2  21   1   10.68    1.50
   2  21  -2   52.20    2.99
   2  21   2   59.06    3.25
   2  21  -3    6.16    1.23
   2  21   3    5.53    1.17
   2  21   4    0.09    0.77
   2  21   5    0.76    0.75
   2  21   6    0.70    0.65
   2  21   6    2.10    0.97
   2  21   7   13.11    1.66
   2  21   7   12.29    1.63
   2  21   8   -0.22    0.78
   2  21   8    1.03    0.85
   2  21   9    0.41    0.75
   2  21   9   -0.39    0.78
   2  21  10   10.78    1.53
   2  21  10   13.16    1.58
   2  21  11    0.74    0.86
   2  21  11    0.96    0.72
   2  21  12   -0.12    0.75
   2  21  13    2.07    0.88
  21  -2  13    1.24    0.88
   2  21  14    1.42    0.73
  21  -2  14    0.11    0.73
  21  -2  14    0.19    0.54
   1  21   0    0.59    0.79
   1  21  -1    2.10    0.97
   1  21   1    3.56    1.13
   1  21  -2   21.91    2.03
   1  21   2   19.86    2.00
   1  21  -3    6.57    1.27
   1  21   3    9.40    1.47
   1  21   4   16.67    1.82
   1  21   5    1.75    0.91
   1  21   6    2.66    0.97
   1  21   6    1.52    0.87
   1  21   7    0.49    0.69
   1  21   7    2.17    0.88
   1  21   8    1.00    0.76
   1  21   8    0.23    0.82
   1  21   9    3.26    0.95
   1  21   9    4.08    1.14
   1  21  10    2.60    0.98
   1  21  10    2.08    0.89
   1  21  11    0.59    0.81
   1  21  11    1.77    0.78
   1  21  12    0.67    0.77
   1  21  13   -0.31    0.75
  21  -1  13    1.65    0.90
   1  21  14    1.14    0.79
  21  -1  14   -1.08    0.81
  21  -1  14   -1.08    0.69
   0  21   0   18.63    1.96
   0  21   1   14.01    1.74
   0  21  -1   11.30    1.57
   0  21  -2   55.11    3.10
   0  21   2   57.18    3.20
   0  21  -3    1.32    0.84
   0  21   3    3.22    1.03
   0  21   4   16.85    1.84
   0  21   5    2.62    0.95
   0  21   5    3.20    1.09
   0  21   6   12.52    1.55
   0  21   6   13.87    1.71
   0  21   7    2.44    0.95
   0  21   7    1.41    0.94
   0  21   8    0.42    0.77
   0  21   8    0.99    0.73
   0  21   9   -0.24    0.75
   0  21   9    0.13    0.71
   0  21  10    7.61    1.34
   0  21  10    8.39    1.28
   0  21  11    0.96    0.86
   0  21  11    0.50    0.69
   0  21  12    1.70    0.91
   0  21  13   -0.59    0.76
  21   0  13    0.64    0.76
   0  21  14    1.63    0.81
  21   0  14    1.37    0.85
  21   0  14    1.28    0.66
  -1  21   0    0.25    0.86
  -1  21  -1    1.13    0.83
  -1  21   1    2.13    0.93
  -1  21  -2   19.53    1.96
  -1  21   2   25.38    2.24
 -21  -1   3    7.37    2.47
  -1  21  -3   10.18    1.46
  -1  21   3    8.74    1.41
  -1  21   4   14.01    1.69
 -21  -1   4   14.28    3.49
  -1  21   5    4.04    1.10
  -1  21   5    2.47    0.97
  -1  21   6    3.46    1.09
  -1  21   6    3.20    1.11
  -1  21   7    1.70    1.07
  -1  21   7    1.48    0.82
  -1  21   8    0.82    0.76
  -1  21   8    0.56    0.73
  -1  21   9    2.85    1.04
  -1  21   9    4.12    1.08
  -1  21  10    2.24    1.09
  -1  21  10    0.55    0.67
  -1  21  11    1.35    0.96
  -1  21  11    3.06    0.91
  -1  21  12    0.38    0.81
  -1  21  13    1.06    0.83
  21   1  13    0.39    0.76
  -1  21  14    0.39    0.67
  21   1  14   -0.19    0.69
  21   1  14   -0.14    0.59
  -2  21   0    5.60    1.21
  -2  21   1   12.97    1.71
  -2  21  -1   10.20    1.54
 -21  -2   2   50.00    5.86
  -2  21  -2   51.39    3.02
  -2  21   2   51.53    3.09
 -21  -2   3    7.51    2.53
  -2  21  -3    5.02    1.24
  -2  21   3    5.69    1.25
 -21  -2   4    3.47    1.96
  -2  21   4    0.43    0.76
  -2  21   5    0.66    0.80
  -2  21   5    1.51    0.87
  -2  21   6    0.87    0.81
  -2  21   6    2.09    0.85
  -2  21   7   14.66    1.77
  -2  21   7   13.69    1.72
  -2  21   8    0.42    0.75
  -2  21   8    1.40    0.87
  -2  21   9    2.15    1.01
  -2  21   9    1.40    0.81
  -2  21  10   12.33    1.65
  -2  21  10   12.58    1.48
  -2  21  11    0.36    0.79
  -2  21  12   -1.06    0.84
  -2  21  13    1.71    0.86
  21   2  13    1.74    0.83
  -2  21  14    0.97    0.66
  21   2  14    2.22    0.81
  21   2  14    2.11    0.74
  -3  21   0    9.53    1.48
  -3  21  -1   22.94    2.12
  -3  21   1   23.71    2.19
  -3  21   2   11.56    1.59
  -3  21  -2    8.28    1.37
 -21  -3   3   12.04    3.19
  -3  21  -3    9.48    1.45
  -3  21   3   10.57    1.56
 -21  -3   4   12.89    2.74
  -3  21   4   11.47    1.61
  -3  21   5    0.17    0.79
  -3  21   5    2.84    1.01
  -3  21   6   -0.94    0.77
  -3  21   6    0.64    0.71
  -3  21   7    6.23    1.29
  -3  21   7    5.09    1.23
  -3  21   8   -0.28    0.85
  -3  21   8    0.60    0.75
  -3  21   9    2.91    1.12
  -3  21   9    2.12    0.89
  -3  21  10    2.98    1.05
  -3  21  10    4.02    0.96
  -3  21  11    3.36    1.11
  -3  21  12    0.54    0.83
  21   3  12   -0.54    0.84
  -3  21  13    2.93    0.94
  21   3  13    2.61    0.92
  21   3  14    0.84    0.72
  21   3  14    0.65    0.67
  -4  21   0   -0.13    0.75
  -4  21  -1    3.03    0.95
  -4  21   1    2.45    0.99
 -21  -4   2    5.05    2.40
  -4  21  -2    1.04    0.82
  -4  21   2    3.94    1.16
  -4  21   3   10.62    1.61
  -4  21  -3   11.63    1.49
  -4  21   4   13.90    1.74
  -4  21   5    1.99    0.94
  -4  21   5    0.79    0.79
  -4  21   6    1.08    1.00
  -4  21   6    0.95    0.78
  -4  21   7    0.11    0.77
  -4  21   7    1.91    0.98
  -4  21   8    0.25    0.75
  -4  21   8   -0.23    0.74
  -4  21   9    7.49    1.40
  -4  21   9    7.61    1.31
  -4  21  10    1.52    0.87
  -4  21  10    1.17    0.68
  -4  21  11    2.28    1.00
  -4  21  12    0.65    0.87
  21   4  12   -0.31    0.79
  21   4  13    1.86    0.87
  21   4  14    0.24    0.61
  21   4  14   -1.01    0.71
  -5  21   0    1.62    0.84
 -21  -5   0   -1.17    1.61
  -5  21  -1    0.19    0.70
  -5  21   1    1.19    0.94
 -21  -5   1   -0.48    1.32
 -21  -5   2    4.41    2.60
  -5  21  -2    2.44    0.92
  -5  21   2    4.13    1.09
  -5  21  -3    9.42    1.39
  -5  21   3    9.16    1.49
  -5  21  -4    1.62    0.84
  -5  21   4    3.88    1.12
  -5  21   5    1.40    0.80
  -5  21   6   -0.34    0.83
  -5  21   6   -0.16    0.77
  -5  21   7    0.73    0.87
  -5  21   7   -0.20    0.76
  -5  21   8    1.40    0.89
  -5  21   8    1.96    0.94
  -5  21   9    0.29    0.76
  -5  21   9    0.75    0.77
  -5  21  10    3.02    1.09
  -5  21  10    0.09    0.68
  -5  21  11    6.59    1.26
  21   5  12   -0.76    0.75
  21   5  13    0.71    0.68
  21   5  13    0.54    0.73
  -6  21   0    1.92    0.87
 -21  -6   0    3.37    1.76
  -6  21   1   11.46    1.60
  -6  21  -1    9.37    1.42
 -21  -6   1   11.30    3.14
  -6  21  -2   -1.69    0.94
  -6  21   2   -1.23    0.91
 -21  -6   2    0.14    0.94
  -6  21  -3    6.96    1.29
  -6  21   3    7.05    1.28
  -6  21  -4   -0.12    0.72
  -6  21   4    0.73    0.87
  -6  21   5    4.17    1.08
  -6  21   6   -0.77    0.72
  -6  21   7    1.60    0.80
  -6  21   8    2.42    1.10
  -6  21   8    1.60    0.93
  -6  21   9    3.86    1.15
  -6  21   9    4.50    1.05
  -6  21  10    1.27    0.75
  21   6  11    0.09    0.77
  21   6  12    0.13    0.71
  21   6  13    0.39    0.66
  21   6  13    0.19    0.73
 -21  -7   0    8.02    2.68
  -7  21   0    9.95    1.48
  -7  21  -1    4.17    1.09
  -7  21   1    2.78    1.05
  -7  21  -2    2.50    0.99
  -7  21   2    1.34    0.94
  -7  21  -3    1.00    0.77
  -7  21   3    0.50    0.76
  -7  21  -4   15.57    1.73
  -7  21   4   15.51    1.84
  -7  21   5    4.31    1.12
  -7  21   6    2.46    0.96
  -7  21   7    3.01    1.04
  -7  21   8   31.73    2.40
  -7  21   9    3.39    0.99
  21   7  10   -0.11    0.67
  -7  21  10    1.77    0.83
  21   7  11    1.83    0.79
  21   7  11    1.54    0.87
  21   7  12    2.82    0.88
  21   7  13    0.36    0.58
  21   7  13   -0.11    0.67
  -8  21   0    4.59    1.11
  -8  21  -1    1.11    0.79
  -8  21   1    1.37    0.79
  -8  21   2    1.34    0.89
  -8  21  -2    0.11    0.71
  -8  21  -3    3.06    1.04
  -8  21   3    4.18    1.16
  -8  21   4    2.19    0.96
  -8  21  -4    1.42    0.77
  -8  21   5   -0.25    0.68
  -8  21   6    0.65    0.71
  -8  21   7    1.68    0.88
  -8  21   8    3.26    1.00
  -8  21   9    1.83    0.78
  21   8  10    1.90    0.91
  21   8  10   -1.11    0.94
  -8  21  10    0.12    0.72
  21   8  11    1.47    0.78
  21   8  11    1.30    0.77
  21   8  12    0.63    0.66
  21   8  12    0.45    0.78
  21   8  13    0.99    0.53
  21   8  13    0.53    0.72
  -9  21   0   26.60    2.34
  -9  21  -1   -0.83    0.81
  -9  21   1   -0.45    0.80
  -9  21  -2    0.94    0.78
  -9  21   2   -0.10    0.64
  -9  21  -3   -0.48    0.79
  -9  21   3   -0.99    0.83
  -9  21  -4    3.21    1.00
  -9  21   4    3.39    1.13
  -9  21   5   -0.21    0.73
  -9  21   6    5.62    1.15
  -9  21   7    1.15    0.74
  -9  21   8   16.16    1.73
  21   9   9    1.84    0.76
  -9  21   9    2.95    0.93
  21   9  10    1.04    0.74
  -9  21  10    0.19    0.65
  21   9  11    0.53    0.62
  21   9  12    2.51    0.89
  21   9  13    1.07    0.72
 -10  21   0    1.94    0.90
 -10  21  -1    1.19    0.82
 -10  21   1    0.14    0.70
 -10  21  -2    3.26    1.07
 -10  21   2    3.60    1.04
 -10  21  -3    1.92    0.92
 -10  21   3    1.28    0.89
 -10  21  -4    6.48    1.23
 -10  21   4    3.93    1.11
 -10  21   5    0.49    0.83
 -10  21   6    9.37    1.48
 -10  21   7    0.11    0.74
  21  10   8    1.22    0.81
 -10  21   8    0.38    0.74
  21  10   9   -0.41    0.72
 -10  21   9    0.21    0.69
  21  10  10    2.55    0.85
  21  10  11    0.30    0.63
  21  10  11   -0.73    0.91
  21  10  12    0.37    0.70
 -11  21   0    0.45    0.74
 -11  21  -1    7.03    1.30
 -11  21   1    9.11    1.42
 -11  21  -2    0.50    0.73
 -11  21   2    1.68    0.91
 -11  21  -3   -0.62    0.77
 -11  21   3   -0.34    0.73
 -11  21   4    7.96    1.37
 -11  21   5    1.35    0.82
 -11  21   6    0.52    0.75
  21  11   7   12.31    1.62
 -11  21   7   12.95    1.61
  21  11   8    4.53    1.12
 -11  21   8    3.72    0.93
  21  11   9   -0.29    0.71
 -11  21   9   -0.06    0.67
  21  11  10    1.47    0.81
  21  11  10    0.73    0.75
  21  11  11    0.73    0.61
  21  11  11    0.26    0.71
  21  11  12   -0.02    0.66
 -12  21   0    0.77    0.79
 -12  21  -1    5.70    1.27
 -12  21   1    5.25    1.21
 -12  21  -2    0.69    0.79
 -12  21   2    0.36    0.72
 -12  21  -3    0.77    0.72
 -12  21   3    0.07    0.71
 -12  21   4    3.09    1.05
 -12  21   5    2.47    0.88
  21  12   6    1.75    0.89
 -12  21   6    0.17    0.69
  21  12   7    9.15    1.43
 -12  21   7    8.29    1.35
  21  12   8    2.50    0.93
 -12  21   8    1.96    0.87
  21  12   9   -0.13    0.74
  21  12   9   -0.49    0.77
  21  12  10    0.51    0.67
  21  12  10    0.03    0.76
  21  12  11    2.22    0.78
  21  12  11    0.26    0.65
  21  12  12   -0.50    0.57
 -13  21   0    4.08    1.10
  21  13  -1    0.24    0.75
 -13  21  -1   -0.14    0.73
 -13  21   1    0.88    0.84
  21  13  -2    1.76    0.78
 -13  21   2    1.91    0.91
 -13  21   3    1.41    0.92
  21  13   4    7.28    1.27
 -13  21   4    6.81    1.32
  21  13   5   -0.52    0.85
 -13  21   5    1.14    0.87
  21  13   6    0.02    0.70
 -13  21   6    1.30    0.85
  21  13   7    0.01    0.67
 -13  21   7    2.01    0.89
  21  13   8    1.99    0.89
  21  13   8    1.56    0.83
  21  13   9   -0.51    0.75
  21  13   9   -0.84    0.75
  21  13  10    0.00    0.61
  21  13  10    0.81    0.69
  21  13  11    1.41    0.60
  21  13  11    1.87    0.76
  21  14   0    5.12    1.17
 -14  21   0    4.99    1.17
  21  14  -1   -0.56    0.76
  21  14   1    1.56    0.87
 -14  21   1    0.56    0.79
  21  14  -2    7.76    1.33
  21  14   2    6.49    1.35
 -14  21   2    7.44    1.36
  21  14   3    2.16    0.89
 -14  21   3    0.98    0.83
  21  14   4    1.58    0.82
 -14  21   4    1.90    0.88
  21  14   5    3.39    1.02
 -14  21   5    3.06    1.04
  21  14   6    0.46    0.75
 -14  21   6   -0.14    0.65
  21  14   6    0.03    0.66
  21  14   7    0.33    0.72
  21  14   7   -0.40    0.69
  21  14   8    0.89    0.75
  21  14   8    0.22    0.62
  21  14   9    3.17    0.88
  21  14   9    3.36    0.85
  21  14  10   -0.02    0.57
  21  14  10    0.52    0.65
  21  14  11   -0.22    0.58
  21  14  11    0.69    0.59
  21  15   0   -0.85    0.73
  21  15  -1    2.34    0.97
  21  15   1    1.52    0.87
  21  15  -2    1.23    0.73
  21  15   2    0.34    0.68
  21  15   3    1.87    0.93
  21  15   4    0.38    0.77
  21  15   5    0.95    0.78
  21  15   6    0.25    0.75
  21  15   7    1.98    0.86
  21  15   7    2.04    0.79
  21  15   8   -0.10    0.68
  21  15   8   -0.18    0.58
  21  15   9    0.67    0.67
  21  15   9   -0.05    0.60
  21  15  10   -0.40    0.57
  21  15  10   -0.04    0.56
  21  16   0   -0.08    0.81
  21  16  -1    2.24    0.91
  21  16   1    1.79    0.86
  21  16  -2   16.13    1.64
  21  16   2   15.47    1.76
  21  16   3    1.29    0.77
  21  16   4    1.91    0.90
  21  16   5   -0.86    0.76
  21  16   6    4.68    1.03
  21  16   7    2.61    0.94
  21  16   8    0.54    0.72
  21  16   8    0.59    0.63
  21  16   9    0.55    0.65
  21  16   9    0.63    0.53
  21  17   0    0.62    0.79
  21  17  -1    0.61    0.76
  21  17   1    0.64    0.80
  21  17  -2    4.36    0.99
  21  17   2    3.56    0.96
  21  17   3    1.16    0.84
  21  17   4    0.47    0.69
  21  17   5    1.22    0.80
  21  17   6    0.61    0.74
  21  17   7    0.20    0.68
  21  17   8   -0.36    0.65
  21  17   9    1.64    0.72
  21  18   0   -0.40    0.68
  21  18  -1    2.16    0.82
  21  18   1    1.27    0.81
  21  18   2    2.71    0.91
  21  18   3   -0.04    0.69
  21  18   4    1.05    0.76
  21  18   5    1.28    0.75
  21  18   6    1.94    0.82
  21  18   7    0.02    0.61
  21  18   8   -0.31    0.59
  21  19   0    1.88    0.79
  21  19  -1    0.21    0.67
  21  19   1   -1.08    0.74
  21  19   2    0.85    0.76
  21  19   3    0.17    0.65
  21  19   4    3.91    0.98
  21  19   5   -0.22    0.70
  21  19   6    1.65    0.78
  21  19   7    0.23    0.61
  21  20   0   -0.68    0.71
  21  20   1    4.16    0.96
  21  20  -1    3.64    0.84
  21  20   2    1.20    0.71
  21  20   3    0.95    0.68
  21  20   4    0.21    0.62
  21  20   5    0.38    0.64
  21  21   0    0.38    0.54
  21  21   1    0.49    0.58
  21  21   2    2.25    0.74
  21  21   3    0.81    0.66
  21  21   4   -0.97    0.65
  21  22   0    1.64    0.68
  20  22   0    0.77    0.67
  20  22   1    0.11    0.57
  20  22   2    0.18    0.63
  20  22   3   -0.27    0.60
  20  22   4    0.43    0.63
  19  22   0   -1.10    0.73
  19  22  -1    1.82    0.70
  19  22   1    0.73    0.63
  19  22   2    9.40    1.19
  19  22   3    1.00    0.72
  19  22   4    0.89    0.63
  19  22   5   -0.35    0.61
  18  22   0    0.79    0.73
  18  22  -1    1.11    0.67
  18  22   1    0.22    0.70
  18  22   2    0.62    0.74
  18  22   3    1.77    0.76
  18  22   4    0.90    0.72
  18  22   5   -0.57    0.69
  18  22   6   -0.36    0.64
  18  22   7    1.56    0.68
  17  22   0   -0.21    0.69
  17  22  -1    0.83    0.69
  17  22   1    0.51    0.73
  17  22   2   -0.40    0.80
  17  22   3    0.13    0.68
  17  22   4    1.96    0.75
  17  22   5    0.81    0.69
  17  22   6    0.03    0.64
  17  22   7    0.88    0.71
  17  22   8    0.19    0.55
  16  22   0   15.01    1.63
  16  22  -1    5.41    1.10
  16  22   1    6.01    1.17
  16  22   2    4.30    1.04
  16  22   3   -1.06    0.77
  16  22   4    5.85    1.14
  16  22   5    0.52    0.75
  16  22   6    0.88    0.70
  16  22   7    2.35    0.80
  16  22   8    3.61    0.85
  15  22   0    8.12    1.27
  15  22  -1    1.66    0.88
  15  22   1    1.79    0.81
  15  22   2   10.66    1.48
  15  22   3    3.93    1.05
  15  22   4   -0.44    0.82
  15  22   5    1.20    0.79
  15  22   6    2.69    0.93
  15  22   7    0.62    0.76
  15  22   8    1.56    0.76
  15  22   9    4.19    0.89
  14  22   0   13.78    1.61
  14  22  -1    2.81    0.93
  14  22   1    1.37    0.75
  14  22  -2    1.25    0.81
  14  22   2    0.77    0.78
  14  22   3    1.21    0.85
  14  22   4    0.04    0.75
  14  22   5    0.62    0.80
  14  22   6    0.72    0.73
  14  22   7    1.25    0.68
  14  22   8    2.58    0.87
  14  22   9   -0.07    0.63
  14  22  10    0.96    0.61
  13  22   0    8.74    1.35
  13  22  -1    0.06    0.72
  13  22   1    0.58    0.74
  13  22  -2   39.33    2.50
  13  22   2   35.99    2.55
  13  22   3    2.29    0.95
  13  22   4   13.44    1.63
  13  22   5    0.91    0.78
  13  22   6   30.05    2.27
  13  22   7    3.57    0.95
  13  22   8   -0.86    0.75
  13  22   9    1.65    0.76
  13  22  10   11.48    1.25
  22 -13  10   10.10    1.13
  12  22   0   -0.01    0.72
  12  22  -1   -0.33    0.68
  12  22   1    0.28    0.73
  12  22  -2    2.63    0.88
  12  22   2    3.52    1.03
  12  22   3    6.68    1.24
  12  22   4   11.12    1.61
  12  22   5   -1.31    0.91
  12  22   6    1.27    0.80
  12  22   7    0.67    0.82
  12  22   8    4.81    1.10
  12  22   9   -1.18    0.79
  12  22  10    1.31    0.69
  12  22  10    0.30    0.61
  12  22  11    1.75    0.63
  22 -12  11    2.73    0.72
  12  22  11    2.86    0.72
  11  22   0   -0.60    0.77
  11  22  -1    5.05    1.15
  11  22   1    5.02    1.17
  11  22  -2   -0.35    0.77
  11  22   2    0.70    0.75
  11  22   3    1.99    0.90
  11  22   4    0.22    0.78
  11  22   5    0.66    0.78
  11  22   6   -0.56    0.83
  11  22   7    4.14    1.09
  11  22   8    0.68    0.77
  11  22   9    0.56    0.61
  11  22   9   -1.00    0.75
  11  22  10    0.76    0.61
  11  22  10    0.44    0.61
  11  22  11   -0.40    0.57
  22 -11  11   -0.74    0.70
  11  22  11    0.54    0.57
  10  22   0   32.24    2.46
  10  22  -1    3.07    1.07
  10  22   1    2.84    0.96
  10  22  -2    4.15    1.03
  10  22   2    3.27    1.04
  10  22   3   -0.77    0.77
  10  22   4   12.93    1.66
  10  22   5    1.53    0.93
  10  22   6   -1.00    0.87
  10  22   7    3.25    1.04
  10  22   8   18.07    1.80
  10  22   9    2.40    0.79
  10  22   9    3.16    0.99
  10  22  10    1.81    0.73
  10  22  10    0.84    0.72
  10  22  11    0.60    0.62
  10  22  11    0.56    0.58
  10  22  12    7.42    0.96
  22 -10  12    7.94    1.06
   9  22   0    1.26    0.84
   9  22  -1    8.84    1.37
   9  22   1    8.90    1.50
   9  22  -2    1.37    0.86
   9  22   2   -0.37    0.74
   9  22   3    2.26    0.90
   9  22   4   -0.47    0.81
   9  22   5   10.68    1.57
   9  22   6   -0.51    0.84
   9  22   7    3.15    0.97
   9  22   8   -0.18    0.77
   9  22   8    0.22    0.73
   9  22   9    8.93    1.26
   9  22   9    9.77    1.38
   9  22  10    0.63    0.64
   9  22  10    1.30    0.84
   9  22  11    0.23    0.60
   9  22  11    0.97    0.59
   9  22  12    0.21    0.58
  22  -9  12    0.74    0.69
   8  22   0   14.15    1.70
   8  22  -1    4.49    1.11
   8  22   1    3.61    1.08
   8  22  -2    2.71    0.99
   8  22   2    4.42    1.16
   8  22   3    1.35    0.91
   8  22   4    1.67    0.81
   8  22   5   -1.69    0.90
   8  22   6    0.59    0.71
   8  22   7    3.29    1.09
   8  22   8    2.26    0.83
   8  22   8    2.66    0.95
   8  22   9    2.74    0.94
   8  22   9    2.03    0.88
   8  22  10    1.45    0.79
   8  22  10    1.39    0.77
   8  22  11    0.18    0.65
   8  22  11   -0.62    0.66
   8  22  12    3.56    0.84
  22  -8  12    3.52    0.97
   7  22   0   13.68    1.71
   7  22  -1    8.85    1.44
   7  22   1    7.54    1.30
   7  22  -2   14.85    1.70
   7  22   2   12.36    1.59
   7  22   3    1.90    0.91
   7  22   4    1.79    0.87
   7  22   5    2.69    1.04
   7  22   6    5.66    1.21
   7  22   7    6.77    1.31
   7  22   8    2.10    0.84
   7  22   8    1.39    0.88
   7  22   9    2.17    0.87
   7  22   9    2.70    0.93
   7  22  10    1.33    0.74
   7  22  10    3.35    0.98
   7  22  11    0.71    0.78
   7  22  11    1.62    0.76
   7  22  12    1.25    0.72
   6  22   0   18.41    1.92
   6  22  -1    1.14    0.82
   6  22   1    0.60    0.72
   6  22  -2    3.31    1.02
   6  22   2    4.24    1.11
   6  22   3    7.53    1.36
   6  22   4   16.83    1.85
   6  22   5    2.85    1.05
   6  22   6    4.21    1.14
   6  22   7    2.68    0.98
   6  22   7    2.81    1.02
   6  22   8   27.87    2.13
   6  22   8   23.07    2.07
   6  22   9    1.23    0.71
   6  22   9    1.08    0.80
   6  22  10    1.18    0.85
   6  22  10   -0.58    0.72
   6  22  11    1.83    0.84
   6  22  11    2.92    0.83
   6  22  12    2.44    0.88
   6  22  13    0.85    0.64
  22  -6  13   -0.48    0.68
   5  22   0    3.70    1.17
   5  22  -1   -1.16    0.83
   5  22   1   -1.03    0.86
   5  22  -2   23.64    2.11
   5  22   2   21.16    2.07
   5  22   3   10.38    1.57
   5  22   4    4.14    1.17
   5  22   5   -0.25    0.74
   5  22   6   14.68    1.77
   5  22   7    1.13    0.73
   5  22   7    0.44    0.69
   5  22   8    1.94    0.88
   5  22   8    2.66    0.93
   5  22   9    2.52    0.89
   5  22   9    4.86    1.07
   5  22  10   13.34    1.60
   5  22  10   13.76    1.57
   5  22  11    0.23    0.71
   5  22  11    0.46    0.63
   5  22  12    1.49    0.76
   5  22  13    1.73    0.73
  22  -5  13    0.30    0.72
   4  22   0   64.43    3.37
   4  22  -1    4.03    1.09
   4  22   1    3.26    1.08
   4  22  -2   15.79    1.76
   4  22   2   16.05    1.86
   4  22   3    6.64    1.33
   4  22   4   56.45    3.25
   4  22   5    7.26    1.38
   4  22   6    1.90    0.97
   4  22   7    0.44    0.68
   4  22   7   -0.03    0.71
   4  22   8   25.29    2.10
   4  22   8   24.92    2.15
   4  22   9    0.39    0.79
   4  22   9    0.79    0.76
   4  22  10    6.40    1.18
   4  22  10    6.70    1.23
   4  22  11    2.69    0.95
   4  22  11    2.60    0.75
   4  22  12   11.36    1.32
   4  22  13    1.49    0.71
  22  -4  13    1.67    0.80
   3  22   0    0.63    0.79
   3  22  -1    3.61    0.93
   3  22   1    3.02    0.95
   3  22  -2   41.64    2.73
   3  22   2   41.22    2.79
   3  22   3    5.53    1.28
   3  22   4    0.14    0.85
   3  22   5    4.44    1.18
   3  22   6   12.97    1.67
   3  22   7    1.31    0.83
   3  22   7    1.44    0.88
   3  22   8    1.48    0.91
   3  22   8    0.97    0.77
   3  22   9    4.09    1.03
   3  22   9    3.62    0.98
   3  22  10   14.60    1.70
   3  22  10   16.44    1.68
   3  22  11    0.41    0.72
   3  22  11   -0.37    0.67
   3  22  12    1.45    0.77
   3  22  13    1.29    0.72
  22  -3  13    2.62    0.91
   2  22   0    9.02    1.39
   2  22  -1    1.81    0.81
   2  22   1    1.99    0.97
   2  22  -2    7.14    1.31
   2  22   2    7.46    1.36
   2  22  -3    2.80    0.99
   2  22   3    6.21    1.26
   2  22   4    0.48    0.75
   2  22   5   -0.96    0.94
   2  22   6    6.28    1.19
   2  22   6    7.46    1.39
   2  22   7    3.80    1.02
   2  22   7    4.53    1.12
   2  22   8    0.99    0.79
   2  22   8    1.60    0.82
   2  22   9    1.21    0.82
   2  22   9    2.48    0.86
   2  22  10    3.65    1.04
   2  22  10    3.53    0.97
   2  22  11    0.45    0.77
   2  22  11    0.53    0.64
   2  22  12    0.79    0.78
   2  22  13    1.36    0.74
  22  -2  13    0.81    0.76
   1  22   0    0.09    0.73
   1  22  -1   -0.33    0.81
   1  22   1    1.91    0.98
   1  22  -2   24.02    2.11
   1  22   2   23.54    2.19
   1  22  -3    5.45    1.16
   1  22   3    3.02    1.03
   1  22   4    7.84    1.40
   1  22   5    0.11    0.80
   1  22   6   20.34    1.94
   1  22   6   18.83    1.96
   1  22   7    4.32    1.10
   1  22   7    2.43    0.99
   1  22   8    2.34    0.90
   1  22   8    3.09    1.06
   1  22   9    3.45    1.04
   1  22   9    3.31    0.93
   1  22  10    8.12    1.39
   1  22  10    8.08    1.31
   1  22  11   -0.58    0.78
   1  22  11   -0.70    0.67
   1  22  12    0.11    0.69
   1  22  13   -0.43    0.70
  22  -1  13    0.51    0.71
   0  22   0    0.28    0.73
   0  22  -1    9.25    1.43
   0  22   1    7.77    1.36
   0  22  -2    0.53    0.81
   0  22   2    1.52    0.94
   0  22  -3    9.14    1.39
   0  22   3   10.74    1.56
   0  22   4   20.97    2.06
   0  22   5    5.72    1.20
   0  22   6   -0.52    0.74
   0  22   6   -0.17    0.77
   0  22   7    4.54    1.14
   0  22   7    1.85    0.88
   0  22   8    3.71    1.18
   0  22   8    1.83    0.77
   0  22   9    0.34    0.78
   0  22   9    0.11    0.79
   0  22  10    0.70    0.91
   0  22  10   -0.42    0.71
   0  22  11   10.30    1.46
   0  22  11   12.63    1.41
   0  22  12    1.47    0.78
   0  22  13    0.95    0.76
  22   0  13    0.08    0.76
  -1  22   0   -0.04    0.83
  -1  22  -1    1.01    0.78
  -1  22   1    0.64    0.75
  -1  22  -2   25.93    2.19
  -1  22   2   23.48    2.19
  -1  22  -3    1.20    0.86
  -1  22   3    3.59    1.08
  -1  22   4    7.61    1.33
  -1  22   5    0.30    0.84
  -1  22   6   20.24    1.94
  -1  22   6   18.76    2.00
  -1  22   7    3.18    1.03
  -1  22   7    2.60    0.97
  -1  22   8    2.96    0.96
  -1  22   8    3.83    1.09
  -1  22   9    2.99    0.98
  -1  22   9    4.47    1.12
  -1  22  10    7.51    1.30
  -1  22  10    6.91    1.19
  -1  22  11   -0.15    0.79
  -1  22  11   -0.67    0.61
  -1  22  12    2.31    0.92
  -1  22  13    0.71    0.70
  22   1  13   -0.23    0.68
  -2  22   0    9.52    1.50
  -2  22  -1    1.05    0.89
  -2  22   1    1.38    0.83
  -2  22  -2    6.09    1.25
  -2  22   2    7.20    1.31
  -2  22  -3    5.53    1.20
  -2  22   3    2.76    1.08
  -2  22   4    1.25    0.90
  -2  22   5    0.19    0.78
  -2  22   5   -0.66    0.89
  -2  22   6    5.80    1.22
  -2  22   6    3.51    1.08
  -2  22   7    2.82    1.01
  -2  22   7    4.97    1.15
  -2  22   8    1.73    0.93
  -2  22   8    1.71    0.88
  -2  22   9    1.28    0.86
  -2  22   9    0.37    0.66
  -2  22  10    4.14    1.06
  -2  22  10    3.46    0.98
  -2  22  11    1.16    0.86
  -2  22  11    1.08    0.71
  22   2  12   -0.79    0.89
  -2  22  12    0.30    0.71
  -2  22  13   -0.22    0.63
  22   2  13    1.19    0.74
  -3  22   0    1.97    1.02
  -3  22  -1    2.52    1.01
  -3  22   1    4.00    1.14
  -3  22  -2   36.67    2.58
  -3  22   2   35.40    2.61
  -3  22  -3    3.89    1.11
  -3  22   3    3.96    1.14
  -3  22   4    1.08    0.97
  -3  22   5    3.23    0.97
  -3  22   5    3.79    1.04
  -3  22   6   13.42    1.65
  -3  22   6   11.17    1.56
  -3  22   7    1.79    0.99
  -3  22   7    1.25    0.87
  -3  22   8    1.18    0.87
  -3  22   8    0.68    0.81
  -3  22   9    3.93    1.16
  -3  22   9    3.87    1.03
  -3  22  10   12.55    1.58
  -3  22  10   11.34    1.43
  -3  22  11   -0.13    0.81
  -3  22  12   -0.13    0.70
  22   3  12   -0.67    0.87
  22   3  13    1.47    0.88
  -4  22   0   59.78    3.30
  -4  22  -1    2.56    1.11
  -4  22   1    1.86    0.91
  -4  22  -2   13.56    1.68
  -4  22   2   13.15    1.72
  -4  22  -3    5.65    1.21
  -4  22   3    6.59    1.33
  -4  22   4   49.26    3.07
  -4  22   5    6.83    1.34
  -4  22   6    2.37    1.01
  -4  22   6    3.90    1.09
  -4  22   7    0.78    0.74
  -4  22   7    1.04    0.85
  -4  22   8   24.60    2.15
  -4  22   8   26.02    2.21
  -4  22   9    1.08    0.82
  -4  22   9    0.19    0.69
  -4  22  10    5.87    1.25
  -4  22  10    6.47    1.19
  -4  22  11    2.66    1.07
  22   4  12   10.85    1.50
  22   4  13    0.66    0.64
  22   4  13    1.34    0.74
  -5  22   0    5.30    1.30
  -5  22  -1    0.75    0.75
  -5  22   1   -0.58    0.79
  -5  22  -2   20.24    2.03
  -5  22   2   20.16    2.03
  -5  22  -3    8.61    1.37
  -5  22   3    8.35    1.43
  -5  22  -4    4.12    1.15
  -5  22   4    3.68    1.12
  -5  22   5    0.63    0.91
  -5  22   6   12.16    1.64
  -5  22   7    0.88    0.81
  -5  22   8    1.72    0.87
  -5  22   9    3.58    0.95
  -5  22  10   12.35    1.50
  22   5  12    1.18    0.75
  22   5  13   -0.44    0.62
  22   5  13   -0.47    0.67
  -6  22   0   19.60    1.97
  -6  22  -1    0.07    0.72
  -6  22   1   -0.19    0.76
  -6  22  -2    3.82    1.18
  -6  22   2    4.68    1.16
  -6  22  -3    6.75    1.26
  -6  22   3    6.37    1.26
  -6  22  -4   15.74    1.80
  -6  22   4   16.52    1.87
  -6  22   5    1.86    0.94
  -6  22   6    3.27    1.07
  -6  22   7    4.00    1.12
  -6  22   8   24.28    2.11
  -6  22   9    0.54    0.64
  22   6  10   -0.19    0.66
  -6  22  10    0.82    0.72
  22   6  11    4.56    1.04
  22   6  12    2.77    0.83
  22   6  13   -0.12    0.55
  22   6  13   -0.05    0.63
  -7  22   0   11.30    1.57
  -7  22  -1    5.55    1.27
  -7  22   1    6.01    1.29
  -7  22  -2   11.93    1.57
  -7  22   2    9.97    1.54
  -7  22  -3    0.11    0.69
  -7  22   3    0.13    0.75
  -7  22  -4    2.90    0.99
  -7  22   4    1.15    0.81
  -7  22   5    3.07    1.04
  -7  22   6    6.78    1.28
  -7  22   7    6.77    1.26
  -7  22   8    2.40    0.95
  -7  22   9    1.45    0.82
  22   7  10    1.54    0.83
  -7  22  10    1.81    0.77
  22   7  11    1.41    0.76
  22   7  11    0.32    0.66
  22   7  12    1.92    0.72
  22   7  12    2.83    0.92
  -8  22   0   12.28    1.67
  -8  22  -1    2.53    1.06
  -8  22   1    4.81    1.14
  -8  22  -2    3.21    1.00
  -8  22   2    1.65    0.92
  -8  22  -3    0.14    0.75
  -8  22   3    0.17    0.73
  -8  22  -4    2.28    0.85
  -8  22   4    3.26    1.00
  -8  22   5    0.72    0.84
  -8  22   6    0.26    0.72
  -8  22   7    1.56    0.89
  -8  22   8    2.65    0.95
  22   8   9    1.13    0.83
  -8  22   9    1.69    0.88
  22   8  10    2.40    0.85
  22   8  10    0.72    0.76
  -8  22  10    0.49    0.62
  22   8  11   -0.15    0.55
  22   8  11   -0.44    0.67
  22   8  12    6.15    0.97
  22   8  12    3.39    0.92
  -9  22   0    0.68    0.84
  -9  22  -1    7.43    1.38
  -9  22   1    6.91    1.32
  -9  22  -2    1.27    0.73
  -9  22   2    0.24    0.74
  -9  22  -3    0.32    0.81
  -9  22   3    1.82    0.85
  -9  22  -4   -0.68    0.77
  -9  22   4    1.09    0.82
  -9  22   5    9.72    1.48
  -9  22   6    0.27    0.80
  -9  22   7    4.15    1.03
  -9  22   8    0.84    0.72
  22   9   9    7.81    1.29
  -9  22   9    7.82    1.20
  22   9  10    1.47    0.77
  -9  22  10    2.32    0.84
  22   9  11    0.29    0.65
  22   9  11    1.71    0.78
  22   9  12    0.43    0.71
 -10  22   0   27.78    2.35
 -10  22  -1    2.08    0.95
 -10  22   1    2.15    1.03
 -10  22  -2    3.04    0.97
 -10  22   2    4.26    1.21
 -10  22  -3    1.26    0.80
 -10  22   3    0.65    0.69
 -10  22  -4   10.80    1.54
 -10  22   4   10.74    1.55
 -10  22   5    0.15    0.69
 -10  22   6    0.46    0.71
 -10  22   7    3.62    1.04
 -10  22   8   17.40    1.72
  22  10   8   18.29    1.84
  22  10   9    2.33    0.86
 -10  22   9    3.22    0.92
  22  10  10    1.97    0.80
  22  10  11    0.42    0.59
  22  10  11    0.02    0.69
  22  10  12    9.39    1.16
 -11  22   0    1.44    0.88
 -11  22  -1    4.44    1.11
 -11  22   1    5.41    1.20
 -11  22  -2   -0.13    0.71
 -11  22   2    1.11    0.82
 -11  22  -3    1.66    0.89
 -11  22   3    1.50    0.84
 -11  22   4    1.18    0.88
 -11  22   5   -0.20    0.68
 -11  22   6    0.39    0.74
  22  11   7    3.55    1.01
 -11  22   7    2.23    0.91
  22  11   8    0.74    0.75
 -11  22   8    0.78    0.69
  22  11   9    0.11    0.72
 -11  22   9    0.01    0.61
  22  11  10    0.31    0.60
  22  11  10   -0.12    0.69
  22  11  11    0.52    0.59
  22  11  11    0.07    0.65
 -12  22   0    1.09    0.87
 -12  22  -1    1.39    0.90
 -12  22   1   -0.66    0.84
 -12  22  -2    1.72    0.90
 -12  22   2    3.00    1.06
 -12  22   3    5.67    1.27
 -12  22   4   10.52    1.51
  22  12   5    1.02    0.86
 -12  22   5    2.04    0.84
  22  12   6    1.40    0.86
 -12  22   6    0.85    0.75
  22  12   7    1.11    0.85
 -12  22   7    0.81    0.74
  22  12   8    4.98    1.10
 -12  22   8    5.50    1.05
  22  12   9   -0.07    0.64
  22  12   9   -1.42    0.86
  22  12  10    1.07    0.65
  22  12  10   -0.24    0.66
  22  12  11    2.23    0.69
  22  12  11    2.78    0.78
  22  13   0    6.55    1.29
 -13  22   0    6.04    1.24
  22  13  -1    0.10    0.76
  22  13   1   -1.14    0.88
 -13  22  -1   -0.54    0.70
 -13  22   1   -0.23    0.78
  22  13   2   30.02    2.37
 -13  22   2   27.80    2.30
  22  13  -2   35.95    2.45
  22  13   3    1.60    0.86
 -13  22   3    0.84    0.78
 -13  22   4   13.08    1.64
  22  13   4   12.14    1.59
  22  13   5    0.89    0.84
 -13  22   5    1.56    0.86
 -13  22   6   25.21    2.08
  22  13   6   25.03    2.11
  22  13   7    4.07    1.07
 -13  22   7    3.74    0.98
  22  13   7    3.01    0.90
  22  13   8    3.59    0.89
  22  13   8    0.93    0.74
  22  13   9   -0.07    0.66
  22  13   9    1.57    0.73
  22  13  10   10.99    1.23
  22  13  10   13.45    1.31
  22  14   0   12.81    1.57
  22  14  -1    2.06    0.87
  22  14   1    1.66    0.85
 -14  22   1    0.30    0.66
  22  14  -2    1.71    0.86
  22  14   2    1.37    0.85
 -14  22   2    0.29    0.70
  22  14   3    1.21    0.74
 -14  22   3    0.62    0.66
  22  14   4    0.30    0.71
 -14  22   4    0.37    0.65
  22  14   5    0.03    0.71
 -14  22   5    0.38    0.73
  22  14   6    2.18    0.92
  22  14   7    0.76    0.77
  22  14   7    2.18    0.80
  22  14   8    2.37    0.90
  22  14   8    1.88    0.69
  22  14   9    0.02    0.60
  22  14   9    0.39    0.67
  22  14  10    1.04    0.66
  22  14  10    1.22    0.64
  22  15   0    6.45    1.19
  22  15  -1    1.42    0.80
  22  15   1    1.65    0.82
  22  15  -2   10.10    1.37
  22  15   2    7.67    1.29
  22  15   3    5.17    1.16
  22  15   4    0.06    0.75
  22  15   5    1.23    0.75
  22  15   6    1.49    0.85
  22  15   7   -0.50    0.69
  22  15   8    1.65    0.78
  22  15   8    0.79    0.59
  22  15   9    5.43    0.98
  22  15   9    5.43    0.87
  22  16   0   13.57    1.62
  22  16  -1    5.06    1.08
  22  16   1    3.03    1.00
  22  16  -2    4.05    1.01
  22  16   2    3.74    1.06
  22  16   3   -0.39    0.70
  22  16   4    5.34    1.07
  22  16   5    0.53    0.65
  22  16   6    1.41    0.76
  22  16   7    1.53    0.81
  22  16   8    4.39    0.96
  22  17   0    0.52    0.72
  22  17  -1    0.13    0.68
  22  17   1    1.41    0.78
  22  17   2    0.80    0.71
  22  17   3   -0.11    0.71
  22  17   4    2.13    0.89
  22  17   5   -0.22    0.66
  22  17   6    0.70    0.74
  22  17   7    1.17    0.71
  22  17   8    1.23    0.66
  22  18   0    0.99    0.71
  22  18  -1    2.13    0.77
  22  18   1    0.82    0.71
  22  18   2    0.31    0.67
  22  18   3    0.69    0.70
  22  18   4   -0.25    0.71
  22  18   5    0.33    0.70
  22  18   6    0.09    0.62
  22  18   7    1.61    0.70
  22  19   0    0.14    0.65
  22  19   1    0.71    0.63
  22  19  -1    0.39    0.59
  22  19   2    8.30    1.18
  22  19   3    0.39    0.63
  22  19   4    1.11    0.66
  22  19   5   -0.24    0.68
  22  20   0   -0.47    0.60
  22  20   1    0.05    0.56
  22  20   2    1.31    0.69
  22  20   3   -0.13    0.63
  22  20   4    0.11    0.59
  22  21   0    2.22    0.60
  19  23   0    0.34    0.58
  19  23   1    2.11    0.71
  19  23   2    1.61    0.67
  19  23   3    0.44    0.62
  18  23   0   -1.01    0.72
  18  23  -1   -0.93    0.64
  18  23   1    0.71    0.63
  18  23   2    3.96    0.86
  18  23   3    1.29    0.67
  18  23   4    0.38    0.60
  18  23   5    0.31    0.61
  17  23   0    4.83    0.96
  17  23  -1    1.43    0.73
  17  23   1    1.94    0.82
  17  23   2   -0.73    0.71
  17  23   3    4.15    1.00
  17  23   4    0.23    0.64
  17  23   5    0.12    0.62
  17  23   6   -1.04    0.69
  16  23   0    3.07    0.95
  16  23  -1    0.12    0.66
  16  23   1   -0.13    0.68
  16  23   2    5.54    1.11
  16  23   3    0.71    0.68
  16  23   4    0.75    0.76
  16  23   5    0.33    0.69
  16  23   6    2.09    0.76
  16  23   7    1.23    0.68
  15  23   0    4.74    1.04
  15  23  -1    2.12    0.87
  15  23   1    1.15    0.79
  15  23   2   -1.05    0.80
  15  23   3   -0.51    0.79
  15  23   4    0.55    0.73
  15  23   5   -0.51    0.68
  15  23   6    2.30    0.87
  15  23   7    1.04    0.77
  15  23   8    0.42    0.59
  14  23   0   10.41    1.43
  14  23  -1    2.55    0.93
  14  23   1    1.19    0.81
  14  23   2    3.05    0.99
  14  23   3    2.22    0.84
  14  23   4    0.17    0.76
  14  23   5    0.93    0.69
  14  23   6    6.91    1.16
  14  23   7    1.72    0.86
  14  23   8   -0.07    0.65
  14  23   9    0.40    0.62
  13  23   0    0.89    0.72
  13  23  -1    0.86    0.65
  13  23   1    2.31    0.95
  13  23  -2   -0.77    0.81
  13  23   2    1.27    0.84
  13  23   3    2.38    0.90
  13  23   4    0.59    0.74
  13  23   5    0.09    0.73
  13  23   6    0.92    0.76
  13  23   7    4.21    1.00
  13  23   8   -0.03    0.63
  13  23   9    1.35    0.70
  12  23   0    2.74    0.92
  12  23  -1    1.05    0.73
  12  23   1    1.04    0.83
  12  23  -2    5.56    1.08
  12  23   2    5.51    1.11
  12  23   3    1.08    0.82
  12  23   4    0.83    0.69
  12  23   5   -0.04    0.73
  12  23   6    2.24    0.87
  12  23   7    1.07    0.76
  12  23   8   -0.29    0.72
  12  23   9    0.14    0.61
  12  23  10   -0.12    0.59
  11  23   0    1.99    0.92
  11  23  -1    0.24    0.72
  11  23   1   -0.21    0.73
  11  23  -2   -0.13    0.70
  11  23   2   -0.23    0.75
  11  23   3    1.71    0.92
  11  23   4    2.38    1.00
  11  23   5    4.30    1.10
  11  23   6    0.75    0.67
  11  23   7    0.73    0.75
  11  23   8    1.53    0.82
  11  23   9    0.70    0.68
  11  23  10   -0.64    0.62
  10  23   0    0.23    0.76
  10  23  -1   -0.04    0.70
  10  23   1   -0.06    0.73
  10  23  -2    0.29    0.69
  10  23   2   -0.16    0.83
  10  23   3    8.27    1.38
  10  23   4    1.45    0.86
  10  23   5    0.91    0.75
  10  23   6   -1.03    0.79
  10  23   7    0.92    0.81
  10  23   8    4.89    1.08
  10  23   9    2.17    0.86
  10  23  10    0.28    0.56
  10  23  10    2.47    0.75
  10  23  11    0.43    0.51
  23 -10  11    1.64    0.73
  10  23  11    1.41    0.63
   9  23   0   25.14    2.14
   9  23  -1    1.97    0.97
   9  23   1    0.18    0.81
   9  23  -2    0.86    0.67
   9  23   2    1.69    0.92
   9  23   3    0.15    0.77
   9  23   4   12.68    1.64
   9  23   5    0.26    0.75
   9  23   6    0.59    0.69
   9  23   7    2.01    0.93
   9  23   8   15.45    1.66
   9  23   9    1.35    0.66
   9  23   9   -0.19    0.65
   9  23  10   -0.07    0.66
   9  23  10   -0.52    0.63
   9  23  11    2.89    0.79
   9  23  11    1.95    0.68
   8  23   0    1.02    0.86
   8  23  -1    5.94    1.22
   8  23   1    4.20    1.10
   8  23  -2    2.72    0.90
   8  23   2    0.10    0.74
   8  23   3    4.07    1.04
   8  23   4    3.15    1.03
   8  23   5   -0.13    0.82
   8  23   6    0.07    0.66
   8  23   7    1.58    0.87
   8  23   8    1.89    0.92
   8  23   9    2.64    0.86
   8  23   9    2.70    0.87
   8  23  10   -0.29    0.62
   8  23  10    0.38    0.64
   8  23  11    0.61    0.61
   8  23  11    1.09    0.67
   7  23   0    2.42    1.08
   7  23  -1    5.38    1.19
   7  23   1    5.73    1.17
   7  23  -2    0.54    0.85
   7  23   2    1.15    0.80
   7  23   3    3.94    1.04
   7  23   4   12.32    1.67
   7  23   5    0.14    0.66
   7  23   6   10.32    1.48
   7  23   7    2.30    0.94
   7  23   8    7.51    1.28
   7  23   9    0.79    0.67
   7  23   9    0.55    0.71
   7  23  10   -1.45    0.76
   7  23  10    0.74    0.71
   7  23  11    0.03    0.65
   7  23  11    0.73    0.60
   7  23  12    0.71    0.60
  23  -7  12    0.58    0.71
   6  23   0   -0.12    0.74
   6  23  -1    0.42    0.79
   6  23   1    0.43    0.75
   6  23  -2    6.01    1.16
   6  23   2    7.27    1.35
   6  23   3    5.26    1.25
   6  23   4    1.69    0.93
   6  23   5    3.58    1.09
   6  23   6    2.87    1.04
   6  23   7    1.98    0.91
   6  23   8    0.44    0.71
   6  23   8    0.69    0.77
   6  23   9    0.69    0.72
   6  23   9    0.67    0.75
   6  23  10    1.00    0.70
   6  23  10    1.43    0.76
   6  23  11   -0.29    0.60
   6  23  11    1.11    0.62
   6  23  12    1.12    0.63
  23  -6  12    0.89    0.72
   5  23   0    3.59    1.03
   5  23  -1    3.64    1.09
   5  23   1    4.60    1.14
   5  23  -2    2.05    0.94
   5  23   2    2.49    1.02
   5  23   3    4.49    1.20
   5  23   4    1.09    0.88
   5  23   5    1.73    0.88
   5  23   6    1.03    0.83
   5  23   7    3.31    0.99
   5  23   8    0.70    0.69
   5  23   8    1.89    0.95
   5  23   9    0.09    0.68
   5  23   9   -0.09    0.65
   5  23  10    1.79    0.80
   5  23  10    0.94    0.69
   5  23  11    5.22    1.07
   5  23  11    4.99    0.95
   5  23  12    0.89    0.64
   4  23   0    5.05    1.15
   4  23  -1    2.58    0.87
   4  23   1    1.87    0.87
   4  23  -2    1.40    0.72
   4  23   2    1.45    0.96
   4  23   3    3.86    1.09
   4  23   4    1.28    0.83
   4  23   5    4.23    1.08
   4  23   6    1.84    0.88
   4  23   7    2.19    0.86
   4  23   8    1.02    0.88
   4  23   8   -0.02    0.74
   4  23   9    3.74    1.01
   4  23   9    2.31    0.90
   4  23  10    1.97    0.89
   4  23  10    1.15    0.71
   4  23  11    2.40    0.91
   4  23  11    3.38    0.81
   4  23  12   -0.64    0.64
   3  23   0   25.52    2.21
   3  23  -1    3.17    1.07
   3  23   1    0.58    0.75
   3  23  -2    0.91    0.79
   3  23   2    1.24    0.83
   3  23   3    2.66    0.96
   3  23   4    4.29    1.11
   3  23   5    4.44    1.15
   3  23   6    2.34    1.02
   3  23   7   -0.19    0.74
   3  23   7   -0.76    0.80
   3  23   8    1.14    0.80
   3  23   8    2.42    0.96
   3  23   9    0.64    0.75
   3  23   9    0.32    0.74
   3  23  10    2.77    0.97
   3  23  10    2.54    0.87
   3  23  11   -0.05    0.70
   3  23  11   -0.20    0.59
   3  23  12    0.93    0.68
   2  23   0    0.49    0.71
   2  23  -1    1.71    0.82
   2  23   1    1.53    0.91
   2  23  -2    1.58    0.85
   2  23   2    3.86    1.13
   2  23  -3   -0.47    0.88
   2  23   3   -0.26    0.73
   2  23   4    2.12    0.95
   2  23   5    2.31    0.93
   2  23   6    8.34    1.41
   2  23   7   -1.15    0.76
   2  23   7   -1.10    0.74
   2  23   8    4.26    0.97
   2  23   8    3.58    1.00
   2  23   9    3.54    1.00
   2  23   9    3.57    1.09
   2  23  10    8.10    1.29
   2  23  10    8.26    1.19
   2  23  11    1.62    0.82
   2  23  11    0.42    0.63
   2  23  12   -0.05    0.63
   1  23   0    0.84    0.68
   1  23  -1   -0.23    0.73
   1  23   1   -1.41    0.89
   1  23  -2    1.39    0.84
   1  23   2    2.46    1.06
   1  23  -3   12.17    1.59
   1  23   3   12.20    1.66
   1  23   4    9.41    1.52
   1  23   5    0.46    0.73
   1  23   6    2.81    1.09
   1  23   7    0.19    0.72
   1  23   7   -0.11    0.73
   1  23   8    0.75    0.76
   1  23   8    1.19    0.76
   1  23   9    2.44    0.93
   1  23   9    3.11    0.99
   1  23  10    1.97    0.89
   1  23  10   -0.21    0.67
   1  23  11    1.97    0.81
   1  23  11    3.60    0.81
   1  23  12    0.88    0.76
   0  23   0    3.03    0.95
   0  23  -1    0.44    0.80
   0  23   1   -0.26    0.82
   0  23  -2   32.88    2.52
   0  23   2   35.33    2.65
   0  23  -3    1.78    0.77
   0  23   3   -0.17    0.75
   0  23   4    2.77    0.92
   0  23   5    1.84    0.99
   0  23   6   30.74    2.27
   0  23   6   31.37    2.45
   0  23   7    2.24    0.96
   0  23   7    0.78    0.81
   0  23   8    2.50    0.95
   0  23   8    1.88    0.86
   0  23   9   10.21    1.43
   0  23   9    8.89    1.37
   0  23  10   18.06    1.78
   0  23  10   18.94    1.74
   0  23  11    0.77    0.79
   0  23  11   -0.53    0.64
   0  23  12    1.22    0.75
  -1  23   0    0.04    0.73
  -1  23  -1    0.02    0.68
  -1  23   1    0.00    0.77
  -1  23  -2    1.49    0.85
  -1  23   2    2.54    1.01
  -1  23  -3   12.84    1.58
  -1  23   3   11.55    1.64
  -1  23   4    8.06    1.36
  -1  23   5    1.27    0.82
  -1  23   6    1.35    0.83
  -1  23   6    1.31    0.87
  -1  23   7    0.67    0.73
  -1  23   7    0.42    0.76
  -1  23   8    0.13    0.84
  -1  23   8    1.08    0.79
  -1  23   9    4.02    1.06
  -1  23   9    4.16    1.09
  -1  23  10   -0.08    0.74
  -1  23  10    0.99    0.77
  -1  23  11    1.26    0.79
  -1  23  11    2.78    0.78
  -1  23  12    0.58    0.67
  23   1  12   -0.76    0.79
  -2  23   0   -0.45    0.78
  -2  23  -1    1.28    0.84
  -2  23   1    0.74    0.70
  -2  23  -2    1.76    0.83
  -2  23   2    2.40    0.86
  -2  23  -3    0.40    0.71
  -2  23   3    1.30    0.91
  -2  23   4    3.01    1.00
  -2  23   5    2.18    0.94
  -2  23   6   10.48    1.51
  -2  23   6   11.38    1.59
  -2  23   7    0.47    0.73
  -2  23   7   -0.77    0.84
  -2  23   8    5.05    1.14
  -2  23   8    4.42    1.09
  -2  23   9    3.17    1.04
  -2  23   9    3.72    1.04
  -2  23  10    5.69    1.12
  -2  23  10    7.19    1.21
  -2  23  11   -0.65    0.75
  -2  23  11    1.66    0.71
  23   2  12   -0.01    0.69
  -3  23   0   22.67    2.12
  -3  23  -1    2.27    0.92
  -3  23   1    1.23    0.82
  -3  23  -2    1.53    0.91
  -3  23   2    1.89    0.91
  -3  23  -3    0.75    0.80
  -3  23   3    2.14    0.95
  -3  23   4    3.22    1.08
  -3  23   5    3.89    1.09
  -3  23   6    0.95    0.74
  -3  23   7    0.48    0.75
  -3  23   7    1.85    0.92
  -3  23   8    2.78    0.94
  -3  23   8    2.24    0.95
  -3  23   9    1.00    0.81
  -3  23   9   -1.23    0.75
  -3  23  10    1.63    0.86
  -3  23  10    2.52    0.87
  23   3  12    1.28    0.78
  -4  23   0    4.86    1.19
  -4  23  -1    2.44    0.95
  -4  23   1    3.63    1.09
  -4  23  -2    1.34    0.75
  -4  23   2    1.46    0.90
  -4  23  -3    3.95    1.11
  -4  23   3    3.10    1.01
  -4  23   4    2.13    0.90
  -4  23   5    3.04    1.06
  -4  23   6    1.68    0.85
  -4  23   7    2.80    0.95
  -4  23   8    1.22    0.81
  -4  23   9    2.04    0.85
  -4  23  10    2.38    0.88
  23   4  12    0.36    0.69
  -5  23   0    3.70    1.11
  -5  23  -1    3.39    1.07
  -5  23   1    2.97    0.95
  -5  23  -2    2.46    0.91
  -5  23   2    1.55    0.87
  -5  23  -3    4.25    1.10
  -5  23   3    4.45    1.14
  -5  23   4    1.20    0.80
  -5  23   5    2.97    1.02
  -5  23   6    1.61    0.91
  -5  23   7    2.20    0.91
  -5  23   8    0.33    0.74
  -5  23   9    0.24    0.68
  -5  23  10    0.99    0.76
  23   5  11    4.24    1.07
  23   5  12    1.16    0.75
  -6  23   0    0.13    0.75
  -6  23  -1    0.35    0.71
  -6  23   1    1.40    0.86
  -6  23  -2    6.70    1.26
  -6  23   2    5.76    1.24
  -6  23  -3    5.05    1.12
  -6  23   3    3.88    1.11
  -6  23  -4    3.03    0.98
  -6  23   4    1.33    0.81
  -6  23   5    2.04    1.03
  -6  23   6    4.82    1.13
  -6  23   7    1.04    0.79
  -6  23   8    1.32    0.78
  -6  23   9   -0.79    0.75
  23   6  10    2.41    0.83
  -6  23  10    1.03    0.72
  23   6  11   -0.72    0.75
  23   6  12    0.56    0.66
  23   6  12    0.93    0.69
  -7  23   0   -0.65    0.70
  -7  23  -1    3.59    1.06
  -7  23   1    4.41    1.10
  -7  23  -2    2.35    0.97
  -7  23   2    1.02    0.71
  -7  23  -3    2.96    1.06
  -7  23   3    3.26    1.02
  -7  23  -4   11.80    1.53
  -7  23   4   12.12    1.64
  -7  23   5    0.74    0.76
  -7  23   6   11.21    1.54
  -7  23   7    1.54    0.86
  -7  23   8    7.10    1.24
  -7  23   9    0.60    0.65
  23   7  10   -0.49    0.68
  23   7  10   -1.31    0.86
  -7  23  10   -0.92    0.72
  23   7  11    0.53    0.61
  23   7  12    1.70    0.66
  23   7  12    0.83    0.67
  -8  23   0    0.41    0.82
  -8  23  -1    5.06    1.24
  -8  23   1    4.49    1.14
  -8  23  -2    0.80    0.75
  -8  23   2    1.40    0.81
  -8  23  -3    2.27    0.86
  -8  23   3    5.58    1.23
  -8  23  -4    0.39    0.70
  -8  23   4    1.72    0.94
  -8  23   5    1.51    0.84
  -8  23   6   -0.55    0.72
  -8  23   7   -1.06    0.86
  -8  23   8    0.07    0.71
  23   8   9    2.84    0.92
  -8  23   9    1.87    0.84
  23   8  10    0.43    0.65
  23   8  10   -0.67    0.79
  -8  23  10    0.15    0.60
  23   8  11    1.96    0.67
  -9  23   0   16.22    1.80
  -9  23  -1    1.33    0.81
  -9  23   1    1.17    0.82
  -9  23  -2    3.35    1.04
  -9  23   2    2.38    0.95
  -9  23  -3   -1.00    0.78
  -9  23   3    1.00    0.82
  -9  23  -4   11.40    1.48
  -9  23   4   10.86    1.57
  -9  23   5    0.20    0.67
  -9  23   6    0.89    0.93
  -9  23   7    1.60    0.87
  23   9   8   15.57    1.67
  -9  23   8   13.70    1.55
  23   9   9   -0.36    0.71
  -9  23   9   -0.16    0.61
  23   9  10    1.72    0.72
  -9  23  10    1.45    0.66
  23   9  11    0.94    0.63
  23   9  11   -0.10    0.68
 -10  23   0    0.86    0.78
 -10  23  -1    1.83    0.82
 -10  23   1    0.23    0.72
 -10  23  -2    1.59    0.90
 -10  23   2   -0.15    0.69
 -10  23  -3    8.05    1.32
 -10  23   3    7.67    1.37
 -10  23   4    1.21    0.84
 -10  23   5    2.72    0.93
 -10  23   6    1.10    0.80
  23  10   7    0.97    0.87
 -10  23   7    0.36    0.66
  23  10   8    4.24    1.08
 -10  23   8    3.00    0.93
  23  10   9    4.70    1.01
 -10  23   9    2.94    0.80
  23  10  10    0.90    0.61
  23  10  10    1.79    0.78
  23  10  11    2.07    0.69
  23  10  11    2.10    0.80
 -11  23   0    0.56    0.68
 -11  23  -1    0.78    0.64
 -11  23   1   -0.03    0.77
 -11  23  -2    0.80    0.80
 -11  23   2    0.39    0.73
 -11  23  -3    1.34    0.82
 -11  23   3    0.54    0.75
 -11  23   4    1.63    0.83
 -11  23   5    2.41    0.91
  23  11   6    2.90    0.98
 -11  23   6    1.39    0.81
  23  11   7    0.80    0.75
 -11  23   7    1.16    0.78
  23  11   8    0.22    0.71
 -11  23   8    1.62    0.74
  23  11   9    0.07    0.63
  23  11   9    0.69    0.67
  23  11  10   -0.50    0.58
  23  11  10   -0.14    0.65
 -12  23   0    2.06    0.88
 -12  23  -1    0.26    0.71
 -12  23   1   -0.40    0.67
  23  12  -2    5.37    1.02
 -12  23  -2    4.64    1.13
 -12  23   2    5.08    1.13
 -12  23   3   -0.58    0.75
 -12  23   4   -0.01    0.75
  23  12   5    0.39    0.75
 -12  23   5    0.44    0.71
  23  12   6    1.30    0.86
 -12  23   6    0.81    0.78
  23  12   7    2.32    0.87
 -12  23   7    0.66    0.69
  23  12   8    0.97    0.70
 -12  23   8    0.94    0.67
  23  12   8    0.97    0.70
  23  12   9   -1.10    0.69
  23  12   9    0.07    0.62
  23  12  10    1.72    0.72
  23  12  10   -0.19    0.60
  23  13   0    0.33    0.68
 -13  23   0    1.01    0.82
  23  13  -1    0.89    0.74
  23  13   1    0.06    0.68
 -13  23   1    1.81    0.83
  23  13  -2    0.86    0.72
  23  13   2   -1.33    0.87
 -13  23   2    0.15    0.72
  23  13   3    1.14    0.78
 -13  23   3    1.50    0.81
  23  13   4    1.01    0.81
 -13  23   4    1.26    0.78
  23  13   5    1.31    0.82
 -13  23   5    0.67    0.67
  23  13   6    2.07    0.92
 -13  23   6    1.71    0.82
  23  13   6    0.36    0.66
  23  13   7    4.25    1.05
  23  13   7    4.60    0.92
  23  13   8   -1.01    0.71
  23  13   8    0.93    0.67
  23  13   9   -0.20    0.57
  23  13   9    1.06    0.63
  23  14   0    9.66    1.41
  23  14  -1    2.22    0.86
  23  14   1    2.38    0.92
  23  14  -2    4.78    1.08
  23  14   2    3.09    0.96
 -14  23   2    3.26    0.98
  23  14   3    3.22    1.04
 -14  23   3    1.94    0.90
  23  14   4   -0.09    0.70
 -14  23   4   -0.66    0.72
  23  14   5    0.97    0.70
  23  14   6    5.02    1.06
  23  14   7    1.40    0.80
  23  14   7   -0.09    0.58
  23  14   8    0.85    0.70
  23  14   8    0.42    0.55
  23  14   9    2.64    0.75
  23  14   9    1.35    0.58
  23  15   0    5.44    1.15
  23  15  -1    0.52    0.79
  23  15   1   -0.59    0.68
  23  15  -2   -0.11    0.65
  23  15   2    0.71    0.78
  23  15   3    0.27    0.77
  23  15   4    0.83    0.75
  23  15   5    0.69    0.81
  23  15   6    1.86    0.78
  23  15   7    0.64    0.64
  23  15   8    0.52    0.64
  23  16   0    3.97    1.00
  23  16  -1   -0.49    0.61
  23  16   1    2.38    0.85
  23  16   2    4.05    1.00
  23  16   3    0.26    0.71
  23  16   4    0.59    0.70
  23  16   5   -0.44    0.72
  23  16   6    1.60    0.79
  23  16   7    0.34    0.57
  23  17   0    4.58    0.95
  23  17  -1    0.23    0.62
  23  17   1    2.51    0.85
  23  17   2    1.16    0.75
  23  17   3    2.98    0.90
  23  17   4    0.69    0.65
  23  17   5   -0.50    0.65
  23  17   6    1.28    0.66
  23  18   0    0.41    0.63
  23  18  -1    0.25    0.61
  23  18   1   -0.04    0.61
  23  18   2    3.79    0.85
  23  18   3    0.45    0.62
  23  18   4   -0.92    0.64
  23  18   5   -0.51    0.58
  23  19   0   -0.33    0.64
  23  19   1    2.84    0.76
  23  19   2    0.37    0.57
  23  19   3    0.13    0.56
  18  24   0    3.79    0.73
  18  24   1    0.12    0.62
  18  24   2    0.82    0.64
  18  24   3    0.48    0.58
  17  24   0    0.26    0.58
  17  24   1    0.50    0.64
  17  24   2   -0.29    0.64
  17  24   3    0.04    0.65
  17  24   4   -0.66    0.64
  17  24   5    0.06    0.58
  16  24   0    3.42    0.85
  16  24  -1    0.80    0.69
  16  24   1    2.87    0.84
  16  24   2    0.54    0.68
  16  24   3    2.41    0.80
  16  24   4    7.41    1.15
  16  24   5   -0.09    0.60
  16  24   6    1.30    0.65
  15  24   0    6.21    1.07
  15  24  -1    2.42    0.89
  15  24   1    2.06    0.83
  15  24   2    1.51    0.70
  15  24   3    1.92    0.86
  15  24   4    0.76    0.65
  15  24   5    1.10    0.75
  15  24   6   -0.99    0.74
  15  24   7    0.09    0.60
  14  24   0    0.80    0.69
  14  24  -1    1.08    0.78
  14  24   1    1.24    0.76
  14  24   2   -0.30    0.74
  14  24   3   -0.35    0.72
  14  24   4   -0.42    0.67
  14  24   5    1.07    0.77
  14  24   6    4.62    0.97
  14  24   7   -0.29    0.67
  14  24   8    0.99    0.62
  13  24   0    0.75    0.72
  13  24  -1    0.50    0.68
  13  24   1   -0.12    0.73
  13  24   2    1.31    0.86
  13  24   3    0.96    0.76
  13  24   4   -0.66    0.83
  13  24   5    0.87    0.73
  13  24   6   -0.74    0.76
  13  24   7   -0.70    0.69
  13  24   8   -0.27    0.62
  12  24   0   -0.44    0.85
  12  24  -1   -0.22    0.83
  12  24   1    0.01    0.70
  12  24   2   -0.11    0.72
  12  24   3    1.82    0.92
  12  24   4    2.37    0.95
  12  24   5   -1.08    0.76
  12  24   6    1.70    0.79
  12  24   7    0.37    0.66
  12  24   8   -0.47    0.58
  12  24   9   -0.25    0.60
  11  24   0   -0.75    0.77
  11  24  -1    0.59    0.63
  11  24   1    0.58    0.68
  11  24  -2    3.79    0.98
  11  24   2    3.56    0.95
  11  24   3    1.74    0.83
  11  24   4    3.89    1.08
  11  24   5    1.87    0.88
  11  24   6    6.23    1.19
  11  24   7    0.66    0.68
  11  24   8    3.98    0.95
  11  24   9   -0.74    0.63
  10  24   0   -0.41    0.67
  10  24  -1   -0.45    0.69
  10  24   1   -0.79    0.71
  10  24  -2    8.11    1.25
  10  24   2    7.14    1.24
  10  24   3    0.37    0.68
  10  24   4    8.90    1.33
  10  24   5    2.93    0.94
  10  24   6    0.83    0.73
  10  24   7    0.71    0.64
  10  24   8    0.70    0.67
  10  24   9    0.98    0.66
  10  24  10    1.18    0.65
   9  24   0    0.07    0.73
   9  24  -1    0.25    0.67
   9  24   1    1.12    0.80
   9  24  -2    0.87    0.70
   9  24   2    0.76    0.78
   9  24   3    3.08    0.99
   9  24   4    0.55    0.74
   9  24   5    0.48    0.70
   9  24   6    3.88    1.02
   9  24   7    0.78    0.76
   9  24   8    0.21    0.64
   9  24   9    0.96    0.68
   9  24  10    1.85    0.71
   8  24   0    0.47    0.71
   8  24  -1    0.14    0.71
   8  24   1    1.62    0.75
   8  24  -2    0.71    0.66
   8  24   2    0.60    0.84
   8  24   3    0.14    0.65
   8  24   4    1.35    0.89
   8  24   5    1.23    0.87
   8  24   6    2.14    0.91
   8  24   7   -0.03    0.68
   8  24   8   -0.19    0.70
   8  24   9   -0.12    0.63
   8  24  10    0.52    0.52
   8  24  10    1.51    0.70
   8  24  11    0.31    0.48
   8  24  11   -0.10    0.51
   7  24   0    1.34    0.85
   7  24  -1    0.68    0.74
   7  24   1    1.31    0.84
   7  24  -2   11.69    1.46
   7  24   2   11.37    1.55
   7  24   3    0.92    0.85
   7  24   4    1.78    0.92
   7  24   5    1.44    0.87
   7  24   6   18.81    1.89
   7  24   7    1.09    0.79
   7  24   8    3.66    1.02
   7  24   9   -0.20    0.67
   7  24  10    6.23    1.00
   7  24  10    7.90    1.11
   7  24  11    0.24    0.52
   7  24  11    0.22    0.54
   6  24   0    4.78    1.13
   6  24  -1    0.03    0.69
   6  24   1    0.03    0.73
   6  24  -2    0.73    0.89
   6  24   2    1.09    0.89
   6  24   3    6.50    1.29
   6  24   4    7.37    1.35
   6  24   5    1.23    0.87
   6  24   6    4.32    1.10
   6  24   7    4.51    1.07
   6  24   8    1.71    0.85
   6  24   9   -0.07    0.61
   6  24   9    0.11    0.69
   6  24  10    0.79    0.65
   6  24  10    1.05    0.65
   6  24  11   -0.40    0.60
   6  24  11    1.28    0.61
   5  24   0   14.01    1.71
   5  24  -1    0.45    0.75
   5  24   1    1.19    0.78
   5  24  -2    6.20    1.16
   5  24   2    5.12    1.20
   5  24   3    5.36    1.25
   5  24   4    0.69    0.84
   5  24   5    1.06    0.80
   5  24   6    3.95    1.08
   5  24   7   -0.77    0.85
   5  24   8    0.45    0.76
   5  24   9    5.43    1.06
   5  24   9    4.47    0.94
   5  24  10    1.48    0.74
   5  24  10   -0.29    0.65
   5  24  11    1.44    0.66
   5  24  11    2.25    0.75
   4  24   0    1.27    0.91
   4  24  -1    0.56    0.82
   4  24   1    0.43    0.83
   4  24  -2    3.38    0.98
   4  24   2    2.92    1.07
   4  24   3    0.34    0.70
   4  24   4    2.07    0.91
   4  24   5    0.42    0.76
   4  24   6    5.42    1.19
   4  24   7    2.79    0.98
   4  24   8    1.00    0.80
   4  24   8    0.87    0.81
   4  24   9    0.36    0.74
   4  24   9    1.03    0.79
   4  24  10    0.20    0.60
   4  24  10    1.11    0.72
   4  24  11    2.46    0.75
   4  24  11    1.25    0.61
   3  24   0    3.54    1.04
   3  24  -1    2.28    0.94
   3  24   1    1.36    0.76
   3  24  -2    3.15    0.93
   3  24   2    4.78    1.24
   3  24   3    0.79    0.76
   3  24   4    1.18    0.84
   3  24   5    1.21    0.80
   3  24   6    3.30    1.04
   3  24   7    0.62    0.74
   3  24   8    1.75    0.83
   3  24   8    3.04    1.01
   3  24   9    3.21    0.92
   3  24   9    4.17    1.01
   3  24  10    0.80    0.70
   3  24  10   -0.92    0.73
   3  24  11    0.57    0.64
   3  24  11    0.22    0.55
   3  24  12    1.94    0.68
  24  -3  12   -0.07    0.65
   2  24   0    8.60    1.45
   2  24  -1    0.99    0.84
   2  24   1   -0.26    0.84
   2  24  -2    5.37    1.18
   2  24   2    5.69    1.24
   2  24  -3    0.74    0.85
   2  24   3    1.19    0.85
   2  24   4   12.62    1.67
   2  24   5    2.57    0.95
   2  24   6    6.14    1.31
   2  24   7    1.78    0.88
   2  24   8    8.75    1.29
   2  24   8    9.73    1.41
   2  24   9   -0.49    0.77
   2  24   9    0.07    0.68
   2  24  10   -0.01    0.65
   2  24  10    0.43    0.63
   2  24  11   -0.18    0.68
   2  24  11   -0.80    0.61
   2  24  12    1.52    0.65
  24  -2  12    0.02    0.70
   1  24   0    2.66    1.03
   1  24  -1    1.61    0.87
   1  24   1    1.01    0.89
   1  24  -2    3.35    1.04
   1  24   2    3.04    1.05
   1  24  -3    7.12    1.24
   1  24   3    8.28    1.39
   1  24   4    0.93    0.80
   1  24   5   -0.24    0.73
   1  24   6    0.74    0.70
   1  24   7    0.54    0.74
   1  24   7    1.79    0.89
   1  24   8    2.47    0.91
   1  24   8    2.92    1.00
   1  24   9   -0.44    0.74
   1  24   9   -0.15    0.71
   1  24  10    1.86    0.77
   1  24  10    0.57    0.71
   1  24  11   -0.02    0.64
   1  24  11    0.08    0.54
   1  24  12   -0.18    0.63
  24  -1  12    1.82    0.81
   0  24   0    1.42    0.78
   0  24  -1    1.66    0.89
   0  24   1    0.35    0.75
   0  24  -2    0.48    0.76
   0  24   2    0.79    0.87
   0  24  -3    0.34    0.72
   0  24   3    2.47    1.06
   0  24   4    6.13    1.28
   0  24   5   -0.56    0.81
   0  24   6    0.56    0.71
   0  24   7    0.13    0.74
   0  24   7    0.05    0.74
   0  24   8    2.63    0.94
   0  24   8    3.78    0.92
   0  24   9    1.86    0.85
   0  24   9   -0.57    0.71
   0  24  10    1.16    0.78
   0  24  10    0.19    0.61
   0  24  11   -0.17    0.66
   0  24  11    1.27    0.61
  24   0  12    3.56    0.94
  -1  24   0    1.71    0.98
  -1  24  -1    0.79    0.72
  -1  24   1    2.10    0.82
  -1  24  -2    1.74    0.78
  -1  24   2    2.38    0.89
  -1  24  -3    6.10    1.20
  -1  24   3    7.47    1.40
  -1  24   4    0.85    0.82
  -1  24   5    0.84    0.79
  -1  24   6    1.20    0.85
  -1  24   7    0.39    0.68
  -1  24   7    0.65    0.71
  -1  24   8    2.22    0.90
  -1  24   8    1.43    0.75
  -1  24   9    0.24    0.68
  -1  24   9   -0.48    0.69
  -1  24  10    0.85    0.70
  -1  24  10    0.94    0.72
  -1  24  11    0.00    0.58
  24   1  12    0.84    0.68
  -2  24   0    8.23    1.41
  -2  24  -1    0.23    0.68
  -2  24   1    0.70    0.84
  -2  24  -2    4.61    1.10
  -2  24   2    5.75    1.25
  -2  24  -3    1.28    0.82
  -2  24   3    0.30    0.67
  -2  24   4   11.71    1.59
  -2  24   5    1.27    0.80
  -2  24   6    4.72    1.14
  -2  24   7    2.51    0.91
  -2  24   8   12.30    1.52
  -2  24   9   -0.52    0.78
  -2  24  10   -0.02    0.58
  -2  24  11   -0.38    0.57
  24   2  12    0.37    0.63
  -3  24   0    2.45    1.02
  -3  24  -1    1.55    0.86
  -3  24   1    1.06    0.79
  -3  24  -2    3.84    0.98
  -3  24   2    1.99    0.84
  -3  24  -3   -0.92    0.73
  -3  24   3   -0.67    0.82
  -3  24   4    0.78    0.85
  -3  24   5    0.69    0.78
  -3  24   6    3.54    1.07
  -3  24   7    1.69    0.83
  -3  24   8    3.74    1.01
  -3  24   9    3.54    0.92
  -3  24  10    0.40    0.62
  24   3  12    0.56    0.70
  -4  24   0    0.64    0.69
  -4  24  -1    0.11    0.66
  -4  24   1    0.37    0.75
  -4  24  -2    0.77    0.82
  -4  24   2    2.45    0.89
  -4  24  -3    0.71    0.71
  -4  24   3    0.46    0.75
  -4  24   4    2.54    1.00
  -4  24   5    1.03    0.82
  -4  24   6    4.09    1.09
  -4  24   7    0.83    0.81
  -4  24   8    0.11    0.73
  -4  24   9    0.01    0.70
  -4  24  10    1.11    0.66
  24   4  11   -0.32    0.68
  -5  24   0   13.40    1.67
  -5  24  -1    0.51    0.76
  -5  24   1    0.23    0.75
  -5  24  -2    3.72    1.03
  -5  24   2    4.12    1.04
  -5  24  -3    5.20    1.13
  -5  24   3    4.48    1.09
  -5  24   4    0.39    0.69
  -5  24   5    0.82    0.78
  -5  24   6    3.51    1.10
  -5  24   7   -0.04    0.74
  -5  24   8    0.02    0.71
  -5  24   9    4.56    1.00
  24   5  10    1.06    0.67
  -5  24  10   -0.20    0.56
  24   5  11    0.25    0.62
  -6  24   0    4.04    1.14
  -6  24  -1   -0.86    0.83
  -6  24   1   -0.30    0.71
  -6  24  -2    1.27    0.93
  -6  24   2    1.24    0.78
  -6  24  -3    3.18    1.04
  -6  24   3    4.25    1.16
  -6  24  -4    6.81    1.16
  -6  24   4    4.85    1.17
  -6  24   5    2.90    0.98
  -6  24   6    3.61    1.11
  -6  24   7    4.23    1.09
  -6  24   8   -0.57    0.80
  -6  24   9    0.55    0.65
  24   6  10    0.26    0.60
  -6  24  10   -0.01    0.54
  24   6  11    1.51    0.71
  -7  24   0    1.66    0.86
  -7  24  -1    1.03    0.79
  -7  24   1    2.24    0.89
  -7  24  -2   10.31    1.48
  -7  24   2    6.97    1.27
  -7  24  -3    0.34    0.79
  -7  24   3    0.46    0.80
  -7  24  -4    1.20    0.74
  -7  24   4    2.64    0.97
  -7  24   5    0.29    0.68
  -7  24   6   15.71    1.71
  -7  24   7    1.73    0.82
  -7  24   8    3.45    0.93
  24   7   9    0.78    0.71
  -7  24   9   -0.34    0.65
  24   7  10    5.95    1.00
  24   7  10    4.03    0.87
  -7  24  10    5.21    0.90
  24   7  11   -0.36    0.59
  -8  24   0   -0.11    0.68
  -8  24  -1    0.92    0.78
  -8  24   1    1.40    0.88
  -8  24  -2    1.80    0.93
  -8  24   2    1.53    0.83
  -8  24  -3    0.48    0.70
  -8  24   3    0.28    0.81
  -8  24  -4    1.14    0.73
  -8  24   4    0.93    0.79
  -8  24   5    0.16    0.66
  -8  24   6    2.01    0.85
  -8  24   7   -0.14    0.75
  -8  24   8   -0.68    0.75
  24   8   9    0.97    0.67
  -8  24   9   -0.93    0.68
  24   8  10    0.68    0.64
  -8  24  10    0.83    0.63
  24   8  11   -0.28    0.65
  -9  24   0    0.10    0.70
  -9  24  -1    0.84    0.78
  -9  24   1    2.24    0.93
  -9  24  -2    1.32    0.81
  -9  24   2    2.24    0.95
  -9  24  -3    2.94    0.94
  -9  24   3    4.09    1.08
  -9  24  -4    2.00    0.80
  -9  24   4    0.11    0.70
  -9  24   5    0.48    0.66
  -9  24   6    3.66    1.06
  -9  24   7    0.45    0.72
  24   9   8    0.02    0.67
  -9  24   8    0.23    0.68
  24   9   9    1.16    0.72
  -9  24   9    0.72    0.59
  24   9  10    2.39    0.69
  24   9  10    3.13    0.83
 -10  24   0    0.37    0.64
 -10  24  -1    0.85    0.73
 -10  24   1   -0.17    0.70
 -10  24  -2    6.67    1.23
 -10  24   2    8.15    1.38
 -10  24  -3    0.47    0.71
 -10  24   3    0.15    0.69
 -10  24   4    7.39    1.33
 -10  24   5    2.97    0.96
 -10  24   6    0.31    0.71
  24  10   7    0.57    0.70
 -10  24   7    0.37    0.64
  24  10   8    0.02    0.64
 -10  24   8    2.03    0.77
  24  10   9    0.76    0.70
 -10  24   9    0.53    0.54
  24  10  10    0.68    0.56
  24  10  10    0.07    0.58
 -11  24   0   -0.03    0.68
 -11  24  -1    0.16    0.67
 -11  24   1    0.52    0.72
 -11  24  -2    3.36    0.93
 -11  24   2    4.39    1.10
 -11  24   3    2.45    0.97
 -11  24   4    3.93    1.05
 -11  24   5    1.32    0.80
  24  11   6    6.97    1.29
 -11  24   6    4.62    1.04
  24  11   7    0.85    0.74
 -11  24   7    0.77    0.74
  24  11   8    2.76    0.83
 -11  24   8    3.96    0.88
  24  11   9   -0.04    0.56
  24  11   9   -0.46    0.70
  24  12   0   -0.79    0.83
 -12  24   0    0.90    0.72
  24  12  -1    0.10    0.70
 -12  24  -1    0.25    0.71
 -12  24   1    0.27    0.73
  24  12  -2   -1.01    0.74
 -12  24   2   -0.69    0.69
  24  12   3    0.56    0.76
 -12  24   3    0.60    0.79
  24  12   4    3.36    1.04
 -12  24   4    1.78    0.82
  24  12   5   -0.28    0.66
 -12  24   5    0.76    0.78
  24  12   6    0.46    0.69
 -12  24   6    0.70    0.75
  24  12   7    1.43    0.71
 -12  24   7    0.49    0.65
  24  12   7    0.95    0.64
  24  12   8    0.76    0.65
  24  12   8   -0.53    0.57
  24  12   9    1.02    0.67
  24  12   9    0.23    0.55
  24  13   0    1.28    0.78
  24  13  -1    1.22    0.89
  24  13   1    0.26    0.70
 -13  24   1    0.05    0.80
  24  13  -2    0.81    0.74
  24  13   2    1.66    0.83
 -13  24   2   -0.32    0.70
  24  13   3    0.72    0.73
 -13  24   3    0.61    0.78
  24  13   4    0.55    0.69
 -13  24   4   -0.33    0.73
  24  13   5    1.69    0.85
 -13  24   5   -0.25    0.67
  24  13   6    0.64    0.72
  24  13   7   -0.01    0.62
  24  13   7   -0.36    0.61
  24  13   8   -0.35    0.62
  24  13   8   -1.36    0.72
  24  14   0    1.96    0.86
  24  14  -1    1.21    0.76
  24  14   1    0.55    0.72
  24  14  -2   -0.95    0.72
  24  14   2    0.42    0.72
  24  14   3   -0.76    0.72
  24  14   4   -0.16    0.61
  24  14   5    0.60    0.73
  24  14   6    4.97    1.02
  24  14   7    0.02    0.60
  24  14   8   -0.16    0.61
  24  14   8   -0.23    0.48
  24  15   0    5.52    1.02
  24  15  -1    3.54    0.91
  24  15   1    2.31    0.85
  24  15   2    1.09    0.70
  24  15   3    1.71    0.83
  24  15   4    0.72    0.71
  24  15   5    1.24    0.75
  24  15   6    0.48    0.66
  24  15   7    0.85    0.65
  24  16   0    3.32    0.86
  24  16  -1    1.16    0.72
  24  16   1    0.24    0.62
  24  16   2    0.23    0.63
  24  16   3    1.35    0.71
  24  16   4    7.73    1.16
  24  16   5   -0.15    0.62
  24  16   6    0.78    0.68
  24  17   0    1.19    0.69
  24  17  -1    0.27    0.54
  24  17   1    0.82    0.64
  24  17   2   -0.12    0.59
  24  17   3    0.42    0.63
  24  17   4   -0.02    0.59
  24  17   5   -0.50    0.66
  24  18   0    3.08    0.79
  24  18   1   -0.21    0.59
  24  18   2   -0.22    0.55
  24  18   3    0.83    0.59
  17  25   0   -0.53    0.59
  17  25   1   -0.69    0.57
  17  25   2    0.30    0.52
  16  25   0    0.80    0.59
  16  25   1    1.44    0.59
  16  25   2    0.79    0.57
  16  25   3    0.57    0.63
  16  25   4    1.25    0.67
  15  25   0    4.66    0.91
  15  25  -1    0.02    0.67
  15  25   1    0.56    0.70
  15  25   2    0.52    0.65
  15  25   3    0.01    0.60
  15  25   4   10.31    1.22
  15  25   5    0.16    0.54
  14  25   0   -0.02    0.62
  14  25  -1    1.21    0.68
  14  25   1    0.63    0.69
  14  25   2   -0.38    0.70
  14  25   3    2.58    0.79
  14  25   4    1.28    0.68
  14  25   5   -0.12    0.60
  14  25   6   -0.76    0.67
  13  25   0   12.49    1.41
  13  25  -1    1.38    0.75
  13  25   1    1.01    0.79
  13  25   2    4.81    0.99
  13  25   3   -0.04    0.63
  13  25   4    5.89    1.07
  13  25   5    1.20    0.70
  13  25   6   -0.55    0.68
  13  25   7   -0.01    0.57
  12  25   0    1.66    0.85
  12  25  -1   -0.44    0.67
  12  25   1   -0.05    0.67
  12  25   2   10.35    1.38
  12  25   3    0.43    0.70
  12  25   4    1.69    0.82
  12  25   5   -0.36    0.68
  12  25   6   11.88    1.38
  12  25   7    0.18    0.64
  12  25   8    0.26    0.55
  11  25   0    0.08    0.71
  11  25  -1   -0.49    0.74
  11  25   1   -0.30    0.70
  11  25   2    0.75    0.67
  11  25   3    1.29    0.80
  11  25   4   11.59    1.50
  11  25   5    0.83    0.76
  11  25   6    1.28    0.75
  11  25   7    0.84    0.68
  11  25   8   -0.06    0.63
  10  25   0   -0.23    0.73
  10  25  -1    1.69    0.84
  10  25   1   -0.50    0.75
  10  25   2    4.59    1.08
  10  25   3    1.35    0.86
  10  25   4   -0.64    0.82
  10  25   5    5.04    1.10
  10  25   6    2.70    0.94
  10  25   7    4.85    1.03
  10  25   8    0.03    0.62
  10  25   9    0.65    0.57
   9  25   0    1.48    0.77
   9  25  -1    0.45    0.74
   9  25   1   -0.33    0.72
   9  25  -2    0.67    0.83
   9  25   2    0.28    0.73
   9  25   3    2.92    0.90
   9  25   4    7.68    1.34
   9  25   5    0.02    0.70
   9  25   6    0.02    0.69
   9  25   7    0.29    0.64
   9  25   8   -0.22    0.66
   9  25   9    0.65    0.63
   8  25   0    2.00    0.88
   8  25  -1    0.50    0.69
   8  25   1    0.11    0.71
   8  25  -2    1.16    0.88
   8  25   2    0.97    0.77
   8  25   3    1.16    0.80
   8  25   4    1.36    0.84
   8  25   5    0.55    0.75
   8  25   6   -0.25    0.75
   8  25   7    2.71    0.87
   8  25   8    1.04    0.71
   8  25   9    0.79    0.62
   8  25  10    0.05    0.52
   7  25   0    2.03    0.83
   7  25  -1    3.77    1.02
   7  25   1    2.68    0.88
   7  25  -2    0.47    0.66
   7  25   2    1.54    0.81
   7  25   3    3.23    1.01
   7  25   4    1.76    0.82
   7  25   5    0.37    0.77
   7  25   6    0.01    0.75
   7  25   7    9.57    1.36
   7  25   8    1.90    0.83
   7  25   9    1.11    0.71
   7  25  10    2.27    0.70
   6  25   0   -0.28    0.74
   6  25  -1    1.42    0.83
   6  25   1    0.99    0.72
   6  25  -2   27.06    2.10
   6  25   2   25.24    2.16
   6  25   3    1.33    0.80
   6  25   4    2.42    0.88
   6  25   5   -0.09    0.69
   6  25   6   23.15    2.02
   6  25   7    0.95    0.87
   6  25   8    2.01    0.83
   6  25   9    2.02    0.74
   6  25  10   11.75    1.26
   5  25   0    7.80    1.30
   5  25  -1    1.71    0.85
   5  25   1    0.01    0.74
   5  25  -2    0.94    0.67
   5  25   2    0.53    0.75
   5  25   3   -0.52    0.78
   5  25   4   -0.70    0.77
   5  25   5    0.64    0.76
   5  25   6    2.04    0.93
   5  25   7   -0.37    0.66
   5  25   8    2.73    0.92
   5  25   9   -0.06    0.64
   5  25  10    0.46    0.56
   5  25  10    0.33    0.61
   4  25   0    0.69    0.75
   4  25  -1    1.23    0.70
   4  25   1    1.51    0.87
   4  25  -2    4.12    1.02
   4  25   2    4.68    1.16
   4  25   3    0.41    0.70
   4  25   4    3.94    1.15
   4  25   5    3.73    0.96
   4  25   6   13.55    1.64
   4  25   7    0.90    0.81
   4  25   8    3.31    0.96
   4  25   9    1.27    0.76
   4  25  10    2.59    0.69
   4  25  10    0.88    0.58
   3  25   0   26.04    2.18
   3  25  -1   -0.10    0.67
   3  25   1    0.36    0.71
   3  25  -2    0.23    0.76
   3  25   2    0.94    0.85
   3  25   3   -0.43    0.71
   3  25   4   25.77    2.18
   3  25   5    0.85    0.89
   3  25   6    8.45    1.39
   3  25   7   -0.07    0.68
   3  25   8   23.83    1.98
   3  25   9    0.35    0.64
   3  25   9   -0.01    0.68
   3  25  10   -0.47    0.74
   3  25  10   -0.47    0.58
   3  25  11    1.56    0.62
   3  25  11   -0.88    0.58
   2  25   0    0.73    0.87
   2  25  -1   10.25    1.46
   2  25   1    9.34    1.41
   2  25  -2    1.49    0.79
   2  25   2    0.71    0.67
   2  25   3   -0.38    0.77
   2  25   4    0.71    0.83
   2  25   5    2.23    0.96
   2  25   6    2.50    0.98
   2  25   7    1.62    0.77
   2  25   8    2.12    0.91
   2  25   9    1.82    0.68
   2  25   9    3.16    0.86
   2  25  10    0.88    0.59
   2  25  10    1.35    0.68
   2  25  11    0.01    0.52
   1  25   0    2.22    0.94
   1  25  -1    0.94    0.74
   1  25   1    1.61    0.89
   1  25  -2    0.41    0.73
   1  25   2    0.62    0.69
   1  25  -3    2.61    0.95
   1  25   3    1.76    0.89
   1  25   4    0.99    0.70
   1  25   5   -0.07    0.75
   1  25   6   -0.02    0.72
   1  25   7    1.17    0.77
   1  25   8    0.27    0.67
   1  25   8   -0.93    0.77
   1  25   9    1.27    0.71
   1  25   9    0.99    0.66
   1  25  10    1.15    0.66
   1  25  11    0.99    0.54
   0  25   0    0.22    0.71
   0  25  -1   -0.17    0.75
   0  25   1    0.40    0.77
   0  25  -2    9.67    1.40
   0  25   2    8.37    1.43
   0  25  -3    9.56    1.37
   0  25   3   10.41    1.50
   0  25   4    1.10    0.76
   0  25   5    0.32    0.71
   0  25   6    2.52    0.92
   0  25   7    0.28    0.74
   0  25   8    0.38    0.71
   0  25   9    4.44    0.99
   0  25  10    3.48    0.85
   0  25  11    0.55    0.54
  -1  25   0    1.61    0.88
  -1  25  -1   -0.09    0.72
  -1  25   1    1.15    0.83
  -1  25  -2    1.07    0.83
  -1  25   2    0.84    0.83
  -1  25  -3    3.07    0.95
  -1  25   3    1.46    0.87
  -1  25   4    2.36    0.92
  -1  25   5   -0.38    0.76
  -1  25   6    0.03    0.76
  -1  25   7    0.01    0.70
  -1  25   8    0.78    0.75
  -1  25   9    0.89    0.69
  -1  25  10    2.33    0.75
  -1  25  11   -0.56    0.52
  -2  25   0    0.79    0.83
  -2  25  -1    7.85    1.33
  -2  25   1    6.34    1.21
  -2  25  -2    0.34    0.71
  -2  25   2    0.49    0.73
  -2  25  -3   -1.04    0.87
  -2  25   3   -0.08    0.76
  -2  25   4    1.72    0.89
  -2  25   5    1.48    0.89
  -2  25   6    1.43    0.93
  -2  25   7    2.51    0.93
  -2  25   8   -0.08    0.71
  -2  25   9    3.06    0.86
  -2  25  10    0.88    0.63
  25   2  11    0.22    0.65
  -3  25   0   23.33    2.11
  -3  25  -1   -0.01    0.68
  -3  25   1    1.48    0.86
  -3  25  -2    0.96    0.72
  -3  25   2   -0.62    0.81
  -3  25  -3   -0.57    0.69
  -3  25   3   -0.41    0.69
  -3  25   4   25.52    2.17
  -3  25   5    1.46    0.86
  -3  25   6    7.05    1.29
  -3  25   7    0.07    0.79
  -3  25   8   24.33    1.97
  -3  25   9    0.45    0.66
  -3  25  10    0.72    0.65
  25   3  11   -0.05    0.60
  -4  25   0    0.74    0.80
  -4  25  -1    0.90    0.81
  -4  25   1    2.97    0.93
  -4  25  -2    3.11    0.98
  -4  25   2    3.64    1.04
  -4  25  -3   -0.04    0.62
  -4  25   3   -0.28    0.76
  -4  25   4    4.34    1.14
  -4  25   5    1.96    0.82
  -4  25   6   11.77    1.54
  -4  25   7    0.18    0.68
  -4  25   8    2.31    0.83
  -4  25   9    1.22    0.72
  25   4  10    1.28    0.66
  -4  25  10    2.27    0.71
  -5  25   0    6.87    1.25
  -5  25  -1    0.20    0.70
  -5  25   1   -1.18    0.85
  -5  25  -2    1.27    0.88
  -5  25   2    1.08    0.88
  -5  25  -3   -0.10    0.69
  -5  25   3   -0.22    0.75
  -5  25   4    0.38    0.67
  -5  25   5    0.17    0.73
  -5  25   6   -0.02    0.69
  -5  25   7   -0.65    0.78
  -5  25   8    2.24    0.83
  -5  25   9    0.57    0.64
  25   5  10    1.10    0.62
  -5  25  10   -0.26    0.60
  -6  25   0    0.85    0.78
  -6  25  -1    0.71    0.76
  -6  25   1    1.65    0.81
  -6  25  -2   22.74    2.01
  -6  25   2   20.37    1.99
  -6  25  -3    0.45    0.64
  -6  25   3    0.42    0.70
  -6  25   4    2.32    0.94
  -6  25   5    0.83    0.77
  -6  25   6   25.48    2.10
  -6  25   7   -0.43    0.71
  -6  25   8    1.77    0.85
  25   6   9    1.68    0.71
  -6  25   9    2.37    0.81
  -6  25  10   10.64    1.10
  25   6  10   10.54    1.14
  25   6  10   10.59    1.23
  -7  25   0    4.02    1.02
  -7  25  -1    2.96    0.95
  -7  25   1    2.24    0.93
  -7  25  -2    1.44    0.81
  -7  25   2    1.17    0.75
  -7  25  -3    4.59    1.13
  -7  25   3    3.33    1.02
  -7  25   4    1.14    0.85
  -7  25   5    1.35    0.74
  -7  25   6    0.54    0.78
  -7  25   7   10.18    1.36
  -7  25   8   -0.40    0.65
  25   7   9    1.56    0.71
  -7  25   9    1.17    0.68
  25   7  10    3.02    0.77
  25   7  10    0.96    0.52
  -7  25  10    2.73    0.68
  -8  25   0    0.33    0.72
  -8  25  -1    0.23    0.73
  -8  25   1   -0.19    0.71
  -8  25  -2    0.61    0.76
  -8  25   2    0.35    0.73
  -8  25  -3    0.32    0.69
  -8  25   3   -0.49    0.75
  -8  25  -4    2.73    0.92
  -8  25   4    2.08    0.92
  -8  25   5    0.58    0.76
  -8  25   6    0.53    0.69
  -8  25   7    1.95    0.77
  25   8   8   -0.16    0.63
  -8  25   8   -0.13    0.61
  25   8   9    0.69    0.62
  -8  25   9    2.34    0.75
  25   8  10    0.08    0.54
  -8  25  10   -0.36    0.48
  -9  25   0    0.47    0.71
  -9  25  -1    0.61    0.68
  -9  25   1   -0.08    0.70
  -9  25  -2   -0.43    0.79
  -9  25   2    0.44    0.70
  -9  25  -3    2.40    0.89
  -9  25   3    1.89    0.90
  -9  25   4    6.85    1.27
  -9  25   5    1.72    0.77
  -9  25   6    0.10    0.66
  25   9   7    1.05    0.73
  -9  25   7   -0.02    0.64
  25   9   8    0.25    0.63
  -9  25   8   -0.12    0.57
  25   9   9    1.25    0.70
  -9  25   9    1.21    0.63
 -10  25   0    0.87    0.74
 -10  25  -1    0.21    0.71
 -10  25   1    0.85    0.80
 -10  25  -2    4.08    1.02
 -10  25   2    4.05    1.07
 -10  25   3   -0.01    0.67
 -10  25   4    0.66    0.81
 -10  25   5    2.51    0.92
  25  10   6    2.50    0.89
 -10  25   6    0.15    0.66
  25  10   7    4.04    0.96
 -10  25   7    4.12    0.96
  25  10   8    0.33    0.64
 -10  25   8    0.80    0.62
  25  10   9    0.53    0.61
  25  10   9   -0.44    0.58
 -11  25   0    0.12    0.68
 -11  25  -1   -0.09    0.77
 -11  25   1    0.13    0.74
  25  11  -2    0.13    0.70
 -11  25   2    0.07    0.74
 -11  25   3   -0.09    0.69
  25  11   4   10.10    1.43
 -11  25   4    9.23    1.35
  25  11   5    0.68    0.71
 -11  25   5    1.47    0.76
  25  11   6    0.88    0.75
 -11  25   6    0.01    0.65
  25  11   7    1.26    0.73
 -11  25   7    1.59    0.75
  25  11   8    0.57    0.67
  25  11   8    0.26    0.56
  25  12   0   -0.15    0.65
 -12  25   0    0.81    0.76
  25  12  -1    0.54    0.70
  25  12   1   -0.46    0.71
 -12  25   1    0.13    0.75
  25  12  -2    7.82    1.19
  25  12   2    9.01    1.34
 -12  25   2    9.58    1.37
  25  12   3    2.25    0.87
 -12  25   3    0.66    0.77
  25  12   4    2.44    0.87
 -12  25   4    1.40    0.82
  25  12   5   -0.17    0.65
 -12  25   5   -0.39    0.68
 -12  25   6   10.33    1.28
  25  12   6    9.66    1.28
  25  12   7    1.08    0.68
  25  12   7    0.01    0.53
  25  12   8   -0.75    0.63
  25  12   8    0.19    0.51
  25  13   0   11.71    1.42
  25  13  -1    1.81    0.75
  25  13   1    1.98    0.88
  25  13  -2    7.21    1.07
  25  13   2    4.65    1.05
 -13  25   2    4.09    1.01
  25  13   3    0.35    0.67
 -13  25   3    0.46    0.73
  25  13   4    5.47    1.09
 -13  25   4    4.23    0.99
  25  13   5    0.61    0.63
  25  13   6   -0.19    0.63
  25  13   7    0.81    0.61
  25  14   0    0.22    0.64
  25  14  -1    2.18    0.79
  25  14   1    1.00    0.72
  25  14   2    0.79    0.73
  25  14   3    5.07    1.00
  25  14   4    1.00    0.72
  25  14   5   -0.29    0.64
  25  14   6    0.47    0.63
  25  15   0    4.11    0.92
  25  15  -1    0.84    0.70
  25  15   1    0.92    0.71
  25  15   2   -0.10    0.60
  25  15   3   -0.01    0.62
  25  15   4    8.75    1.18
  25  15   5    0.28    0.55
  25  16   0    0.73    0.59
  25  16  -1    2.19    0.60
  25  16   1    1.44    0.68
  25  16   2    1.67    0.84
  25  16   3    0.16    0.58
  25  16   4    0.65    0.60
  25  17   0    0.09    0.58
  25  17   1   -0.68    0.63
  25  17   2   -0.03    0.52
  15  26   0    2.55    0.70
  15  26   1    0.75    0.64
  15  26   2    0.69    0.57
  15  26   3    0.16    0.55
  14  26   0    4.39    0.88
  14  26   1   -0.54    0.63
  14  26   2    0.30    0.61
  14  26   3    1.45    0.64
  14  26   4    0.36    0.61
  13  26   0    0.28    0.60
  13  26  -1    0.81    0.65
  13  26   1    0.36    0.61
  13  26   2   -1.05    0.73
  13  26   3    1.04    0.69
  13  26   4    0.77    0.68
  13  26   5    1.26    0.67
  12  26   0    9.53    1.29
  12  26  -1    1.81    0.76
  12  26   1    1.60    0.81
  12  26   2    6.33    1.10
  12  26   3    0.48    0.64
  12  26   4    0.54    0.64
  12  26   5    1.76    0.72
  12  26   6    1.14    0.69
  11  26   0    1.64    0.78
  11  26  -1    2.32    0.83
  11  26   1    1.49    0.74
  11  26   2    0.31    0.64
  11  26   3    0.13    0.70
  11  26   4    0.24    0.65
  11  26   5    0.59    0.68
  11  26   6    0.61    0.67
  11  26   7    0.98    0.63
  10  26   0    0.67    0.77
  10  26  -1    0.00    0.62
  10  26   1    0.24    0.76
  10  26   2    0.14    0.70
  10  26   3    2.14    0.87
  10  26   4    4.58    0.98
  10  26   5    0.46    0.64
  10  26   6    0.48    0.66
  10  26   7    0.21    0.57
   9  26   0    1.45    0.90
   9  26  -1    0.60    0.78
   9  26   1    1.13    0.78
   9  26   2   17.15    1.74
   9  26   3    0.89    0.74
   9  26   4    6.92    1.20
   9  26   5    2.18    0.87
   9  26   6    9.07    1.19
   9  26   7    1.16    0.69
   9  26   8    0.34    0.56
   8  26   0    0.06    0.76
   8  26  -1   -0.86    0.79
   8  26   1    0.41    0.69
   8  26  -2    5.18    1.06
   8  26   2    4.98    1.12
   8  26   3    0.48    0.72
   8  26   4    0.48    0.72
   8  26   5   -0.18    0.67
   8  26   6    0.98    0.74
   8  26   7    1.41    0.71
   8  26   8    0.08    0.62
   7  26   0   -0.19    0.78
   7  26  -1    1.49    0.85
   7  26   1    1.61    0.86
   7  26  -2    3.84    1.01
   7  26   2    2.57    0.92
   7  26   3    0.84    0.75
   7  26   4   -0.26    0.72
   7  26   5    0.48    0.71
   7  26   6    9.63    1.34
   7  26   7    0.49    0.73
   7  26   8    0.12    0.63
   7  26   9   -0.67    0.62
   6  26   0   12.58    1.55
   6  26  -1    2.33    0.90
   6  26   1    2.46    0.92
   6  26  -2    1.28    0.84
   6  26   2    3.01    0.97
   6  26   3    0.56    0.72
   6  26   4   -1.31    0.83
   6  26   5    1.31    0.81
   6  26   6    0.20    0.71
   6  26   7    1.09    0.72
   6  26   8    0.66    0.68
   6  26   9    1.21    0.73
   5  26   0    4.63    1.09
   5  26  -1    0.74    0.69
   5  26   1    0.04    0.70
   5  26  -2    3.32    0.96
   5  26   2    3.72    1.00
   5  26   3    2.00    0.87
   5  26   4    1.27    0.75
   5  26   5    1.70    0.89
   5  26   6    1.23    0.77
   5  26   7    0.77    0.70
   5  26   8    0.41    0.68
   5  26   9    3.10    0.83
   4  26   0   -0.16    0.70
   4  26  -1    1.00    0.70
   4  26   1    1.00    0.82
   4  26  -2    1.55    0.83
   4  26   2    3.33    1.00
   4  26   3    0.92    0.72
   4  26   4    1.47    0.84
   4  26   5   -0.39    0.72
   4  26   6    0.70    0.80
   4  26   7    1.53    0.80
   4  26   8    0.23    0.60
   4  26   9    0.01    0.58
   3  26   0    7.02    1.29
   3  26  -1    3.77    1.05
   3  26   1    3.81    1.05
   3  26  -2    8.17    1.27
   3  26   2    6.55    1.23
   3  26   3    0.55    0.74
   3  26   4    3.33    0.96
   3  26   5    1.23    0.81
   3  26   6    3.45    1.00
   3  26   7    2.99    0.94
   3  26   8    2.75    0.82
   3  26   9    0.02    0.57
   3  26  10    0.52    0.60
   2  26   0   -0.39    0.79
   2  26  -1   -0.33    0.71
   2  26   1    1.45    0.81
   2  26  -2    1.11    0.71
   2  26   2    1.95    0.85
   2  26   3    0.40    0.69
   2  26   4    5.32    1.17
   2  26   5    1.02    0.74
   2  26   6    0.73    0.75
   2  26   7    1.24    0.77
   2  26   8    6.37    1.10
   2  26   9    0.82    0.68
   2  26  10   -0.53    0.56
   1  26   0    1.43    0.87
   1  26  -1    1.03    0.73
   1  26   1    1.57    0.81
   1  26  -2    1.91    0.82
   1  26   2    0.72    0.72
   1  26   3    2.22    0.89
   1  26   4    0.39    0.68
   1  26   5    1.50    0.87
   1  26   6    0.88    0.71
   1  26   7   -0.67    0.79
   1  26   8    0.65    0.76
   1  26   9    1.81    0.75
   1  26  10   -0.18    0.53
   0  26   0   55.56    3.07
   0  26  -1    1.66    0.82
   0  26   1    0.58    0.80
   0  26  -2    9.06    1.33
   0  26   2    7.98    1.41
   0  26   3   -0.20    0.72
   0  26   4    6.61    1.21
   0  26   5   -0.73    0.80
   0  26   6    0.66    0.75
   0  26   7    1.75    0.79
   0  26   8   20.48    1.74
   0  26   9    0.79    0.62
   0  26  10    0.22    0.54
  -1  26   0    2.15    0.91
  -1  26  -1    1.90    0.86
  -1  26   1    1.37    0.87
  -1  26  -2    0.48    0.67
  -1  26   2    1.12    0.84
  -1  26  -3    2.08    0.87
  -1  26   3    2.44    0.92
  -1  26   4    0.41    0.69
  -1  26   5    0.98    0.79
  -1  26   6    0.74    0.75
  -1  26   7    1.09    0.76
  -1  26   8    1.08    0.73
  -1  26   9    1.22    0.68
  -1  26  10    0.74    0.56
  -2  26   0   -0.22    0.79
  -2  26  -1    1.39    0.80
  -2  26   1    0.45    0.78
  -2  26  -2    1.35    0.77
  -2  26   2    1.52    0.84
  -2  26  -3    1.38    0.79
  -2  26   3    0.52    0.61
  -2  26   4    4.48    1.14
  -2  26   5    0.24    0.66
  -2  26   6    1.06    0.70
  -2  26   7    0.69    0.73
  -2  26   8    5.90    1.08
  -2  26   9    1.60    0.71
  26   2  10    0.43    0.51
  -2  26  10   -0.35    0.52
  -3  26   0    5.30    1.13
  -3  26  -1    2.82    0.96
  -3  26   1    3.58    1.07
  -3  26  -2    6.68    1.20
  -3  26   2    7.27    1.22
  -3  26  -3    0.84    0.75
  -3  26   3    2.08    0.88
  -3  26   4    2.64    0.97
  -3  26   5    2.10    0.77
  -3  26   6    2.82    0.97
  -3  26   7    3.35    0.98
  -3  26   8    1.94    0.79
  -3  26   9    1.08    0.66
  26   3  10    0.73    0.57
  -3  26  10    1.97    0.64
  -4  26   0   -0.68    0.85
  -4  26  -1    0.79    0.72
  -4  26   1    0.88    0.80
  -4  26  -2    2.48    0.83
  -4  26   2    2.15    0.91
  -4  26  -3    0.52    0.72
  -4  26   3    1.17    0.70
  -4  26   4   -0.11    0.64
  -4  26   5    0.26    0.70
  -4  26   6    0.06    0.71
  -4  26   7    1.28    0.79
  -4  26   8   -0.26    0.59
  -4  26   9    0.46    0.64
  -5  26   0    5.42    1.16
  -5  26  -1    1.20    0.76
  -5  26   1    0.80    0.76
  -5  26  -2    2.94    0.96
  -5  26   2    2.75    0.95
  -5  26  -3    0.75    0.73
  -5  26   3    0.86    0.79
  -5  26   4    0.69    0.75
  -5  26   5    2.26    0.91
  -5  26   6    1.81    0.85
  -5  26   7    0.82    0.66
  -5  26   8    1.25    0.71
  26   5   9    4.69    0.90
  -5  26   9    3.61    0.81
  -6  26   0   14.16    1.64
  -6  26  -1    3.54    1.00
  -6  26   1    2.97    1.00
  -6  26  -2    3.47    0.98
  -6  26   2    4.21    1.09
  -6  26  -3    1.30    0.80
  -6  26   3    0.49    0.65
  -6  26   4    0.17    0.70
  -6  26   5    0.98    0.71
  -6  26   6    0.90    0.76
  -6  26   7    1.86    0.77
  -6  26   8    0.68    0.65
  26   6   9    0.48    0.60
  -6  26   9    0.51    0.53
  -7  26   0   -0.15    0.72
  -7  26  -1    1.14    0.86
  -7  26   1    0.86    0.74
  -7  26  -2    0.87    0.70
  -7  26   2    2.53    0.92
  -7  26  -3   -0.59    0.77
  -7  26   3   -0.43    0.68
  -7  26   4    0.13    0.65
  -7  26   5    0.24    0.72
  -7  26   6    8.94    1.27
  -7  26   7    0.45    0.65
  26   7   8    1.01    0.69
  -7  26   8   -0.27    0.57
  26   7   9    1.00    0.56
  -7  26   9    0.59    0.58
  -8  26   0    1.05    0.78
  -8  26  -1   -0.39    0.73
  -8  26   1    0.48    0.72
  -8  26  -2    2.65    0.91
  -8  26   2    2.50    0.97
  -8  26  -3   -0.42    0.69
  -8  26   3    1.29    0.83
  -8  26   4   -0.74    0.77
  -8  26   5   -0.21    0.68
  -8  26   6    0.99    0.70
  26   8   7    1.15    0.71
  -8  26   7   -0.38    0.66
  26   8   8    0.38    0.60
  -8  26   8   -0.08    0.56
  -9  26   0    1.61    0.81
  -9  26  -1    0.02    0.73
  -9  26   1    0.39    0.76
  -9  26  -2   16.34    1.62
  -9  26   2   16.89    1.74
  -9  26   3   -0.27    0.70
  -9  26   4    4.65    1.04
  -9  26   5    0.07    0.64
  26   9   6    8.11    1.21
  -9  26   6    7.25    1.16
  26   9   7    1.24    0.71
  -9  26   7    1.62    0.75
  26   9   8    0.30    0.62
  -9  26   8    0.22    0.56
 -10  26   0   -0.45    0.66
 -10  26  -1    0.03    0.68
 -10  26   1    1.25    0.81
  26  10  -2    1.29    0.80
 -10  26  -2    0.54    0.75
 -10  26   2    0.61    0.75
 -10  26   3   -0.12    0.67
 -10  26   4    3.45    0.95
  26  10   5    0.37    0.68
 -10  26   5    0.73    0.68
  26  10   6    0.17    0.60
 -10  26   6    0.10    0.60
  26  10   7    1.07    0.64
 -10  26   7    0.17    0.60
  26  11   0    0.52    0.69
 -11  26   0    0.59    0.66
  26  11  -1    0.63    0.68
  26  11   1    1.98    0.87
 -11  26   1    1.21    0.78
  26  11  -2    0.26    0.61
  26  11   2   -0.76    0.69
 -11  26   2    0.01    0.70
  26  11   3    0.45    0.66
 -11  26   3    0.05    0.64
  26  11   4    0.07    0.69
 -11  26   4    0.09    0.65
  26  11   5    0.50    0.60
 -11  26   5    1.04    0.72
  26  11   6    0.27    0.65
 -11  26   6    1.50    0.69
  26  11   6    0.57    0.55
  26  11   7    2.12    0.71
  26  11   7    1.61    0.65
  26  12   0    7.98    1.19
  26  12  -1    0.27    0.62
  26  12   1    0.09    0.69
 -12  26   1    0.34    0.70
  26  12  -2    5.32    0.92
  26  12   2    7.92    1.22
 -12  26   2    5.20    1.08
  26  12   3    1.01    0.71
 -12  26   3    1.02    0.72
  26  12   4    2.52    0.89
 -12  26   4    1.14    0.72
  26  12   5    1.64    0.72
 -12  26   5    0.80    0.69
  26  12   6    0.84    0.66
  26  13   0    0.61    0.68
  26  13  -1    0.56    0.62
  26  13   1    1.58    0.82
  26  13   2    2.05    0.82
  26  13   3    1.50    0.70
  26  13   4   -0.38    0.66
  26  13   5    1.54    0.73
  26  14   0    3.03    0.81
  26  14  -1   -0.32    0.58
  26  14   1    0.13    0.61
  26  14   2   -0.04    0.57
  26  14   3    0.20    0.59
  26  14   4    0.80    0.60
  26  15   0    2.85    0.75
  26  15  -1    0.13    0.53
  26  15   1    1.40    0.67
  26  15   2    1.29    0.66
  26  15   3   -0.33    0.55
  14  27   0    1.15    0.57
  13  27   0    3.60    0.80
  13  27   1    0.96    0.66
  13  27   2   -0.03    0.59
  13  27   3    0.44    0.60
  12  27   0    0.50    0.68
  12  27   1    2.58    0.80
  12  27   2    0.11    0.59
  12  27   3    0.04    0.58
  12  27   4    0.89    0.68
  11  27   0    0.35    0.58
  11  27  -1    1.39    0.72
  11  27   1    0.01    0.60
  11  27   2    0.93    0.75
  11  27   3    1.81    0.79
  11  27   4    1.51    0.71
  11  27   5   -0.18    0.60
  10  27   0    1.01    0.77
  10  27  -1    1.38    0.72
  10  27   1    0.60    0.68
  10  27   2    0.28    0.64
  10  27   3    0.41    0.62
  10  27   4    1.93    0.79
  10  27   5   -0.34    0.68
  10  27   6   -0.42    0.63
   9  27   0   12.80    1.38
   9  27  -1    1.49    0.69
   9  27   1    1.01    0.68
   9  27   2    2.04    0.83
   9  27   3    1.17    0.75
   9  27   4    4.58    1.00
   9  27   5    0.57    0.65
   9  27   6   -0.18    0.58
   8  27   0    0.46    0.69
   8  27  -1    0.99    0.72
   8  27   1    1.74    0.79
   8  27   2    0.96    0.70
   8  27   3    2.96    0.89
   8  27   4    2.63    0.92
   8  27   5    0.09    0.66
   8  27   6    0.95    0.68
   8  27   7    0.09    0.61
   7  27   0   -0.05    0.70
   7  27  -1    0.69    0.72
   7  27   1    1.93    0.78
   7  27   2    0.87    0.67
   7  27   3   -0.17    0.73
   7  27   4    1.11    0.74
   7  27   5    0.64    0.75
   7  27   6    1.59    0.72
   7  27   7    0.05    0.60
   6  27   0    2.67    0.91
   6  27  -1    2.28    0.94
   6  27   1    2.62    0.94
   6  27  -2    3.04    0.87
   6  27   2    3.21    1.00
   6  27   3    3.06    0.93
   6  27   4    0.42    0.72
   6  27   5    0.56    0.75
   6  27   6    0.56    0.71
   6  27   7    0.78    0.67
   6  27   8    1.27    0.67
   5  27   0    4.66    1.03
   5  27  -1    2.83    0.91
   5  27   1    2.90    0.95
   5  27  -2   -0.49    0.74
   5  27   2    1.05    0.79
   5  27   3   -0.17    0.64
   5  27   4    2.40    0.90
   5  27   5    0.93    0.72
   5  27   6    0.39    0.65
   5  27   7    1.18    0.71
   5  27   8    1.66    0.72
   4  27   0    1.36    0.81
   4  27  -1    0.17    0.78
   4  27   1   -0.19    0.71
   4  27  -2    4.09    0.98
   4  27   2    3.17    0.97
   4  27   3    2.47    0.92
   4  27   4    0.72    0.76
   4  27   5    0.46    0.69
   4  27   6    0.88    0.71
   4  27   7    0.49    0.60
   4  27   8   -1.32    0.69
   3  27   0    2.03    0.85
   3  27  -1   -0.57    0.71
   3  27   1    1.27    0.84
   3  27  -2   -0.40    0.73
   3  27   2    0.20    0.70
   3  27   3   -0.80    0.72
   3  27   4    1.68    0.86
   3  27   5   -0.50    0.71
   3  27   6    0.85    0.73
   3  27   7    1.80    0.77
   3  27   8    0.31    0.59
   2  27   0    0.42    0.71
   2  27  -1    1.36    0.77
   2  27   1    2.76    0.95
   2  27  -2    1.50    0.79
   2  27   2    1.78    0.84
   2  27   3    1.85    0.77
   2  27   4    0.69    0.71
   2  27   5    0.93    0.76
   2  27   6    0.77    0.70
   2  27   7    0.96    0.70
   2  27   8    0.52    0.63
   2  27   9   -0.58    0.60
   1  27   0    9.69    1.39
   1  27  -1    0.01    0.72
   1  27   1    0.11    0.71
   1  27  -2    1.36    0.79
   1  27   2    1.84    0.86
   1  27   3   -0.20    0.73
   1  27   4    1.19    0.86
   1  27   5    0.81    0.74
   1  27   6   -0.89    0.74
   1  27   7    0.47    0.70
   1  27   8    1.15    0.64
   1  27   9   -0.63    0.57
   0  27   0    0.69    0.77
   0  27  -1    1.47    0.76
   0  27   1    1.85    0.78
   0  27  -2    5.34    1.11
   0  27   2    5.85    1.15
   0  27   3    0.40    0.75
   0  27   4    1.66    0.83
   0  27   5   -0.64    0.76
   0  27   6    7.36    1.22
   0  27   7    0.45    0.63
   0  27   8    0.31    0.59
   0  27   9    0.63    0.62
  -1  27   0    6.93    1.21
  -1  27  -1    1.05    0.72
  -1  27   1    1.21    0.74
  -1  27  -2    0.06    0.68
  -1  27   2   -0.42    0.79
  -1  27   3    0.07    0.69
  -1  27   4    0.54    0.65
  -1  27   5    0.35    0.74
  -1  27   6   -0.06    0.66
  -1  27   7   -0.38    0.68
  -1  27   8    1.23    0.70
  -1  27   9    0.41    0.58
  -2  27   0    0.30    0.73
  -2  27  -1    0.51    0.71
  -2  27   1    1.91    0.89
  -2  27  -2    1.05    0.68
  -2  27   2    0.68    0.79
  -2  27   3    1.98    0.82
  -2  27   4    1.12    0.79
  -2  27   5    1.63    0.83
  -2  27   6    1.15    0.78
  -2  27   7    0.26    0.65
  -2  27   8    0.30    0.56
  -2  27   9    0.24    0.55
  -3  27   0    0.58    0.73
  -3  27  -1    0.08    0.70
  -3  27   1   -0.42    0.70
  -3  27  -2   -1.18    0.85
  -3  27   2   -0.94    0.77
  -3  27  -3   -1.38    0.72
  -3  27   3    0.46    0.74
  -3  27   4    2.35    0.89
  -3  27   5   -0.49    0.67
  -3  27   6    0.28    0.64
  -3  27   7    1.98    0.78
  -3  27   8    1.21    0.68
  -4  27   0    2.09    0.90
  -4  27  -1    0.70    0.76
  -4  27   1    1.08    0.72
  -4  27  -2    2.82    0.89
  -4  27   2    4.34    1.05
  -4  27  -3    2.47    0.81
  -4  27   3    2.10    0.87
  -4  27   4    0.83    0.74
  -4  27   5   -0.01    0.66
  -4  27   6    0.22    0.65
  -4  27   7    1.04    0.72
  -4  27   8    0.78    0.61
  -5  27   0    4.17    1.00
  -5  27  -1    1.62    0.90
  -5  27   1    4.09    1.11
  -5  27  -2   -0.31    0.77
  -5  27   2    0.48    0.72
  -5  27  -3    0.56    0.63
  -5  27   3   -0.67    0.71
  -5  27   4    2.51    0.82
  -5  27   5   -0.12    0.70
  -5  27   6   -0.45    0.63
  -5  27   7    1.06    0.69
  -5  27   8    0.93    0.61
  -6  27   0    2.97    0.97
  -6  27  -1    0.52    0.73
  -6  27   1    2.04    0.86
  -6  27  -2    2.15    0.85
  -6  27   2    3.14    0.95
  -6  27  -3    1.04    0.78
  -6  27   3    2.24    0.94
  -6  27   4    0.18    0.66
  -6  27   5    0.18    0.64
  -6  27   6    0.60    0.68
  -6  27   7    0.78    0.70
  27   6   8    0.95    0.66
  -6  27   8   -0.24    0.57
  -7  27   0   -0.54    0.79
  -7  27  -1   -0.66    0.66
  -7  27   1   -0.29    0.70
  -7  27  -2   -0.24    0.72
  -7  27   2   -0.02    0.67
  -7  27  -3    0.28    0.63
  -7  27   3   -0.33    0.73
  -7  27   4    1.03    0.81
  -7  27   5   -0.12    0.67
  -7  27   6    1.52    0.75
  27   7   7    0.97    0.70
  -7  27   7    0.98    0.62
  -8  27   0    1.08    0.74
  -8  27  -1    0.62    0.69
  -8  27   1    0.51    0.69
  -8  27  -2    0.54    0.67
  -8  27   2    0.75    0.72
  -8  27   3    1.80    0.75
  -8  27   4    1.04    0.71
  -8  27   5    0.12    0.60
  -8  27   6    0.65    0.63
  27   8   7    0.03    0.60
  -8  27   7    0.59    0.58
  -9  27   0   10.15    1.36
  -9  27  -1   -0.71    0.65
  -9  27   1    0.37    0.61
  -9  27  -2    2.23    0.82
  -9  27   2    1.30    0.71
  -9  27   3    0.86    0.66
  -9  27   4    4.22    0.94
  27   9   5   -0.15    0.67
  -9  27   5    0.34    0.62
  27   9   6    0.79    0.62
  -9  27   6   -0.36    0.59
  27  10   0    1.26    0.74
 -10  27   0   -0.05    0.63
  27  10  -1    0.82    0.66
 -10  27  -1    0.41    0.66
 -10  27   1    0.44    0.67
  27  10  -2    0.41    0.58
 -10  27   2    0.51    0.70
  27  10   3    0.72    0.69
 -10  27   3   -0.57    0.69
  27  10   4    0.97    0.74
 -10  27   4   -0.64    0.64
  27  10   5    0.63    0.68
 -10  27   5    0.36    0.57
  27  10   6    0.23    0.61
 -10  27   6    0.01    0.54
  27  11   0    0.79    0.71
  27  11  -1    0.36    0.60
  27  11   1   -0.47    0.61
 -11  27   1    0.70    0.70
  27  11  -2    0.20    0.57
  27  11   2    1.02    0.64
 -11  27   2    1.10    0.65
  27  11   3   -0.77    0.74
 -11  27   3   -0.33    0.68
  27  11   4    1.55    0.78
 -11  27   4    0.72    0.63
  27  11   5    0.28    0.60
 -11  27   5    0.59    0.58
  27  12   0    0.75    0.68
  27  12  -1    2.47    0.78
  27  12   1    2.78    0.84
  27  12   2    0.46    0.64
  27  12   3    1.05    0.69
  27  12   4   -0.04    0.55
  27  13   0    0.41    0.59
  27  13  -1   -0.38    0.55
  27  13   1    0.26    0.55
  27  13   2    0.82    0.60
  27  13   3    0.82    0.61
  27  14   0    0.36    0.52
  11  28   0   -0.36    0.59
  11  28   1    0.56    0.61
  11  28   2    1.77    0.66
  10  28   0    4.98    0.92
  10  28   1   -0.27    0.56
  10  28   2    1.20    0.62
  10  28   3    0.86    0.65
  10  28   4    2.57    0.79
   9  28   0    0.87    0.66
   9  28  -1    1.40    0.70
   9  28   1    0.22    0.59
   9  28   2    1.79    0.72
   9  28   3    4.91    0.96
   9  28   4    1.22    0.66
   9  28   5    1.90    0.73
   8  28   0    1.14    0.72
   8  28  -1    0.30    0.64
   8  28   1    1.07    0.71
   8  28   2    0.17    0.62
   8  28   3   -0.28    0.62
   8  28   4    0.07    0.61
   8  28   5    1.02    0.70
   7  28   0    0.69    0.69
   7  28  -1    3.43    0.82
   7  28   1    3.02    0.85
   7  28   2    0.66    0.68
   7  28   3    1.89    0.81
   7  28   4    2.33    0.84
   7  28   5    2.88    0.86
   7  28   6    1.18    0.66
   6  28   0    9.44    1.24
   6  28  -1    1.12    0.69
   6  28   1    1.35    0.70
   6  28   2    1.80    0.75
   6  28   3    0.84    0.72
   6  28   4   10.41    1.31
   6  28   5    2.41    0.81
   6  28   6    4.29    0.92
   5  28   0   -0.08    0.63
   5  28  -1   -0.20    0.63
   5  28   1   -0.53    0.66
   5  28   2    3.09    0.93
   5  28   3    3.08    0.93
   5  28   4    0.40    0.69
   5  28   5    0.17    0.66
   5  28   6   -0.69    0.64
   5  28   7   -0.11    0.56
   4  28   0   11.29    1.36
   4  28  -1    1.37    0.67
   4  28   1    2.27    0.88
   4  28   2    0.57    0.70
   4  28   3    1.20    0.74
   4  28   4    4.40    0.99
   4  28   5    1.63    0.72
   4  28   6    0.73    0.65
   4  28   7    0.51    0.63
   3  28   0    1.36    0.75
   3  28  -1   -0.37    0.69
   3  28   1   -0.12    0.65
   3  28  -2    9.68    1.20
   3  28   2    7.36    1.20
   3  28   3    3.46    0.96
   3  28   4    1.67    0.84
   3  28   5    0.10    0.66
   3  28   6    8.44    1.18
   3  28   7    0.72    0.66
   2  28   0   -0.65    0.67
   2  28  -1    0.14    0.69
   2  28   1   -0.13    0.68
   2  28  -2    0.86    0.67
   2  28   2    1.06    0.76
   2  28   3   -0.29    0.69
   2  28   4    0.39    0.66
   2  28   5    0.27    0.61
   2  28   6    0.98    0.65
   2  28   7    2.60    0.73
   1  28   0    0.92    0.80
   1  28  -1   -0.25    0.69
   1  28   1   -0.56    0.74
   1  28  -2    1.64    0.83
   1  28   2    1.26    0.74
   1  28   3    0.28    0.64
   1  28   4    1.63    0.75
   1  28   5    0.08    0.65
   1  28   6    1.58    0.70
   1  28   7    0.24    0.57
   0  28   0    1.33    0.77
   0  28  -1    4.38    0.96
   0  28   1    3.04    0.94
   0  28  -2    0.23    0.67
   0  28   2   -0.30    0.79
   0  28   3    2.25    0.82
   0  28   4    1.56    0.70
   0  28   5    0.61    0.70
   0  28   6    1.59    0.71
   0  28   7    1.76    0.71
  -1  28   0    1.12    0.74
  -1  28  -1   -1.26    0.79
  -1  28   1   -0.02    0.73
  -1  28  -2    1.81    0.78
  -1  28   2    2.34    0.92
  -1  28   3   -0.53    0.71
  -1  28   4    0.99    0.68
  -1  28   5    0.85    0.74
  -1  28   6    0.40    0.63
  -1  28   7    0.82    0.62
  -2  28   0   -0.83    0.73
  -2  28  -1    1.35    0.76
  -2  28   1    0.79    0.74
  -2  28  -2    0.50    0.68
  -2  28   2    1.46    0.81
  -2  28   3   -0.59    0.71
  -2  28   4    2.19    0.82
  -2  28   5   -0.11    0.64
  -2  28   6    2.28    0.76
  -2  28   7    3.64    0.85
  -3  28   0    2.20    0.84
  -3  28  -1   -0.17    0.71
  -3  28   1   -0.33    0.72
  -3  28  -2    7.49    1.15
  -3  28   2    7.45    1.20
  -3  28   3    1.46    0.69
  -3  28   4    1.23    0.77
  -3  28   5    1.02    0.71
  -3  28   6    8.54    1.19
  -3  28   7    0.59    0.57
  -4  28   0    9.35    1.31
  -4  28  -1    0.59    0.71
  -4  28   1    1.59    0.74
  -4  28  -2    0.00    0.64
  -4  28   2    0.79    0.73
  -4  28   3    1.30    0.80
  -4  28   4    3.10    0.89
  -4  28   5    0.34    0.69
  -4  28   6    0.80    0.66
  -4  28   7    0.68    0.64
  -5  28   0   -0.13    0.68
  -5  28  -1    0.34    0.61
  -5  28   1   -0.06    0.65
  -5  28  -2    2.99    0.90
  -5  28   2    2.90    0.88
  -5  28   3    2.21    0.73
  -5  28   4    0.67    0.69
  -5  28   5   -0.57    0.68
  -5  28   6    1.26    0.66
  -5  28   7   -0.72    0.56
  -6  28   0    7.60    1.19
  -6  28  -1    0.77    0.66
  -6  28   1    0.70    0.70
  -6  28  -2    0.86    0.69
  -6  28   2    1.62    0.83
  -6  28  -3    0.08    0.63
  -6  28   3    0.95    0.73
  -6  28   4    9.47    1.28
  -6  28   5    2.26    0.84
  -6  28   6    3.48    0.86
  -7  28   0    0.40    0.64
  -7  28  -1    2.58    0.81
  -7  28   1    2.67    0.85
  -7  28  -2    0.01    0.57
  -7  28   2   -0.20    0.67
  -7  28   3    1.16    0.69
  -7  28   4    1.42    0.72
  -7  28   5    1.74    0.75
  28   7   6    1.70    0.70
  -7  28   6    0.00    0.62
  -8  28   0    0.08    0.60
  -8  28  -1   -0.37    0.64
  -8  28   1    0.74    0.62
  -8  28   2   -0.28    0.61
  -8  28   3   -0.49    0.62
  -8  28   4    0.72    0.71
  28   8   5    1.33    0.70
  -8  28   5    1.20    0.59
  -9  28   0    1.26    0.70
  28   9  -1    1.11    0.61
  -9  28   1    0.16    0.58
  28   9  -2    2.60    0.78
  -9  28   2    0.32    0.58
  -9  28   3    3.57    0.86
  28   9   4   -0.07    0.60
  -9  28   4   -0.31    0.61
  28   9   5    0.38    0.61
  -9  28   5    0.65    0.57
  28  10   0    4.34    0.88
  28  10  -1    0.45    0.56
  28  10   1    0.25    0.62
 -10  28   1    0.45    0.58
  28  10   2    0.09    0.59
 -10  28   2    0.21    0.58
  28  10   3    1.13    0.71
 -10  28   3    0.41    0.61
  28  10   4    2.21    0.76
 -10  28   4    1.46    0.63
  28  11   0    1.16    0.62
  28  11  -1   -0.90    0.56
  28  11   1   -0.17    0.60
  28  11   2    2.24    0.78
   9  29   0    8.06    0.95
   9  29   1    0.45    0.59
   8  29   0   -0.14    0.58
   8  29   1    0.67    0.60
   8  29   2    0.29    0.57
   7  29   0    3.51    0.81
   7  29  -1    0.06    0.59
   7  29   1    1.08    0.62
   7  29   2    0.97    0.64
   7  29   3   -0.26    0.57
   6  29   0    0.44    0.59
   6  29  -1    3.05    0.75
   6  29   1    1.50    0.69
   6  29   2    0.74    0.63
   6  29   3    0.28    0.60
   6  29   4    1.12    0.69
   5  29   0    0.48    0.58
   5  29  -1    2.32    0.71
   5  29   1    1.04    0.68
   5  29   2    0.14    0.67
   5  29   3    1.07    0.68
   5  29   4    0.40    0.60
   5  29   5    1.41    0.67
   4  29   0   -0.84    0.70
   4  29  -1    0.71    0.64
   4  29   1    0.96    0.68
   4  29   2   -0.48    0.68
   4  29   3    0.23    0.58
   4  29   4    0.66    0.62
   4  29   5   -0.46    0.58
   3  29   0    3.66    0.89
   3  29  -1    2.30    0.75
   3  29   1    1.95    0.73
   3  29   2   -0.24    0.61
   3  29   3   -0.59    0.63
   3  29   4   -0.60    0.71
   3  29   5    0.06    0.56
   2  29   0    0.46    0.64
   2  29  -1    1.06    0.68
   2  29   1    0.67    0.71
   2  29   2    4.91    1.00
   2  29   3    1.41    0.65
   2  29   4   -0.41    0.63
   2  29   5   -0.62    0.65
   1  29   0   -0.64    0.65
   1  29  -1   -2.29    0.78
   1  29   1    0.82    0.70
   1  29   2    1.72    0.78
   1  29   3    0.84    0.71
   1  29   4    2.22    0.80
   1  29   5    0.18    0.63
   0  29   0   -1.23    0.70
   0  29  -1    0.12    0.58
   0  29   1    0.68    0.64
   0  29  -2    7.13    1.00
   0  29   2    7.09    1.11
   0  29   3    0.02    0.70
   0  29   4    0.85    0.69
   0  29   5    0.64    0.57
  -1  29   0    2.35    0.80
  -1  29  -1   -0.29    0.59
  -1  29   1   -0.40    0.69
  -1  29  -2   -0.21    0.55
  -1  29   2    1.28    0.80
  -1  29   3    1.52    0.72
  -1  29   4    1.92    0.79
  -1  29   5    0.98    0.67
  -2  29   0    0.52    0.67
  -2  29  -1    1.51    0.71
  -2  29   1    1.82    0.71
  -2  29  -2    5.45    0.92
  -2  29   2    4.08    0.93
  -2  29   3    0.16    0.68
  -2  29   4    0.25    0.63
  -2  29   5    0.97    0.62
  -3  29   0    2.59    0.76
  -3  29  -1    1.42    0.68
  -3  29   1    1.31    0.69
  -3  29  -2    0.49    0.61
  -3  29   2    1.11    0.74
  -3  29   3    0.55    0.65
  -3  29   4   -0.84    0.72
  -3  29   5    1.81    0.76
  -4  29   0   -0.20    0.59
  -4  29  -1    0.05    0.58
  -4  29   1    1.13    0.72
  -4  29  -2   -0.68    0.61
  -4  29   2    0.41    0.61
  -4  29   3    0.26    0.59
  -4  29   4    0.81    0.63
  -4  29   5    0.56    0.60
  -5  29   0    0.89    0.68
  -5  29  -1    0.83    0.67
  -5  29   1    2.00    0.77
  -5  29  -2   -0.03    0.58
  -5  29   2   -0.57    0.64
  -5  29   3    0.72    0.63
  -5  29   4    1.05    0.69
  -5  29   5    0.65    0.55
  -6  29   0    0.73    0.67
  -6  29  -1    0.85    0.59
  -6  29   1    0.76    0.63
  -6  29  -2   -0.76    0.54
  -6  29   2   -0.39    0.67
  -6  29   3   -0.58    0.62
  -6  29   4    0.78    0.64
  -7  29   0    4.36    0.89
  -7  29  -1    0.69    0.60
  -7  29   1    0.02    0.56
  29   7  -2   -0.88    0.60
  -7  29   2    0.66    0.63
  -7  29   3    0.75    0.65
  -8  29   0    0.41    0.64
  29   8  -1    0.55    0.57
  -8  29   1    0.73    0.64
  29   8  -2    0.54    0.56
  -8  29   2   -0.58    0.61
  29   9   0    6.64    0.97
  29   9  -1    0.24    0.58
  29   9   1    1.00    0.60
  -9  29   1    1.05    0.65
   5  30   0    0.03    0.52
   4  30   0    2.71    0.71
   4  30  -1    1.61    0.63
   4  30   1    0.32    0.53
   3  30   0    0.95    0.61
   3  30  -1    1.96    0.72
   3  30   1    0.24    0.53
   3  30   2    0.49    0.59
   2  30   0    2.24    0.74
   2  30  -1    1.05    0.61
   2  30   1    0.83    0.56
   2  30   2    0.42    0.57
   1  30   0    0.46    0.57
   1  30  -1   -0.62    0.58
   1  30   1    1.12    0.64
   1  30   2   -0.03    0.55
   1  30   3   -0.26    0.56
   0  30   0    2.47    0.75
   0  30  -1   -0.12    0.52
   0  30   1    0.09    0.59
   0  30   2    0.32    0.60
   0  30   3    0.12    0.54
  -1  30   0    0.05    0.55
  -1  30  -1    0.50    0.59
  -1  30   1    0.08    0.57
  -1  30   2    0.74    0.64
  -1  30   3    0.40    0.55
  -2  30   0    1.96    0.71
  -2  30  -1    1.78    0.71
  -2  30   1    1.46    0.69
  -2  30   2    0.18    0.57
  -3  30   0    1.27    0.60
  -3  30  -1    0.41    0.52
  -3  30   1    1.38    0.65
  -3  30   2   -0.37    0.56
  -4  30   0    3.77    0.81
  -4  30  -1   -0.52    0.55
  -4  30   1    0.04    0.59
  -5  30   0    0.11    0.54
   0   0   0    0.00    0.00
;
_shelx_hkl_checksum              73139
_shelx_fab_file
;
    0    0    2    118.06     -0.03
    0    0    3    -35.11     -0.09
    0    0    4     26.78      0.08
    0    0    5    -13.00     -0.12
    0    0    6      2.18     -0.05
    0    0    7     -0.50      0.15
    0    0   13     -3.31     -0.17
    0    0   14      1.81     -0.02
    0    0   15     -2.41      0.16
    0    0   16     -1.75      0.03
    0    0   17     -0.60     -0.02
    0    0   18      2.86     -0.04
    0    0   19      0.06      0.59
    0    1    2     -8.99     -0.23
    0    1    3     19.88     -0.05
    0    1    4    -10.95     -0.08
    0    1    5     -8.73      0.03
    0    1    6     -0.81     -0.22
    0    1    7     -1.41     -0.03
    0    1    8      3.16     -0.08
    0    1   13     -1.49     -0.04
    0    1   14     -2.09      0.00
    0    1   15     -2.54     -0.04
    0    1   16     -0.04      0.05
    0    1   17      1.66     -0.02
    0    1   18      0.61      0.06
    0    1   19      1.57      0.06
    1    1    1     31.35      0.05
    1    1    2      3.98     -0.11
    1    1    3      8.41      0.01
    1    1    4    -21.68     -0.02
    1    1    5      0.69      0.06
    1    1    6    -11.18      0.08
    1    1    7      5.21     -0.08
    1    1    8     -4.91     -0.08
    1    1    9     -0.42      0.18
    1    1   13     -1.33      0.08
    1    1   14     -6.50     -0.03
    1    1   15      0.36     -0.08
    1    1   16      0.96     -0.04
    1    1   17      1.60      0.11
    1    1   18      2.99      0.01
    1    1   19      0.93     -0.40
    1    2    0    -35.67      0.09
    1    2    1     53.41      4.93
    1    2    2     -1.99     -7.83
    1    2    3      3.63      4.95
    1    2    4     -7.56     -4.35
    1    2    5    -12.13      5.73
    1    2    6      0.01     -2.08
    1    2    7     -2.77      1.29
    1    2    8      2.04     -1.68
    1    2    9      1.88      0.98
    1    2   12     -0.02     -1.03
    1    2   13     -1.91      0.48
    1    2   14     -1.62     -0.90
    1    2   15     -2.41      0.13
    1    2   16      0.44      0.09
    1    2   17      1.22      0.20
    1    2   18     -0.51     -1.06
    1    2   19      1.36     -1.01
    0    2    0    298.68      0.00
    0    2    1    -31.12     -0.22
    0    2    2     64.92      0.02
    0    2    3    -22.51     -0.40
    0    2    4      3.23      0.04
    0    2    5     -9.04     -0.17
    0    2    6     -4.49     -0.04
    0    2    7     -0.53     -0.06
    0    2    8      4.10      0.07
    0    2    9      3.23     -0.15
    0    2   12      1.16      0.00
    0    2   13     -2.20     -0.08
    0    2   14     -0.06      0.00
    0    2   15     -0.98      0.02
    0    2   16     -0.25      0.00
    0    2   17      1.26     -0.03
    0    2   18      1.58      0.02
    0    2   19     -1.12      0.30
    1    2   10      1.26     -1.31
    2    2    0    186.64     -0.02
    2    2    1    -27.17     -0.15
    2    2    2     42.81     -0.07
    2    2    3    -15.15     -0.34
    2    2    4     -4.93      0.04
    2    2    5     -6.89     -0.06
    2    2    6     -6.67      0.00
    2    2    7     -0.43      0.00
    2    2    8      2.23      0.05
    2    2    9      3.72     -0.03
    2    2   10      2.52      0.02
    2    2   12      1.29     -0.02
    2    2   13     -1.25     -0.05
    2    2   14     -1.35     -0.01
    2    2   15     -1.01     -0.01
    2    2   16      0.09     -0.02
    2    2   17      1.55     -0.02
    2    2   18      0.52     -0.01
    2    2   19     -1.73      0.21
    2    3    0     42.10     -0.01
    2    3    1     39.41     -7.77
    2    3    2     -7.23     15.51
    2    3    3      7.85     -5.77
    2    3    4     -8.69      7.68
    2    3    5     -7.21     -9.56
    2    3    6     -2.44      2.81
    2    3    7     -0.86     -3.18
    2    3    8      1.38      1.87
    2    3    9      2.44     -3.55
    2    3   10      1.14      1.00
    2    3   12     -0.84      1.16
    2    3   13     -0.68     -0.45
    2    3   14     -0.54      1.07
    2    3   15     -1.76      0.61
    2    3   16      0.83      0.07
    2    3   17      0.66      0.24
    2    3   18      2.06      1.40
    2    3   19     -0.09      1.69
    1    3    0    -33.94      0.02
    1    3    1     26.69      0.39
    1    3    2     25.32     -1.13
    1    3    3     -3.99      0.94
    1    3    4     -2.16     -1.01
    1    3    5     -3.26      0.01
    1    3    6     -4.16     -0.75
    1    3    7      2.14     -0.35
    1    3    8      1.38     -1.01
    1    3    9      0.41     -0.63
    1    3   10      4.20     -0.42
    1    3   12      0.46     -0.26
    1    3   13     -0.59      0.17
    1    3   14     -2.95     -0.13
    1    3   15      0.35      0.17
    1    3   16     -1.06      0.25
    1    3   17      0.86      0.08
    1    3   18      2.84     -0.01
    1    3   19      2.98     -0.20
    0    3    0     90.93     -0.01
    0    3    1     62.65     -0.09
    0    3    2    -14.34     -0.30
    0    3    3     21.26     -0.07
    0    3    4    -11.70     -0.13
    0    3    5     -4.14      0.03
    0    3    6     -3.17     -0.15
    0    3    7      0.43     -0.05
    0    3    8      2.28     -0.05
    0    3    9      3.30      0.02
    0    3   10      0.99     -0.01
    0    3   12     -2.12     -0.01
    0    3   13     -0.07      0.00
    0    3   14     -0.75      0.03
    0    3   15     -1.86     -0.01
    0    3   16      0.29      0.05
    0    3   17      0.87     -0.02
    0    3   18      3.03      0.08
    0    3   19     -0.08      0.10
    2    3   11      3.21      0.45
    3    3    0     18.23      0.14
    3    3    1     24.56     -0.06
    3    3    2      4.40      0.04
    3    3    3      0.15     -0.09
    3    3    4     -6.35     -0.01
    3    3    5     -1.76     -0.10
    3    3    6     -2.74      0.01
    3    3    7      0.49     -0.03
    3    3    8      0.92      0.01
    3    3    9     -2.82      0.02
    3    3   10      2.45      0.01
    3    3   11     -2.77     -0.01
    3    3   12     -0.08      0.00
    3    3   13     -0.42      0.03
    3    3   14     -0.08      0.02
    3    3   15      2.08      0.01
    3    3   16     -0.60      0.00
    3    3   17      1.89      0.00
    3    3   18      2.51      0.02
    3    3   19      3.11     -0.08
    3    4    0    -16.24      0.02
    3    4    1      8.80      5.44
    3    4    2      6.33    -17.93
    3    4    3     -9.52      1.41
    3    4    4      0.33     -6.63
    3    4    5     -9.66      8.13
    3    4    6      0.66     -1.21
    3    4    7     -1.91      3.23
    3    4    8      1.02     -1.08
    3    4    9      0.38      5.08
    3    4   10      0.09      0.11
    3    4   11     -1.35     -1.89
    3    4   12      0.63      0.09
    3    4   13     -0.91      0.08
    3    4   14      0.47      0.31
    3    4   15     -0.48     -1.16
    3    4   16      0.91     -0.91
    3    4   17     -0.45     -0.17
    3    4   18      0.07     -0.91
    3    4   19      0.34     -0.70
    2    4    0     15.35     -0.02
    2    4    1     -8.17     -1.96
    2    4    2      1.58      2.60
    2    4    3     -0.79     -3.05
    2    4    4    -16.01      1.56
    2    4    5     -2.74     -0.41
    2    4    6     -7.87      1.02
    2    4    7      0.80      0.77
    2    4    8     -0.38      2.05
    2    4    9      3.53      1.77
    2    4   10     -0.74      0.68
    2    4   11      2.84      0.26
    2    4   12     -0.01      0.55
    2    4   13      0.30      0.02
    2    4   14     -1.80      0.27
    2    4   15     -0.18     -0.18
    2    4   16      0.99     -0.17
    2    4   17      1.37     -0.16
    2    4   18     -0.95      0.51
    2    4   19     -1.74     -0.11
    1    4    0    -78.42      0.03
    1    4    1     11.90      3.80
    1    4    2     15.19     -8.43
    1    4    3    -19.60      1.43
    1    4    4      1.73     -4.46
    1    4    5    -15.77      3.55
    1    4    6      1.94     -1.19
    1    4    7     -3.31      1.53
    1    4    8      2.04     -0.74
    1    4    9      1.48      2.11
    1    4   10      1.84      0.44
    1    4   12      2.19      0.07
    1    4   13     -2.14      0.01
    1    4   14     -0.60     -0.09
    1    4   15     -1.16     -0.29
    1    4   16      0.64      0.18
    1    4   17      0.67      0.08
    1    4   18     -2.06     -0.64
    1    4   19      2.36     -0.46
    0    4    0     44.20      0.00
    0    4    1     -5.58     -0.08
    0    4    2     -7.06      0.02
    0    4    3      4.74     -0.65
    0    4    4    -21.92      0.05
    0    4    5     -1.32     -0.11
    0    4    6     -7.82      0.00
    0    4    7      1.29     -0.24
    0    4    8     -0.56     -0.01
    0    4    9      1.92      0.02
    0    4   10     -1.08      0.00
    0    4   11      1.67     -0.13
    0    4   12      0.37     -0.02
    0    4   13     -0.26      0.07
    0    4   14     -0.84      0.04
    0    4   15      0.23     -0.12
    0    4   16      1.69     -0.03
    0    4   17      1.33      0.00
    0    4   18     -0.01      0.04
    0    4   19     -2.66     -0.03
    1    4   11     -1.80     -0.21
    4    4    0    -29.07     -0.03
    4    4    1     -5.06     -0.04
    4    4    2      4.16     -0.05
    4    4    3     -5.03      0.18
    4    4    4     -7.73     -0.02
    4    4    5     -2.58      0.05
    4    4    6     -7.06     -0.09
    4    4    7      1.09      0.17
    4    4    8     -1.23     -0.04
    4    4    9      3.46     -0.02
    4    4   10     -3.80     -0.04
    4    4   11      2.34      0.08
    4    4   12     -2.14      0.01
    4    4   13      1.32     -0.03
    4    4   14     -2.32     -0.02
    4    4   15      0.58      0.07
    4    4   16     -0.25     -0.01
    4    4   17      1.23     -0.01
    4    4   18     -3.23      0.01
    4    4   19      0.54      0.06
    4    5    0     14.65      0.02
    4    5    1     -5.30     -0.82
    4    5    2      0.75     13.51
    4    5    3     -5.43      1.46
    4    5    4     -3.15      2.72
    4    5    5     -3.87     -6.42
    4    5    6     -2.19      0.30
    4    5    7     -0.39     -1.47
    4    5    8     -0.41      1.52
    4    5    9      0.44     -4.41
    4    5   10      0.48      1.23
    4    5   11     -0.24      3.90
    4    5   12     -0.61      0.50
    4    5   13     -0.54      0.43
    4    5   14     -0.08     -0.55
    4    5   15      0.05      0.85
    4    5   16      1.08      2.21
    4    5   17      0.51     -0.48
    4    5   18      1.04     -0.34
    4    5   19     -0.84     -1.13
    3    5    0     39.36      0.07
    3    5    1     10.64      1.06
    3    5    2     -0.27     -4.27
    3    5    3      0.81      1.82
    3    5    4     -3.72     -2.85
    3    5    5     -1.18      1.11
    3    5    6     -0.41     -1.18
    3    5    7     -1.44      0.76
    3    5    8      1.67     -0.96
    3    5    9     -1.77      0.00
    3    5   10      3.28      0.33
    3    5   11     -2.05      1.54
    3    5   12      0.39     -0.20
    3    5   13     -1.26      1.15
    3    5   14      0.76      0.17
    3    5   15      0.71      0.28
    3    5   16     -0.54      0.32
    3    5   17      0.98     -0.36
    3    5   18      2.41      0.13
    3    5   19      0.81     -0.48
    2    5    0     54.85      0.01
    2    5    1      6.09     -3.55
    2    5    2    -13.78      8.44
    2    5    3      5.11      0.47
    2    5    4    -10.84      3.84
    2    5    5     -2.23     -3.90
    2    5    6     -3.84      1.30
    2    5    7     -0.01     -1.38
    2    5    8     -0.53      2.20
    2    5    9      1.78     -2.36
    2    5   10      1.30      0.52
    2    5   11      2.73      1.69
    2    5   12     -0.92      0.93
    2    5   13     -0.51      0.67
    2    5   14     -0.56     -0.12
    2    5   15     -1.49      0.88
    2    5   16      1.04      0.21
    2    5   17      0.03      0.39
    2    5   18      2.71      0.05
    2    5   19     -2.48      0.35
    1    5    0     38.25     -0.01
    1    5    1      1.11      1.33
    1    5    2     21.33     -2.19
    1    5    3    -15.09      2.15
    1    5    4      2.92     -2.04
    1    5    5     -4.26      0.44
    1    5    6     -3.46     -1.40
    1    5    7     -0.61     -0.19
    1    5    8      1.19     -1.64
    1    5    9      0.71     -1.05
    1    5   10      3.70     -0.24
    1    5   11      0.26      0.90
    1    5   12     -0.52     -0.27
    1    5   13     -0.61      0.62
    1    5   14     -2.17     -0.01
    1    5   15      0.28      0.51
    1    5   16     -2.21      0.48
    1    5   17      1.49     -0.07
    1    5   18      1.28     -0.07
    1    5   19      2.57     -0.10
    0    5    0     81.79      0.07
    0    5    1     16.36      0.01
    0    5    2    -23.88     -0.14
    0    5    3     14.47     -0.11
    0    5    4    -13.34     -0.09
    0    5    5      0.01      0.09
    0    5    6     -3.33      0.01
    0    5    7      0.45     -0.01
    0    5    8     -0.34      0.01
    0    5    9      1.40      0.06
    0    5   10      0.27      0.01
    0    5   11      2.94     -0.04
    0    5   12     -1.63     -0.04
    0    5   13     -0.29      0.08
    0    5   14     -0.56      0.03
    0    5   15     -1.93     -0.01
    0    5   16      0.27      0.00
    0    5   17     -1.01      0.00
    0    5   18      3.25      0.10
    0    5   19     -3.51     -0.01
    5    5    0     24.74      0.05
    5    5    1      5.21      0.04
    5    5    2    -11.09      0.04
    5    5    3      4.75     -0.12
    5    5    4     -7.84     -0.01
    5    5    5     -0.94      0.04
    5    5    6      0.63      0.04
    5    5    7     -2.31     -0.06
    5    5    8      1.25     -0.01
    5    5    9     -1.08      0.05
    5    5   10      3.15      0.02
    5    5   11     -2.30     -0.10
    5    5   12      0.57     -0.01
    5    5   13     -1.67      0.02
    5    5   14      2.29     -0.04
    5    5   15      0.26     -0.05
    5    5   16      1.43     -0.03
    5    5   17      0.76      0.01
    5    5   18      4.02     -0.04
    5    5   19     -1.49     -0.04
    5    6    0      1.17     -0.09
    5    6    1     -4.00     -0.88
    5    6    2      1.70     -9.44
    5    6    3     -4.91     -1.69
    5    6    4      1.00     -0.33
    5    6    5     -2.89      4.36
    5    6    6      1.29      1.10
    5    6    7      0.27     -0.25
    5    6    8      0.85     -1.53
    5    6    9     -1.83      3.98
    5    6   10     -1.68     -1.08
    5    6   11     -3.15     -3.42
    5    6   12     -1.07      0.17
    5    6   13      0.33     -0.25
    5    6   14      0.82      0.40
    5    6   15      1.31      0.77
    5    6   16     -0.13     -2.91
    5    6   17     -1.26      1.66
    5    6   18     -0.52     -0.44
    5    6   19     -0.86      2.97
    4    6    0    -35.61      0.01
    4    6    1      5.39     -1.59
    4    6    2     -7.11      4.46
    4    6    3     -0.23     -1.78
    4    6    4     -6.23     -0.04
    4    6    5      0.39      0.06
    4    6    6     -3.63     -0.88
    4    6    7      2.50     -0.70
    4    6    8     -1.56     -0.34
    4    6    9      0.02     -0.96
    4    6   10     -6.07     -0.54
    4    6   11      0.69     -0.55
    4    6   12     -2.62      0.49
    4    6   13      1.68     -0.03
    4    6   14      0.26     -0.31
    4    6   15      1.12      0.22
    4    6   16      0.38      0.08
    4    6   17      0.42      0.15
    4    6   18     -4.19      0.12
    4    6   19      1.92     -0.12
    3    6    0    -13.36     -0.02
    3    6    1     -1.02      0.62
    3    6    2      8.79     -8.38
    3    6    3    -11.84     -4.33
    3    6    4      4.30     -1.78
    3    6    5     -8.11      0.31
    3    6    6      2.48      0.78
    3    6    7     -1.17      0.56
    3    6    8      2.35     -1.70
    3    6    9     -1.77      2.84
    3    6   10     -1.04      0.22
    3    6   11     -3.20     -2.54
    3    6   12     -0.08      0.32
    3    6   13     -0.11     -0.32
    3    6   14      0.70      1.32
    3    6   15      0.54     -0.21
    3    6   16     -0.48     -1.13
    3    6   17     -1.36      1.33
    3    6   18     -0.74     -0.04
    3    6   19      1.21      2.44
    2    6    0    -32.87      0.04
    2    6    1      8.85     -4.25
    2    6    2    -18.93      3.27
    2    6    3      5.69     -4.65
    2    6    4    -14.83      0.73
    2    6    5     -1.27     -0.53
    2    6    6     -3.64      0.70
    2    6    7      1.71      0.22
    2    6    8      0.01      1.99
    2    6    9      0.95      1.21
    2    6   10     -2.74     -0.35
    2    6   11      2.18     -0.44
    2    6   12     -0.93      0.44
    2    6   13      1.30      0.05
    2    6   14      0.55      0.03
    2    6   15     -0.09     -0.08
    2    6   16      1.14     -0.13
    2    6   17      0.22      0.32
    2    6   18     -1.10      0.83
    2    6   19     -0.16     -0.45
    1    6    0    -36.20      0.00
    1    6    1     -1.85      1.67
    1    6    2     22.88     -2.23
    1    6    3    -22.25     -1.73
    1    6    4      6.34     -1.44
    1    6    5    -12.36     -1.20
    1    6    6      1.02     -0.48
    1    6    7     -1.83     -0.16
    1    6    8      3.44     -1.83
    1    6    9      0.47      0.25
    1    6   10      2.73      0.06
    1    6   11     -0.67     -0.86
    1    6   12      2.01     -0.01
    1    6   13     -0.70     -0.54
    1    6   14     -0.39      0.44
    1    6   15     -0.24     -0.20
    1    6   16     -0.85      0.08
    1    6   17      1.15      0.23
    1    6   18     -2.36     -0.44
    1    6   19      4.48      0.64
    0    6    0    -22.04      0.03
    0    6    1     15.35      0.01
    0    6    2    -23.30     -0.03
    0    6    3     13.31     -0.33
    0    6    4    -15.96      0.04
    0    6    5     -1.30      0.03
    0    6    6     -1.31     -0.02
    0    6    7      1.34     -0.10
    0    6    8      2.27     -0.03
    0    6    9      0.94      0.04
    0    6   10     -0.91      0.01
    0    6   11      1.90     -0.08
    0    6   12      0.28      0.05
    0    6   13      0.50      0.05
    0    6   14      1.19      0.04
    0    6   15     -1.23     -0.06
    0    6   16      1.42      0.04
    0    6   17     -1.20     -0.02
    0    6   18      0.79      0.04
    0    6   19     -1.72     -0.07
    6    6    0    -20.40     -0.03
    6    6    1      6.01      0.04
    6    6    2     -1.00     -0.02
    6    6    3      0.62      0.03
    6    6    4      0.99      0.00
    6    6    5      0.82      0.15
    6    6    6      0.44     -0.02
    6    6    7      1.71      0.03
    6    6    8     -0.30     -0.02
    6    6    9     -2.02      0.02
    6    6   10     -7.14     -0.02
    6    6   11     -2.69     -0.02
    6    6   12     -3.65     -0.05
    6    6   13     -0.22      0.05
    6    6   14      1.60      0.02
    6    6   15      0.53      0.02
    6    6   16      1.44     -0.01
    6    6   17     -2.31      0.01
    6    6   18     -3.71      0.02
    6    6   19      1.42     -0.03
    6    7    0      0.06      0.10
    6    7    1     -6.30     -1.83
    6    7    2      2.25      3.12
    6    7    3     -2.08     -3.43
    6    7    4      1.60      0.82
    6    7    5      1.31     -6.44
    6    7    6     -0.65      1.21
    6    7    7      1.50      2.00
    6    7    8      0.13      5.92
    6    7    9     -0.63     -0.01
    6    7   10     -0.91      2.27
    6    7   11     -2.47      2.73
    6    7   12     -1.36     -0.25
    6    7   13      0.10     -0.03
    6    7   14     -0.38      0.14
    6    7   15      2.00     -3.15
    6    7   16     -1.17      2.24
    6    7   17      1.81     -0.62
    6    7   18     -1.70      2.44
    5    7    0      8.05      0.02
    5    7    1     -3.63     -0.18
    5    7    2     -5.11     -4.56
    5    7    3      0.99     -0.04
    5    7    4     -1.55     -1.74
    5    7    5     -1.16     -0.03
    5    7    6      1.08     -0.02
    5    7    7     -1.40      1.71
    5    7    8      1.18      2.44
    5    7    9      1.60      3.37
    5    7   10      1.22      1.30
    5    7   11     -1.03      1.60
    5    7   12      0.03     -0.44
    5    7   13     -0.83      0.12
    5    7   14      0.66     -0.14
    5    7   15     -0.11      0.36
    5    7   16     -0.02      0.33
    5    7   17     -0.46      0.07
    5    7   18      2.99      1.50
    5    7   19     -2.71     -0.70
    4    7    0      4.49      0.02
    4    7    1    -11.85      1.44
    4    7    2      1.62      3.46
    4    7    3     -3.60      1.71
    4    7    4     -0.71     -0.18
    4    7    5      1.27     -3.89
    4    7    6     -2.50     -0.36
    4    7    7      0.83     -0.41
    4    7    8     -1.33      2.79
    4    7    9      0.58     -1.14
    4    7   10      0.74      1.74
    4    7   11     -1.21      3.35
    4    7   12     -0.24      1.46
    4    7   13     -0.64      0.42
    4    7   14     -0.76     -0.17
    4    7   15      0.82     -0.90
    4    7   16      0.23      2.37
    4    7   17      2.18     -0.97
    4    7   18     -0.73     -0.22
    4    7   19     -0.02     -2.59
    3    7    0     12.05      0.00
    3    7    1     -3.71      1.79
    3    7    2      0.15     -4.44
    3    7    3     -2.87      1.18
    3    7    4      0.58     -2.25
    3    7    5     -1.20      0.63
    3    7    6     -0.09     -1.09
    3    7    7     -1.24      1.72
    3    7    8      0.92      1.70
    3    7    9      1.98      2.37
    3    7   10      0.50      3.03
    3    7   11     -2.28      2.80
    3    7   12     -1.11      0.53
    3    7   13     -2.10      0.81
    3    7   14     -0.72      0.48
    3    7   15      0.21      0.19
    3    7   16     -0.49      0.74
    3    7   17     -0.48     -0.77
    3    7   18      2.35      1.36
    3    7   19     -1.79     -0.37
    2    7    0     13.63     -0.02
    2    7    1    -10.57     -0.72
    2    7    2    -12.05     -2.00
    2    7    3      0.46      2.30
    2    7    4     -6.27     -0.37
    2    7    5      1.00      0.83
    2    7    6     -0.37      0.91
    2    7    7      1.15      0.56
    2    7    8     -0.89      3.46
    2    7    9      1.48      1.37
    2    7   10      0.57      1.82
    2    7   11     -1.38      2.58
    2    7   12     -0.11      2.09
    2    7   13     -1.13      1.29
    2    7   14     -0.67      0.37
    2    7   15     -0.25      0.59
    2    7   16      0.90      0.94
    2    7   17     -0.91      0.21
    2    7   18      0.78      0.11
    2    7   19     -3.50     -1.22
    1    7    0      2.81     -0.01
    1    7    1     -5.53      2.14
    1    7    2      4.60     -0.81
    1    7    3    -10.19      1.35
    1    7    4     -2.07     -1.18
    1    7    5      1.06      0.07
    1    7    6     -3.71     -1.22
    1    7    7      1.48      0.20
    1    7    8     -1.42     -0.14
    1    7    9      3.31      0.17
    1    7   10      0.26      1.55
    1    7   11     -0.52      1.45
    1    7   12     -1.39      0.34
    1    7   13     -1.43      0.23
    1    7   14     -2.65     -0.01
    1    7   15      0.31      0.01
    1    7   16     -1.72      0.44
    1    7   17      0.40     -0.61
    1    7   18     -1.08      0.22
    1    7   19     -0.60     -0.04
    0    7    0     19.22      0.00
    0    7    1     -8.08      0.05
    0    7    2    -22.49     -0.03
    0    7    3      4.38     -0.15
    0    7    4     -8.74     -0.01
    0    7    5      0.66      0.06
    0    7    6      1.80     -0.01
    0    7    7      1.43     -0.05
    0    7    8      0.02     -0.03
    0    7    9      1.44      0.03
    0    7   10     -0.87     -0.01
    0    7   11     -2.62     -0.07
    0    7   12     -0.95     -0.05
    0    7   13     -1.35      0.13
    0    7   14     -0.77      0.02
    0    7   15     -0.33      0.05
    0    7   16      0.73     -0.05
    0    7   17     -2.79      0.04
    0    7   18      1.94      0.05
    0    7   19     -5.23     -0.05
    7    7    0      1.14      0.05
    7    7    1     -1.76     -0.04
    7    7    2     -4.02      0.01
    7    7    3      2.85      0.11
    7    7    4     -1.50      0.01
    7    7    5      1.21     -0.12
    7    7    6      0.98     -0.02
    7    7    7      1.60      0.06
    7    7    8      0.91     -0.02
    7    7    9      1.56      0.02
    7    7   10      0.89     -0.06
    7    7   11      0.41      0.06
    7    7   12      1.57     -0.03
    7    7   13      0.75     -0.06
    7    7   14      0.61     -0.04
    7    7   15     -1.24      0.07
    7    7   16     -0.58     -0.03
    7    7   17     -0.11     -0.01
    7    7   18      0.96     -0.06
    7    8    0     -0.73     -0.08
    7    8    1     -0.79      3.48
    7    8    2     -0.49      0.78
    7    8    3      0.56      4.43
    7    8    4      0.04     -1.76
    7    8    5      1.80      4.75
    7    8    6      1.21     -1.52
    7    8    7      2.60     -2.60
    7    8    8      0.66     -6.82
    7    8    9     -0.17     -2.28
    7    8   10     -0.87      1.09
    7    8   11     -1.48     -0.90
    7    8   12     -0.48      2.83
    7    8   13      0.33     -0.10
    7    8   14      0.45      1.12
    7    8   15      1.10      3.33
    7    8   16     -1.07      0.01
    7    8   17     -0.45     -0.07
    7    8   18     -2.31     -3.97
    6    8    0     -8.80      0.00
    6    8    1      2.14     -1.28
    6    8    2     -1.64      2.00
    6    8    3      0.03     -0.10
    6    8    4      0.34     -1.46
    6    8    5      0.82      2.52
    6    8    6      2.78     -1.77
    6    8    7      0.26      1.44
    6    8    8      0.99     -0.52
    6    8    9     -1.56     -1.50
    6    8   10     -3.96      1.70
    6    8   11     -2.73     -0.10
    6    8   12     -3.24      1.40
    6    8   13     -0.84      0.68
    6    8   14      2.75     -0.09
    6    8   15      0.67     -0.95
    6    8   16      3.77     -0.76
    6    8   17     -2.46     -0.97
    6    8   18     -0.22     -0.06
    5    8    0      2.67     -0.06
    5    8    1     -1.02     -0.56
    5    8    2     -1.25     -2.00
    5    8    3     -2.23     -1.15
    5    8    4     -1.32      0.98
    5    8    5     -1.02      1.89
    5    8    6      2.21      1.76
    5    8    7      2.40     -0.06
    5    8    8      1.84     -3.00
    5    8    9     -0.85      1.59
    5    8   10     -1.03     -0.09
    5    8   11     -2.01     -0.67
    5    8   12     -1.22     -0.14
    5    8   13      0.33     -0.23
    5    8   14      0.83      0.57
    5    8   15      1.08      1.98
    5    8   16     -0.37     -1.98
    5    8   17     -2.12      1.69
    5    8   18     -0.66     -2.04
    4    8    0    -14.09      0.04
    4    8    1      7.62     -2.30
    4    8    2     -6.43      2.87
    4    8    3      2.69     -0.89
    4    8    4     -5.08     -3.76
    4    8    5      1.61      2.26
    4    8    6      1.24     -1.87
    4    8    7      1.62      1.14
    4    8    8      0.18     -0.92
    4    8    9     -2.03     -1.83
    4    8   10     -2.51      0.09
    4    8   11      0.04     -0.78
    4    8   12     -1.32      1.12
    4    8   13      0.51      0.36
    4    8   14      2.21     -1.01
    4    8   15     -0.65     -0.15
    4    8   16      2.19     -1.13
    4    8   17      0.15     -0.01
    4    8   18     -1.88     -0.87
    3    8    0      4.55      0.02
    3    8    1     -2.62     -1.30
    3    8    2      4.15      0.20
    3    8    3     -6.15     -5.27
    3    8    4      0.02      1.73
    3    8    5     -3.40     -3.14
    3    8    6      0.68      1.98
    3    8    7      0.85      1.80
    3    8    8      2.73     -0.70
    3    8    9     -1.75      2.25
    3    8   10     -0.36      0.29
    3    8   11     -1.68     -0.12
    3    8   12     -1.56     -1.20
    3    8   13      0.12     -0.66
    3    8   14      0.03     -0.12
    3    8   15      0.41     -0.74
    3    8   16     -0.75     -1.52
    3    8   17     -0.47      0.98
    3    8   18      0.32     -0.53
    3    8   19      1.46      3.52
    2    8    0     -5.51      0.02
    2    8    1      6.13     -4.49
    2    8    2     -9.35      0.00
    2    8    3      3.63     -2.11
    2    8    4     -4.50     -2.68
    2    8    5     -1.97      1.45
    2    8    6      1.79      0.34
    2    8    7      0.25      0.66
    2    8    8      1.60      0.30
    2    8    9     -2.04     -0.78
    2    8   10     -1.20     -1.48
    2    8   11      1.76     -1.29
    2    8   12     -0.79      0.22
    2    8   13      0.72      0.56
    2    8   14      1.61     -0.26
    2    8   15     -1.47      0.89
    2    8   16      0.56     -1.00
    2    8   17      0.44      1.36
    2    8   18     -0.24     -0.28
    2    8   19      1.37     -0.45
    1    8    0      3.70      0.07
    1    8    1     -4.26      0.51
    1    8    2     15.57      1.83
    1    8    3     -9.81     -2.42
    1    8    4      1.72      0.50
    1    8    5     -2.77     -3.09
    1    8    6     -2.48     -0.06
    1    8    7     -0.54      0.46
    1    8    8      1.68     -0.86
    1    8    9     -2.40      0.19
    1    8   10      2.23     -0.21
    1    8   11      0.26     -0.15
    1    8   12     -0.34     -0.83
    1    8   13     -0.42     -0.81
    1    8   14     -1.19     -0.60
    1    8   15     -1.59     -0.97
    1    8   16     -2.06     -0.21
    1    8   17      1.67      0.09
    1    8   18     -1.80     -0.22
    1    8   19      4.21      1.44
    0    8    0      2.22      0.04
    0    8    1      2.67     -0.10
    0    8    2    -10.73     -0.06
    0    8    3      3.83      0.02
    0    8    4     -1.96     -0.05
    0    8    5     -5.01     -0.02
    0    8    6      2.42     -0.02
    0    8    7     -1.17      0.08
    0    8    8      2.73      0.01
    0    8    9     -2.24     -0.06
    0    8   10     -1.75      0.02
    0    8   11      1.11      0.04
    0    8   12     -1.37      0.06
    0    8   13      0.13     -0.04
    0    8   14      1.60      0.02
    0    8   15     -1.51      0.07
    0    8   16      0.75      0.11
    0    8   17      0.49     -0.03
    0    8   18      2.41      0.05
    0    8   19      0.98      0.04
    8    8    0      1.04     -0.02
    8    8    1     -1.75     -0.07
    8    8    2      3.22      0.00
    8    8    3     -1.71     -0.06
    8    8    4      4.72      0.02
    8    8    5     -0.18      0.05
    8    8    6      3.94      0.00
    8    8    7     -1.28      0.02
    8    8    8      2.28     -0.05
    8    8    9     -0.10     -0.11
    8    8   10     -1.58     -0.01
    8    8   11     -1.10     -0.04
    8    8   12     -2.51      0.00
    8    8   13     -0.53     -0.02
    8    8   14      2.12      0.00
    8    8   15      1.52      0.00
    8    8   16      2.12      0.01
    8    8   17     -4.75     -0.03
    8    8   18     -0.01     -0.02
    8    9    0     -2.19      0.01
    8    9    1      1.09     -0.67
    8    9    2     -0.67     -1.99
    8    9    3      1.34     -3.38
    8    9    4      0.66      1.79
    8    9    5      2.06     -5.50
    8    9    6      1.08      0.68
    8    9    7      1.93     -0.38
    8    9    8      1.14      4.69
    8    9    9      0.38      2.14
    8    9   10     -0.47     -4.46
    8    9   11     -0.71      0.16
    8    9   12     -0.86     -4.31
    8    9   13      0.73     -0.85
    8    9   14      0.24     -1.96
    8    9   15      2.09     -2.33
    8    9   16     -1.32     -1.90
    8    9   17      0.96      1.36
    8    9   18     -1.94      2.60
    7    9    0     -0.90     -0.01
    7    9    1     -2.10      3.07
    7    9    2     -1.05     -0.84
    7    9    3      1.15      1.53
    7    9    4     -0.17     -1.14
    7    9    5      0.47     -1.39
    7    9    6      1.51      0.27
    7    9    7      2.71     -0.87
    7    9    8      0.50     -0.77
    7    9    9      0.09      2.41
    7    9   10     -0.47     -1.62
    7    9   11     -0.70      0.81
    7    9   12      0.88     -1.19
    7    9   13      0.42     -0.07
    7    9   14      0.00     -1.87
    7    9   15     -1.87      1.85
    7    9   16     -0.16      0.28
    7    9   17     -0.47      0.58
    7    9   18      0.10     -0.01
    6    9    0     -4.52      0.01
    6    9    1     -3.09     -0.40
    6    9    2      0.50      0.02
    6    9    3      0.19     -2.99
    6    9    4      2.04      1.85
    6    9    5      2.32     -5.47
    6    9    6     -0.78      1.43
    6    9    7      1.19      0.35
    6    9    8      0.35      6.50
    6    9    9     -0.45      2.69
    6    9   10     -0.43     -0.16
    6    9   11     -1.98      1.54
    6    9   12     -0.95     -0.57
    6    9   13      0.54      0.05
    6    9   14     -0.25     -0.76
    6    9   15      2.13     -4.23
    6    9   16     -1.13      0.32
    6    9   17      3.13     -0.71
    6    9   18     -1.43      2.13
    5    9    0     -0.57     -0.07
    5    9    1     -4.58      1.90
    5    9    2     -1.90     -2.38
    5    9    3     -0.51      1.21
    5    9    4      2.33      0.82
    5    9    5     -1.85     -0.96
    5    9    6      1.24      0.92
    5    9    7      0.76     -1.08
    5    9    8      1.47      1.75
    5    9    9      1.99      2.90
    5    9   10     -0.75      0.01
    5    9   11      0.19      0.91
    5    9   12      0.09     -1.04
    5    9   13     -0.13     -0.29
    5    9   14     -0.64     -1.37
    5    9   15      0.10      1.31
    5    9   16     -1.38      0.18
    5    9   17     -1.70      0.44
    5    9   18      0.87      1.78
    4    9    0     -6.49     -0.03
    4    9    1     -6.60      1.99
    4    9    2      0.48     -1.81
    4    9    3     -0.79      0.76
    4    9    4      2.04     -1.68
    4    9    5      2.43     -2.63
    4    9    6     -0.65      0.06
    4    9    7      0.90     -1.25
    4    9    8     -0.88      2.76
    4    9    9     -0.10      1.52
    4    9   10      0.54      0.82
    4    9   11     -1.53      1.79
    4    9   12      0.56      2.09
    4    9   13      0.02      0.95
    4    9   14     -0.43      0.67
    4    9   15      0.60     -1.56
    4    9   16     -0.05      2.40
    4    9   17      2.38     -0.08
    4    9   18     -1.27      1.13
    3    9    0    -10.63     -0.02
    3    9    1     -4.12      1.75
    3    9    2     -5.92     -0.65
    3    9    3     -2.36     -0.37
    3    9    4      0.34      2.11
    3    9    5     -0.70     -1.14
    3    9    6     -0.38     -0.07
    3    9    7      0.84     -0.51
    3    9    8      0.36      3.50
    3    9    9      2.92      2.36
    3    9   10     -2.55      3.35
    3    9   11     -1.26      1.80
    3    9   12     -1.60      0.38
    3    9   13     -1.28     -0.05
    3    9   14     -1.09     -0.70
    3    9   15      1.37     -0.37
    3    9   16     -0.35      0.69
    3    9   17     -1.01     -0.88
    3    9   18      1.56      2.60
    2    9    0     -6.00     -0.09
    2    9    1     -6.80      0.69
    2    9    2     -6.44     -4.78
    2    9    3     -1.47      2.75
    2    9    4      0.26     -2.36
    2    9    5      0.02      2.03
    2    9    6      2.89     -0.03
    2    9    7      1.99     -1.24
    2    9    8      0.64     -0.77
    2    9    9      1.18      0.81
    2    9   10     -0.22     -0.30
    2    9   11     -2.13      1.02
    2    9   12      0.32      1.74
    2    9   13     -0.72      1.73
    2    9   14     -0.75      1.84
    2    9   15      0.77      1.13
    2    9   16      0.78      1.28
    2    9   17     -0.82      0.57
    2    9   18      0.11      0.17
    1    9    0    -20.30      0.02
    1    9    1      3.76      1.56
    1    9    2     -5.84      0.89
    1    9    3     -2.70     -0.60
    1    9    4     -4.41      0.84
    1    9    5      3.71     -1.05
    1    9    6     -0.51     -0.73
    1    9    7      3.14     -0.23
    1    9    8     -0.73      1.64
    1    9    9      3.64      0.97
    1    9   10     -1.36      2.18
    1    9   11     -0.79      1.07
    1    9   12     -1.29      0.36
    1    9   13     -1.67     -0.28
    1    9   14     -1.75     -0.64
    1    9   15     -0.09     -0.78
    1    9   16     -0.93      0.52
    1    9   17     -1.71     -0.82
    1    9   18     -1.76      1.11
    0    9    0     -4.87     -0.07
    0    9    1     -6.32      0.05
    0    9    2    -11.84     -0.04
    0    9    3     -1.22     -0.07
    0    9    4     -0.36      0.02
    0    9    5     -2.08      0.02
    0    9    6      5.14     -0.06
    0    9    7      2.58     -0.04
    0    9    8      2.13     -0.04
    0    9    9      1.76     -0.03
    0    9   10     -1.59      0.03
    0    9   11     -3.06      0.02
    0    9   12     -0.33     -0.02
    0    9   13     -0.82      0.04
    0    9   14     -0.70     -0.01
    0    9   15      1.89      0.19
    0    9   16      1.49     -0.01
    0    9   17     -2.02      0.05
    0    9   18      1.97     -0.02
    9    9    0     -2.14      0.01
    9    9    1     -0.02      0.12
    9    9    2     -0.10      0.02
    9    9    3      1.45     -0.04
    9    9    4     -0.57      0.04
    9    9    5      1.87      0.08
    9    9    6      1.48      0.00
    9    9    7      2.86      0.00
    9    9    8      0.59      0.02
    9    9    9     -0.55      0.30
    9    9   10      0.44      0.02
    9    9   11     -2.23      0.01
    9    9   12      0.55     -0.02
    9    9   13      0.79      0.04
    9    9   14      0.76      0.00
    9    9   15     -1.17     -0.06
    9    9   16      1.95      0.03
    9    9   17      0.94      0.04
    9    9   18      0.27      0.04
    9   10    0     -2.01      0.00
    9   10    1      0.93     -3.12
    9   10    2     -1.09      3.55
    9   10    3      2.44      1.37
    9   10    4      0.63      0.68
    9   10    5      1.70      4.38
    9   10    6      1.22      0.08
    9   10    7      0.93      0.96
    9   10    8      0.22     -2.08
    9   10    9      0.41     -1.97
    9   10   10     -0.98      4.24
    9   10   11     -0.03     -0.77
    9   10   12      0.34      2.81
    9   10   13      0.12      0.73
    9   10   14      0.78      1.46
    9   10   15     -0.24     -0.51
    9   10   16     -0.20      1.56
    9   10   17      0.08     -2.34
    8   10    0      3.20     -0.01
    8   10    1     -1.49     -3.06
    8   10    2      2.41      0.43
    8   10    3     -0.35     -1.05
    8   10    4      3.69      0.49
    8   10    5      0.89      1.17
    8   10    6      1.50     -1.84
    8   10    7      0.00      1.85
    8   10    8      2.14      1.01
    8   10    9      0.77     -0.63
    8   10   10      0.01      1.15
    8   10   11      0.68     -0.23
    8   10   12     -0.14     -0.17
    8   10   13     -0.01     -0.62
    8   10   14      1.10     -0.46
    8   10   15      1.32     -2.16
    8   10   16     -0.22     -1.45
    8   10   17     -2.94     -0.95
    7   10    0     -0.20      0.01
    7   10    1     -0.97     -1.52
    7   10    2     -0.36      1.64
    7   10    3      1.45      0.65
    7   10    4      0.52     -1.23
    7   10    5      2.06      2.37
    7   10    6      1.15      0.73
    7   10    7      2.58      0.27
    7   10    8      0.56     -1.93
    7   10    9      1.09     -1.43
    7   10   10     -0.08      5.14
    7   10   11      0.05     -0.44
    7   10   12      0.96      2.84
    7   10   13     -0.70     -1.88
    7   10   14      0.68      1.95
    7   10   15     -0.85      0.40
    7   10   16     -0.66      1.63
    7   10   17     -0.60      0.58
    7   10   18     -1.85     -2.15
    6   10    0     -2.70      0.04
    6   10    1      0.65     -2.97
    6   10    2     -0.67      0.24
    6   10    3      1.19     -1.09
    6   10    4      1.68     -3.51
    6   10    5      1.94      1.93
    6   10    6      2.58     -3.67
    6   10    7     -1.27      4.05
    6   10    8      2.26      1.77
    6   10    9      0.13      0.46
    6   10   10     -0.07      3.61
    6   10   11     -0.73      0.64
    6   10   12     -1.40      0.42
    6   10   13      0.14      0.22
    6   10   14      1.05     -1.37
    6   10   15      0.93     -1.90
    6   10   16      1.74     -1.77
    6   10   17     -0.69     -1.21
    6   10   18      0.68      0.88
    5   10    0      3.69      0.03
    5   10    1     -2.79     -2.36
    5   10    2     -0.85      1.23
    5   10    3     -1.60     -1.75
    5   10    4     -1.13      0.93
    5   10    5      1.02      0.19
    5   10    6      0.44      0.18
    5   10    7      3.69      1.16
    5   10    8      1.25     -1.87
    5   10    9      1.48      0.09
    5   10   10      0.00      2.18
    5   10   11     -0.28      0.46
    5   10   12     -0.34     -0.56
    5   10   13     -1.12     -3.09
    5   10   14      0.39      0.62
    5   10   15      0.28     -0.41
    5   10   16     -0.58     -0.55
    5   10   17     -1.36      0.89
    5   10   18     -0.97     -1.74
    4   10    0     -1.07      0.03
    4   10    1      1.42     -1.44
    4   10    2     -0.43     -0.23
    4   10    3      0.33     -0.44
    4   10    4     -0.57     -7.23
    4   10    5      1.52      1.22
    4   10    6      3.70     -2.41
    4   10    7     -1.26      3.24
    4   10    8      1.25      0.68
    4   10    9     -1.08     -0.09
    4   10   10      0.63      2.61
    4   10   11     -0.22     -0.19
    4   10   12     -0.81      1.11
    4   10   13      0.68     -0.47
    4   10   14      0.85     -1.48
    4   10   15     -0.43      0.32
    4   10   16      1.58     -1.43
    4   10   17      1.27      0.74
    4   10   18      0.04     -1.03
    3   10    0      5.71      0.07
    3   10    1     -3.63     -1.76
    3   10    2      0.43      3.07
    3   10    3     -1.85     -4.17
    3   10    4     -2.27      3.20
    3   10    5      2.38     -2.61
    3   10    6     -1.57      0.36
    3   10    7      2.73      3.63
    3   10    8      0.25      2.16
    3   10    9     -0.19      2.62
    3   10   10     -0.35      1.83
    3   10   11     -1.40      1.86
    3   10   12     -0.86     -1.70
    3   10   13     -0.70     -2.80
    3   10   14      0.39     -1.50
    3   10   15      0.29     -2.65
    3   10   16     -0.15     -0.40
    3   10   17     -0.19     -0.50
    3   10   18      0.47      0.05
    2   10    0      8.98     -0.02
    2   10    1     -2.68     -1.69
    2   10    2      2.13     -1.22
    2   10    3     -1.38      0.61
    2   10    4      2.23     -4.77
    2   10    5     -2.12      1.62
    2   10    6      3.81      0.70
    2   10    7     -1.03      1.07
    2   10    8      1.68     -0.26
    2   10    9     -1.23     -1.03
    2   10   10      0.41      0.63
    2   10   11      0.54     -1.06
    2   10   12     -0.10      1.19
    2   10   13      0.71     -0.41
    2   10   14      0.79      0.10
    2   10   15     -0.71      1.64
    2   10   16      0.25     -1.51
    2   10   17      1.71      1.83
    2   10   18      0.04     -1.70
    1   10    0      5.43      0.08
    1   10    1     -1.96     -0.15
    1   10    2      4.26      2.14
    1   10    3     -0.90     -2.55
    1   10    4     -3.99      1.47
    1   10    5      6.05     -2.31
    1   10    6     -3.03      0.27
    1   10    7      1.94      2.29
    1   10    8     -0.82      2.55
    1   10    9     -0.92      1.85
    1   10   10      1.87      1.33
    1   10   11     -0.80      1.08
    1   10   12      0.23     -0.67
    1   10   13      0.10     -1.47
    1   10   14      0.04     -1.46
    1   10   15     -1.78     -1.98
    1   10   16     -1.14      0.33
    1   10   17      0.35     -0.41
    1   10   18     -1.10      0.67
    0   10    0     13.72      0.01
    0   10    1     -7.37     -0.12
    0   10    2      2.26      0.01
    0   10    3     -2.07      0.06
    0   10    4      5.03     -0.03
    0   10    5     -4.85     -0.10
    0   10    6      2.94      0.01
    0   10    7     -1.47      0.05
    0   10    8      1.59     -0.02
    0   10    9     -1.66     -0.07
    0   10   10     -1.23     -0.01
    0   10   11      0.01      0.08
    0   10   12     -0.38      0.03
    0   10   13      0.39     -0.01
    0   10   14      0.73      0.00
    0   10   15     -0.22      0.05
    0   10   16      0.11      0.05
    0   10   17      2.35     -0.04
    0   10   18      1.30      0.02
   10   10    0      4.64      0.00
   10   10    1     -3.14     -0.04
   10   10    2      2.83      0.01
   10   10    3     -0.96      0.02
   10   10    4      2.44      0.00
   10   10    5      1.42      0.00
   10   10    6      0.29      0.00
   10   10    7      2.00      0.07
   10   10    8     -0.98     -0.09
   10   10    9     -0.54     -0.11
   10   10   10     -1.86     -0.01
   10   10   11      1.19      0.03
   10   10   12      0.92      0.01
   10   10   13      0.67     -0.05
   10   10   14      1.10      0.09
   10   10   15      1.02      0.07
   10   10   16     -1.39     -0.02
   10   10   17     -1.14     -0.02
   10   11    0      1.09      0.00
   10   11    1      2.91      4.82
   10   11    2      0.30     -3.82
   10   11    3      1.80      0.56
   10   11    4      0.33     -1.36
   10   11    5     -0.08     -2.58
   10   11    6      1.22      1.29
   10   11    7     -0.45     -1.40
   10   11    8     -0.13      2.54
   10   11    9      0.44      1.87
   10   11   10     -0.56      0.48
   10   11   11      1.96      1.45
   10   11   12      0.20     -0.02
   10   11   13      1.48     -1.58
   10   11   14      0.75      0.71
   10   11   15      1.55     -0.50
   10   11   16      1.18      0.21
   10   11   17     -0.43      2.38
    9   11    0      0.49      0.03
    9   11    1     -0.07      2.72
    9   11    2      2.29      0.28
    9   11    3     -0.44      2.23
    9   11    4      1.29     -0.08
    9   11    5      0.13     -0.11
    9   11    6      1.15      0.23
    9   11    7     -0.45     -0.77
    9   11    8      0.89     -2.02
    9   11    9     -0.91      2.11
    9   11   10      2.47     -0.08
    9   11   11     -1.54      1.37
    9   11   12      0.44     -0.99
    9   11   13      0.54      1.97
    9   11   14     -0.11     -1.83
    9   11   15      0.51      2.30
    9   11   16      1.70     -0.18
    9   11   17      0.82      0.07
    8   11    0     -1.02     -0.03
    8   11    1      3.41      4.50
    8   11    2     -0.71     -1.67
    8   11    3      0.76      0.70
    8   11    4     -0.38     -0.27
    8   11    5      0.29     -2.92
    8   11    6      0.92     -1.43
    8   11    7      0.78     -2.50
    8   11    8      0.89      2.46
    8   11    9      1.04      0.42
    8   11   10      0.05     -1.87
    8   11   11      1.32      0.96
    8   11   12     -0.58     -0.51
    8   11   13      1.44     -1.33
    8   11   14      0.37     -0.03
    8   11   15      2.36     -1.53
    8   11   16      0.31     -1.45
    8   11   17     -0.41      0.49
    7   11    0      1.13     -0.04
    7   11    1     -3.01      3.86
    7   11    2      1.67      0.07
    7   11    3     -1.68      1.75
    7   11    4     -0.06      0.81
    7   11    5     -0.34     -1.74
    7   11    6      1.95      1.96
    7   11    7      1.99     -2.84
    7   11    8     -0.43     -2.96
    7   11    9      0.11      1.51
    7   11   10      0.15     -2.26
    7   11   11      0.26      0.43
    7   11   12      0.29     -0.71
    7   11   13      1.10      0.87
    7   11   14     -0.15     -2.75
    7   11   15     -0.25      2.71
    7   11   16      1.03      0.03
    7   11   17     -0.03      0.71
    6   11    0     -5.57     -0.02
    6   11    1      1.66      3.56
    6   11    2     -1.29     -0.01
    6   11    3      1.11      0.10
    6   11    4     -0.04     -0.17
    6   11    5      1.37     -2.97
    6   11    6      0.17     -1.53
    6   11    7      0.50     -2.10
    6   11    8      0.42      2.33
    6   11    9     -0.11      1.48
    6   11   10      0.02     -1.97
    6   11   11     -0.68      1.12
    6   11   12     -0.42     -0.30
    6   11   13      0.96      1.13
    6   11   14      0.30     -0.56
    6   11   15      0.87     -2.45
    6   11   16      0.73     -0.64
    6   11   17      1.38     -0.84
    6   11   18      0.66      1.05
    5   11    0     -1.30     -0.10
    5   11    1     -3.30      1.59
    5   11    2     -1.28     -0.43
    5   11    3     -1.77      1.03
    5   11    4     -0.72      4.04
    5   11    5     -2.18     -0.83
    5   11    6      0.56      2.37
    5   11    7      2.78     -3.22
    5   11    8      0.87     -0.56
    5   11    9      1.49      0.76
    5   11   10     -0.91     -1.66
    5   11   11      0.61     -0.18
    5   11   12      0.01     -0.49
    5   11   13     -0.60      0.14
    5   11   14     -0.10     -2.38
    5   11   15     -0.26      0.71
    5   11   16      0.19     -1.34
    5   11   17     -1.29      0.13
    5   11   18      1.05      1.21
    4   11    0     -5.64     -0.03
    4   11    1      0.93      2.34
    4   11    2     -0.05     -2.21
    4   11    3      0.82      0.44
    4   11    4      0.45     -3.48
    4   11    5      0.94     -1.38
    4   11    6      0.89     -0.19
    4   11    7      0.37     -1.11
    4   11    8      0.85      0.19
    4   11    9      0.03      2.46
    4   11   10      1.19     -1.39
    4   11   11     -0.13      0.81
    4   11   12      0.32      0.79
    4   11   13      0.85      2.15
    4   11   14      0.02      0.39
    4   11   15     -0.34     -1.68
    4   11   16      1.03      0.58
    4   11   17      2.02     -0.19
    4   11   18      0.87      0.66
    3   11    0     -8.36     -0.03
    3   11    1      0.77     -0.27
    3   11    2     -4.43     -0.15
    3   11    3      0.85     -1.28
    3   11    4     -0.04      4.45
    3   11    5     -0.83     -1.31
    3   11    6      0.28      0.17
    3   11    7      1.38     -1.33
    3   11    8      1.21      2.82
    3   11    9      0.55      1.46
    3   11   10     -2.09      0.17
    3   11   11     -0.49      0.32
    3   11   12     -0.93     -1.39
    3   11   13     -1.57      0.50
    3   11   14     -0.19     -3.21
    3   11   15      0.31     -1.25
    3   11   16      0.09     -1.79
    3   11   17     -0.77     -0.85
    3   11   18      1.32      2.38
    2   11    0     -1.25     -0.06
    2   11    1     -0.25      0.55
    2   11    2      0.25     -3.78
    2   11    3      0.08      1.87
    2   11    4      2.43     -4.14
    2   11    5     -1.95      1.25
    2   11    6      2.27     -0.36
    2   11    7      1.06     -1.31
    2   11    8      1.85     -3.45
    2   11    9     -0.11      0.92
    2   11   10     -0.74     -1.78
    2   11   11     -0.28      0.12
    2   11   12     -1.33      0.86
    2   11   13     -0.72      2.04
    2   11   14     -0.70      2.12
    2   11   15      0.60      0.21
    2   11   16      1.13      0.27
    2   11   17      0.89      0.50
    2   11   18      1.37     -0.04
    1   11    0    -13.87      0.03
    1   11    1      7.53     -0.12
    1   11    2     -5.50      0.19
    1   11    3      1.89     -1.50
    1   11    4     -1.94      1.50
    1   11    5      3.17     -1.31
    1   11    6      1.70     -0.80
    1   11    7      1.27     -0.15
    1   11    8      0.75      1.92
    1   11    9     -0.03      0.89
    1   11   10     -1.81      0.19
    1   11   11     -0.76      0.17
    1   11   12     -2.08     -1.16
    1   11   13     -1.24      0.12
    1   11   14     -0.27     -2.12
    1   11   15      0.54     -0.99
    1   11   16      0.20     -0.61
    1   11   17     -0.45     -0.50
    1   11   18     -0.18      1.31
    0   11    0      1.34     -0.02
    0   11    1     -1.67      0.01
    0   11    2     -0.08     -0.01
    0   11    3      0.53      0.05
    0   11    4      4.74      0.00
    0   11    5     -3.65      0.02
    0   11    6      2.81      0.00
    0   11    7      1.13      0.04
    0   11    8      1.73      0.02
    0   11    9     -1.28     -0.09
    0   11   10     -3.53      0.07
    0   11   11     -1.45      0.03
    0   11   12     -2.79      0.04
    0   11   13     -1.92     -0.10
    0   11   14     -0.96      0.00
    0   11   15      1.78      0.16
    0   11   16      1.68      0.10
    0   11   17      0.61      0.03
    0   11   18      2.54     -0.01
   11   11    0      0.52      0.01
   11   11    1      2.39     -0.05
   11   11    2      1.01     -0.01
   11   11    3      0.22      0.02
   11   11    4      0.63      0.02
   11   11    5     -0.54     -0.02
   11   11    6     -1.62     -0.01
   11   11    7     -1.29      0.06
   11   11    8      2.21      0.05
   11   11    9     -0.55      0.02
   11   11   10      4.01     -0.04
   11   11   11     -1.85      0.02
   11   11   12      1.32     -0.02
   11   11   13     -0.92     -0.04
   11   11   14      0.26     -0.18
   11   11   15      1.71      0.02
   11   11   16      2.37      0.00
   11   11   17      0.47      0.01
   11   12    0     -0.97     -0.06
   11   12    1      1.71     -3.08
   11   12    2     -1.16      3.87
   11   12    3      1.16     -0.15
   11   12    4     -0.49      0.95
   11   12    5      0.45      0.57
   11   12    6      0.15     -0.93
   11   12    7     -0.53      1.12
   11   12    8     -0.54      0.18
   11   12    9      0.56     -3.04
   11   12   10     -0.60     -1.60
   11   12   11      0.32     -2.17
   11   12   12     -0.18      1.24
   11   12   13      0.25      0.16
   11   12   14      1.21     -0.69
   11   12   15     -0.59      1.98
   11   12   16      1.83     -0.48
   10   12    0      3.55     -0.06
   10   12    1      0.06     -1.34
   10   12    2      3.19      0.71
   10   12    3      0.35     -2.57
   10   12    4      0.65      0.48
   10   12    5      2.12     -1.08
   10   12    6     -0.16     -0.13
   10   12    7      1.92      0.72
   10   12    8     -2.50     -0.79
   10   12    9     -0.95     -0.95
   10   12   10     -1.39     -2.56
   10   12   11      0.79     -1.44
   10   12   12      1.19      0.71
   10   12   13      2.02     -2.24
   10   12   14      1.43      0.12
   10   12   15      1.04     -1.50
   10   12   16     -1.59      0.27
   10   12   17      1.73      0.48
    9   12    0     -2.64     -0.02
    9   12    1      0.61     -4.48
    9   12    2     -1.43      3.29
    9   12    3      2.10     -0.28
    9   12    4      0.30      0.85
    9   12    5      1.70      0.27
    9   12    6      1.20     -0.15
    9   12    7      0.12     -0.86
    9   12    8     -0.02     -1.68
    9   12    9     -0.10     -2.48
    9   12   10     -0.32     -0.18
    9   12   11     -1.07     -2.44
    9   12   12      0.70     -0.89
    9   12   13     -0.27      0.46
    9   12   14      1.50     -1.26
    9   12   15     -1.48     -0.48
    9   12   16      0.53      0.28
    9   12   17      1.09     -0.73
    8   12    0      0.75     -0.05
    8   12    1      1.11     -1.48
    8   12    2      0.58      0.79
    8   12    3      1.61     -1.17
    8   12    4      0.27     -1.04
    8   12    5      1.47     -0.43
    8   12    6     -1.05     -3.57
    8   12    7      1.79      1.88
    8   12    8      0.74     -0.59
    8   12    9      0.30     -0.16
    8   12   10     -0.42     -1.30
    8   12   11     -0.34      0.25
    8   12   12      0.22     -0.81
    8   12   13      0.09     -1.25
    8   12   14      1.08     -0.33
    8   12   15      0.36     -1.83
    8   12   16     -0.89     -1.36
    8   12   17     -0.47     -0.59
    7   12    0      0.66     -0.01
    7   12    1     -1.11     -4.40
    7   12    2      0.33      1.61
    7   12    3      1.05     -0.90
    7   12    4      0.65     -0.38
    7   12    5      0.94     -0.05
    7   12    6      0.80      0.90
    7   12    7      0.70     -0.21
    7   12    8      0.14     -0.96
    7   12    9     -0.31     -1.79
    7   12   10      0.68      1.82
    7   12   11     -0.56     -2.47
    7   12   12      1.10      0.47
    7   12   13     -1.07     -2.88
    7   12   14      0.78      0.30
    7   12   15     -1.31     -2.46
    7   12   16     -0.74      1.47
    7   12   17      1.10      0.18
    6   12    0     -1.93     -0.01
    6   12    1      1.29      0.20
    6   12    2     -0.33      0.65
    6   12    3      2.72      0.40
    6   12    4      2.21     -4.15
    6   12    5      0.67     -1.36
    6   12    6      0.86     -4.41
    6   12    7     -2.03      2.32
    6   12    8      1.80      0.82
    6   12    9     -0.76      1.44
    6   12   10      0.56      1.82
    6   12   11     -0.80      1.64
    6   12   12     -0.71     -1.89
    6   12   13      0.03      0.39
    6   12   14     -0.86     -2.27
    6   12   15      0.49     -0.63
    6   12   16     -0.78     -2.18
    6   12   17      0.49     -0.72
    5   12    0      3.23      0.00
    5   12    1     -3.25     -3.16
    5   12    2      0.38      1.68
    5   12    3     -0.80     -0.44
    5   12    4      0.10      0.97
    5   12    5      0.47      0.89
    5   12    6     -0.85      0.00
    5   12    7      2.60      1.48
    5   12    8     -0.06      0.78
    5   12    9      0.70     -0.88
    5   12   10      0.18      3.31
    5   12   11     -0.01     -0.19
    5   12   12     -0.06      1.11
    5   12   13     -2.04     -4.60
    5   12   14      0.14      1.58
    5   12   15     -0.32     -2.55
    5   12   16     -0.74      1.83
    5   12   17     -0.40      0.30
    4   12    0      0.92     -0.03
    4   12    1      0.57      1.53
    4   12    2      0.79      0.24
    4   12    3      0.39      0.41
    4   12    4      1.70     -5.41
    4   12    5      0.72     -2.27
    4   12    6      3.05     -0.28
    4   12    7     -2.40      0.55
    4   12    8      0.84      0.84
    4   12    9     -0.63      0.19
    4   12   10      1.43      3.17
    4   12   11      0.24      0.67
    4   12   12     -0.63      0.42
    4   12   13      1.50     -0.42
    4   12   14     -1.65     -1.57
    4   12   15      1.06      1.24
    4   12   16     -0.16     -0.83
    4   12   17      1.75      1.16
    4   12   18     -0.64     -1.38
    3   12    0      0.68      0.02
    3   12    1     -3.59     -1.02
    3   12    2     -1.49      2.83
    3   12    3      0.20     -0.75
    3   12    4     -1.02      2.59
    3   12    5      3.79      0.42
    3   12    6     -1.26     -1.45
    3   12    7      3.52      2.70
    3   12    8     -1.69      2.60
    3   12    9      0.40      0.36
    3   12   10     -0.70      2.65
    3   12   11     -0.87      1.68
    3   12   12      0.63     -0.48
    3   12   13     -0.82     -3.59
    3   12   14      0.51     -0.52
    3   12   15      0.14     -2.36
    3   12   16      0.28      1.52
    3   12   17     -0.58     -0.69
    3   12   18      0.00      1.05
    2   12    0      6.20     -0.05
    2   12    1     -4.18      1.04
    2   12    2      2.19      0.14
    2   12    3     -3.90      0.96
    2   12    4      1.49     -2.65
    2   12    5     -1.84     -0.53
    2   12    6      3.30      3.00
    2   12    7     -0.13     -0.90
    2   12    8      0.59     -0.14
    2   12    9     -0.04     -0.95
    2   12   10      0.90      3.04
    2   12   11      0.04      0.19
    2   12   12      0.10      2.83
    2   12   13      1.06     -0.61
    2   12   14     -1.02      1.38
    2   12   15      0.12      2.00
    2   12   16      0.09      0.26
    2   12   17      1.02      1.95
    2   12   18     -0.98     -1.45
    1   12    0     -2.33      0.00
    1   12    1     -0.20      0.09
    1   12    2     -3.12      1.55
    1   12    3      0.30     -0.76
    1   12    4     -4.91      1.31
    1   12    5      7.50     -0.28
    1   12    6     -0.36     -0.92
    1   12    7      3.75      1.54
    1   12    8     -1.88      1.75
    1   12    9      1.21      0.48
    1   12   10      1.55      0.78
    1   12   11     -0.94      0.87
    1   12   12      2.63     -0.86
    1   12   13      1.57     -1.55
    1   12   14      0.89     -1.39
    1   12   15     -0.56     -1.46
    1   12   16      0.24      0.40
    1   12   17     -0.82     -0.81
    1   12   18     -0.46      0.46
    0   12    0      8.72     -0.02
    0   12    1     -7.63      0.00
    0   12    2      3.17      0.06
    0   12    3     -4.94     -0.02
    0   12    4      3.16      0.04
    0   12    5     -3.79     -0.05
    0   12    6      3.16     -0.01
    0   12    7      0.75      0.00
    0   12    8      0.77     -0.06
    0   12    9     -0.16      0.03
    0   12   10      0.35     -0.02
    0   12   11     -0.20      0.09
    0   12   12      1.32      0.05
    0   12   13      0.84      0.05
    0   12   14     -0.06     -0.03
    0   12   15     -0.37     -0.01
    0   12   16      0.30     -0.02
    0   12   17      0.70     -0.03
    0   12   18     -0.64     -0.02
   12   12    0      1.57     -0.02
   12   12    1     -1.74      0.06
   12   12    2      3.18      0.03
   12   12    3     -2.14      0.02
   12   12    4      1.29      0.00
   12   12    5     -0.14      0.03
   12   12    6      0.90     -0.06
   12   12    7     -1.48     -0.06
   12   12    8     -3.43     -0.20
   12   12    9     -2.20     -0.03
   12   12   10     -1.17     -0.03
   12   12   11     -0.15     -0.04
   12   12   12     -0.53     -0.01
   12   12   13      1.08      0.04
   12   12   14     -0.38      0.08
   12   12   15      1.05      0.01
   12   12   16     -2.32     -0.01
   12   13    0      2.35      0.20
   12   13    1      0.41      1.52
   12   13    2      1.54     -2.09
   12   13    3      1.16      0.31
   12   13    4      0.03      1.16
   12   13    5     -0.95      0.54
   12   13    6     -0.47      0.75
   12   13    7     -1.67     -2.55
   12   13    8     -1.70     -0.87
   12   13    9     -1.05      3.21
   12   13   10     -1.07      2.11
   12   13   11      1.35      3.65
   12   13   12      0.09     -4.07
   12   13   13      0.31      2.06
   12   13   14      0.28     -0.73
   12   13   15     -0.06     -3.49
   12   13   16      1.88     -0.24
   11   13    0      0.60      0.06
   11   13    1      1.48      1.64
   11   13    2     -0.54      0.42
   11   13    3      1.18      3.75
   11   13    4      0.30      0.01
   11   13    5     -0.06      2.17
   11   13    6     -2.12     -2.15
   11   13    7      0.37      0.32
   11   13    8      1.62     -0.32
   11   13    9     -0.02      0.94
   11   13   10      1.28      1.94
   11   13   11     -0.11      1.32
   11   13   12      1.29     -1.08
   11   13   13     -0.89      1.25
   11   13   14      0.02      0.30
   11   13   15      1.79      1.21
   11   13   16      1.47     -0.74
   10   13    0      3.86      0.00
   10   13    1      0.83      3.97
   10   13    2      2.26     -2.24
   10   13    3      0.88      1.41
   10   13    4      1.03     -0.28
   10   13    5     -2.30      1.35
   10   13    6      0.40     -0.03
   10   13    7     -1.83     -1.80
   10   13    8     -0.66      0.78
   10   13    9     -0.59      0.10
   10   13   10     -1.14      1.17
   10   13   11      2.70      1.34
   10   13   12      0.62     -0.27
   10   13   13      1.09     -1.34
   10   13   14      0.02      1.74
   10   13   15      1.64     -2.05
   10   13   16      1.39      1.17
    9   13    0      1.07      0.06
    9   13    1     -1.52      1.25
    9   13    2      0.43      1.44
    9   13    3     -0.76      3.02
    9   13    4      1.53      2.49
    9   13    5     -0.14      0.48
    9   13    6     -0.08      0.03
    9   13    7     -0.63     -1.23
    9   13    8      0.97     -0.94
    9   13    9     -0.17      1.72
    9   13   10      0.94      1.72
    9   13   11      0.71      0.91
    9   13   12      0.42     -1.64
    9   13   13     -0.24      1.88
    9   13   14     -1.12     -2.43
    9   13   15      1.38      1.29
    9   13   16      0.94     -1.05
    8   13    0      1.38      0.01
    8   13    1      2.26      4.99
    8   13    2      0.72     -0.89
    8   13    3      0.23      1.91
    8   13    4      1.04     -1.17
    8   13    5     -1.64      1.17
    8   13    6      0.19     -2.43
    8   13    7      0.06     -1.55
    8   13    8      1.26      2.53
    8   13    9      1.62     -1.26
    8   13   10     -0.91      2.68
    8   13   11      2.13      1.54
    8   13   12     -0.15      1.70
    8   13   13      0.46     -1.37
    8   13   14     -0.10      2.91
    8   13   15      1.24     -0.12
    8   13   16      0.90      0.38
    8   13   17     -2.60      0.22
    7   13    0      4.25      0.01
    7   13    1     -1.46     -0.53
    7   13    2      1.72      0.03
    7   13    3     -1.81     -1.27
    7   13    4      0.26      3.43
    7   13    5      0.82     -1.53
    7   13    6      0.88      2.30
    7   13    7      0.93     -2.68
    7   13    8     -0.12     -1.52
    7   13    9      1.03      0.39
    7   13   10      0.29     -1.36
    7   13   11      1.69     -0.93
    7   13   12      0.52     -0.35
    7   13   13      0.79     -0.07
    7   13   14     -1.12     -3.34
    7   13   15      0.48      0.69
    7   13   16     -0.11     -0.21
    7   13   17      0.02      0.58
    6   13    0     -3.30      0.06
    6   13    1      2.58      3.55
    6   13    2     -1.07     -0.29
    6   13    3      0.72     -0.09
    6   13    4      0.88     -2.94
    6   13    5      0.60     -1.29
    6   13    6      0.30     -4.91
    6   13    7      0.12     -1.99
    6   13    8      1.20      0.55
    6   13    9      1.58      0.21
    6   13   10     -0.76      1.35
    6   13   11      0.46      1.34
    6   13   12      0.26     -0.20
    6   13   13      0.67      0.56
    6   13   14     -0.02     -0.14
    6   13   15     -0.28     -0.78
    6   13   16      0.56     -1.50
    6   13   17     -1.27     -0.59
    5   13    0      1.55     -0.02
    5   13    1     -2.84     -1.65
    5   13    2     -0.37     -0.86
    5   13    3     -2.80     -2.54
    5   13    4     -1.57      3.40
    5   13    5     -0.07     -1.04
    5   13    6     -0.45      0.70
    5   13    7      2.64     -1.74
    5   13    8      0.17     -0.66
    5   13    9      1.64      0.37
    5   13   10     -1.35     -2.15
    5   13   11      0.01     -0.80
    5   13   12     -0.17     -0.03
    5   13   13     -0.86     -0.92
    5   13   14      0.21     -2.39
    5   13   15     -1.01     -0.12
    5   13   16     -0.66     -1.04
    5   13   17     -1.39      0.38
    4   13    0     -2.66      0.05
    4   13    1      2.84      1.19
    4   13    2     -0.95     -1.70
    4   13    3     -0.44     -1.78
    4   13    4     -0.49     -4.66
    4   13    5      0.52     -2.02
    4   13    6      0.49     -3.85
    4   13    7     -1.27     -1.52
    4   13    8      1.00     -2.08
    4   13    9      0.33      1.33
    4   13   10     -0.27     -1.41
    4   13   11     -0.53     -0.39
    4   13   12     -0.15     -0.59
    4   13   13      0.36      0.86
    4   13   14     -0.12     -1.32
    4   13   15     -0.95     -2.36
    4   13   16      0.08     -1.34
    4   13   17      0.40     -1.18
    3   13    0     -3.47     -0.01
    3   13    1     -1.51     -1.35
    3   13    2     -1.47     -0.11
    3   13    3     -0.23     -2.03
    3   13    4      0.65      2.41
    3   13    5      0.05     -1.29
    3   13    6     -0.39     -2.42
    3   13    7      0.82      0.35
    3   13    8      0.84      1.44
    3   13    9      0.10      1.61
    3   13   10     -1.73     -1.90
    3   13   11     -0.75     -0.22
    3   13   12      0.36     -2.35
    3   13   13     -0.50     -0.48
    3   13   14      1.83     -3.87
    3   13   15     -0.05     -1.29
    3   13   16     -0.23     -3.13
    3   13   17     -0.26     -0.70
    2   13    0      2.40      0.02
    2   13    1      2.31     -0.12
    2   13    2      1.06     -2.10
    2   13    3      0.10     -0.66
    2   13    4      0.37     -3.38
    2   13    5     -1.28     -0.12
    2   13    6     -0.09     -0.46
    2   13    7     -0.71     -0.15
    2   13    8      1.48     -1.27
    2   13    9     -0.05      1.65
    2   13   10     -1.39     -0.32
    2   13   11      0.14     -0.56
    2   13   12     -1.67      1.18
    2   13   13     -0.93      0.62
    2   13   14      0.49      0.89
    2   13   15      0.09     -1.53
    2   13   16     -0.06      0.25
    2   13   17      0.69     -0.22
    1   13    0     -4.48      0.01
    1   13    1      4.05     -0.51
    1   13    2     -0.60      0.09
    1   13    3      1.66     -1.03
    1   13    4      1.83      0.68
    1   13    5      1.92     -1.01
    1   13    6      1.04     -1.81
    1   13    7     -1.37      0.60
    1   13    8      1.35      1.19
    1   13    9     -1.07      0.87
    1   13   10     -1.06     -1.16
    1   13   11     -0.67     -0.29
    1   13   12     -0.64     -2.08
    1   13   13      0.36     -0.30
    1   13   14      1.20     -2.77
    1   13   15      1.45     -1.05
    1   13   16     -0.36     -2.08
    1   13   17      0.85     -0.71
    0   13    0      4.44      0.02
    0   13    1      0.99     -0.01
    0   13    2      2.02      0.07
    0   13    3      1.78      0.03
    0   13    4      2.21      0.01
    0   13    5     -2.09      0.02
    0   13    6     -0.71      0.09
    0   13    7      0.01     -0.01
    0   13    8      1.38      0.07
    0   13    9     -0.23     -0.01
    0   13   10     -2.67      0.08
    0   13   11      1.05     -0.04
    0   13   12     -1.98      0.06
    0   13   13     -1.18     -0.05
    0   13   14      1.36      0.05
    0   13   15      1.30     -0.05
    0   13   16      0.38      0.10
    0   13   17      1.02     -0.03
   13   13    0      2.38      0.06
   13   13    1      3.67      0.00
   13   13    2      0.05     -0.05
   13   13    3      2.92     -0.17
   13   13    4     -0.50     -0.03
   13   13    5      0.34      0.05
   13   13    6     -2.30      0.02
   13   13    7     -0.19     -0.01
   13   13    8      0.10      0.04
   13   13    9     -1.17      0.16
   13   13   10      0.46     -0.10
   13   13   11     -0.15     -0.02
   13   13   12      2.18     -0.03
   13   13   13      0.21      0.00
   13   13   14     -0.11     -0.02
   13   13   15      1.61     -0.03
   13   14    0      1.20     -0.36
   13   14    1      1.87     -0.62
   13   14    2      0.08      0.34
   13   14    3      0.85      0.73
   13   14    4     -0.47     -1.59
   13   14    5      0.64      1.28
   13   14    6     -1.41      0.80
   13   14    7     -0.50      2.58
   13   14    8     -0.52      0.22
   13   14    9     -0.25     -2.98
   13   14   10      0.06     -2.76
   13   14   11     -0.51     -5.07
   13   14   12     -0.47      2.94
   13   14   13     -0.73     -3.53
   13   14   14     -0.03     -0.04
   13   14   15     -1.49      3.27
   12   14    0      0.52     -0.03
   12   14    1      0.76     -1.33
   12   14    2      2.29      0.98
   12   14    3     -1.58     -1.12
   12   14    4      0.79      2.26
   12   14    5     -1.54     -0.09
   12   14    6      0.33      2.84
   12   14    7     -2.63      0.17
   12   14    8     -2.31     -0.94
   12   14    9     -1.10     -0.04
   12   14   10     -0.25     -0.58
   12   14   11     -0.71     -1.84
   12   14   12     -1.20      1.48
   12   14   13     -0.46     -1.58
   12   14   14     -1.55     -0.63
   12   14   15      0.75     -1.41
   11   14    0     -0.73     -0.13
   11   14    1      2.81     -1.58
   11   14    2     -1.26      2.53
   11   14    3      0.54      1.25
   11   14    4     -0.69      1.11
   11   14    5      1.42     -1.43
   11   14    6     -0.66      1.41
   11   14    7      0.34      0.32
   11   14    8     -0.20      1.01
   11   14    9      0.89     -2.42
   11   14   10      0.90     -0.28
   11   14   11     -1.49     -1.50
   11   14   12     -0.08      1.13
   11   14   13     -0.47      0.83
   11   14   14      1.13     -0.72
   11   14   15     -1.68      3.76
   11   14   16      1.75     -0.20
   10   14    0      2.38     -0.05
   10   14    1      2.62     -0.48
   10   14    2      2.92      0.00
   10   14    3     -0.30     -1.72
   10   14    4     -0.95     -0.03
   10   14    5     -0.24      0.44
   10   14    6     -0.45      0.82
   10   14    7     -1.50      0.85
   10   14    8     -2.33     -3.22
   10   14    9     -1.64     -0.45
   10   14   10      0.26     -4.14
   10   14   11     -1.15     -1.51
   10   14   12     -0.03      1.49
   10   14   13      1.33     -2.40
   10   14   14      0.14      0.58
   10   14   15      0.17     -0.47
   10   14   16     -1.42      0.99
    9   14    0     -1.64      0.03
    9   14    1      1.80     -2.92
    9   14    2     -1.30      2.35
    9   14    3      0.36      0.91
    9   14    4     -1.42      1.52
    9   14    5      1.31     -3.06
    9   14    6      0.69      1.26
    9   14    7     -0.10     -1.77
    9   14    8     -0.90     -0.71
    9   14    9     -0.44     -0.66
    9   14   10      1.48      0.09
    9   14   11     -2.02     -1.31
    9   14   12      0.96     -0.41
    9   14   13      0.14      1.27
    9   14   14      1.12     -3.16
    9   14   15     -1.99     -0.39
    9   14   16      0.27     -0.87
    8   14    0      0.21     -0.03
    8   14    1      1.82      2.08
    8   14    2      1.73      0.18
    8   14    3      0.59      0.78
    8   14    4     -1.66     -3.16
    8   14    5     -0.53     -1.12
    8   14    6     -1.25     -3.20
    8   14    7      0.59      0.35
    8   14    8     -1.00     -3.92
    8   14    9     -0.53      0.48
    8   14   10     -0.31     -3.06
    8   14   11     -1.68      1.77
    8   14   12     -0.77     -0.76
    8   14   13      0.78     -0.38
    8   14   14      1.19      1.46
    8   14   15     -0.95      0.79
    8   14   16     -1.02     -0.50
    7   14    0      0.94     -0.01
    7   14    1      0.25     -2.90
    7   14    2      0.15      0.97
    7   14    3     -0.75      0.27
    7   14    4     -2.00     -0.16
    7   14    5     -0.36     -2.17
    7   14    6      1.37      0.42
    7   14    7     -0.48     -1.97
    7   14    8     -0.74     -2.07
    7   14    9     -2.25     -1.60
    7   14   10      1.90     -2.16
    7   14   11     -1.68     -3.09
    7   14   12      0.52      0.37
    7   14   13     -0.41     -1.62
    7   14   14      0.11     -1.81
    7   14   15     -1.54     -2.75
    7   14   16     -0.70      1.42
    7   14   17      1.76      0.05
    6   14    0     -1.86     -0.04
    6   14    1      1.14      3.60
    6   14    2      0.54      1.18
    6   14    3      1.99      2.73
    6   14    4     -0.56     -3.19
    6   14    5     -1.27     -4.52
    6   14    6     -0.67     -2.68
    6   14    7     -0.49     -1.67
    6   14    8     -0.49     -2.05
    6   14    9     -0.68      1.62
    6   14   10     -0.03      0.44
    6   14   11     -1.00      3.04
    6   14   12     -0.90     -2.03
    6   14   13      0.17      1.55
    6   14   14     -0.38     -0.55
    6   14   15     -0.83      0.34
    6   14   16     -0.26     -2.39
    6   14   17     -0.03     -0.15
    5   14    0      2.11     -0.06
    5   14    1     -0.69     -1.58
    5   14    2      0.81      0.96
    5   14    3     -0.44      1.42
    5   14    4     -1.74     -1.00
    5   14    5     -1.48      0.60
    5   14    6      0.37      0.23
    5   14    7      1.36      0.61
    5   14    8      0.08      0.65
    5   14    9     -1.36     -0.99
    5   14   10      1.22      0.55
    5   14   11     -0.36     -0.81
    5   14   12     -0.78      1.54
    5   14   13     -1.22     -2.46
    5   14   14     -0.38      1.55
    5   14   15     -0.80     -1.68
    5   14   16     -0.68      2.87
    5   14   17      0.23      0.61
    4   14    0      1.94     -0.06
    4   14    1      2.30      2.14
    4   14    2      1.24     -0.65
    4   14    3      0.56      0.85
    4   14    4     -0.45     -1.75
    4   14    5     -1.35     -5.23
    4   14    6      1.36      2.13
    4   14    7     -1.15     -3.44
    4   14    8      0.24     -0.71
    4   14    9     -0.89      0.52
    4   14   10      1.64      1.81
    4   14   11     -0.12      1.60
    4   14   12     -0.90     -0.14
    4   14   13     -0.29      1.38
    4   14   14     -2.77     -1.33
    4   14   15     -0.52      0.24
    4   14   16      0.20     -1.69
    4   14   17      0.26      1.10
    3   14    0     -1.24     -0.06
    3   14    1     -0.92     -0.64
    3   14    2     -0.63      1.10
    3   14    3      1.35      1.63
    3   14    4     -0.61     -1.61
    3   14    5      0.22      1.01
    3   14    6      0.42     -2.06
    3   14    7      2.56      1.69
    3   14    8     -0.32      1.25
    3   14    9      0.37      0.19
    3   14   10      0.61      2.07
    3   14   11      0.92      1.79
    3   14   12      0.63      0.06
    3   14   13      0.44     -1.35
    3   14   14      0.20      1.11
    3   14   15      0.38     -0.94
    3   14   16      0.49      1.22
    3   14   17      0.03      0.03
    2   14    0      4.97     -0.05
    2   14    1      0.09      0.34
    2   14    2      1.34     -1.83
    2   14    3     -1.76     -0.74
    2   14    4     -1.15     -0.55
    2   14    5     -1.29     -2.67
    2   14    6      1.74      4.18
    2   14    7      1.48     -2.74
    2   14    8      0.46     -0.36
    2   14    9     -0.48     -0.12
    2   14   10      1.75      2.15
    2   14   11     -0.31      0.92
    2   14   12     -0.62      1.92
    2   14   13     -0.44      0.83
    2   14   14     -2.04      0.46
    2   14   15     -0.66      0.97
    2   14   16      0.99      0.27
    2   14   17     -0.73      2.06
    1   14    0     -2.44     -0.02
    1   14    1      1.29     -0.27
    1   14    2     -0.94      0.33
    1   14    3      1.17      0.45
    1   14    4     -0.10     -1.05
    1   14    5      2.97      0.08
    1   14    6      2.81     -2.05
    1   14    7      2.10      0.50
    1   14    8     -0.67     -0.22
    1   14    9      0.43     -0.13
    1   14   10      0.30      0.22
    1   14   11     -0.76      0.92
    1   14   12      1.07     -0.82
    1   14   13      0.88     -0.41
    1   14   14     -0.39     -0.21
    1   14   15      0.39     -0.46
    1   14   16      1.12     -0.10
    1   14   17      0.04     -0.32
    0   14    0      4.51     -0.03
    0   14    1     -2.88      0.05
    0   14    2      0.63      0.01
    0   14    3     -2.11     -0.04
    0   14    4     -1.13      0.01
    0   14    5     -1.31      0.02
    0   14    6      1.06     -0.04
    0   14    7      3.28      0.05
    0   14    8      0.00      0.01
    0   14    9     -0.26      0.08
    0   14   10      1.26      0.03
    0   14   11     -0.24      0.01
    0   14   12      0.40      0.11
    0   14   13      0.24      0.06
    0   14   14     -0.17      0.00
    0   14   15     -0.37      0.04
    0   14   16      1.94      0.04
    0   14   17     -0.84      0.02
   14   14    0      0.39     -0.03
   14   14    1      0.19     -0.08
   14   14    2      2.48      0.00
   14   14    3     -1.88      0.12
   14   14    4      2.37     -0.03
   14   14    5     -2.75     -0.10
   14   14    6      1.07     -0.05
   14   14    7     -1.43      0.06
   14   14    8     -1.24     -0.09
   14   14    9      0.14     -0.25
   14   14   10     -1.71      0.08
   14   14   11     -0.82      0.04
   14   14   12     -1.74     -0.02
   14   14   13     -2.27     -0.08
   14   14   14     -1.87      0.01
   14   14   15      0.23      0.04
   14   15    0      1.53      0.27
   14   15    1     -0.24      1.05
   14   15    2      0.91      2.73
   14   15    3      0.27     -0.13
   14   15    4     -1.09      2.94
   14   15    5     -0.01     -3.53
   14   15    6     -1.36     -0.87
   14   15    7     -0.97     -2.14
   14   15    8     -1.79      1.27
   14   15    9     -1.75      1.23
   14   15   10     -0.88      1.58
   14   15   11      0.07      5.89
   14   15   12     -1.27     -1.91
   14   15   13     -0.51      4.64
   14   15   14     -0.26      0.82
   13   15    0      0.53     -0.01
   13   15    1      1.21      2.04
   13   15    2     -1.20     -0.32
   13   15    3      0.93      2.00
   13   15    4     -0.50     -1.58
   13   15    5      0.24      1.96
   13   15    6     -0.80     -2.27
   13   15    7     -0.95      1.53
   13   15    8     -0.63      0.59
   13   15    9     -1.06      0.02
   13   15   10      0.35     -1.35
   13   15   11     -0.06     -0.59
   13   15   12      0.69      0.01
   13   15   13      0.28     -1.41
   13   15   14     -0.30      1.85
   13   15   15      0.69      1.06
   12   15    0      1.72      0.22
   12   15    1     -2.39      1.41
   12   15    2      1.57      1.62
   12   15    3     -0.06     -0.23
   12   15    4     -0.59      3.60
   12   15    5     -1.28      0.17
   12   15    6     -0.79      0.74
   12   15    7     -1.43     -1.13
   12   15    8     -2.28      0.64
   12   15    9     -1.65      2.20
   12   15   10     -1.39     -0.03
   12   15   11      1.24      3.29
   12   15   12     -0.81     -2.36
   12   15   13     -0.58      2.30
   12   15   14     -0.72     -0.73
   12   15   15     -0.61     -2.32
   11   15    0     -0.91      0.06
   11   15    1      0.02      2.13
   11   15    2     -1.23      0.93
   11   15    3      1.51      3.55
   11   15    4      0.81     -0.67
   11   15    5      1.02      1.14
   11   15    6     -0.57     -3.29
   11   15    7      1.07      1.48
   11   15    8      0.46      1.42
   11   15    9      0.39      0.53
   11   15   10     -0.55      1.43
   11   15   11      1.80      0.20
   11   15   12      0.37     -0.80
   11   15   13      0.31     -0.37
   11   15   14      0.45      1.82
   11   15   15      0.72      0.68
   10   15    0      3.09     -0.02
   10   15    1     -2.07      2.51
   10   15    2      2.47      0.14
   10   15    3     -0.17     -0.74
   10   15    4      1.49      1.20
   10   15    5     -2.19      2.87
   10   15    6      0.51     -0.22
   10   15    7     -0.98     -1.02
   10   15    8      0.31      0.73
   10   15    9     -0.94     -1.44
   10   15   10     -0.76     -1.93
   10   15   11      1.99     -0.78
   10   15   12      0.82     -1.73
   10   15   13      0.19     -0.96
   10   15   14     -0.08      1.32
   10   15   15      1.81     -0.27
    9   15    0     -0.44      0.08
    9   15    1      0.98     -0.25
    9   15    2     -1.75      2.01
    9   15    3      2.56      1.79
    9   15    4      0.47      2.55
    9   15    5      2.36     -0.36
    9   15    6     -0.61     -1.38
    9   15    7      1.80     -0.24
    9   15    8      0.49      1.06
    9   15    9      1.44      0.78
    9   15   10     -1.06      1.51
    9   15   11      3.41     -1.11
    9   15   12      0.44     -0.66
    9   15   13      0.37     -0.13
    9   15   14     -0.68     -1.27
    9   15   15      0.76     -1.36
    9   15   16      0.41     -0.13
    8   15    0      2.21     -0.08
    8   15    1     -0.11      2.64
    8   15    2      2.19     -0.30
    8   15    3     -0.06     -0.51
    8   15    4      2.64     -1.76
    8   15    5     -2.32      2.08
    8   15    6     -0.52     -3.32
    8   15    7     -0.29     -1.69
    8   15    8      1.78      1.05
    8   15    9      0.10     -3.73
    8   15   10     -1.36      1.80
    8   15   11      0.65     -0.77
    8   15   12      0.59     -0.92
    8   15   13     -0.14     -0.46
    8   15   14      0.47      3.50
    8   15   15      1.77      2.02
    8   15   16     -0.46      0.84
    7   15    0      2.94      0.06
    7   15    1      1.69     -2.77
    7   15    2     -1.17      0.05
    7   15    3      0.64     -2.74
    7   15    4     -0.87      3.15
    7   15    5      1.90      0.24
    7   15    6     -0.12      0.10
    7   15    7      0.85     -1.13
    7   15    8      0.53     -0.32
    7   15    9      0.33     -0.74
    7   15   10     -1.30     -2.51
    7   15   11      1.72     -2.64
    7   15   12      0.08     -0.05
    7   15   13     -0.49     -1.18
    7   15   14     -1.69     -2.59
    7   15   15      0.38     -1.16
    7   15   16     -0.82      0.90
    6   15    0     -0.33     -0.01
    6   15    1      1.66      1.38
    6   15    2      0.42     -0.50
    6   15    3      0.14     -0.54
    6   15    4      2.16     -2.66
    6   15    5     -1.35      0.29
    6   15    6     -1.55     -5.71
    6   15    7     -1.05     -2.03
    6   15    8      0.69     -0.16
    6   15    9      0.61     -2.42
    6   15   10     -2.47      4.34
    6   15   11     -0.59      0.06
    6   15   12     -0.06     -0.23
    6   15   13     -0.29      0.68
    6   15   14     -0.46      1.11
    6   15   15     -0.36      0.22
    6   15   16     -1.29     -1.87
    5   15    0      3.54      0.01
    5   15    1     -0.43     -2.35
    5   15    2      0.22     -0.15
    5   15    3     -0.84     -4.23
    5   15    4     -0.99      1.11
    5   15    5      1.08      0.52
    5   15    6     -1.03     -0.98
    5   15    7      1.19      0.21
    5   15    8     -0.03     -0.22
    5   15    9     -0.42     -0.71
    5   15   10     -2.15     -3.24
    5   15   11     -0.95     -1.01
    5   15   12     -0.41     -0.26
    5   15   13     -0.75     -1.56
    5   15   14     -0.12     -1.50
    5   15   15     -0.24      0.27
    5   15   16     -2.40      0.76
    4   15    0      0.98      0.00
    4   15    1      3.54      0.38
    4   15    2      0.15     -1.45
    4   15    3     -0.32     -1.57
    4   15    4      1.14     -1.48
    4   15    5      0.46      0.50
    4   15    6      0.27     -4.07
    4   15    7     -1.62     -1.84
    4   15    8      0.30     -1.61
    4   15    9     -0.17     -2.05
    4   15   10     -2.48      1.30
    4   15   11     -1.28     -1.43
    4   15   12     -0.79      0.63
    4   15   13     -0.64      0.12
    4   15   14     -0.92     -1.42
    4   15   15     -1.36     -1.71
    4   15   16     -1.23     -1.15
    4   15   17     -1.48     -1.67
    3   15    0      0.03     -0.01
    3   15    1     -3.22     -0.23
    3   15    2      0.55      2.37
    3   15    3     -0.84     -1.67
    3   15    4      0.64      0.21
    3   15    5      1.04     -0.64
    3   15    6     -1.61     -2.85
    3   15    7      0.87      1.07
    3   15    8     -0.82      0.60
    3   15    9     -0.64      0.12
    3   15   10     -2.38     -1.68
    3   15   11     -1.42      0.56
    3   15   12      0.18     -0.78
    3   15   13      0.77     -0.93
    3   15   14      1.51     -0.81
    3   15   15      0.08      0.35
    3   15   16     -2.37     -0.69
    3   15   17     -0.62     -0.72
    2   15    0      1.36     -0.02
    2   15    1      2.83      0.56
    2   15    2     -1.25     -1.13
    2   15    3      0.12     -1.29
    2   15    4     -1.44     -0.08
    2   15    5      0.70      1.28
    2   15    6      0.01     -0.14
    2   15    7     -0.29     -0.34
    2   15    8      0.40     -0.07
    2   15    9     -0.16     -0.88
    2   15   10     -1.95      0.36
    2   15   11     -0.05     -1.24
    2   15   12     -0.58      1.52
    2   15   13     -0.35     -0.34
    2   15   14      0.73     -1.00
    2   15   15     -0.74     -1.38
    2   15   16     -1.37      0.49
    2   15   17     -0.89     -1.20
    1   15    0     -0.12      0.00
    1   15    1     -1.61      0.29
    1   15    2      2.06      1.73
    1   15    3     -1.73      0.03
    1   15    4      2.84      0.24
    1   15    5      1.44     -0.61
    1   15    6      1.01     -1.69
    1   15    7     -0.55      0.44
    1   15    8      0.76      0.33
    1   15    9     -0.70     -0.12
    1   15   10     -0.72     -0.73
    1   15   11     -0.53      0.25
    1   15   12      0.60     -0.54
    1   15   13      1.99     -0.31
    1   15   14      1.15     -0.39
    1   15   15      0.77     -0.04
    1   15   16     -1.79     -0.75
    1   15   17      0.08     -0.64
    0   15    0     -0.48     -0.02
    0   15    1      0.97     -0.02
    0   15    2     -3.20      0.00
    0   15    3      0.90     -0.04
    0   15    4     -3.31      0.02
    0   15    5      0.08     -0.03
    0   15    6     -1.48      0.06
    0   15    7      0.84      0.01
    0   15    8      0.26      0.03
    0   15    9      0.70      0.14
    0   15   10     -1.27      0.00
    0   15   11      1.97      0.04
    0   15   12      0.66     -0.01
    0   15   13      0.87      0.09
    0   15   14      2.53      0.01
    0   15   15      0.26     -0.01
    0   15   16     -1.31      0.00
    0   15   17     -0.45     -0.02
   15   15    0     -0.39      0.03
   15   15    1      1.55      0.04
   15   15    2     -2.17      0.02
   15   15    3      0.68     -0.04
   15   15    4     -1.54      0.03
   15   15    5      0.36      0.09
   15   15    6     -1.60     -0.02
   15   15    7     -1.44      0.04
   15   15    8     -2.10     -0.07
   15   15    9     -0.36      0.30
   15   15   10      1.45     -0.33
   15   15   11      0.79      0.02
   15   15   12      0.90     -0.13
   15   15   13      1.02      0.06
   15   15   14     -0.19     -0.10
   15   16    0      0.68     -0.11
   15   16    1      0.66     -1.01
   15   16    2      0.14     -3.05
   15   16    3      0.54     -0.31
   15   16    4     -0.81     -1.15
   15   16    5      0.82      3.51
   15   16    6     -0.98      0.77
   15   16    7     -0.32      0.73
   15   16    8      0.83     -1.96
   15   16    9     -0.62      0.27
   15   16   10      0.18     -0.99
   15   16   11     -0.08     -3.61
   15   16   12     -0.64     -0.73
   15   16   13      0.16     -1.85
   14   16    0      0.67      0.09
   14   16    1      0.78     -0.77
   14   16    2      2.54      0.60
   14   16    3     -0.67      0.29
   14   16    4      1.56      1.42
   14   16    5     -2.63     -0.72
   14   16    6      1.06      1.51
   14   16    7     -0.62     -0.88
   14   16    8     -0.75      0.76
   14   16    9     -0.68     -0.68
   14   16   10     -2.70      3.56
   14   16   11     -1.80     -0.15
   14   16   12     -0.11      0.35
   14   16   13     -2.34      0.39
   14   16   14     -1.02      0.08
   13   16    0      0.91     -0.19
   13   16    1      1.92     -0.80
   13   16    2      0.29     -2.09
   13   16    3      0.78      0.45
   13   16    4     -0.02     -2.02
   13   16    5      1.32      3.34
   13   16    6     -0.93      1.34
   13   16    7      0.38      1.27
   13   16    8      1.57     -0.31
   13   16    9      0.10     -0.24
   13   16   10      0.92     -1.20
   13   16   11     -0.91     -2.51
   13   16   12      0.43     -2.46
   13   16   13     -0.09     -1.24
   13   16   14     -0.45     -1.71
   12   16    0     -0.07      0.02
   12   16    1      1.45     -0.82
   12   16    2      1.11      0.15
   12   16    3      0.01      1.11
   12   16    4     -0.07      2.04
   12   16    5     -1.64      2.19
   12   16    6      0.15      2.88
   12   16    7     -1.09     -0.79
   12   16    8     -0.67     -1.19
   12   16    9     -0.20     -0.39
   12   16   10     -1.27      2.03
   12   16   11     -0.76     -1.28
   12   16   12     -0.52      1.69
   12   16   13     -1.32     -0.97
   12   16   14     -1.72     -0.48
   11   16    0     -0.20     -0.07
   11   16    1      1.50     -1.29
   11   16    2      0.03      0.23
   11   16    3      0.02      1.49
   11   16    4      0.30     -0.21
   11   16    5      1.17     -1.69
   11   16    6     -0.68      0.96
   11   16    7      0.36     -0.69
   11   16    8      0.41     -0.08
   11   16    9      0.11     -0.80
   11   16   10      1.57      2.23
   11   16   11     -1.87      0.79
   11   16   12      1.13     -1.52
   11   16   13     -0.01      1.65
   11   16   14      0.90     -1.21
   11   16   15     -1.27      2.29
   10   16    0      0.66     -0.04
   10   16    1      0.94      0.23
   10   16    2      0.47     -0.79
   10   16    3     -1.44      0.81
   10   16    4     -1.39      0.16
   10   16    5     -1.70      3.53
   10   16    6      0.28      1.46
   10   16    7     -1.14     -0.61
   10   16    8      0.16     -3.45
   10   16    9     -0.54     -0.29
   10   16   10     -0.71     -2.81
   10   16   11     -1.35      0.14
   10   16   12     -1.02      0.46
   10   16   13      0.06     -1.17
   10   16   14     -0.44      0.66
   10   16   15      0.14      1.16
    9   16    0     -0.16      0.11
    9   16    1      0.71     -1.26
    9   16    2     -0.31      1.57
    9   16    3     -1.05      2.24
    9   16    4     -0.43      1.96
    9   16    5      0.73     -3.91
    9   16    6      0.63      1.06
    9   16    7      0.26     -1.58
    9   16    8     -0.54     -0.82
    9   16    9      0.18      0.20
    9   16   10      1.74      2.62
    9   16   11     -1.92      1.10
    9   16   12      0.62      1.60
    9   16   13     -0.48      1.43
    9   16   14     -0.37     -2.69
    9   16   15     -3.09     -0.61
    8   16    0      0.24     -0.01
    8   16    1     -0.10      1.99
    8   16    2      1.36      0.14
    8   16    3     -1.45      1.17
    8   16    4     -1.04     -2.23
    8   16    5     -2.08     -1.26
    8   16    6     -0.52     -0.98
    8   16    7     -0.73     -1.27
    8   16    8     -0.46     -3.71
    8   16    9     -0.31      0.80
    8   16   10     -0.97     -2.38
    8   16   11     -1.67      3.68
    8   16   12     -1.43     -1.59
    8   16   13      0.88      0.49
    8   16   14      1.08      2.03
    8   16   15     -1.23      2.68
    8   16   16     -1.17     -0.39
    7   16    0      1.62      0.11
    7   16    1      0.79     -0.66
    7   16    2      0.15      0.71
    7   16    3     -2.00      0.52
    7   16    4     -1.30      0.79
    7   16    5      0.17     -2.51
    7   16    6      2.68      1.00
    7   16    7      0.58     -0.70
    7   16    8      0.54     -0.78
    7   16    9     -0.52      0.42
    7   16   10      2.47     -1.54
    7   16   11     -0.69     -0.79
    7   16   12      0.58      2.43
    7   16   13     -0.02     -0.87
    7   16   14     -0.75     -2.87
    7   16   15     -2.20     -1.06
    7   16   16     -0.68      1.71
    6   16    0     -1.02      0.05
    6   16    1     -0.55      2.42
    6   16    2      0.52      0.78
    6   16    3     -0.65      1.93
    6   16    4     -0.96     -1.66
    6   16    5     -1.41     -6.50
    6   16    6     -1.32     -1.50
    6   16    7      0.08     -3.12
    6   16    8     -1.32     -2.58
    6   16    9      1.52      2.06
    6   16   10     -0.69      0.96
    6   16   11     -0.57      3.85
    6   16   12     -0.94     -0.91
    6   16   13      0.28      1.13
    6   16   14      0.00      1.18
    6   16   15     -3.00      0.44
    6   16   16     -1.10     -1.93
    5   16    0     -0.61      0.04
    5   16    1     -0.30     -0.54
    5   16    2     -1.01      0.32
    5   16    3     -1.87     -0.80
    5   16    4     -2.33     -3.42
    5   16    5     -1.64     -2.44
    5   16    6      1.40     -1.04
    5   16    7      0.26      0.56
    5   16    8      0.90      0.07
    5   16    9     -1.20      1.10
    5   16   10      1.94     -1.73
    5   16   11     -0.21      0.12
    5   16   12     -0.01      1.17
    5   16   13      0.04     -1.14
    5   16   14     -0.14     -0.26
    5   16   15     -0.72     -0.06
    5   16   16     -1.33      2.35
    4   16    0      0.93      0.06
    4   16    1      1.22      0.56
    4   16    2     -0.26     -1.96
    4   16    3     -1.13     -0.05
    4   16    4     -1.63      0.75
    4   16    5     -0.53     -5.85
    4   16    6     -0.42      0.98
    4   16    7      0.35     -3.75
    4   16    8     -0.34     -1.72
    4   16    9      1.84      1.76
    4   16   10      0.90      1.03
    4   16   11      0.35      1.10
    4   16   12      0.23      0.33
    4   16   13     -0.59      0.51
    4   16   14     -1.09     -0.93
    4   16   15     -2.18     -1.29
    4   16   16      0.65     -2.42
    3   16    0     -3.12      0.01
    3   16    1     -0.30     -1.49
    3   16    2     -1.68      0.40
    3   16    3     -0.84      0.13
    3   16    4     -0.81     -5.23
    3   16    5     -3.05     -2.80
    3   16    6      0.34     -3.57
    3   16    7     -0.82      0.61
    3   16    8      0.73      0.09
    3   16    9      0.36      1.64
    3   16   10      0.84      0.56
    3   16   11      0.58      1.28
    3   16   12      0.06     -0.04
    3   16   13      0.32     -0.22
    3   16   14      0.28      1.60
    3   16   15      0.10     -0.34
    3   16   16     -1.07      0.87
    2   16    0      3.48      0.02
    2   16    1      1.86     -0.63
    2   16    2      0.05     -3.39
    2   16    3      0.07     -2.05
    2   16    4     -2.60      0.93
    2   16    5     -0.05     -2.61
    2   16    6     -1.54      2.44
    2   16    7      1.24     -1.89
    2   16    8      0.28     -0.55
    2   16    9      0.78      1.58
    2   16   10      2.03      0.62
    2   16   11     -0.24      0.18
    2   16   12      0.86      0.32
    2   16   13     -1.10      0.07
    2   16   14     -0.80     -1.76
    2   16   15     -0.73     -0.92
    2   16   16      1.15     -1.72
    1   16    0      0.35      0.04
    1   16    1      3.61     -1.10
    1   16    2      1.56      0.09
    1   16    3     -0.22      0.46
    1   16    4      3.28     -2.31
    1   16    5     -2.30     -1.17
    1   16    6      2.97     -2.14
    1   16    7     -1.84      0.06
    1   16    8      1.48     -0.26
    1   16    9      1.69      0.52
    1   16   10      0.03      0.40
    1   16   11      0.83      0.39
    1   16   12      0.07     -0.35
    1   16   13      0.18     -0.01
    1   16   14      0.08      0.89
    1   16   15      0.56     -0.42
    1   16   16      0.05     -0.01
    0   16    0      3.18      0.01
    0   16    1      0.31      0.05
    0   16    2     -0.50      0.01
    0   16    3      1.19     -0.02
    0   16    4     -3.55     -0.06
    0   16    5     -0.24      0.04
    0   16    6     -3.59      0.00
    0   16    7      1.88     -0.02
    0   16    8     -0.21      0.11
    0   16    9      0.26      0.12
    0   16   10      2.09      0.02
    0   16   11     -0.85     -0.27
    0   16   12      1.01      0.01
    0   16   13     -1.21      0.04
    0   16   14     -0.45      0.07
    0   16   15     -0.36      0.00
    0   16   16      0.82      0.06
   16   16    0      2.32      0.01
   16   16    1      0.60     -0.03
   16   16    2      2.41      0.00
   16   16    3     -1.58     -0.03
   16   16    4      1.30     -0.04
   16   16    5     -1.82     -0.05
   16   16    6      1.48     -0.01
   16   16    7      1.28     -0.05
   16   16    8      0.76      0.00
   16   16    9      0.96     -0.16
   16   16   10     -2.54      0.13
   16   16   11     -1.92      0.00
   16   16   12      1.14      0.00
   16   16   13     -2.07     -0.03
   16   17    0      1.92     -0.02
   16   17    1      0.70      0.26
   16   17    2     -0.03      1.26
   16   17    3     -0.25      0.47
   16   17    4     -1.31     -1.50
   16   17    5     -0.09      0.15
   16   17    6      0.10     -0.37
   16   17    7     -0.41      0.67
   16   17    8     -0.12      0.08
   16   17    9     -1.93      0.15
   16   17   10     -0.73     -1.71
   16   17   11      0.14      0.62
   16   17   12     -0.30     -0.15
   15   17    0     -0.68     -0.10
   15   17    1      1.14      0.31
   15   17    2     -1.89     -0.51
   15   17    3     -0.09     -0.31
   15   17    4     -0.04      0.19
   15   17    5     -0.08      1.11
   15   17    6     -0.60      0.31
   15   17    7     -0.78      0.49
   15   17    8     -1.94     -1.17
   15   17    9     -0.04      0.12
   15   17   10      1.01     -2.69
   15   17   11      0.80     -2.11
   15   17   12      0.50      1.19
   15   17   13      0.36     -2.14
   14   17    0      2.04      0.06
   14   17    1     -0.77      0.13
   14   17    2      0.50      3.59
   14   17    3     -0.17      0.70
   14   17    4     -0.93      2.77
   14   17    5     -0.17     -2.98
   14   17    6     -0.30     -0.05
   14   17    7     -0.54      0.92
   14   17    8     -2.30      0.50
   14   17    9     -2.10      0.31
   14   17   10     -1.53      0.15
   14   17   11      0.51      2.68
   14   17   12     -1.41      1.27
   14   17   13      0.76      1.68
   13   17    0      0.47     -0.08
   13   17    1      2.14      0.37
   13   17    2     -1.39     -0.13
   13   17    3      0.26     -0.12
   13   17    4      0.42     -0.06
   13   17    5      0.65      0.81
   13   17    6      0.15     -0.51
   13   17    7     -0.20      1.67
   13   17    8     -0.28      0.72
   13   17    9      0.38      0.62
   13   17   10      1.03     -3.24
   13   17   11      0.40     -2.21
   13   17   12      0.41      0.43
   13   17   13      0.11     -2.67
   13   17   14      0.42      1.69
   12   17    0      2.47      0.08
   12   17    1     -1.95      0.33
   12   17    2      1.21      3.70
   12   17    3      0.00     -0.21
   12   17    4      0.19      5.45
   12   17    5     -0.03     -0.69
   12   17    6      0.18      1.48
   12   17    7      0.14      0.57
   12   17    8     -1.60      0.18
   12   17    9     -0.56      0.58
   12   17   10     -1.22     -1.56
   12   17   11      0.52      0.97
   12   17   12     -1.61      1.97
   12   17   13     -0.59      1.33
   12   17   14     -2.09      0.23
   11   17    0     -1.07      0.13
   11   17    1      2.13      0.63
   11   17    2     -0.63      0.60
   11   17    3      2.26      1.79
   11   17    4      0.58     -0.64
   11   17    5      1.51     -0.76
   11   17    6     -0.15     -2.30
   11   17    7     -0.56      2.45
   11   17    8     -1.04      0.98
   11   17    9     -0.33      1.03
   11   17   10      0.46     -0.35
   11   17   11      0.92     -0.99
   11   17   12      0.07      0.07
   11   17   13      0.40     -1.02
   11   17   14      0.11      2.08
   10   17    0      2.61     -0.05
   10   17    1     -1.75      0.68
   10   17    2      1.23      1.34
   10   17    3     -0.93     -1.81
   10   17    4     -0.23      3.16
   10   17    5     -1.10      2.66
   10   17    6      0.05      1.26
   10   17    7      0.57     -0.26
   10   17    8      0.33      1.44
   10   17    9     -0.78     -1.01
   10   17   10     -0.39     -2.63
   10   17   11     -0.32     -2.30
   10   17   12      0.62     -0.30
   10   17   13     -0.45     -0.06
   10   17   14     -0.93      0.88
   10   17   15      1.51      1.76
    9   17    0     -1.28      0.28
    9   17    1      1.95      0.16
    9   17    2     -1.63      0.39
    9   17    3      3.09      2.31
    9   17    4     -0.91     -0.20
    9   17    5      2.29      0.03
    9   17    6     -0.17     -2.52
    9   17    7      0.41      1.44
    9   17    8     -0.84      0.03
    9   17    9      1.09      1.36
    9   17   10     -0.17      0.75
    9   17   11      2.26     -1.62
    9   17   12     -0.11      1.16
    9   17   13      0.19     -1.01
    9   17   14     -1.57      0.30
    9   17   15     -2.12     -2.51
    8   17    0      0.36     -0.14
    8   17    1     -1.91      0.62
    8   17    2      0.77     -0.34
    8   17    3     -1.26     -0.89
    8   17    4     -0.75     -1.42
    8   17    5     -2.33      1.57
    8   17    6     -2.13     -2.08
    8   17    7     -0.27     -1.81
    8   17    8      0.15      0.86
    8   17    9     -2.00     -3.39
    8   17   10     -0.45      1.13
    8   17   11     -1.85     -2.85
    8   17   12      1.45     -2.31
    8   17   13     -0.16      0.66
    8   17   14      0.36      2.43
    8   17   15      1.81      2.07
    7   17    0      1.24      0.17
    7   17    1      2.12     -1.10
    7   17    2     -2.05     -0.46
    7   17    3      1.58     -0.85
    7   17    4     -3.09      0.80
    7   17    5      1.18      2.38
    7   17    6      0.23     -0.67
    7   17    7      0.78     -0.02
    7   17    8     -0.14     -0.32
    7   17    9     -0.03      0.25
    7   17   10     -1.37     -2.50
    7   17   11      1.54     -2.33
    7   17   12     -0.23      0.59
    7   17   13     -0.22     -1.47
    7   17   14     -1.70     -0.83
    7   17   15     -0.22     -2.30
    6   17    0      0.14     -0.09
    6   17    1     -0.34      0.51
    6   17    2      0.62     -1.07
    6   17    3     -0.63      1.96
    6   17    4     -0.03     -2.14
    6   17    5     -2.09      0.89
    6   17    6     -2.33     -3.91
    6   17    7     -0.84     -2.83
    6   17    8     -0.21     -0.71
    6   17    9     -1.30     -3.98
    6   17   10     -1.42      4.49
    6   17   11     -2.09     -1.93
    6   17   12     -0.03     -1.56
    6   17   13     -0.45      1.68
    6   17   14     -1.00      1.42
    6   17   15     -0.79      0.33
    5   17    0      2.96     -0.04
    5   17    1     -0.11     -0.99
    5   17    2      0.15      0.63
    5   17    3      0.55     -2.68
    5   17    4     -2.86     -1.00
    5   17    5     -0.61      1.38
    5   17    6     -0.74     -0.09
    5   17    7      0.26     -0.04
    5   17    8     -0.49      0.09
    5   17    9     -2.71     -0.53
    5   17   10     -1.81     -3.38
    5   17   11     -1.11      0.15
    5   17   12     -1.01     -0.79
    5   17   13     -0.99      0.09
    5   17   14     -1.33      0.07
    5   17   15      0.32      0.37
    5   17   16     -2.26      1.51
    4   17    0      1.94     -0.05
    4   17    1      2.93      1.16
    4   17    2      0.66     -1.95
    4   17    3     -0.13      1.67
    4   17    4      0.15      0.48
    4   17    5     -0.54      3.12
    4   17    6      0.32     -1.13
    4   17    7     -0.50     -1.83
    4   17    8      0.29     -0.70
    4   17    9     -0.62     -3.26
    4   17   10     -1.51      2.96
    4   17   11     -0.29     -1.39
    4   17   12     -0.41      0.00
    4   17   13      0.26      1.04
    4   17   14     -1.37     -1.09
    4   17   15     -1.59     -0.79
    4   17   16     -0.66     -1.41
    3   17    0      1.88     -0.09
    3   17    1     -3.60     -0.28
    3   17    2      1.53      2.08
    3   17    3     -0.73     -0.79
    3   17    4     -0.87     -3.10
    3   17    5     -0.18     -1.23
    3   17    6     -0.92     -1.73
    3   17    7      0.99     -0.08
    3   17    8     -0.38      0.05
    3   17    9     -1.87     -0.81
    3   17   10     -0.39     -1.73
    3   17   11     -1.16      1.63
    3   17   12     -0.76     -0.85
    3   17   13      0.22      1.23
    3   17   14     -0.65      1.16
    3   17   15     -0.31      1.31
    3   17   16     -2.84      0.95
    2   17    0      0.05     -0.06
    2   17    1      1.75      1.78
    2   17    2     -0.61     -1.40
    2   17    3      1.05     -0.52
    2   17    4     -0.71      1.02
    2   17    5      0.74      2.70
    2   17    6      1.67      1.03
    2   17    7      0.78     -0.37
    2   17    8      0.37     -0.10
    2   17    9     -0.69     -1.58
    2   17   10     -0.56      0.92
    2   17   11      0.51     -0.20
    2   17   12      0.20      0.82
    2   17   13      0.66      0.46
    2   17   14     -0.25     -1.38
    2   17   15     -0.89     -0.17
    2   17   16      0.07     -0.02
    1   17    0      2.03     -0.04
    1   17    1     -2.27     -0.13
    1   17    2      2.60      1.12
    1   17    3     -1.93      0.41
    1   17    4      1.32     -1.56
    1   17    5      2.50     -0.91
    1   17    6      1.20     -1.26
    1   17    7      1.87     -0.12
    1   17    8      0.05     -0.19
    1   17    9     -0.48     -0.72
    1   17   10      0.39     -0.70
    1   17   11      0.47      0.70
    1   17   12     -0.19     -0.32
    1   17   13      2.41      0.53
    1   17   14      0.53      0.73
    1   17   15      0.27      0.51
    1   17   16     -1.12      0.29
    0   17    0     -2.78     -0.01
    0   17    1     -1.11     -0.04
    0   17    2     -2.06     -0.05
    0   17    3      1.76     -0.02
    0   17    4     -1.46     -0.01
    0   17    5      0.90     -0.03
    0   17    6      1.41     -0.02
    0   17    7      1.67      0.25
    0   17    8      0.23      0.05
    0   17    9     -0.50      0.12
    0   17   10      0.17     -0.08
    0   17   11      0.47     -0.14
    0   17   12      0.61      0.01
    0   17   13      0.65      0.05
    0   17   14      0.48     -0.04
    0   17   15     -0.49      0.21
    0   17   16      0.12     -0.05
   17   17    0     -1.32      0.00
   17   17    1      0.87      0.03
   17   17    2     -0.61      0.01
   17   17    3      0.39      0.00
   17   17    4     -0.53      0.02
   17   17    5     -0.61      0.10
   17   17    6      0.46      0.02
   17   17    7     -0.59      0.05
   17   17    8     -2.71     -0.03
   17   17    9     -1.70      0.15
   17   17   10      0.60     -0.16
   17   17   11      0.65     -0.03
   17   17   12      0.78     -0.08
   17   18    0     -0.67      0.04
   17   18    1     -0.50      0.58
   17   18    2      0.22      0.89
   17   18    3      0.76      0.18
   17   18    4      0.15      2.25
   17   18    5      0.90     -2.93
   17   18    6      0.16      0.44
   17   18    7     -0.35      0.59
   17   18    8      0.66      2.47
   17   18    9     -0.15     -1.01
   17   18   10      1.28      2.78
   17   18   11      0.97      1.54
   16   18    0      0.81      0.07
   16   18    1      0.06     -0.56
   16   18    2      0.32      0.82
   16   18    3     -1.10     -0.17
   16   18    4      0.27     -0.66
   16   18    5     -0.32     -1.19
   16   18    6     -0.08      0.45
   16   18    7      1.33     -0.65
   16   18    8      0.45      2.72
   16   18    9      1.72     -0.98
   16   18   10     -1.17      1.61
   16   18   11     -0.06      0.24
   16   18   12      1.91     -1.18
   15   18    0     -0.18     -0.04
   15   18    1     -1.44      1.08
   15   18    2      0.76     -1.71
   15   18    3      0.16     -0.47
   15   18    4      0.30     -0.74
   15   18    5      1.27      1.36
   15   18    6     -0.60      0.02
   15   18    7     -0.10     -0.55
   15   18    8      1.62      0.23
   15   18    9      0.95      0.51
   15   18   10      1.41     -0.95
   15   18   11      0.64      0.34
   15   18   12     -0.52     -2.46
   14   18    0     -2.45      0.14
   14   18    1     -0.83      1.24
   14   18    2     -0.03      0.47
   14   18    3     -0.14      2.08
   14   18    4     -0.34     -0.90
   14   18    5     -0.83     -0.68
   14   18    6      1.04      0.30
   14   18    7     -0.01     -0.48
   14   18    8     -0.33      1.71
   14   18    9     -0.90     -1.87
   14   18   10     -0.90      4.00
   14   18   11     -1.36      0.58
   14   18   12      1.03     -0.22
   14   18   13     -1.20      0.69
   13   18    0     -0.89     -0.08
   13   18    1     -0.85      0.68
   13   18    2     -0.06     -2.46
   13   18    3     -0.86     -0.79
   13   18    4     -0.69     -3.51
   13   18    5      0.82      2.36
   13   18    6     -0.89     -0.80
   13   18    7      0.33     -0.95
   13   18    8      1.19      0.20
   13   18    9      0.13      0.66
   13   18   10      0.35     -1.73
   13   18   11     -0.38     -0.27
   13   18   12     -0.64     -5.34
   13   18   13      0.07      0.48
   12   18    0     -3.13      0.02
   12   18    1     -2.65      2.25
   12   18    2     -1.35     -0.51
   12   18    3     -0.53      2.67
   12   18    4      0.23     -0.33
   12   18    5     -0.52      2.31
   12   18    6      1.53      1.47
   12   18    7      0.17     -1.41
   12   18    8      0.56      0.04
   12   18    9     -0.24     -1.59
   12   18   10     -1.44      2.44
   12   18   11     -0.76      0.30
   12   18   12     -0.46      0.73
   12   18   13     -1.64     -0.34
   11   18    0     -3.29     -0.02
   11   18    1     -1.48      0.05
   11   18    2     -0.18     -0.56
   11   18    3     -0.73      0.31
   11   18    4      1.11     -2.12
   11   18    5      0.67     -1.30
   11   18    6     -0.09     -0.61
   11   18    7     -0.38     -0.61
   11   18    8     -0.23     -0.57
   11   18    9     -0.61     -0.54
   11   18   10      1.22      1.49
   11   18   11      0.12      0.43
   11   18   12      0.29     -3.86
   11   18   13      0.55      0.46
   11   18   14      0.82     -0.77
   10   18    0     -1.38     -0.21
   10   18    1     -1.05      0.60
   10   18    2     -1.65     -0.52
   10   18    3     -0.71     -0.32
   10   18    4     -0.18      0.77
   10   18    5     -0.52      2.43
   10   18    6      1.03      1.80
   10   18    7      1.34     -2.59
   10   18    8      1.29     -0.65
   10   18    9      0.40     -1.14
   10   18   10     -2.63     -2.62
   10   18   11      1.04      0.79
   10   18   12     -0.79     -1.70
   10   18   13      0.51     -0.44
   10   18   14      1.25     -0.08
    9   18    0     -0.88      0.09
    9   18    1     -0.84      0.15
    9   18    2      1.26      0.57
    9   18    3     -0.49      0.70
    9   18    4      3.88      0.93
    9   18    5      1.14     -3.14
    9   18    6      2.09     -0.13
    9   18    7      0.06     -0.91
    9   18    8      0.48     -1.77
    9   18    9      0.62     -0.91
    9   18   10      2.13      2.00
    9   18   11      0.84      0.42
    9   18   12      0.74      0.63
    9   18   13      0.34      0.01
    9   18   14      0.41     -1.43
    8   18    0     -1.83     -0.19
    8   18    1      0.52     -0.41
    8   18    2     -0.67      1.15
    8   18    3      0.16     -1.17
    8   18    4      0.43      0.56
    8   18    5     -1.00     -1.65
    8   18    6     -0.37     -0.09
    8   18    7      0.22     -2.10
    8   18    8      0.32     -1.88
    8   18    9     -0.42     -0.68
    8   18   10     -2.29     -3.55
    8   18   11      0.74      2.52
    8   18   12     -1.05     -3.03
    8   18   13      1.12      1.21
    8   18   14      1.29      1.34
    8   18   15      0.29      3.08
    7   18    0      0.75      0.08
    7   18    1      0.86      0.24
    7   18    2      0.39     -0.15
    7   18    3     -1.62     -1.69
    7   18    4      1.59      1.49
    7   18    5      0.21     -1.70
    7   18    6      1.91     -0.05
    7   18    7      0.49     -0.31
    7   18    8      0.70     -0.80
    7   18    9      0.21     -0.17
    7   18   10      0.99     -1.23
    7   18   11      0.67     -0.32
    7   18   12      0.28      3.05
    7   18   13     -0.33     -0.83
    7   18   14      0.20     -1.86
    7   18   15     -1.61      0.58
    6   18    0     -1.96      0.05
    6   18    1     -0.05     -0.18
    6   18    2     -0.55      1.10
    6   18    3     -0.75      0.17
    6   18    4      1.15      0.79
    6   18    5     -0.67     -4.03
    6   18    6     -0.73     -1.92
    6   18    7     -0.21     -1.29
    6   18    8      0.16     -2.29
    6   18    9      1.54      0.56
    6   18   10     -0.45     -0.31
    6   18   11      0.43      1.89
    6   18   12     -0.15     -0.69
    6   18   13      0.68      0.32
    6   18   14      0.48      0.96
    6   18   15     -2.10      0.90
    5   18    0     -1.18     -0.01
    5   18    1      0.82     -0.55
    5   18    2     -0.65      0.38
    5   18    3     -1.22     -3.09
    5   18    4     -0.29     -1.26
    5   18    5     -1.27     -2.30
    5   18    6      0.41     -1.59
    5   18    7     -0.19      0.74
    5   18    8      0.48      0.38
    5   18    9     -0.66      0.59
    5   18   10      0.55     -2.15
    5   18   11     -0.18      0.27
    5   18   12     -0.64      2.83
    5   18   13     -1.32     -0.33
    5   18   14      0.05      0.07
    5   18   15     -0.86      1.04
    4   18    0      0.71      0.12
    4   18    1      1.40      0.16
    4   18    2     -0.55     -0.72
    4   18    3     -1.19     -0.58
    4   18    4     -0.30      3.77
    4   18    5      0.83     -1.72
    4   18    6     -1.30     -0.17
    4   18    7      0.48     -0.83
    4   18    8     -0.68     -1.24
    4   18    9      2.17      1.17
    4   18   10     -0.79      1.21
    4   18   11      0.16     -0.18
    4   18   12      0.43      1.86
    4   18   13      0.01     -1.77
    4   18   14      0.02     -0.44
    4   18   15     -1.71     -1.15
    3   18    0     -1.64      0.03
    3   18    1      0.88     -2.19
    3   18    3     -1.13     -1.09
    3   18    4      0.62     -3.02
    3   18    5     -2.79     -3.20
    3   18    6      0.42     -3.22
    3   18    7     -1.29      0.45
    3   18    8      1.13      0.61
    3   18    9      0.65      0.57
    3   18   10      0.44     -0.61
    3   18   11      0.19      0.38
    3   18   12     -0.84      1.47
    3   18   13     -1.24      0.22
    3   18   14      0.35      1.34
    3   18   15     -0.80     -0.10
    2   18    0      2.21      0.06
    2   18    1      1.77      0.71
    2   18    2     -0.44     -0.80
    2   18    3      1.21     -1.68
    2   18    4     -2.25      4.30
    2   18    5      1.10      0.11
    2   18    6     -2.85      1.67
    2   18    7      1.10     -0.37
    2   18    8     -0.55     -0.13
    2   18    9      0.96      1.15
    2   18   10     -0.28      1.23
    2   18   11     -0.79      0.11
    2   18   12      0.50      2.36
    2   18   13     -1.21     -1.04
    2   18   14     -0.95     -0.25
    2   18   15     -0.71     -0.40
    1   18    1      4.71     -1.55
    1   18    2     -0.48      0.18
    1   18    3     -2.07      0.27
    1   18    4      1.21     -1.31
    1   18    5     -3.41     -1.28
    1   18    6      1.23     -1.58
    1   18    7     -2.36     -0.04
    1   18    8      1.09      0.31
    1   18    9      1.69      0.02
    1   18   10     -1.09      0.06
    1   18   11      1.94     -0.06
    1   18   12     -0.55      0.24
    1   18   13     -0.15     -0.03
    1   18   14      1.13      0.55
    1   18   15     -0.67     -0.59
    0   18    0      1.77      0.05
    0   18    1      0.33      0.05
    0   18    2     -0.77     -0.01
    0   18    3      2.77     -0.01
    0   18    4     -3.05     -0.08
    0   18    5      0.45      0.00
    0   18    6     -3.65      0.05
    0   18    7      1.61     -0.04
    0   18    8      0.72      0.11
    0   18    9      1.03      0.16
    0   18   10      1.45     -0.25
    0   18   11     -0.80     -0.26
    0   18   12      1.23     -0.21
    0   18   13     -1.36      0.04
    0   18   14     -1.24      0.09
    0   18   15     -0.23     -0.01
    1   18    0      0.97      0.03
    3   18    2     -0.83      0.77
   18   18    0      1.26      0.01
   18   18    1     -0.84     -0.10
   18   18    2     -0.04     -0.03
   18   18    3     -0.52      0.04
   18   18    4      2.95     -0.01
   18   18    5      0.77     -0.10
   18   18    6     -1.55      0.02
   18   18    7      0.45      0.03
   18   18    8      0.08      0.05
   18   18    9      3.03     -0.12
   18   18   10     -0.91      0.03
   18   19    0      0.47     -0.08
   18   19    1      1.00     -0.15
   18   19    2     -0.88     -2.80
   18   19    3     -0.31     -0.51
   18   19    4     -0.24     -1.48
   18   19    5      0.12      2.78
   18   19    6      0.33     -1.31
   18   19    7      0.08     -1.98
   18   19    8      1.07     -3.65
   18   19    9     -0.73      1.82
   18   19   10      0.11     -2.83
   17   19    0     -0.87     -0.02
   17   19    1      0.44      0.81
   17   19    2      0.35     -0.82
   17   19    3     -0.57     -0.36
   17   19    4     -1.39      1.11
   17   19    5     -0.21     -0.53
   17   19    6      2.22     -1.29
   17   19    7      1.02      0.43
   17   19    8     -0.23     -2.51
   17   19    9     -0.65     -0.11
   17   19   10      1.24     -0.25
   16   19    0      1.69     -0.04
   16   19    1      1.14     -2.04
   16   19    2     -1.34     -1.01
   16   19    3     -1.20     -0.06
   16   19    4     -2.20     -1.61
   16   19    5     -0.29      1.25
   16   19    6      0.45     -2.02
   16   19    7      1.03     -0.42
   16   19    8      0.39     -3.13
   16   19    9     -1.54      0.64
   16   19   10     -1.84     -1.82
   16   19   11      0.00     -1.82
   15   19    0     -0.72     -0.07
   15   19    1      1.53     -0.58
   15   19    2     -0.82     -0.93
   15   19    3     -0.83     -2.31
   15   19    4      0.73      2.14
   15   19    5     -0.66     -0.09
   15   19    6      0.73     -0.15
   15   19    7     -0.04     -0.94
   15   19    8      0.46     -2.31
   15   19    9      0.16      0.27
   15   19   10      0.79     -1.87
   15   19   11     -0.50     -2.04
   15   19   12      0.88      0.98
   14   19    0      0.93      0.07
   14   19    1     -0.68     -2.47
   14   19    2     -0.38      1.34
   14   19    3     -0.37      0.65
   14   19    4     -0.96      2.02
   14   19    5      0.07     -0.77
   14   19    6      0.55     -0.13
   14   19    7      0.95      2.30
   14   19    8     -0.95     -1.67
   14   19    9     -0.88      0.18
   14   19   10     -1.56      1.02
   14   19   11      0.96     -0.05
   14   19   12     -0.19      1.80
   13   19    0      1.14     -0.04
   13   19    1      3.62     -3.05
   13   19    2     -0.03     -1.01
   13   19    3     -0.01     -2.62
   13   19    4     -0.03      1.75
   13   19    5     -0.58      0.00
   13   19    6     -0.61     -0.51
   13   19    7      0.10     -0.33
   13   19    8      0.55     -0.32
   13   19    9      0.17      1.07
   13   19   10      0.39     -2.45
   13   19   11     -0.27     -2.58
   13   19   12      1.15     -0.25
   12   19    0      3.09      0.08
   12   19    1     -1.26     -2.09
   12   19    2      1.26      1.87
   12   19    3      0.04     -0.31
   12   19    4      1.11      4.72
   12   19    5      0.50      0.09
   12   19    6      0.96      1.73
   12   19    7      1.44      1.63
   12   19    8      0.78      0.09
   12   19    9      1.00      0.52
   12   19   10     -0.19      1.10
   12   19   11      0.24      0.88
   12   19   12      0.59      3.95
   12   19   13      0.95      0.48
   11   19    0      0.18      0.26
   11   19    1      2.92     -2.45
   11   19    2      0.77     -1.11
   11   19    3      1.92      1.06
   11   19    4     -0.66     -0.40
   11   19    5      0.94      0.22
   11   19    6     -0.71     -1.76
   11   19    7     -0.64      2.46
   11   19    8     -0.25     -0.74
   11   19    9      0.20      1.47
   11   19   10      2.07      0.08
   11   19   11      0.01     -1.02
   11   19   12      0.85      0.50
   11   19   13     -0.25     -0.15
   10   19    0      3.16     -0.04
   10   19    1     -0.39     -1.94
   10   19    2      0.51      0.17
   10   19    3     -0.75     -1.54
   10   19    4     -1.62      2.56
   10   19    5     -0.02      1.41
   10   19    6     -0.60      0.40
   10   19    7      2.31     -0.55
   10   19    8      1.13      1.38
   10   19    9      0.47     -0.53
   10   19   10     -0.65     -0.39
   10   19   11     -1.85     -0.56
   10   19   12      1.11      2.59
   10   19   13     -0.59      0.95
   10   19   14     -1.27      0.66
    9   19    0      0.40      0.52
    9   19    1     -0.28     -0.07
    9   19    2      0.30     -1.34
    9   19    3      1.29      3.23
    9   19    4     -0.37     -1.67
    9   19    5      1.63      1.13
    9   19    6      1.17     -1.39
    9   19    7     -1.39      2.18
    9   19    8      0.22     -1.28
    9   19    9      1.26      2.15
    9   19   10      2.37      1.90
    9   19   11     -0.23      0.44
    9   19   12      0.11      2.14
    9   19   13     -0.39     -0.86
    9   19   14     -1.88      0.73
    8   19    0      0.49     -0.05
    8   19    1     -1.30     -0.97
    8   19    2      0.05     -0.27
    8   19    3     -0.50      0.94
    8   19    4     -2.61     -0.95
    8   19    5      0.09      1.12
    8   19    6     -1.97     -0.58
    8   19    7      1.63     -0.27
    8   19    8     -0.12      1.20
    8   19    9     -0.53     -1.81
    8   19   10      0.38      1.58
    8   19   11     -1.99     -1.37
    8   19   12      1.46     -0.46
    8   19   13     -0.62      1.40
    8   19   14     -1.08      1.05
    7   19    0      2.48      0.32
    7   19    1     -1.44      0.34
    7   19    2     -0.24     -1.17
    7   19    3     -0.43      0.50
    7   19    4     -1.91     -1.15
    7   19    5      0.45      1.23
    7   19    6      1.72      0.63
    7   19    7     -0.93     -0.37
    7   19    8     -0.28     -0.31
    7   19    9      0.85      1.85
    7   19   10     -0.30     -0.41
    7   19   11      0.21      0.72
    7   19   12     -0.52      1.34
    7   19   13     -0.25     -1.57
    7   19   14     -1.84      0.37
    6   19    0     -0.50      0.15
    6   19    1     -2.21      0.45
    6   19    2     -0.57     -0.65
    6   19    3     -0.86      3.84
    6   19    4     -1.15     -2.01
    6   19    5      0.62      0.67
    6   19    6     -1.07     -0.11
    6   19    7      0.40     -0.55
    6   19    8     -0.15      0.16
    6   19    9     -0.01     -1.55
    6   19   10      1.53      4.07
    6   19   11     -0.48     -1.04
    6   19   12      2.43     -2.51
    6   19   13      1.29      0.99
    6   19   14     -0.54     -0.32
    5   19    0      1.92      0.07
    5   19    1     -1.97     -0.37
    5   19    2     -0.09      0.48
    5   19    3      0.00     -1.05
    5   19    4     -2.47     -2.50
    5   19    5     -0.71     -0.79
    5   19    6      0.55      0.99
    5   19    7     -0.44     -0.79
    5   19    8     -0.97      0.03
    5   19    9     -0.21      0.83
    5   19   10     -0.59     -2.37
    5   19   11      0.69      1.32
    5   19   12     -0.57     -0.70
    5   19   13     -0.49      0.75
    5   19   14     -1.81      1.10
    5   19   15     -0.37      0.18
    4   19    0     -0.40      0.20
    4   19    1      0.06      1.80
    4   19    2     -1.30     -1.44
    4   19    3     -1.20      2.65
    4   19    4     -0.92     -0.25
    4   19    5      0.75      1.69
    4   19    6      0.23      1.56
    4   19    7     -0.38     -1.42
    4   19    8     -0.64     -0.53
    4   19    9     -0.48     -0.94
    4   19   10     -0.10      2.74
    4   19   11      0.07     -0.80
    4   19   12      2.21     -2.58
    4   19   13      1.90     -0.05
    4   19   14     -0.08     -1.32
    4   19   15     -1.12     -0.50
    3   19    0      0.74      0.03
    3   19    1     -2.56     -1.32
    3   19    2      0.38      0.56
    3   19    3     -0.25      0.53
    3   19    4     -1.30     -5.12
    3   19    5     -0.22     -2.05
    3   19    6     -0.03     -1.13
    3   19    7      0.06      0.24
    3   19    8     -0.11     -0.52
    3   19    9      0.28      0.19
    3   19   10      1.91     -2.57
    3   19   11      1.18      0.18
    3   19   12      0.98     -2.95
    3   19   13      0.81      1.65
    3   19   14     -0.36     -0.19
    3   19   15     -0.03      0.58
    2   19    0     -0.34      0.11
    2   19    1      0.11      2.27
    2   19    2      0.95     -0.71
    2   19    3      0.29     -0.04
    2   19    4      1.18      0.62
    2   19    5     -0.11      1.23
    2   19    6      1.78      1.86
    2   19    7     -0.61     -1.10
    2   19    8     -0.10     -0.65
    2   19    9     -0.36     -0.59
    2   19   10      0.46      0.69
    2   19   11     -0.74     -0.49
    2   19   12      1.64     -1.04
    2   19   13      0.44     -0.26
    2   19   14     -0.58     -0.41
    2   19   15     -0.69      0.03
    1   19    0      1.83      0.03
    1   19    1     -0.81     -0.95
    1   19    2      1.49     -0.18
    1   19    3     -1.68      0.80
    1   19    4     -0.59     -2.92
    1   19    5      1.82     -0.82
    1   19    6     -0.46     -1.10
    1   19    7      0.06      0.39
    1   19    8     -1.02     -0.46
    1   19    9     -0.64     -0.09
    1   19   10      1.14     -1.44
    1   19   11      0.36     -0.59
    1   19   12      0.76     -2.29
    1   19   13      1.35      0.38
    1   19   14      0.43     -0.91
    1   19   15     -0.01     -0.14
    0   19    0     -0.61      0.12
    0   19    1     -2.04      0.03
    0   19    2      2.55      0.06
    0   19    3      0.93     -0.01
    0   19    4      2.85     -0.06
    0   19    5     -1.30     -0.01
    0   19    6      2.49     -0.03
    0   19    7     -0.72      0.18
    0   19    8      0.95      0.12
    0   19    9      0.47     -0.18
    0   19   10      2.25     -0.10
    0   19   11     -1.23     -1.20
    0   19   12      1.87      0.02
    0   19   13     -0.30     -0.23
    0   19   14     -0.77      0.06
    0   19   15     -0.36      0.11
   19   19    0      1.23     -0.01
   19   19    1     -0.68      0.07
   19   19    2      1.85      0.00
   19   19    3     -0.99     -0.05
   19   19    4     -2.53     -0.01
   19   19    5      0.17      0.07
   19   19    6      2.73     -0.03
   19   19    7      1.45     -0.06
   19   19    8     -0.04     -0.02
   19   19    9     -1.69      0.09
   19   20    0     -0.99     -0.01
   19   20    1      1.75     -1.16
   19   20    2      0.76      3.55
   19   20    3      2.24      0.04
   19   20    4      0.73     -0.33
   19   20    5      1.74     -0.82
   19   20    6      0.92      1.27
   19   20    7      0.68      1.74
   19   20    8     -0.44      1.94
   18   20    0      1.73     -0.01
   18   20    1      0.27     -1.25
   18   20    2      0.11      0.22
   18   20    3      1.61     -1.20
   18   20    4      3.56     -2.31
   18   20    5      0.55     -0.03
   18   20    6     -1.34      1.11
   18   20    7     -0.56     -2.25
   18   20    8      0.27      0.89
   18   20    9      2.15     -1.10
   17   20    0      0.23      0.01
   17   20    1     -0.39      1.68
   17   20    2      1.94      0.95
   17   20    3      1.73     -0.38
   17   20    4      1.16     -1.02
   17   20    5      1.10     -2.35
   17   20    6      0.67      1.20
   17   20    7     -0.26      2.00
   17   20    8     -0.63      1.46
   17   20    9      0.82     -1.88
   17   20   10      1.85      0.16
   16   20    0      1.18      0.02
   16   20    1      0.79     -1.49
   16   20    2     -0.62      0.67
   16   20    3      0.82      0.01
   16   20    4      0.24     -3.05
   16   20    5     -0.09     -0.64
   16   20    6     -0.47      1.07
   16   20    7      0.08     -1.30
   16   20    8     -0.37      1.76
   16   20    9     -0.07     -1.80
   16   20   10     -1.45     -0.54
   15   20    0      2.39     -0.05
   15   20    1     -1.93      3.04
   15   20    2      1.58     -0.60
   15   20    3     -0.21     -0.83
   15   20    4      1.08     -1.84
   15   20    5      0.43     -0.79
   15   20    6     -0.20      0.88
   15   20    7     -0.59     -0.97
   15   20    8      0.38      1.00
   15   20    9      1.06     -0.95
   15   20   10      1.36     -1.92
   15   20   11      0.36      1.26
   14   20    0     -1.73      0.08
   14   20    1     -0.50      1.53
   14   20    2     -1.94      0.31
   14   20    3      0.70      2.15
   14   20    4     -0.82     -2.35
   14   20    5      0.88     -0.81
   14   20    6      1.75      1.99
   14   20    7      0.61      1.05
   14   20    8     -0.33      1.15
   14   20    9     -0.45     -2.00
   14   20   10      0.04      1.88
   14   20   11      0.04      0.86
   13   20    0      1.14     -0.11
   13   20    1     -0.52      1.62
   13   20    2      0.31     -1.03
   13   20    3     -0.80     -1.31
   13   20    4     -0.52     -2.66
   13   20    5      0.34      0.18
   13   20    6     -0.07     -0.89
   13   20    7      0.29     -2.42
   13   20    8     -0.10     -0.66
   13   20    9     -0.11     -0.33
   13   20   10     -0.54     -3.26
   13   20   11      0.19      0.04
   13   20   12     -1.93     -2.51
   12   20    0     -1.97      0.00
   12   20    1     -1.58      3.78
   12   20    2     -2.46     -0.30
   12   20    3      0.63      1.58
   12   20    4      0.91     -0.71
   12   20    5      1.73      0.08
   12   20    6      2.93      2.84
   12   20    7      0.86     -1.21
   12   20    8      0.48      0.42
   12   20    9     -0.19     -1.98
   12   20   10     -0.89      1.28
   12   20   11     -0.64      1.83
   12   20   12      0.05      1.02
   11   20    0     -3.07     -0.02
   11   20    1     -0.54      0.79
   11   20    2     -0.24     -0.43
   11   20    3     -0.54     -0.51
   11   20    4      1.29     -1.30
   11   20    5      0.03      0.19
   11   20    6      1.12     -0.13
   11   20    7     -0.93     -0.13
   11   20    8     -1.33     -2.77
   11   20    9     -1.01     -0.37
   11   20   10      0.25     -1.26
   11   20   11      1.15     -0.78
   11   20   12     -1.67     -3.22
   11   20   13      0.24     -0.16
   10   20    0     -0.52     -0.26
   10   20    1     -0.17      1.42
   10   20    2     -1.92     -0.67
   10   20    3      0.26     -1.61
   10   20    4      0.09      0.76
   10   20    5      0.24      0.41
   10   20    6      1.09      1.45
   10   20    7      1.47     -3.93
   10   20    8      0.20      0.00
   10   20    9     -0.81     -2.25
   10   20   10     -3.22     -2.92
   10   20   11      0.64      0.69
   10   20   12     -0.30     -1.44
   10   20   13      0.43      0.35
    9   20    0     -3.89      0.07
    9   20    1     -1.04      1.19
    9   20    2     -0.57     -0.71
    9   20    3     -1.11     -0.59
    9   20    4      3.48      0.95
    9   20    5     -0.15      0.01
    9   20    6      1.70      0.79
    9   20    7     -1.56     -0.45
    9   20    8     -0.77     -2.62
    9   20    9     -0.32     -0.55
    9   20   10      1.21      0.69
    9   20   11      1.34     -1.50
    9   20   12      0.22     -1.37
    9   20   13      0.67     -1.49
    8   20    0     -2.12     -0.30
    8   20    1      1.43     -1.50
    8   20    2     -1.43      0.74
    8   20    3      1.15     -2.14
    8   20    4     -0.16      1.78
    8   20    5     -0.85      0.32
    8   20    6     -0.72     -0.03
    8   20    7      0.96     -1.43
    8   20    8     -0.02     -0.66
    8   20    9     -1.32     -1.67
    8   20   10     -1.59     -3.90
    8   20   11      2.01     -0.51
    8   20   12      0.39     -2.95
    8   20   13      1.15      1.08
    8   20   14      0.40      0.24
    7   20    0     -2.04     -0.07
    7   20    1      1.08      0.89
    7   20    2     -0.66     -1.66
    7   20    3     -0.91     -1.99
    7   20    4      1.19      1.66
    7   20    5     -0.29      0.18
    7   20    6      0.00     -0.69
    7   20    7      0.02     -2.22
    7   20    8     -0.51     -0.72
    7   20    9     -0.44     -1.36
    7   20   10     -0.70     -1.14
    7   20   11      0.23     -1.96
    7   20   12     -0.41      1.17
    7   20   13     -0.81     -0.88
    7   20   14      0.91     -0.30
    6   20    0     -2.83     -0.16
    6   20    1      0.67     -1.25
    6   20    2     -1.17      1.46
    6   20    3      0.18     -0.26
    6   20    4      1.13      2.78
    6   20    5     -0.96      1.28
    6   20    6     -0.47     -0.84
    6   20    7     -0.60      1.15
    6   20    8      0.73     -0.82
    6   20    9     -1.88      0.01
    6   20   10      0.32     -0.86
    6   20   11      0.25     -0.89
    6   20   12      0.97     -1.51
    6   20   13      0.86      0.05
    6   20   14     -0.31     -0.21
    5   20    0     -1.53     -0.27
    5   20    1      1.49     -0.30
    5   20    2     -0.22     -0.63
    5   20    3      0.42     -1.75
    5   20    4     -0.41      0.40
    5   20    5     -1.09     -0.37
    5   20    6     -1.19     -2.11
    5   20    7      0.50     -0.64
    5   20    8      0.09      1.18
    5   20    9     -0.46     -1.34
    5   20   10     -0.32     -2.10
    5   20   11      0.12     -0.58
    5   20   12     -2.48      2.73
    5   20   13     -2.73      1.25
    5   20   14     -1.00      0.87
    4   20    0     -0.32     -0.20
    4   20    1     -0.37      0.69
    4   20    2     -0.49      0.35
    4   20    3     -1.55     -0.28
    4   20    4      0.72      4.31
    4   20    5      0.02      2.69
    4   20    6     -0.42     -0.23
    4   20    7     -0.37      0.84
    4   20    8      0.57     -0.19
    4   20    9     -2.08      1.03
    4   20   10     -0.81      1.52
    4   20   11     -1.29      0.39
    4   20   12     -0.24      1.89
    4   20   13     -0.31     -1.07
    4   20   14     -1.18      0.16
    3   20    0     -1.45     -0.23
    3   20    1      0.21     -1.67
    3   20    2     -1.36      0.52
    3   20    3     -0.51     -0.03
    3   20    4     -0.26     -0.67
    3   20    5     -1.90     -0.76
    3   20    6     -0.59     -1.95
    3   20    7     -0.28      1.32
    3   20    8      1.07      2.18
    3   20    9      0.32     -0.25
    3   20   10      1.14     -0.54
    3   20   11      1.88      0.60
    3   20   12     -2.06      2.29
    3   20   13     -1.41      1.69
    3   20   14     -0.67      0.79
    2   20    0      0.86     -0.25
    2   20    1      0.11      1.61
    2   20    2     -0.88      0.01
    2   20    3      0.96     -1.21
    2   20    4     -0.50      3.67
    2   20    5      1.75      1.70
    2   20    6     -1.05      0.47
    2   20    7      1.49      0.05
    2   20    8      0.57      0.10
    2   20    9      0.05      0.94
    2   20   10     -0.51      1.63
    2   20   11      0.07      2.15
    2   20   12     -1.59      3.55
    2   20   13     -0.76     -0.19
    2   20   14     -2.09      1.44
    1   20    0      0.42     -0.13
    1   20    1      2.70     -1.19
    1   20    2     -1.96      0.27
    1   20    3     -1.25      0.45
    1   20    4      0.48     -0.23
    1   20    5      0.11     -0.14
    1   20    6      0.89     -0.59
    1   20    7      0.22      0.95
    1   20    8      0.51      1.20
    1   20    9      0.02      0.05
    1   20   10     -0.84      0.30
    1   20   11      3.30      0.71
    1   20   12     -1.57      0.80
    1   20   13      0.16      0.53
    1   20   14      0.94      0.11
    0   20    0      0.35     -0.07
    0   20    1      0.47     -0.01
    0   20    2     -1.88      0.02
    0   20    3      3.29      0.02
    0   20    4     -1.21     -0.05
    0   20    5      2.23     -0.03
    0   20    6     -1.50      0.01
    0   20    7      2.39      0.13
    0   20    8      1.08     -0.08
    0   20    9      1.88      0.03
    0   20   10      0.79     -0.91
    0   20   11      1.48      0.05
    0   20   12     -1.60     -0.38
    0   20   13     -0.21      0.03
    0   20   14     -2.10     -0.05
   20   20    0      1.95      0.01
   20   20    1     -0.23     -0.02
   20   20    2      1.47     -0.04
   20   20    3      1.97      0.05
   20   20    4      4.46     -0.03
   20   20    5      0.98     -0.01
   20   20    6      0.39     -0.02
   20   20    7     -0.49      0.03
   20   21    0     -0.96      0.03
   20   21    1      1.42      1.82
   20   21    2     -0.58     -4.22
   20   21    3      0.80     -0.36
   20   21    4      1.65      0.42
   20   21    5      0.28     -1.59
   19   21    0      0.53      0.01
   19   21    1     -0.97      0.12
   19   21    2      1.55      0.09
   19   21    3     -0.24      0.94
   19   21    4     -1.33      1.33
   19   21    5      1.48     -0.23
   19   21    6      1.55     -1.50
   19   21    7      0.59      1.45
   18   21    0     -0.84     -0.03
   18   21    1      0.02     -0.58
   18   21    2     -1.86     -2.80
   18   21    3     -1.23     -0.56
   18   21    4      0.70      0.60
   18   21    5     -0.46     -0.49
   18   21    6     -0.78     -1.97
   18   21    7      0.27     -3.73
   18   21    8      1.07     -1.57
   17   21    0     -2.23      0.02
   17   21    1     -0.39      1.42
   17   21    2      0.29     -0.51
   17   21    3     -1.37     -0.73
   17   21    4     -0.99      2.23
   17   21    5      0.92     -1.26
   17   21    6      2.18     -2.23
   17   21    7      0.89      1.65
   17   21    8      0.24     -0.99
   17   21    9      0.17     -0.15
   16   21    0     -0.99     -0.01
   16   21    1     -0.61     -3.11
   16   21    2     -1.15     -1.03
   16   21    3     -1.71      0.04
   16   21    4     -1.30      0.35
   16   21    5      0.16      0.41
   16   21    6     -0.14     -2.58
   16   21    7      1.93     -2.28
   16   21    8      0.89     -1.31
   16   21    9     -0.53      1.11
   15   21    0     -2.84     -0.02
   15   21    1      0.92      0.78
   15   21    2     -0.56     -0.62
   15   21    3     -1.33     -2.45
   15   21    4      0.34      1.92
   15   21    5     -0.28     -0.49
   15   21    6      0.55     -3.15
   15   21    7      0.40     -1.30
   15   21    8      1.76     -1.12
   15   21    9      1.36      0.16
   15   21   10      1.93     -0.32
   14   21    0     -1.52      0.11
   14   21    1     -1.56     -2.65
   14   21    2     -0.20     -0.15
   14   21    3     -1.48      0.71
   14   21    4     -0.49      0.55
   14   21    5      0.34      0.62
   14   21    6      0.37     -1.12
   14   21    7      1.60      1.78
   14   21    8      0.40     -0.51
   14   21    9      0.52      1.19
   14   21   10     -0.06      1.88
   14   21   11      0.58     -0.01
   13   21    0     -1.11      0.00
   13   21    1      0.64     -2.27
   13   21    2      0.42     -1.18
   13   21    3     -1.07     -1.55
   13   21    4     -0.73      0.71
   13   21    5     -1.57      1.18
   13   21    6     -1.89     -3.96
   13   21    7     -0.22     -1.65
   13   21    8      1.00     -0.44
   13   21    9      0.19      0.40
   13   21   10      0.81     -1.22
   13   21   11     -0.56     -2.23
   12   21    0     -0.82      0.07
   12   21    1     -1.67     -1.61
   12   21    2     -0.55      0.30
   12   21    3     -1.10      0.04
   12   21    4      0.91      1.53
   12   21    5      0.56      0.22
   12   21    6     -0.04      0.04
   12   21    7      1.02      1.15
   12   21    8      1.10      1.56
   12   21    9      1.35      0.40
   12   21   10      0.34      2.02
   12   21   11     -0.26      0.96
   12   21   12      0.95      1.49
   11   21    0     -0.63      0.20
   11   21    1     -1.35     -3.41
   11   21    2      0.90     -1.49
   11   21    3      0.14      0.97
   11   21    4     -0.95      0.12
   11   21    5     -0.19      1.78
   11   21    6     -1.91     -1.40
   11   21    7     -0.76      2.06
   11   21    8     -0.10      0.25
   11   21    9      0.42      0.91
   11   21   10      2.33      0.69
   11   21   11      0.60     -2.04
   11   21   12      0.21     -0.54
   10   21    0      2.19     -0.09
   10   21    1      0.38     -2.45
   10   21    2      0.77     -0.01
   10   21    3      0.06     -0.93
   10   21    4     -0.16      0.98
   10   21    5      0.63     -0.49
   10   21    6     -1.00     -1.32
   10   21    7      1.96     -0.40
   10   21    8      1.04      2.18
   10   21    9      1.00     -0.92
   10   21   10     -0.09     -0.02
   10   21   11      0.26      0.74
   10   21   12      1.36      2.25
    9   21    0      0.38      0.36
    9   21    1     -2.20     -1.28
    9   21    2      0.66     -1.29
    9   21    3      0.98      1.68
    9   21    4      0.88     -0.26
    9   21    5      1.73      0.17
    9   21    6      0.81      0.52
    9   21    7     -1.67      1.43
    9   21    8      0.33     -0.30
    9   21    9      0.96      1.36
    9   21   10      2.48      1.62
    9   21   11      0.03      0.06
    9   21   12      0.21      0.46
    9   21   13     -0.09     -1.40
    8   21    0      2.29      0.01
    8   21    1     -0.07     -2.56
    8   21    2      1.45     -0.08
    8   21    3      1.05      0.29
    8   21    4     -0.27     -0.94
    8   21    5      1.12     -0.63
    8   21    6     -1.06     -1.33
    8   21    7      1.72      1.78
    8   21    8     -0.37      0.50
    8   21    9      0.76     -1.25
    8   21   10      1.00      0.03
    8   21   11      1.89      0.23
    8   21   12      1.28      0.51
    8   21   13      0.58      1.59
    7   21    0      2.12      0.27
    7   21    1     -2.15      0.27
    7   21    2      0.65     -0.99
    7   21    3     -0.42      0.23
    7   21    4      0.71     -0.85
    7   21    5      0.70     -1.88
    7   21    6      2.34     -0.08
    7   21    7     -1.64     -1.52
    7   21    8      0.45     -1.06
    7   21    9      1.56      0.87
    7   21   10      0.86     -0.74
    7   21   11      0.50      1.50
    7   21   12     -0.19      0.97
    7   21   13     -0.04     -1.49
    6   21    0     -0.16      0.22
    6   21    1     -1.85     -0.61
    6   21    2     -0.83      0.15
    6   21    3     -0.06      1.70
    6   21    4      0.23     -0.74
    6   21    5      1.94     -0.01
    6   21    6     -0.18      1.35
    6   21    7      0.67      2.09
    6   21    8     -1.47     -0.39
    6   21    9      0.88     -0.24
    6   21   10      1.27      2.22
    6   21   11      1.89     -0.54
    6   21   12      2.67     -2.02
    6   21   13      1.74     -0.67
    5   21    0      1.78      0.25
    5   21    1     -1.47     -0.46
    5   21    2      0.42      0.32
    5   21    3     -0.14     -0.18
    5   21    4     -0.03     -1.71
    5   21    5     -0.14     -2.92
    5   21    6      2.02     -0.39
    5   21    7     -0.45     -0.41
    5   21    8     -0.43     -0.83
    5   21    9      3.12     -0.01
    5   21   10      0.98     -2.36
    5   21   11      2.49      0.11
    5   21   12     -0.24     -0.09
    5   21   13     -0.03     -0.74
    4   21    0      0.17      0.14
    4   21    1     -0.25      1.37
    4   21    2     -0.40      0.01
    4   21    3     -0.58      1.13
    4   21    4      0.79      1.58
    4   21    5      2.37      0.68
    4   21    6      1.23      3.66
    4   21    7      0.87     -0.64
    4   21    8     -1.62     -0.08
    4   21    9      0.48      0.08
    4   21   10     -0.35      2.05
    4   21   11     -0.06     -0.75
    4   21   12      3.54     -2.67
    4   21   13      1.30     -2.15
    4   21   14      1.55     -0.96
    3   21    0      0.30      0.44
    3   21    1     -0.75     -1.34
    3   21    2     -0.23      1.55
    3   21    3      0.06      1.38
    3   21    4     -1.21     -1.58
    3   21    5     -0.38     -1.65
    3   21    6      0.66      0.36
    3   21    7     -0.23      1.73
    3   21    8     -1.37      0.25
    3   21    9      1.88     -0.37
    3   21   10      0.69     -1.55
    3   21   11      1.26     -2.78
    3   21   12      0.48     -2.10
    3   21   13      0.20     -0.41
    3   21   14      0.15     -0.99
    2   21    0      0.57     -0.03
    2   21    1     -0.02      1.63
    2   21    2      1.58     -0.23
    2   21    3     -0.36     -0.21
    2   21    4      1.04      1.56
    2   21    5     -0.58     -0.15
    2   21    6      1.96      2.51
    2   21    7      0.16     -2.03
    2   21    8     -0.65     -0.25
    2   21    9      0.60     -0.57
    2   21   10      0.11      0.35
    2   21   11     -2.64     -0.66
    2   21   12      2.48     -1.38
    2   21   13     -1.06     -1.31
    2   21   14      0.35      0.07
    1   21    0      0.76      0.31
    1   21    1      0.06     -0.71
    1   21    2      1.25      0.87
    1   21    3     -0.86      1.25
    1   21    4     -1.56     -0.43
    1   21    5      0.38     -0.01
    1   21    6      0.48      0.61
    1   21    7      0.28      1.12
    1   21    8     -0.87      0.50
    1   21    9     -0.83     -0.06
    1   21   10     -0.07     -0.25
    1   21   11     -0.68     -1.97
    1   21   12      1.99     -1.76
    1   21   13      0.40     -0.16
    1   21   14      1.02     -0.87
    0   21    0     -0.11      0.04
    0   21    1     -1.49      0.09
    0   21    2      1.74      0.01
    0   21    3     -0.78     -0.05
    0   21    4      0.55     -0.01
    0   21    5     -3.61     -0.03
    0   21    6      1.69      0.02
    0   21    7     -1.02     -0.08
    0   21    8      0.17      0.14
    0   21    9      1.05     -0.36
    0   21   10      1.44     -0.03
    0   21   11     -3.87     -1.85
    0   21   12      1.90     -0.01
    0   21   13     -2.05     -0.39
    0   21   14     -0.60      0.16
   21   21    0      1.58      0.00
   21   21    1     -0.52      0.01
   21   21    2      0.52     -0.02
   21   21    3      0.34      0.00
   21   21    4     -1.24      0.01
   21   22    0     -1.46     -0.04
   20   22    0      2.44     -0.01
   20   22    1     -1.29      0.74
   20   22    2      1.89     -1.17
   20   22    3      0.86     -1.07
   20   22    4      3.38     -2.01
   19   22    0     -0.37     -0.03
   19   22    1      1.21     -0.60
   19   22    2      1.50      3.09
   19   22    3      1.13     -0.57
   19   22    4     -0.18     -0.81
   19   22    5      1.63     -0.16
   18   22    0      2.66     -0.05
   18   22    1      0.25     -0.69
   18   22    2     -0.65     -0.80
   18   22    3      1.24     -0.78
   18   22    4      0.74     -3.72
   18   22    5     -0.98      0.15
   18   22    6     -1.37     -0.39
   18   22    7     -0.69     -2.91
   17   22    0      2.42      0.03
   17   22    1      0.53      2.30
   17   22    2      1.57      0.76
   17   22    3     -0.14     -0.71
   17   22    4      0.03     -1.68
   17   22    5     -0.14     -1.49
   17   22    6      0.72      0.89
   17   22    7     -0.66      2.93
   17   22    8     -0.82     -1.21
   16   22    0      1.95     -0.01
   16   22    1      1.11     -2.47
   16   22    2     -1.64     -0.07
   16   22    3      1.35      0.33
   16   22    4     -1.82     -2.94
   16   22    5     -0.79     -0.27
   16   22    6     -1.11      0.97
   16   22    7     -0.44     -1.69
   16   22    8      0.42     -1.20
   15   22    0      3.22     -0.01
   15   22    1     -0.16      2.67
   15   22    2     -0.04     -0.70
   15   22    3     -0.79     -0.97
   15   22    4     -0.31     -1.20
   15   22    5     -0.86     -1.21
   15   22    6     -0.13      0.70
   15   22    7     -0.73     -0.08
   15   22    8     -0.05     -1.62
   15   22    9      0.66     -1.89
   14   22    0      1.42      0.07
   14   22    1      1.15     -1.15
   14   22    2     -1.77      0.17
   14   22    3      0.57      0.68
   14   22    4     -1.93     -0.07
   14   22    5      0.41     -1.14
   14   22    6      1.37      4.61
   14   22    7      0.31      1.39
   14   22    8     -0.58     -0.07
   14   22    9     -0.52     -1.06
   14   22   10     -1.25      1.32
   13   22    0      2.62     -0.07
   13   22    1      0.16     -0.16
   13   22    2      0.60     -0.90
   13   22    3     -0.90     -1.50
   13   22    4     -1.26      0.32
   13   22    5     -1.81      0.38
   13   22    6      0.36      0.69
   13   22    7     -0.45     -0.92
   13   22    8      0.44     -2.35
   13   22    9     -0.94     -0.11
   13   22   10      0.28     -2.26
   12   22    0      2.21      0.04
   12   22    1      2.18      1.30
   12   22    2     -1.08     -0.70
   12   22    3      0.89     -0.29
   12   22    4     -0.55      0.73
   12   22    5      2.10     -1.00
   12   22    6      2.42      4.37
   12   22    7      1.72     -0.43
   12   22    8      0.19     -0.02
   12   22    9      0.96     -1.61
   12   22   10     -0.98      1.72
   12   22   11      0.13      2.17
   11   22    0     -0.80      0.05
   11   22    1      0.66     -1.36
   11   22    2      0.77     -1.45
   11   22    3     -0.54     -1.48
   11   22    4      0.24      0.95
   11   22    5     -1.49      2.01
   11   22    6      2.04      1.88
   11   22    7     -0.72      1.37
   11   22    8      0.47     -4.12
   11   22    9     -0.59      1.42
   11   22   10      1.20     -1.23
   11   22   11      1.05      0.71
   10   22    0      2.90     -0.05
   10   22    1      2.25      0.88
   10   22    2      0.43     -1.64
   10   22    3      0.64     -1.17
   10   22    4     -1.12     -0.31
   10   22    5      0.90      0.54
   10   22    6      0.64      1.04
   10   22    7      1.56     -2.93
   10   22    8      0.22     -0.58
   10   22    9      0.03     -2.60
   10   22   10     -0.86     -0.59
   10   22   11     -0.08      1.59
   10   22   12      1.57      1.43
    9   22    0     -4.47      0.11
    9   22    1      0.69      0.44
    9   22    2     -1.43     -2.21
    9   22    3     -0.64     -0.88
    9   22    4      1.38      0.98
    9   22    5      0.40      2.63
    9   22    6      1.84      2.30
    9   22    7     -0.48     -0.20
    9   22    8     -0.16     -3.60
    9   22    9      0.62      0.71
    9   22   10      0.02     -0.18
    9   22   11     -0.64     -0.93
    9   22   12      0.08     -1.72
    8   22    0      1.31     -0.08
    8   22    1      0.81     -1.34
    8   22    2      1.04     -0.70
    8   22    3      0.61     -1.11
    8   22    4     -0.33      0.11
    8   22    5     -0.17      2.40
    8   22    6     -0.23      1.14
    8   22    7      0.02     -0.33
    8   22    8     -0.24     -0.09
    8   22    9     -1.99     -2.01
    8   22   10      0.59     -1.29
    8   22   11     -0.03     -0.75
    8   22   12      1.56     -0.61
    7   22    0     -3.12     -0.06
    7   22    1      1.07      1.64
    7   22    2     -1.00     -2.13
    7   22    3     -0.54      0.34
    7   22    4     -0.20      0.78
    7   22    5      0.94      2.11
    7   22    6     -0.44      0.86
    7   22    7      0.33     -2.74
    7   22    8     -0.55     -0.18
    7   22    9      0.67     -0.65
    7   22   10     -1.09     -0.74
    7   22   11     -0.78     -1.35
    7   22   12     -0.01     -0.57
    6   22    0     -1.03     -0.08
    6   22    1     -0.40     -1.37
    6   22    2     -0.14      0.68
    6   22    3     -0.23     -0.68
    6   22    4      0.80      1.47
    6   22    5     -0.23      3.84
    6   22    6     -0.28      2.61
    6   22    7     -1.51      2.05
    6   22    8     -0.16      0.81
    6   22    9     -4.13      0.99
    6   22   10      0.39      0.61
    6   22   11     -1.65     -1.17
    6   22   12      1.83     -1.71
    6   22   13      0.64     -0.23
    5   22    0     -1.43     -0.07
    5   22    1      0.81      0.58
    5   22    2     -0.48     -0.92
    5   22    3      0.64      1.30
    5   22    4     -1.38     -0.85
    5   22    5      0.39      0.30
    5   22    6     -1.52     -1.28
    5   22    7     -0.03     -1.13
    5   22    8      0.00      1.91
    5   22    9      0.00     -0.83
    5   22   10      0.21     -1.54
    5   22   11      0.60     -0.52
    5   22   12     -1.46      0.67
    5   22   13     -0.82      1.69
    4   22    0     -0.52     -0.38
    4   22    1     -0.09      0.54
    4   22    2      0.11      0.07
    4   22    3     -0.97     -0.23
    4   22    4      1.27      1.11
    4   22    5      0.67      4.37
    4   22    6     -0.28      1.02
    4   22    7     -1.14      1.67
    4   22    8      0.86      0.04
    4   22    9     -3.79      3.40
    4   22   10      0.06      0.97
    4   22   11     -0.96      1.65
    4   22   12      2.05     -0.32
    4   22   13      0.97      0.22
    3   22    0     -1.04      0.13
    3   22    1      0.73     -0.73
    3   22    2     -1.70      0.65
    3   22    3      0.40      1.17
    3   22    4     -0.65     -1.43
    3   22    5      0.51     -0.33
    3   22    6     -0.84     -1.25
    3   22    7     -0.94      1.68
    3   22    8      0.47      2.15
    3   22    9     -0.88      0.30
    3   22   10      0.71     -0.76
    3   22   11      1.46     -0.77
    3   22   12     -1.99      0.24
    3   22   13      0.06      1.54
    2   22    0      0.98     -0.57
    2   22    1      0.36      1.04
    2   22    2     -0.52     -1.18
    2   22    3     -0.16     -0.43
    2   22    4      1.16     -0.90
    2   22    5      2.00      2.10
    2   22    6     -0.60     -1.83
    2   22    7     -0.38      0.40
    2   22    8      0.77     -1.86
    2   22    9     -0.77      2.29
    2   22   10      0.33     -1.18
    2   22   11      1.20      2.71
    2   22   12     -0.75      0.31
    2   22   13      0.62      0.44
    1   22    0      0.82      0.13
    1   22    1      1.74     -0.59
    1   22    2     -0.51      0.70
    1   22    3     -0.73      0.47
    1   22    4      1.80     -0.35
    1   22    5      2.25      0.18
    1   22    6      0.39     -0.08
    1   22    7     -0.59      1.48
    1   22    8      0.35      1.14
    1   22    9     -1.68      0.43
    1   22   10     -0.15      0.15
    1   22   11      2.70     -0.33
    1   22   12     -0.30     -0.09
    1   22   13      1.09      0.20
    0   22    0      0.98     -0.13
    0   22    1     -0.03     -0.13
    0   22    2     -2.32      0.07
    0   22    3      0.06      0.01
    0   22    4      0.18     -0.04
    0   22    5      1.93      0.00
    0   22    6     -1.44     -0.06
    0   22    7     -0.78      0.12
    0   22    8     -0.27     -0.23
    0   22    9      0.61     -0.07
    0   22   10     -0.11     -1.37
    0   22   11      1.46     -0.06
    0   22   12     -3.48     -0.45
    0   22   13     -0.01      0.09
   19   23    0     -0.41      0.03
   19   23    1      1.70     -0.62
   19   23    2      0.92      1.19
   19   23    3      1.40      0.68
   18   23    0      0.14     -0.05
   18   23    1      0.90     -0.89
   18   23    2     -0.15     -1.93
   18   23    3      0.21     -0.77
   18   23    4      1.34     -0.38
   18   23    5     -0.97     -1.25
   17   23    0     -0.72      0.04
   17   23    1      1.75      1.60
   17   23    2      1.02      0.98
   17   23    3     -0.18     -0.94
   17   23    4     -0.01      0.74
   17   23    5      1.24     -1.53
   17   23    6      1.87     -1.37
   16   23    0      0.07     -0.03
   16   23    1     -0.97     -2.11
   16   23    2      1.36     -0.39
   16   23    3     -1.11     -0.02
   16   23    4      0.16     -1.24
   16   23    5     -1.09     -1.19
   16   23    6     -0.25     -1.27
   16   23    7      1.19     -4.25
   15   23    0     -0.92     -0.05
   15   23    1      1.21      2.57
   15   23    2      0.01      0.55
   15   23    3     -0.55     -1.48
   15   23    4      0.38     -0.29
   15   23    5      0.23     -0.36
   15   23    6      0.08     -3.90
   15   23    7      1.31     -0.77
   15   23    8      0.81      0.09
   14   23    0      0.17      0.06
   14   23    1     -0.30     -0.43
   14   23    2      1.14      0.62
   14   23    3     -1.28      1.43
   14   23    4      0.93     -1.18
   14   23    5      0.26     -0.64
   14   23    6      0.63     -0.13
   14   23    7      1.27     -1.20
   14   23    8      1.17      1.82
   14   23    9      0.70      0.97
   13   23    0     -1.34     -0.06
   13   23    1     -0.66      0.59
   13   23    2     -0.43     -0.33
   13   23    3      0.46     -0.22
   13   23    4     -0.74     -0.94
   13   23    5     -0.48      1.84
   13   23    6     -1.85     -4.09
   13   23    7      0.71     -1.47
   13   23    8      0.77      0.31
   13   23    9      1.31     -0.24
   12   23    0      0.11     -0.02
   12   23    1      1.35      1.12
   12   23    2     -0.91      0.62
   12   23    3     -1.18      1.69
   12   23    4      1.80     -0.50
   12   23    5      1.12      0.35
   12   23    6      0.00     -0.55
   12   23    7      0.83     -0.53
   12   23    8      0.61      1.49
   12   23    9      1.38     -0.29
   12   23   10     -0.35      0.08
   11   23    0     -0.74      0.05
   11   23    1     -2.56     -1.39
   11   23    2     -0.68     -1.02
   11   23    3      0.92      1.24
   11   23    4     -0.48      0.73
   11   23    5     -0.32      2.66
   11   23    6     -1.30      0.07
   11   23    7     -0.68      0.41
   11   23    8     -0.02      1.18
   11   23    9     -0.14     -0.43
   11   23   10      0.64      0.36
   10   23    0      1.73     -0.13
   10   23    1      1.09     -0.48
   10   23    2     -0.19      0.38
   10   23    3     -1.60      0.37
   10   23    4      0.58      0.22
   10   23    5     -1.32      0.23
   10   23    6     -1.62     -2.08
   10   23    7     -0.57     -0.26
   10   23    8     -0.53      1.01
   10   23    9     -0.17     -1.42
   10   23   10     -0.57     -1.18
   10   23   11      1.60      0.51
    9   23    0     -0.14      0.01
    9   23    1     -2.09     -1.25
    9   23    2     -1.75     -1.54
    9   23    3      0.25      0.35
    9   23    4      0.01      1.70
    9   23    5      0.07      0.96
    9   23    6     -0.07      1.49
    9   23    7     -0.99     -0.07
    9   23    8      0.61      0.56
    9   23    9      0.52     -0.05
    9   23   10      0.64     -0.29
    9   23   11      0.69     -2.12
    8   23    0      2.53     -0.02
    8   23    1      0.63     -2.74
    8   23    2      1.00     -0.13
    8   23    3      0.18     -1.09
    8   23    4      0.64      0.26
    8   23    5     -1.46     -0.54
    8   23    6     -1.18     -1.69
    8   23    7     -0.56      2.23
    8   23    8     -1.31      0.13
    8   23    9     -0.39     -1.67
    8   23   10      0.52     -0.86
    8   23   11      4.15     -0.63
    7   23    0      0.54     -0.23
    7   23    1     -0.10     -0.26
    7   23    2     -0.85     -1.04
    7   23    3      0.05     -0.39
    7   23    4      0.34      1.11
    7   23    5     -0.24     -1.45
    7   23    6      0.98     -1.61
    7   23    7     -0.70     -1.45
    7   23    8      1.32     -0.83
    7   23    9      1.20     -0.23
    7   23   10      1.25     -2.56
    7   23   11      1.68     -0.44
    7   23   12      0.70     -0.79
    6   23    0      0.96     -0.26
    6   23    1      0.40     -2.03
    6   23    2     -0.39     -0.84
    6   23    3      1.03     -1.90
    6   23    4      1.17      0.65
    6   23    5      0.87     -0.07
    6   23    6      0.00      0.75
    6   23    7      0.81      2.42
    6   23    8     -2.07     -0.03
    6   23    9      0.42     -0.98
    6   23   10     -0.67      0.69
    6   23   11      2.77     -1.72
    6   23   12      0.50     -1.56
    5   23    0      0.92     -0.15
    5   23    1     -0.48     -0.60
    5   23    2      0.10      0.46
    5   23    3      0.27      0.32
    5   23    4      1.27      0.85
    5   23    5     -0.07     -3.12
    5   23    6      2.60     -3.13
    5   23    7     -0.23     -0.43
    5   23    8      0.67     -0.98
    5   23    9      1.45     -2.12
    5   23   10      1.46     -3.18
    5   23   11      1.69     -1.37
    5   23   12     -1.52      0.24
    4   23    0     -0.18     -1.25
    4   23    1     -0.96      0.55
    4   23    2     -0.57     -1.01
    4   23    3     -0.60     -0.95
    4   23    4      0.87      2.05
    4   23    5      0.97      0.92
    4   23    6      0.40      2.82
    4   23    7      1.47     -0.44
    4   23    8     -2.12      1.20
    4   23    9      0.75     -0.63
    4   23   10     -1.05      1.64
    4   23   11      0.87      0.09
    4   23   12      2.00     -1.23
    3   23    0      0.06      0.39
    3   23    1     -1.74     -1.20
    3   23    2     -0.78      1.84
    3   23    3     -0.38      0.72
    3   23    4     -0.14      2.10
    3   23    5     -0.01     -2.13
    3   23    6      2.25      0.11
    3   23    7      0.71      1.72
    3   23    8     -0.43      1.79
    3   23    9      1.17     -1.79
    3   23   10      0.02      0.31
    3   23   11      0.21     -2.84
    3   23   12     -2.35      0.74
    2   23    0      0.12     -1.67
    2   23    1     -1.24      1.44
    2   23    2     -0.24     -0.75
    2   23    3     -0.46      0.36
    2   23    4      0.45      1.91
    2   23    5     -0.66      0.31
    2   23    6      1.49      1.98
    2   23    7      1.32     -2.16
    2   23    8     -0.97      1.08
    2   23    9      1.43     -1.30
    2   23   10      0.58      0.79
    2   23   11     -0.77      1.36
    2   23   12      1.50      0.24
    1   23    0     -0.37      0.27
    1   23    1     -0.13     -0.67
    1   23    2      0.66      1.21
    1   23    3      0.73      0.43
    1   23    4     -1.00      1.64
    1   23    5      1.16     -0.21
    1   23    6      1.23      1.55
    1   23    7      2.56      1.48
    1   23    8     -0.10      2.11
    1   23    9      0.85     -0.04
    1   23   10     -0.46      1.86
    1   23   11      0.60     -1.17
    1   23   12      0.87      0.42
    0   23    0      0.25     -0.70
    0   23    1     -0.65      0.07
    0   23    2     -0.85     -0.11
    0   23    3      0.40      0.02
    0   23    4     -0.12      0.10
    0   23    5     -1.73     -0.01
    0   23    6      2.23      0.04
    0   23    7      1.05      0.03
    0   23    8     -0.30      0.05
    0   23    9      1.87     -0.23
    0   23   10      1.23     -0.05
    0   23   11     -2.16     -0.94
    0   23   12     -0.12      0.05
   18   24    0      1.29     -0.06
   18   24    1     -1.53     -0.05
   18   24    2     -1.43     -1.95
   18   24    3      0.18      0.14
   17   24    0      0.30      0.11
   17   24    1     -0.39      1.44
   17   24    2     -0.35      0.84
   17   24    3     -2.48     -0.70
   17   24    4      0.02      1.02
   17   24    5     -0.25     -1.32
   16   24    0     -0.02     -0.03
   16   24    1     -0.11     -2.32
   16   24    2     -1.55     -1.02
   16   24    3      0.92     -0.15
   16   24    4     -2.88     -1.05
   16   24    5     -0.18     -0.10
   16   24    6     -1.84     -0.24
   15   24    0      0.77      0.03
   15   24    1      0.57      1.33
   15   24    2     -1.13     -1.25
   15   24    3     -2.11     -0.68
   15   24    4     -0.61      0.71
   15   24    5     -1.17      1.11
   15   24    6     -0.21     -1.35
   15   24    7     -1.17      2.96
   14   24    0      1.68      0.08
   14   24    1      1.25     -2.24
   14   24    2      0.01      0.33
   14   24    3     -0.17     -0.18
   14   24    4     -2.02      1.41
   14   24    5     -0.04     -1.37
   14   24    6      0.04      2.75
   14   24    7     -0.70      0.62
   14   24    8     -0.69     -0.09
   13   24    0     -1.13     -0.03
   13   24    1     -0.77     -1.09
   13   24    2      0.08     -1.83
   13   24    3     -1.33     -1.65
   13   24    4     -1.66      0.79
   13   24    5     -2.86      1.73
   13   24    6     -0.15     -0.91
   13   24    7     -1.79      2.38
   13   24    8      0.76     -2.61
   12   24    0      3.19      0.09
   12   24    1      1.11     -0.75
   12   24    2      0.64      0.31
   12   24    3     -1.82     -0.57
   12   24    4     -1.65      1.79
   12   24    5      0.27     -1.03
   12   24    6     -0.91      2.51
   12   24    7      0.13      0.44
   12   24    8     -1.77      0.31
   12   24    9      1.42     -0.91
   11   24    0     -3.22      0.09
   11   24    1     -0.86     -2.60
   11   24    2      0.67     -1.15
   11   24    3      0.37     -2.43
   11   24    4     -0.72      2.14
   11   24    5     -1.72      0.58
   11   24    6      1.08      2.39
   11   24    7     -1.13      2.92
   11   24    8      1.05     -1.70
   11   24    9     -1.26      3.02
   10   24    0      2.28      0.07
   10   24    1      0.88     -0.26
   10   24    2      1.72     -0.32
   10   24    3     -0.12     -0.76
   10   24    4     -1.86     -0.47
   10   24    5      1.11     -0.54
   10   24    6     -2.26      0.55
   10   24    7      0.39     -0.42
   10   24    8     -2.61      0.54
   10   24    9      0.32     -1.60
   10   24   10      0.59      0.92
    9   24    0     -3.02      0.16
    9   24    1     -0.03     -0.93
    9   24    2     -0.27     -1.28
    9   24    3      0.08     -1.58
    9   24    4      0.36      1.64
    9   24    5      0.76      0.43
    9   24    6      0.90      3.19
    9   24    7      0.17      1.30
    9   24    8      0.08     -1.55
    9   24    9      1.05      2.72
    9   24   10      0.62     -0.87
    8   24    0      0.68      0.32
    8   24    1      0.04     -1.02
    8   24    2      1.88     -0.19
    8   24    3      1.58     -0.32
    8   24    4     -0.71     -1.44
    8   24    5      1.29     -0.20
    8   24    6     -1.25      1.69
    8   24    7     -0.93      0.59
    8   24    8     -2.69      0.86
    8   24    9     -2.38     -1.15
    8   24   10      1.01      0.94
    8   24   11     -0.83     -0.03
    7   24    0     -1.68      0.09
    7   24    1     -1.15      1.62
    7   24    2     -0.16     -0.98
    7   24    3     -1.38      1.33
    7   24    4     -0.19     -0.43
    7   24    5      0.94      0.31
    7   24    6     -0.41      0.55
    7   24    7      0.00     -1.44
    7   24    8     -1.07     -0.68
    7   24    9      1.02      1.04
    7   24   10     -0.62     -0.96
    7   24   11     -0.77     -0.81
    6   24    0     -0.44      0.58
    6   24    1     -0.62     -1.23
    6   24    2      0.06     -0.03
    6   24    3     -0.41     -1.22
    6   24    4     -0.67     -1.23
    6   24    5     -0.05      1.32
    6   24    6     -1.09      3.82
    6   24    7     -1.69      2.06
    6   24    8     -1.78      0.75
    6   24    9     -2.59      2.49
    6   24   10      0.33      1.53
    6   24   11     -1.51     -0.52
    5   24    0      0.07      0.62
    5   24    1     -0.27      1.27
    5   24    2      0.41      0.37
    5   24    3      0.37      2.99
    5   24    4     -0.26     -1.20
    5   24    5      1.18     -1.10
    5   24    6      0.34     -0.83
    5   24    7     -0.33     -1.04
    5   24    8     -0.41      0.81
    5   24    9     -0.01     -0.21
    5   24   10      0.32     -0.73
    5   24   11     -0.05     -1.90
    4   24    0     -0.38      0.17
    4   24    1      0.62      0.03
    4   24    2      0.24      0.05
    4   24    3     -1.20     -1.20
    4   24    4     -0.46     -1.79
    4   24    5     -0.18      3.01
    4   24    6     -1.59      2.29
    4   24    7     -1.01      2.10
    4   24    8     -0.85     -0.66
    4   24    9     -1.79      5.33
    4   24   10     -0.16      0.48
    4   24   11     -0.09      0.89
    3   24    0      0.52      1.60
    3   24    1      2.09     -0.69
    3   24    2     -0.27      0.93
    3   24    3      0.97      0.73
    3   24    4     -0.66     -0.94
    3   24    5      1.25     -1.84
    3   24    6      1.28      0.10
    3   24    7     -0.27      1.30
    3   24    8      0.92      1.72
    3   24    9     -1.28      1.02
    3   24   10      0.10     -0.13
    3   24   11     -1.07     -2.99
    3   24   12     -0.75     -1.39
    2   24    0      1.53     -0.23
    2   24    1      0.51      0.71
    2   24    2      0.28     -0.08
    2   24    3     -1.07      0.14
    2   24    4      0.03     -2.23
    2   24    5      0.54      2.07
    2   24    6     -0.23     -1.05
    2   24    7     -0.35      0.39
    2   24    8     -0.19     -2.65
    2   24    9     -1.26      2.73
    2   24   10     -0.20     -2.17
    2   24   11      0.66      0.88
    2   24   12      1.11     -1.70
    1   24    0     -0.91      1.24
    1   24    1      2.13     -0.77
    1   24    2      0.05      0.36
    1   24    3     -0.99     -0.64
    1   24    4     -0.49     -0.38
    1   24    5      1.04     -0.77
    1   24    6      1.23      0.48
    1   24    7      0.01      1.23
    1   24    8      1.96      1.11
    1   24    9     -2.65      1.18
    1   24   10     -0.02      0.40
    1   24   11     -1.22     -1.56
    1   24   12      1.59     -1.03
    0   24    0      2.97      0.22
    0   24    1     -0.55     -0.20
    0   24    2     -0.68      0.00
    0   24    3     -1.71     -0.01
    0   24    4     -0.36      0.01
    0   24    5      0.45      0.05
    0   24    6      0.90      0.02
    0   24    7     -0.24     -0.02
    0   24    8      0.16     -0.06
    0   24    9     -0.90      0.08
    0   24   10     -0.30     -0.83
    0   24   11      0.26     -0.25
    0   24   12     -1.59     -0.25
   17   25    0      1.59      0.04
   17   25    1      2.99      1.64
   17   25    2      0.14      2.34
   16   25    0      2.14     -0.05
   16   25    1      0.47      0.02
   16   25    2      1.92      0.45
   16   25    3      0.39      1.12
   16   25    4     -0.74     -3.24
   15   25    0      1.64     -0.06
   15   25    1      1.15      2.02
   15   25    2     -1.03      1.63
   15   25    3     -0.42     -0.30
   15   25    4     -0.90     -0.01
   15   25    5     -0.63     -0.59
   14   25    0      2.42      0.00
   14   25    1      0.90      0.46
   14   25    2      1.40      1.50
   14   25    3      0.06      2.27
   14   25    4      0.28     -1.47
   14   25    5     -0.60     -2.63
   14   25    6      0.13      2.09
   13   25    0     -0.06     -0.08
   13   25    1      0.37      0.62
   13   25    2     -0.89     -0.23
   13   25    3      2.45     -0.16
   13   25    4     -1.24     -0.16
   13   25    5      0.22      1.56
   13   25    6     -0.44     -0.21
   13   25    7      1.88     -0.92
   12   25    0      4.29     -0.04
   12   25    1      2.61      1.00
   12   25    2      0.49      0.56
   12   25    3     -2.22      2.85
   12   25    4      1.52      0.03
   12   25    5     -0.61      1.30
   12   25    6     -0.31      1.11
   12   25    7      0.03     -1.59
   12   25    8      0.76     -0.10
   11   25    0      0.25      0.03
   11   25    1      0.34     -0.82
   11   25    2     -0.67     -2.32
   11   25    3      3.36      0.87
   11   25    4     -0.90      0.23
   11   25    5     -0.02      3.13
   11   25    6      1.34      2.26
   11   25    7      0.82     -0.58
   11   25    8      2.15      1.56
   10   25    0      2.64      0.04
   10   25    1      2.38      0.31
   10   25    2      0.58     -0.92
   10   25    3     -2.51      1.78
   10   25    4      1.54     -0.64
   10   25    5     -1.97      3.98
   10   25    6     -0.53     -1.73
   10   25    7     -1.26     -0.24
   10   25    8      0.08     -2.02
   10   25    9      0.02     -2.32
    9   25    0      1.89     -0.13
    9   25    1     -0.06     -0.89
    9   25    2     -1.32     -3.13
    9   25    3     -0.25      0.60
    9   25    4     -0.36      1.03
    9   25    5     -1.54      4.25
    9   25    6      1.08      2.07
    9   25    7     -0.95     -0.92
    9   25    8      2.98      0.34
    9   25    9      1.06     -1.24
    8   25    0     -0.05      0.24
    8   25    1      1.67     -1.74
    8   25    2      0.39     -1.43
    8   25    3      0.33     -0.55
    8   25    4      0.68     -0.36
    8   25    5     -1.61      3.00
    8   25    6     -0.40     -0.61
    8   25    7     -1.35      1.62
    8   25    8     -0.81     -0.40
    8   25    9     -0.89     -2.92
    8   25   10     -0.39     -0.31
    7   25    0      1.39     -0.69
    7   25    1      0.43     -0.08
    7   25    2     -0.35     -1.38
    7   25    3     -0.84      0.03
    7   25    4      1.22      1.22
    7   25    5     -0.74      2.64
    7   25    6      1.04     -1.15
    7   25    7     -1.13     -1.23
    7   25    8      2.33     -0.47
    7   25    9     -0.11     -1.56
    7   25   10      0.88     -3.62
    6   25    0      0.00     -0.37
    6   25    1      1.31     -2.01
    6   25    2     -0.59     -1.96
    6   25    3      0.40     -2.58
    6   25    4     -0.88     -0.08
    6   25    5     -0.90      1.95
    6   25    6     -1.44      1.85
    6   25    7     -0.71      2.06
    6   25    8     -1.65      1.81
    6   25    9     -0.14     -1.68
    6   25   10     -1.16      0.53
    5   25    0      0.79     -0.72
    5   25    1      0.73     -0.51
    5   25    2      0.47      0.50
    5   25    3      1.24      0.69
    5   25    4      2.29      1.45
    5   25    5      1.25     -0.72
    5   25    6      2.41     -3.26
    5   25    7     -0.25     -0.03
    5   25    8      1.26      0.13
    5   25    9     -1.38     -2.55
    5   25   10      0.90     -3.54
    4   25    0      0.20     -2.46
    4   25    1      0.23      0.54
    4   25    2     -0.31     -1.77
    4   25    3     -0.78     -1.11
    4   25    4      0.04     -0.56
    4   25    5     -0.14      1.89
    4   25    6     -1.38      1.47
    4   25    7     -0.23     -0.23
    4   25    8     -1.85      2.28
    4   25    9      0.31     -1.15
    4   25   10     -0.95      0.85
    3   25    0      1.47      0.00
    3   25    1      0.41     -1.65
    3   25    2      0.26      0.33
    3   25    3      0.86      0.15
    3   25    4      1.09      1.34
    3   25    5      1.60     -1.97
    3   25    6      1.69     -2.46
    3   25    7      0.51      1.83
    3   25    8      0.41      0.92
    3   25    9      0.19     -1.25
    3   25   10      0.11     -1.21
    3   25   11      0.02     -0.76
    2   25    0      1.31     -3.50
    2   25    1     -0.03      1.75
    2   25    2     -0.28     -0.84
    2   25    3     -0.09      1.33
    2   25    4      1.99     -0.43
    2   25    5     -0.02      1.07
    2   25    6     -0.06     -0.09
    2   25    7     -0.67     -2.07
    2   25    8     -2.20      0.87
    2   25    9      0.94     -2.42
    2   25   10      0.19     -0.15
    2   25   11      1.81      1.26
    1   25    0      0.05     -0.05
    1   25    1     -0.16     -1.17
    1   25    2      0.71     -0.03
    1   25    3     -0.10     -0.35
    1   25    4      0.28      0.52
    1   25    5      1.56     -0.79
    1   25    6     -1.06     -0.66
    1   25    7      0.58      1.43
    1   25    8     -0.86      0.73
    1   25    9      1.69      0.27
    1   25   10     -1.00      0.35
    1   25   11      0.81     -0.15
    0   25    0      2.22     -1.54
    0   25    1      0.22      0.00
    0   25    2     -1.20     -0.19
    0   25    3      0.31      0.08
    0   25    4      1.95      0.08
    0   25    5     -0.79     -0.02
    0   25    6      0.26      0.01
    0   25    7     -1.41      0.15
    0   25    8     -2.82     -0.04
    0   25    9      1.44     -0.08
    0   25   10      0.40     -0.21
    0   25   11      1.41      0.02
   15   26    0     -0.26      0.01
   15   26    1      0.90      0.68
   15   26    2     -0.63     -1.13
   15   26    3     -2.60     -1.26
   14   26    0      1.79      0.04
   14   26    1      1.04     -0.51
   14   26    2      2.05      0.92
   14   26    3      0.16     -0.78
   14   26    4     -0.02     -0.21
   13   26    0     -2.97     -0.02
   13   26    1      0.64      0.78
   13   26    2     -0.16     -1.70
   13   26    3      0.29     -1.41
   13   26    4      0.09     -0.29
   13   26    5     -0.25      2.58
   12   26    0      2.77     -0.01
   12   26    1      0.18      0.32
   12   26    2      0.61      1.92
   12   26    3     -2.44     -0.45
   12   26    4      0.38      1.28
   12   26    5      0.11     -0.92
   12   26    6     -2.61     -0.16
   11   26    0     -4.43      0.04
   11   26    1     -0.79     -0.58
   11   26    2     -0.57     -0.45
   11   26    3      2.14     -2.62
   11   26    4     -1.12      1.27
   11   26    5      0.11     -1.42
   11   26    6      0.14      1.27
   11   26    7     -0.51      3.18
   10   26    0     -0.06     -0.04
   10   26    1     -0.67      0.61
   10   26    2     -0.19      1.90
   10   26    3     -0.91     -0.70
   10   26    4     -0.73      0.99
   10   26    5      1.24     -1.28
   10   26    6     -3.94      0.00
   10   26    7     -0.34      0.49
    9   26    0     -0.11     -0.09
    9   26    1     -1.28     -0.95
    9   26    2     -0.64      0.38
    9   26    3     -0.52     -2.80
    9   26    4     -0.96      2.99
    9   26    5     -0.43     -3.39
    9   26    6     -0.92      2.79
    9   26    7     -0.49      1.63
    9   26    8     -0.33      0.70
    8   26    0     -2.65      0.30
    8   26    1     -0.21     -0.86
    8   26    2     -0.76      0.43
    8   26    3      1.93     -1.49
    8   26    4     -2.34     -0.25
    8   26    5      1.45     -3.20
    8   26    6     -3.00      1.51
    8   26    7      0.45      1.74
    8   26    8     -4.18      1.41
    7   26    0      2.59     -0.35
    7   26    1     -1.16      0.68
    7   26    2      0.85      0.32
    7   26    3     -1.14     -0.27
    7   26    4      1.60      1.80
    7   26    5      0.70     -2.52
    7   26    6      0.05      0.12
    7   26    7      0.09     -0.12
    7   26    8     -0.86     -0.26
    7   26    9      0.33      1.71
    6   26    0     -1.40      0.72
    6   26    1      0.48     -1.72
    6   26    2     -1.02     -0.80
    6   26    3      0.32     -2.65
    6   26    4     -2.42     -0.85
    6   26    5     -0.32     -2.38
    6   26    6     -2.13      2.78
    6   26    7     -0.75      1.97
    6   26    8     -2.40      0.09
    6   26    9     -0.63      3.16
    5   26    0      1.26      0.39
    5   26    1     -1.24      0.48
    5   26    2      0.79     -0.37
    5   26    3      0.98      0.87
    5   26    4      2.25      0.36
    5   26    5      1.99     -2.99
    5   26    6      1.61     -1.14
    5   26    7      0.83     -0.62
    5   26    8     -0.75      0.17
    5   26    9     -0.46     -0.38
    4   26    0     -0.83      0.31
    4   26    1     -0.66     -0.26
    4   26    2     -0.53      0.07
    4   26    3     -1.84     -2.23
    4   26    4     -0.83     -1.15
    4   26    5     -0.95      0.30
    4   26    6     -1.35      2.61
    4   26    7     -1.19      0.86
    4   26    8     -1.17     -0.91
    4   26    9     -0.32      3.80
    3   26    0     -0.46      1.99
    3   26    1      0.11     -0.95
    3   26    2     -0.59     -0.63
    3   26    3      0.73     -1.01
    3   26    4     -0.61      0.68
    3   26    5      1.03     -3.33
    3   26    6      1.59      0.85
    3   26    7      1.10      0.34
    3   26    8      1.40      1.52
    3   26    9     -0.63      0.38
    3   26   10      0.38      1.23
    2   26    0      1.43     -0.12
    2   26    1     -0.70      0.65
    2   26    2      0.07      0.81
    2   26    3     -0.35     -0.47
    2   26    4     -0.09     -0.90
    2   26    5      0.28      1.15
    2   26    6      0.85      1.68
    2   26    7      0.80     -0.08
    2   26    8      0.26     -0.24
    2   26    9     -0.17      1.61
    2   26   10      0.52      0.55
    1   26    0     -2.36      1.71
    1   26    1      2.61     -0.67
    1   26    2      0.05     -0.19
    1   26    3      0.26     -1.12
    1   26    4     -1.36      0.65
    1   26    5      1.02     -1.32
    1   26    6      2.26      1.19
    1   26    7      2.00      0.66
    1   26    8      4.88      1.29
    1   26    9     -0.88      1.13
    1   26   10      2.02      1.23
    0   26    0      4.23      0.34
    0   26    1      0.33     -0.28
    0   26    2      0.38     -0.03
    0   26    3      1.21      0.01
    0   26    4     -0.41      0.03
    0   26    5      1.03      0.02
    0   26    6      2.37      0.05
    0   26    7      2.32     -0.05
    0   26    8      1.32      0.07
    0   26    9      0.28      0.07
    0   26   10      1.24     -0.05
   14   27    0      2.14      0.02
   13   27    0     -0.62      0.01
   13   27    1     -0.13     -1.05
   13   27    2     -0.34     -0.66
   13   27    3      1.37     -0.21
   12   27    0      3.45      0.02
   12   27    1      0.37     -1.21
   12   27    2      1.12      0.33
   12   27    3     -2.29      2.24
   12   27    4      0.64      0.31
   11   27    0     -0.44      0.20
   11   27    1     -0.73     -2.01
   11   27    2      1.01     -2.54
   11   27    3      2.31      0.57
   11   27    4     -2.00     -0.59
   11   27    5     -1.93      1.46
   10   27    0      0.14      0.43
   10   27    1      0.35     -0.58
   10   27    2      1.07     -0.42
   10   27    3     -2.11      2.36
   10   27    4      1.66     -0.30
   10   27    5     -1.77      4.65
   10   27    6     -0.97     -0.55
    9   27    0      2.26      0.12
    9   27    1     -0.13     -1.16
    9   27    2      1.09     -2.70
    9   27    3      0.11      1.55
    9   27    4      0.18     -1.13
    9   27    5     -2.25      3.47
    9   27    6      1.46      1.48
    8   27    0     -3.89      1.18
    8   27    1     -0.93     -0.57
    8   27    2      0.14     -1.48
    8   27    3     -0.03      1.37
    8   27    4     -0.66     -2.85
    8   27    5     -1.65      4.38
    8   27    6     -1.07     -0.43
    8   27    7     -1.34      1.81
    7   27    0      1.35     -0.32
    7   27    1     -0.15      0.98
    7   27    2      0.49     -0.04
    7   27    3     -1.05      2.29
    7   27    4      2.05     -0.72
    7   27    5     -1.53      4.03
    7   27    6      0.98     -0.72
    7   27    7     -2.78     -0.89
    6   27    0     -1.95      0.82
    6   27    1     -0.41     -0.44
    6   27    2     -0.32     -1.24
    6   27    3     -0.58      0.11
    6   27    4     -3.07     -3.44
    6   27    5     -2.26      2.43
    6   27    6     -1.92      0.78
    6   27    7     -1.46      0.99
    6   27    8     -1.37      1.58
    5   27    0      0.12     -0.27
    5   27    1      0.59      0.26
    5   27    2      0.43      0.79
    5   27    3      1.13      1.40
    5   27    4      1.44     -1.16
    5   27    5     -0.21      0.89
    5   27    6      1.32     -3.27
    5   27    7     -0.43      0.80
    5   27    8      0.48      0.42
    4   27    0      0.71     -1.40
    4   27    1      1.41      0.79
    4   27    2      0.58      0.23
    4   27    3     -0.98      0.73
    4   27    4     -1.52     -2.36
    4   27    5     -1.88      1.96
    4   27    6     -1.54      0.60
    4   27    7     -1.53     -0.51
    4   27    8     -1.45      2.06
    3   27    0      1.35      0.40
    3   27    1      1.31     -1.51
    3   27    2      1.06     -0.30
    3   27    3      1.34      0.02
    3   27    4      0.00     -1.23
    3   27    5      0.10     -1.34
    3   27    6      1.00     -4.43
    3   27    7      0.71      1.89
    3   27    8      0.05     -1.17
    2   27    0      1.36     -2.77
    2   27    1      0.73      0.71
    2   27    2      0.16      0.07
    2   27    3     -0.16      0.86
    2   27    4      0.66     -1.88
    2   27    5     -0.99      0.73
    2   27    6     -0.62     -0.91
    2   27    7     -1.02     -1.46
    2   27    8     -3.16      0.78
    2   27    9     -0.46     -1.30
    1   27    0     -0.02      0.21
    1   27    1     -0.84     -0.98
    1   27    2      1.20     -0.29
    1   27    3     -1.61     -0.15
    1   27    4     -0.44     -0.41
    1   27    5     -0.51     -0.66
    1   27    6     -0.53     -2.18
    1   27    7     -0.26      0.97
    1   27    8     -0.77     -1.06
    1   27    9      0.62      0.81
    0   27    0      1.91     -1.27
    0   27    1     -0.38      0.03
    0   27    2     -0.66     -0.21
    0   27    3      0.17      0.05
    0   27    4      0.96      0.04
    0   27    5     -0.78     -0.05
    0   27    6     -0.37      0.03
    0   27    7     -0.67      0.01
    0   27    8     -4.37      0.04
    0   27    9     -0.27      0.00
   11   28    0     -1.45      0.01
   11   28    1      1.18      1.16
   11   28    2     -0.28     -1.41
   10   28    0     -1.00     -0.27
   10   28    1      0.92      1.42
   10   28    2     -1.52      1.24
   10   28    3     -0.23     -1.38
   10   28    4      1.25      1.83
    9   28    0      2.06     -0.51
    9   28    1      1.46     -0.27
    9   28    2     -0.27     -0.76
    9   28    3      1.41     -2.66
    9   28    4      0.02      2.09
    9   28    5      1.19     -2.39
    8   28    0     -3.31     -0.11
    8   28    1     -0.41     -0.42
    8   28    2     -1.37     -0.34
    8   28    3      0.67     -2.89
    8   28    4     -1.46      1.45
    8   28    5      1.10     -1.65
    7   28    0      2.73     -1.20
    7   28    1      0.66     -0.29
    7   28    2     -0.07      0.27
    7   28    3      0.10     -1.95
    7   28    4      2.23      4.39
    7   28    5      1.48     -1.48
    7   28    6     -0.28      1.81
    6   28    0     -1.79      0.06
    6   28    1      0.19     -1.77
    6   28    2     -0.73     -1.42
    6   28    3      0.08     -3.53
    6   28    4     -1.47      1.27
    6   28    5      0.82     -2.27
    6   28    6     -1.02      3.15
    5   28    0      0.72     -0.68
    5   28    1     -1.46     -0.27
    5   28    2     -0.13     -1.10
    5   28    3      0.48     -1.59
    5   28    4      2.17      2.66
    5   28    5      2.37     -1.89
    5   28    6     -0.44      0.83
    5   28    7      0.91      0.79
    4   28    0     -0.85     -0.38
    4   28    1      0.12     -0.34
    4   28    2     -0.95     -0.18
    4   28    3     -1.52     -1.63
    4   28    4     -0.12      1.15
    4   28    5      0.47      0.11
    4   28    6     -0.93      3.60
    4   28    7     -2.08      0.44
    3   28    0     -0.28      0.64
    3   28    1     -0.38     -0.04
    3   28    2     -0.11     -1.84
    3   28    3      0.46     -1.57
    3   28    4      0.98      0.82
    3   28    5      2.56     -2.58
    3   28    6      0.08      0.80
    3   28    7      1.70      0.16
    2   28    0      1.26     -0.63
    2   28    1      0.12      0.30
    2   28    2     -0.63      0.10
    2   28    3     -0.12     -0.47
    2   28    4      0.70     -0.34
    2   28    5      0.69      0.72
    2   28    6     -0.28      1.83
    2   28    7     -1.12      0.08
    1   28    0     -2.19      0.76
    1   28    1      2.45      0.20
    1   28    2     -0.47     -0.50
    1   28    3     -1.14     -0.54
    1   28    4     -0.27      0.48
    1   28    5      0.69     -1.06
    1   28    6     -0.54      0.69
    1   28    7      0.02      0.03
    0   28    0      3.40     -0.03
    0   28    1      0.60     -0.25
    0   28    2     -0.16      0.07
    0   28    3      1.57      0.04
    0   28    4      0.83     -0.03
    0   28    5      0.99      0.00
    0   28    6      0.43     -0.04
    0   28    7      0.06      0.06
    9   29    0      1.88      0.27
    9   29    1     -0.95     -1.16
    8   29    0     -2.11      1.53
    8   29    1     -2.78     -0.10
    8   29    2      0.56     -0.08
    7   29    0      0.95      0.08
    7   29    1      0.72      0.59
    7   29    2     -0.05      0.60
    7   29    3      0.41      2.23
    6   29    0      0.06      1.59
    6   29    1     -0.78      0.20
    6   29    2      1.27     -0.75
    6   29    3      0.22      1.52
    6   29    4     -1.49     -4.46
    5   29    0      0.04      0.27
    5   29    1      0.39      0.45
    5   29    2      0.22      0.59
    5   29    3      1.34      0.97
    5   29    4      1.18     -2.01
    5   29    5     -1.80      0.17
    4   29    0      0.29      0.19
    4   29    1      0.52     -0.13
    4   29    2      0.43      0.61
    4   29    3     -0.05      0.98
    4   29    4     -1.50     -2.17
    4   29    5     -1.50      0.76
    3   29    0      0.69      0.75
    3   29    1     -0.44     -0.57
    3   29    2      1.10     -0.37
    3   29    3      1.33     -0.38
    3   29    4      0.31     -1.81
    3   29    5     -1.44     -1.14
    2   29    0      0.72     -0.79
    2   29    1     -0.14     -0.88
    2   29    2      0.27      0.70
    2   29    3      0.95     -0.09
    2   29    4     -1.03     -0.28
    2   29    5     -0.74      0.21
    1   29    0      0.53      0.47
    1   29    1     -0.55     -0.30
    1   29    2      1.27     -0.18
    1   29    3     -0.11     -0.11
    1   29    4     -0.86     -0.32
    1   29    5     -1.00     -0.38
    0   29    0      2.12     -0.40
    0   29    1     -0.48      0.05
    0   29    2      1.05     -0.10
    0   29    3      2.49     -0.01
    0   29    4     -0.07      0.03
    0   29    5      0.79     -0.02
    5   30    0     -0.63     -0.74
    4   30    0     -1.15     -0.39
    4   30    1      0.62     -0.15
    3   30    0     -0.34     -0.16
    3   30    1     -0.21      0.81
    3   30    2      0.08     -0.67
    2   30    0     -0.05     -0.53
    2   30    1      0.45     -0.11
    2   30    2     -0.80      0.03
    1   30    0     -2.42      0.03
    1   30    1      1.34      0.62
    1   30    2     -1.00     -0.32
    1   30    3     -2.39     -0.15
    0   30    0      0.84     -0.15
    0   30    1     -0.38     -0.03
    0   30    2     -0.41      0.06
    0   30    3     -0.07      0.05
    0    1    0     16.84     -0.04
    1    1    0   -202.69      0.04
   22   22    0      0.46      0.00
   20   23    0      0.15      0.00
   21   23    0      1.76      0.00
   22   23    0     -0.67     -0.01
   23   23    0      2.37     -0.01
   19   24    0     -0.63      0.03
   20   24    0      1.22     -0.01
   21   24    0     -0.57      0.00
   22   24    0     -0.63      0.01
   23   24    0     -0.39      0.02
   18   25    0      2.54     -0.09
   19   25    0      0.30      0.04
   20   25    0      0.94     -0.05
   21   25    0      0.77      0.00
   22   25    0     -0.39     -0.03
   16   26    0      0.31     -0.02
   17   26    0     -0.72      0.11
   18   26    0      0.39     -0.03
   19   26    0     -0.63      0.08
   20   26    0      0.59      0.01
   21   26    0      0.35      0.02
   15   27    0      0.98     -0.05
   16   27    0      1.29      0.00
   17   27    0      1.11      0.01
   18   27    0      1.80     -0.05
   19   27    0      0.29      0.01
   20   27    0      1.08     -0.04
   12   28    0      2.35     -0.13
   13   28    0     -2.08     -0.02
   14   28    0      1.93      0.01
   15   28    0     -0.39     -0.02
   16   28    0      0.86      0.01
   17   28    0      0.09      0.06
   18   28    0      0.64      0.02
   10   29    0     -1.64      0.50
   11   29    0     -0.19      0.24
   12   29    0      0.92      0.01
   13   29    0     -1.19      0.02
   14   29    0      1.31      0.04
   15   29    0      0.18     -0.06
   16   29    0      0.25      0.03
   17   29    0      0.46     -0.02
    6   30    0     -1.79     -0.04
    7   30    0     -0.87     -0.89
    8   30    0     -2.52     -0.07
    9   30    0      0.17     -0.36
   10   30    0     -1.61     -0.16
   11   30    0     -0.30      0.04
   12   30    0      0.71     -0.07
   13   30    0     -1.06      0.02
   14   30    0      1.10      0.03
   15   30    0     -0.41     -0.03
    0    0    1    -31.85     -0.27
    0    1    1     84.51     -0.14
   21   22    1      1.60     -1.63
   22   22    1     -2.01     -0.02
   20   23    1      1.55      0.88
   21   23    1      1.28     -0.77
   22   23    1      0.80      0.66
   23   23    1      0.16      0.03
   19   24    1     -0.91     -0.14
   20   24    1     -2.17      1.40
   21   24    1      0.53     -0.58
   22   24    1     -1.35      0.65
   23   24    1      0.58      0.04
   18   25    1      1.39      0.30
   19   25    1      3.08      0.06
   20   25    1      0.99      0.53
   21   25    1      1.59     -0.47
   22   25    1      0.02      0.12
   16   26    1      0.14     -0.73
   17   26    1      0.18     -0.12
   18   26    1     -1.08     -0.11
   19   26    1     -0.10     -0.45
   20   26    1     -0.76      0.64
   21   26    1      0.04     -0.10
   14   27    1      0.33     -0.41
   15   27    1      0.75     -0.04
   16   27    1      0.39      0.70
   17   27    1      1.36      0.77
   18   27    1     -0.05      0.86
   19   27    1      1.39      0.60
   20   27    1     -0.10      0.41
   12   28    1      1.74      1.16
   13   28    1      1.34      1.75
   14   28    1      0.37      0.91
   15   28    1      1.26      0.67
   16   28    1      0.05      0.67
   17   28    1      1.16     -0.17
   18   28    1      0.25      0.28
   10   29    1     -2.02     -0.90
   11   29    1     -2.36     -1.53
   12   29    1     -0.46     -1.27
   13   29    1     -0.72     -0.97
   14   29    1     -0.02     -0.48
   15   29    1      0.77     -0.47
   16   29    1     -0.28      0.11
   17   29    1      0.25      0.08
    5   30    1     -1.18      0.11
    6   30    1     -0.85     -0.34
    7   30    1      0.54     -0.18
    8   30    1     -0.72      0.36
    9   30    1      1.92     -0.02
   10   30    1      0.87      0.61
   11   30    1      1.07      0.52
   12   30    1      0.90      0.13
   13   30    1      0.53      0.60
   14   30    1     -0.15      0.09
   15   30    1      0.65      0.32
   21   22    2      0.16      3.12
   22   22    2      2.65     -0.02
   20   23    2     -0.24     -2.21
   21   23    2      0.32      1.09
   22   23    2      0.00     -0.99
   23   23    2      0.17     -0.01
   19   24    2      0.85      2.05
   20   24    2      0.11     -1.92
   21   24    2      0.26      1.31
   22   24    2      0.74     -0.99
   23   24    2     -0.26     -0.09
   18   25    2      0.62     -0.53
   19   25    2      0.56      2.01
   20   25    2     -0.13     -0.42
   21   25    2      0.52      1.22
   22   25    2      0.17      0.25
   16   26    2      1.47     -0.73
   17   26    2      0.06      0.48
   18   26    2     -0.44     -1.86
   19   26    2      1.08      1.06
   20   26    2     -0.59     -1.29
   21   26    2      0.50      0.56
   14   27    2      1.42      0.63
   15   27    2     -1.90      0.45
   16   27    2      0.78      0.28
   17   27    2     -1.00      1.23
   18   27    2     -0.38      0.18
   19   27    2      0.30      1.23
   20   27    2     -0.29      0.19
   12   28    2      0.28      1.35
   13   28    2     -0.70     -0.85
   14   28    2      2.38      1.44
   15   28    2     -0.81      0.10
   16   28    2      2.20      0.73
   17   28    2      0.35      0.66
   18   28    2      0.16     -0.23
    9   29    2      1.31     -0.94
   10   29    2     -0.12      1.09
   11   29    2      1.59     -0.83
   12   29    2      0.55      0.54
   13   29    2     -0.07     -0.50
   14   29    2      1.39     -0.16
   15   29    2     -0.96     -0.53
   16   29    2      0.56     -0.24
   17   29    2     -0.10     -0.27
    4   30    2     -0.94     -0.08
    5   30    2     -0.57      0.10
    6   30    2     -0.20     -0.63
    7   30    2     -1.07      0.05
    8   30    2     -0.06     -0.21
    9   30    2     -0.24     -1.34
   10   30    2     -0.66      0.01
   11   30    2      0.02     -1.49
   12   30    2      0.08      0.17
   13   30    2     -0.75     -0.58
   14   30    2      1.32      0.52
   15   30    2     -1.01      0.17
   21   22    3      1.53     -0.36
   22   22    3      1.09      0.05
   20   23    3      0.99     -0.54
   21   23    3      0.96      1.19
   22   23    3      1.10      0.17
   23   23    3      0.00     -0.01
   19   24    3     -1.80     -0.53
   20   24    3     -0.15     -0.31
   21   24    3     -0.21     -0.26
   22   24    3      0.30     -0.37
   23   24    3      0.58     -0.46
   17   25    3      0.01      0.00
   18   25    3      0.13      0.12
   19   25    3      0.93      0.52
   20   25    3      0.84     -0.55
   21   25    3      0.68      0.76
   22   25    3      0.70      0.04
   16   26    3      1.14     -0.94
   17   26    3     -2.06     -1.52
   18   26    3      0.28     -0.52
   19   26    3     -1.20     -0.66
   20   26    3      0.37     -0.04
   21   26    3     -0.84      0.08
   14   27    3      0.94      2.29
   15   27    3     -0.52     -0.15
   16   27    3      1.29      1.79
   17   27    3     -0.32      0.77
   18   27    3     -0.36      0.86
   19   27    3      0.03      0.95
   11   28    3      2.77     -1.69
   12   28    3     -0.03     -0.68
   13   28    3      1.18     -1.10
   14   28    3      0.64     -0.03
   15   28    3     -1.01     -1.11
   16   28    3      0.56     -0.38
   17   28    3     -0.79     -0.83
   18   28    3     -0.02     -0.75
    8   29    3     -0.93      1.47
    9   29    3      0.29      1.63
   10   29    3     -1.51      1.00
   11   29    3      0.07      0.72
   12   29    3     -0.47      1.16
   13   29    3     -0.33     -0.70
   14   29    3      0.82      1.32
   15   29    3     -0.46     -0.74
   16   29    3      0.76      0.42
    2   30    3     -0.61      0.24
    3   30    3     -0.89     -0.70
    4   30    3     -1.09     -0.26
    5   30    3     -0.43     -1.05
    6   30    3     -0.84     -1.47
    7   30    3      0.65     -0.98
    8   30    3     -0.36     -1.69
    9   30    3      1.73     -0.53
   10   30    3      0.05     -1.45
   11   30    3      1.35     -0.41
   12   30    3      0.23     -0.21
   13   30    3      0.69     -0.71
   14   30    3      0.41      0.78
   21   22    4      0.44     -0.31
   22   22    4      3.96      0.00
   19   23    4     -1.06      0.57
   20   23    4      2.10      0.46
   21   23    4     -1.09      0.32
   22   23    4      1.29      0.20
   23   23    4     -0.19      0.00
   18   24    4     -0.91     -1.71
   19   24    4     -0.12      0.55
   20   24    4      1.66     -1.19
   21   24    4     -0.43      0.17
   22   24    4      1.92     -0.59
   17   25    4     -1.15     -0.82
   18   25    4     -0.37     -2.01
   19   25    4     -1.82     -1.03
   20   25    4      0.73     -0.27
   21   25    4     -0.80     -0.17
   15   26    4      1.06      0.96
   16   26    4     -0.81     -0.67
   17   26    4      1.20      1.56
   18   26    4     -0.26     -0.11
   19   26    4      0.55      0.80
   20   26    4      0.59     -0.09
   13   27    4     -1.62      1.20
   14   27    4     -1.40     -1.70
   15   27    4     -0.93      1.12
   16   27    4     -1.85     -2.61
   17   27    4     -1.39     -0.47
   18   27    4     -0.80     -1.22
   19   27    4     -1.29     -0.62
   11   28    4     -1.19     -0.16
   12   28    4      2.72      0.34
   13   28    4      0.63      0.43
   14   28    4      1.08     -1.08
   15   28    4      1.75      1.12
   16   28    4      0.17     -0.66
   17   28    4      0.58      0.47
    7   29    4      1.23     -1.18
    8   29    4     -1.21     -2.57
    9   29    4     -0.09     -1.49
   10   29    4      0.79      0.55
   11   29    4     -1.48     -0.54
   12   29    4      0.62     -0.24
   13   29    4     -0.54      1.02
   14   29    4     -1.36     -1.90
   15   29    4      0.30      0.98
   16   29    4     -1.10     -1.19
    0   30    4      0.80     -0.01
    1   30    4      0.02     -0.41
    2   30    4      0.12     -0.09
    3   30    4      0.48      0.03
    4   30    4     -0.69      0.74
    5   30    4      0.25      2.12
    6   30    4     -0.81      0.75
    7   30    4      0.76      2.31
    8   30    4      0.06      1.02
    9   30    4     -0.01      0.09
   10   30    4      1.51      1.00
   11   30    4     -1.25     -0.43
   12   30    4      1.43      0.06
   13   30    4     -0.08      0.92
   14   30    4      0.41     -0.73
   21   21    5      0.61      0.03
   20   22    5      0.22     -0.53
   21   22    5      1.89      1.04
   22   22    5      1.87     -0.03
   19   23    5      2.08     -0.03
   20   23    5     -0.46     -1.51
   21   23    5      0.36      1.11
   22   23    5      0.70     -0.96
   23   23    5     -0.79      0.04
   18   24    5     -0.77      0.57
   19   24    5      0.35     -1.11
   20   24    5     -0.38     -0.70
   21   24    5      0.89      0.20
   22   24    5      0.90     -0.70
   16   25    5     -2.27     -2.10
   17   25    5     -0.20     -2.13
   18   25    5     -2.48     -0.46
   19   25    5      0.60     -0.44
   20   25    5     -0.56     -0.89
   21   25    5      0.50      0.95
   14   26    5      0.35     -1.63
   15   26    5     -0.58      2.22
   16   26    5      0.65     -0.04
   17   26    5      0.25     -0.92
   18   26    5      0.25      0.66
   19   26    5      0.40     -0.79
   20   26    5     -0.03     -0.37
   12   27    5     -1.91      0.33
   13   27    5     -1.06      0.85
   14   27    5     -1.23     -2.59
   15   27    5     -0.69     -0.57
   16   27    5     -1.31     -1.31
   17   27    5     -0.52     -1.58
   18   27    5     -1.62     -0.22
   10   28    5      1.78      0.56
   11   28    5      1.47     -0.30
   12   28    5      1.65     -0.22
   13   28    5      1.67      2.20
   14   28    5      0.29     -1.15
   15   28    5      0.57      1.09
   16   28    5     -0.12     -0.20
   17   28    5     -0.32     -0.29
    6   29    5     -1.16      0.97
    7   29    5     -1.41      1.42
    8   29    5     -1.80      1.70
    9   29    5     -1.75      0.04
   10   29    5     -1.23      1.51
   11   29    5     -2.63     -0.31
   12   29    5     -0.79     -0.37
   13   29    5     -1.50      0.39
   14   29    5     -0.80     -0.97
   15   29    5     -0.12      0.06
    0   30    5     -0.61      0.03
    1   30    5     -0.12     -0.61
    2   30    5     -0.28      0.67
    3   30    5      0.86     -1.04
    4   30    5      0.45      0.42
    5   30    5      0.63     -0.30
    6   30    5      0.40     -0.60
    7   30    5      0.85      0.45
    8   30    5      0.19      0.16
    9   30    5      0.96      0.34
   10   30    5      0.92      0.86
   11   30    5      0.83      0.32
   12   30    5      0.77     -0.03
   13   30    5      1.20      0.57
   20   21    6     -0.24     -0.89
   21   21    6     -0.82      0.01
   19   22    6      0.87      0.37
   20   22    6      1.68     -0.12
   21   22    6      0.09     -0.61
   22   22    6      3.15     -0.02
   18   23    6     -0.76     -0.85
   19   23    6      0.87     -0.48
   20   23    6     -0.06      0.66
   21   23    6     -0.88     -0.41
   22   23    6      0.27      1.00
   17   24    6      0.54     -0.45
   18   24    6     -2.19     -1.91
   19   24    6      0.20     -0.64
   20   24    6      0.25     -1.05
   21   24    6     -0.63     -0.85
   15   25    6     -1.00     -1.24
   16   25    6     -0.57      0.25
   17   25    6      0.43     -0.41
   18   25    6     -1.06     -0.17
   19   25    6      0.50      0.32
   20   25    6      0.09      0.34
   13   26    6      0.49     -2.55
   14   26    6     -0.38     -0.37
   15   26    6      0.45     -2.78
   16   26    6     -0.58     -1.02
   17   26    6      1.04     -0.96
   18   26    6     -1.14     -1.38
   19   26    6      0.49      0.01
   11   27    6      1.50      2.20
   12   27    6     -1.51      0.92
   13   27    6      0.32      1.43
   14   27    6     -1.26      1.71
   15   27    6     -0.85      0.28
   16   27    6     -1.16      0.65
   17   27    6     -0.78     -0.07
   18   27    6     -1.02     -0.39
    8   28    6     -1.88      1.77
    9   28    6      0.17      1.66
   10   28    6     -2.00      0.77
   11   28    6      0.29      0.53
   12   28    6     -1.05     -0.12
   13   28    6      0.59     -0.88
   14   28    6     -0.42     -0.55
   15   28    6      0.63     -1.42
   16   28    6      0.02     -0.41
    0   29    6      0.96      0.04
    1   29    6      1.49     -0.96
    2   29    6     -0.34      0.01
    3   29    6      2.05     -3.33
    4   29    6     -0.59     -0.39
    5   29    6      1.01     -3.32
    6   29    6     -0.02     -1.17
    7   29    6     -0.01     -0.88
    8   29    6     -1.31     -0.86
    9   29    6      0.17      0.20
   10   29    6     -1.73     -0.04
   11   29    6      0.44      0.34
   12   29    6     -1.40     -0.12
   13   29    6      0.71      0.33
   14   29    6     -0.95     -0.06
    0   30    6      0.15     -0.07
    1   30    6     -1.58     -0.12
    2   30    6     -0.45      0.33
    3   30    6     -0.93      0.26
    4   30    6     -0.70      2.31
    5   30    6     -1.66      1.07
    6   30    6     -0.17      2.39
    7   30    6     -0.98      1.27
    8   30    6      0.01      1.26
    9   30    6      0.32      0.61
   10   30    6     -0.03      0.76
   11   30    6      0.30      0.03
   12   30    6     -0.31      0.49
   20   21    7     -0.09     -0.11
   21   21    7      0.06      0.00
   19   22    7      0.35      1.26
   20   22    7     -0.81     -1.08
   21   22    7      0.65     -1.99
   22   22    7     -0.67      0.00
   17   23    7      0.64      1.05
   18   23    7      1.13     -3.94
   19   23    7      0.33      0.79
   20   23    7      0.25     -0.25
   21   23    7      0.16      0.06
   22   23    7     -0.18      1.44
   16   24    7     -0.66     -0.86
   17   24    7     -1.35      2.70
   18   24    7     -0.60     -0.92
   19   24    7     -1.21      0.72
   20   24    7     -0.68     -0.04
   21   24    7      0.21     -0.56
   14   25    7      0.59     -3.72
   15   25    7      1.25     -0.49
   16   25    7      0.34     -4.45
   17   25    7      0.39     -0.10
   18   25    7      0.64     -2.20
   19   25    7     -0.24     -0.27
   20   25    7      0.63     -0.56
   12   26    7     -1.48      0.16
   13   26    7     -0.98      3.50
   14   26    7     -0.79     -0.01
   15   26    7     -1.15      3.20
   16   26    7     -0.07     -0.37
   17   26    7     -0.68      1.47
   18   26    7      0.19      0.02
    9   27    7     -2.30     -0.78
   10   27    7     -1.61      0.31
   11   27    7      0.06     -0.08
   12   27    7     -1.15     -1.70
   13   27    7      0.72     -0.35
   14   27    7     -0.12     -2.40
   15   27    7      0.12     -0.20
   16   27    7     -0.18     -2.10
   17   27    7     -0.28      0.15
    6   28    7     -0.26      1.20
    7   28    7     -0.43      0.61
    8   28    7      1.15      1.56
    9   28    7     -0.12      0.78
   10   28    7      0.10      0.30
   11   28    7      0.47      2.05
   12   28    7     -0.76     -0.49
   13   28    7      0.02      1.72
   14   28    7     -0.38     -0.27
   15   28    7     -0.38      0.77
    0   29    7      2.29     -0.10
    1   29    7      0.94      0.23
    2   29    7      0.45     -0.83
    3   29    7      0.94      0.62
    4   29    7     -0.87     -0.85
    5   29    7     -0.33      0.86
    6   29    7      0.04      0.37
    7   29    7     -1.86      0.14
    8   29    7     -0.08      1.20
    9   29    7     -1.66     -0.36
   10   29    7     -0.80      0.23
   11   29    7     -0.79      0.22
   12   29    7     -0.64     -0.53
   13   29    7     -0.46      0.13
    0   30    7     -1.27      0.09
    1   30    7     -0.25      0.01
    2   30    7     -1.58      0.56
    3   30    7      0.91      0.49
    4   30    7     -1.65      0.26
    5   30    7      0.38      0.84
    6   30    7     -0.75      0.03
    7   30    7     -0.91      0.57
    8   30    7      0.04      0.49
    9   30    7     -0.82      0.71
   10   30    7     -0.05     -0.06
   11   30    7      0.12      0.45
    0    0    8     10.13      0.15
   20   20    8      0.57     -0.01
   19   21    8     -0.51     -0.42
   20   21    8      0.02     -0.99
   21   21    8      0.04      0.01
   18   22    8      1.64     -1.25
   19   22    8     -1.00     -0.36
   20   22    8      0.78     -0.35
   21   22    8     -0.51     -0.38
   22   22    8     -0.33      0.00
   16   23    8      0.98      1.08
   17   23    8     -0.73      0.66
   18   23    8      0.54      0.19
   19   23    8     -0.87      0.40
   20   23    8     -0.26      0.29
   21   23    8      0.14     -0.15
   15   24    8      0.08     -2.43
   16   24    8      0.53     -1.33
   17   24    8     -0.55     -1.25
   18   24    8      1.00     -1.50
   19   24    8     -0.53     -0.69
   20   24    8      0.29     -0.46
   13   25    8      0.44      0.55
   14   25    8      1.04      1.89
   15   25    8     -0.56     -0.23
   16   25    8      0.97      0.88
   17   25    8     -0.45      0.21
   18   25    8      0.15      0.26
   19   25    8     -0.10      0.16
   10   26    8     -4.64      0.29
   11   26    8      0.30      0.81
   12   26    8     -2.55     -0.10
   13   26    8      0.70     -1.32
   14   26    8     -0.20      0.57
   15   26    8      0.36     -1.32
   16   26    8      0.21      0.02
   17   26    8      0.00      0.02
    7   27    8      1.34      0.60
    8   27    8     -1.52      0.05
    9   27    8      2.40      1.31
   10   27    8     -0.64     -1.75
   11   27    8      1.61      2.17
   12   27    8     -0.01     -1.11
   13   27    8     -0.19      0.52
   14   27    8      0.04      0.62
   15   27    8     -0.70     -0.73
   16   27    8     -0.03      0.13
    0   28    8      0.94      0.02
    1   28    8      4.13      0.39
    2   28    8      0.47      0.52
    3   28    8      1.45      0.72
    4   28    8     -0.15      0.38
    5   28    8     -1.04      0.99
    6   28    8     -0.84     -0.19
    7   28    8     -0.24      0.59
    8   28    8     -2.05     -0.17
    9   28    8      0.97      0.11
   10   28    8     -2.20     -0.75
   11   28    8      0.49      0.52
   12   28    8     -0.96     -0.76
   13   28    8      0.07     -0.05
   14   28    8     -0.17      0.20
    0   29    8     -2.17      0.08
    1   29    8      0.57     -0.40
    2   29    8     -2.16      1.02
    3   29    8      0.43     -1.32
    4   29    8     -1.12      0.87
    5   29    8     -0.02     -0.26
    6   29    8     -0.60      0.42
    7   29    8     -0.02      1.49
    8   29    8     -1.54      0.48
    9   29    8      0.27      1.49
   10   29    8     -1.32     -0.10
   11   29    8      0.10      1.16
   12   29    8     -0.41     -0.60
    0   30    8     -0.11      0.00
    1   30    8      1.29     -0.30
    2   30    8     -0.07     -0.09
    3   30    8      0.23      0.06
    4   30    8      0.11      0.74
    5   30    8     -0.92      0.93
    6   30    8      0.02      0.18
    7   30    8     -0.34      0.66
    8   30    8     -0.15     -0.27
    9   30    8      0.57     -0.02
    0    0    9      5.40     -0.25
    0    1    9      2.58      0.02
   19   20    9      0.27     -1.62
   20   20    9      2.90     -0.01
   18   21    9     -0.60      0.44
   19   21    9     -1.95     -0.10
   20   21    9     -0.16      0.60
   21   21    9     -1.47     -0.01
   16   22    9     -0.48     -0.90
   17   22    9      1.24     -1.23
   18   22    9      1.51     -0.58
   19   22    9      0.53     -0.19
   20   22    9      1.32     -0.35
   21   22    9      0.14     -0.55
   15   23    9      2.21     -0.51
   16   23    9     -0.72      0.66
   17   23    9      0.09     -1.00
   18   23    9     -0.16     -0.53
   19   23    9     -1.05     -0.46
   20   23    9      0.03     -0.50
   13   24    9     -1.77      1.41
   14   24    9     -0.07     -0.07
   15   24    9      0.36     -0.42
   16   24    9     -0.09      0.52
   17   24    9      0.65     -0.75
   18   24    9      0.53      0.47
   19   24    9     -0.10      0.10
   11   25    9      0.62     -1.03
   12   25    9      1.21     -0.99
   13   25    9      1.21     -0.83
   14   25    9     -0.02     -0.17
   15   25    9      1.63     -0.84
   16   25    9     -0.53      0.27
   17   25    9      0.60     -0.60
   18   25    9      0.19      0.33
    8   26    9     -1.30      0.76
    9   26    9      0.09      3.23
   10   26    9     -0.11     -0.82
   11   26    9     -1.55      3.25
   12   26    9      1.20     -0.41
   13   26    9     -1.10      1.75
   14   26    9      0.67      0.65
   15   26    9      0.16      0.28
   16   26    9     -0.06      0.50
    3   27    9     -0.33      0.77
    4   27    9     -0.11     -0.46
    5   27    9     -1.53     -0.40
    6   27    9     -0.15     -1.21
    7   27    9     -0.90     -0.98
    8   27    9     -1.00     -1.85
    9   27    9      0.34     -0.70
   10   27    9     -0.29     -1.82
   11   27    9      0.07     -0.30
   12   27    9      0.37     -1.18
   13   27    9     -0.01     -0.77
   14   27    9     -0.26     -0.12
    0   28    9      1.45     -0.03
    1   28    9      1.09     -0.26
    2   28    9      0.76     -0.07
    3   28    9      0.71     -1.23
    4   28    9     -0.22      1.02
    5   28    9     -0.63     -0.72
    6   28    9     -0.45      1.08
    7   28    9     -0.30      0.63
    8   28    9     -0.31      0.27
    9   28    9      0.30      1.28
   10   28    9      0.50     -0.77
   11   28    9     -0.41      1.52
   12   28    9      0.90     -0.57
    0   29    9     -0.73     -0.02
    1   29    9      0.20      0.77
    2   29    9     -0.90      0.23
    3   29    9     -0.17      1.11
    4   29    9     -0.17      0.36
    5   29    9     -0.45      1.17
    6   29    9      0.38      0.00
    7   29    9     -0.16      0.90
    8   29    9     -0.46     -0.24
    9   29    9     -0.10      0.28
   10   29    9     -0.58     -0.46
    0   30    9      0.72      0.01
    1   30    9      1.11     -0.45
    2   30    9      0.19     -0.17
    3   30    9      0.56     -0.86
    4   30    9     -0.61     -0.14
    5   30    9     -0.31     -0.38
    6   30    9     -0.77     -0.43
    7   30    9     -0.37      0.19
    0    0   10      7.35      0.02
    0    1   10      0.86     -0.06
    1    1   10      0.25      0.01
    0    2   10      3.13      0.02
   19   19   10     -0.03      0.00
   18   20   10     -0.23     -1.10
   19   20   10      0.78      1.13
   20   20   10      1.26      0.00
   16   21   10     -1.00      0.33
   17   21   10      1.65      0.97
   18   21   10     -0.16     -0.78
   19   21   10     -0.32      0.45
   20   21   10      0.37     -0.82
   21   21   10     -0.31      0.02
   15   22   10      0.75     -2.15
   16   22   10     -1.29     -1.16
   17   22   10      1.31     -1.07
   18   22   10      0.21     -1.56
   19   22   10      0.16      0.09
   20   22   10      0.63     -0.24
   13   23   10      0.85     -0.48
   14   23   10      0.57      1.33
   15   23   10      1.04     -0.35
   16   23   10     -0.26      0.84
   17   23   10      0.43      0.55
   18   23   10     -0.24     -0.08
   19   23   10      0.07      0.25
   11   24   10      2.67     -0.36
   12   24   10     -0.33      1.61
   13   24   10      2.29     -0.81
   14   24   10     -0.44      1.56
   15   24   10      1.65     -0.98
   16   24   10      0.15     -0.03
   17   24   10      1.09     -0.31
   18   24   10      0.40     -0.73
    9   25   10      0.40     -1.17
   10   25   10     -0.65     -1.21
   11   25   10     -0.27      0.97
   12   25   10     -0.84     -0.67
   13   25   10     -0.94      0.12
   14   25   10     -0.57      0.55
   15   25   10     -0.90     -0.53
   16   25   10     -0.24      0.26
    4   26   10     -0.47      0.74
    5   26   10     -0.50      0.16
    6   26   10     -0.48      0.84
    7   26   10     -0.14     -0.71
    8   26   10     -0.40      0.83
    9   26   10      0.96     -1.00
   10   26   10     -0.37     -0.11
   11   26   10      1.97     -0.18
   12   26   10      0.41      0.13
   13   26   10      2.42     -0.32
   14   26   10      0.92      0.92
   15   26   10      1.54     -0.23
    0   27   10     -1.21     -0.13
    1   27   10     -1.39     -1.26
    2   27   10     -0.79     -0.75
    3   27   10     -0.36     -2.89
    4   27   10     -0.14      0.47
    5   27   10      0.49     -2.78
    6   27   10     -0.14      0.74
    7   27   10      0.72     -1.99
    8   27   10     -0.37      0.49
    9   27   10      0.75     -0.47
   10   27   10     -0.06     -0.35
   11   27   10     -0.12      0.94
   12   27   10     -0.16     -0.47
   13   27   10     -0.97      0.45
    0   28   10      1.40      0.11
    1   28   10      2.34      0.82
    2   28   10      0.92      0.49
    3   28   10      0.54      0.92
    4   28   10     -0.14      0.78
    5   28   10     -1.04      0.21
    6   28   10     -0.81     -0.34
    7   28   10     -0.31     -0.35
    8   28   10     -0.99     -0.74
    9   28   10      0.65     -0.65
   10   28   10     -0.57     -0.41
   11   28   10      0.43     -0.12
    0   29   10     -0.15      0.04
    1   29   10     -0.10      0.00
    2   29   10     -0.26     -0.20
    3   29   10     -0.21     -1.23
    4   29   10      0.06      0.44
    5   29   10     -0.08     -1.37
    6   29   10      0.30      0.73
    7   29   10      0.25      0.13
    8   29   10     -0.01      0.47
    0   30   10     -0.14      0.01
    1   30   10      0.47      0.09
    2   30   10      0.08     -0.94
    0    0   11      3.72      0.24
    0    1   11      3.03     -0.01
    1    1   11     -3.93     -0.20
    0    2   11      2.74      0.07
    1    2   11      1.19     -0.24
    2    2   11      3.45      0.02
    0    3   11      5.17      0.02
    1    3   11     -1.38      0.15
   18   18   11      1.39      0.03
   17   19   11      0.07     -0.55
   18   19   11     -0.01     -1.90
   19   19   11     -0.47     -0.02
   16   20   11      0.86     -0.78
   17   20   11      0.96      1.69
   18   20   11      2.17     -0.85
   19   20   11      0.62      1.27
   20   20   11      2.10      0.00
   15   21   11     -0.58     -0.56
   16   21   11      0.38     -1.51
   17   21   11     -0.61      0.53
   18   21   11     -0.21     -1.76
   19   21   11     -0.83      0.37
   20   21   11     -0.10     -0.48
   13   22   11      0.70      0.81
   14   22   11      0.72      0.64
   15   22   11     -0.04      0.38
   16   22   11      1.41     -0.96
   17   22   11      0.26      0.90
   18   22   11      1.81     -0.99
   19   22   11      0.53      0.62
   11   23   11      0.43     -2.40
   12   23   11     -0.67      0.48
   13   23   11      0.30     -0.96
   14   23   11     -0.52      0.42
   15   23   11     -0.25      0.24
   16   23   11     -0.18     -0.33
   17   23   11     -0.96      0.58
   18   23   11      0.05     -0.73
    9   24   11     -0.72     -0.31
   10   24   11      0.37      0.89
   11   24   11      0.49      1.10
   12   24   11      0.49      0.48
   13   24   11      0.54      1.29
   14   24   11      0.74      0.00
   15   24   11      0.32      0.26
   16   24   11      1.30     -0.32
    4   25   11      1.73      0.97
    5   25   11      0.19     -0.63
    6   25   11      1.91     -1.08
    7   25   11      0.42     -0.86
    8   25   11      2.39     -0.83
    9   25   11      0.30     -1.43
   10   25   11      1.26      0.54
   11   25   11      0.74     -0.60
   12   25   11     -0.15      0.44
   13   25   11      0.78      0.18
   14   25   11     -0.76      0.09
   15   25   11      0.06      0.27
    0   26   11      1.46     -0.06
    1   26   11     -2.28     -0.58
    2   26   11      1.21     -0.16
    3   26   11     -2.05     -2.40
    4   26   11      0.27     -0.15
    5   26   11     -0.86     -3.18
    6   26   11     -0.03     -0.42
    7   26   11     -0.24     -2.15
    8   26   11      0.59     -0.44
    9   26   11     -0.25     -1.19
   10   26   11      0.30     -0.58
   11   26   11     -0.15      0.13
   12   26   11     -0.07     -0.56
   13   26   11      0.29      0.71
    0   27   11      1.48      0.12
    1   27   11     -0.57      0.12
    2   27   11      1.63     -0.62
    3   27   11     -0.66      0.10
    4   27   11      1.30      0.03
    5   27   11     -0.28      0.03
    6   27   11      0.58     -0.15
    7   27   11     -0.51      0.12
    8   27   11      0.46     -0.11
    9   27   11     -0.15     -0.01
   10   27   11      0.49      0.26
   11   27   11      0.65      0.07
    0   28   11      1.69      0.09
    1   28   11     -0.75      0.29
    2   28   11      1.51     -0.19
    3   28   11     -1.00     -0.43
    4   28   11      0.54      0.29
    5   28   11     -0.80     -1.68
    6   28   11      0.21     -0.05
    7   28   11     -0.41     -1.65
    8   28   11      0.73     -0.46
    0   29   11      0.77     -0.01
    1   29   11     -0.39      0.17
    2   29   11      0.72     -0.91
    3   29   11     -0.59      0.01
    4   29   11      0.45     -0.73
    0    0   12      2.35      0.06
    0    1   12     -1.96     -0.04
    1    1   12     -0.18     -0.05
   17   18   12      0.37     -0.19
   18   18   12      1.44      0.03
   16   19   12      0.41     -0.31
   17   19   12      0.98      0.90
   18   19   12      0.99      0.33
   19   19   12      0.46     -0.02
   14   20   12      0.76      0.77
   15   20   12     -0.92     -0.60
   16   20   12      0.81     -0.72
   17   20   12     -0.20     -0.43
   18   20   12      0.91     -0.56
   19   20   12      0.40     -0.86
   20   20   12      0.58      0.01
   13   21   12      0.06     -1.25
   14   21   12      0.54     -0.35
   15   21   12      0.63     -0.73
   16   21   12      1.04     -0.62
   17   21   12      0.46      0.17
   18   21   12      1.02      0.20
   19   21   12      0.15      0.13
   11   22   12     -0.02     -0.55
   12   22   12      1.53      1.96
   13   22   12     -0.42      1.06
   14   22   12      0.76      1.49
   15   22   12     -0.76      0.90
   16   22   12      0.33      0.30
   17   22   12     -0.57      0.06
    8   23   12      0.25      0.20
    9   23   12      0.22     -1.59
   10   23   12     -0.29      0.49
   11   23   12     -1.13     -0.78
   12   23   12     -0.40     -0.75
   13   23   12     -1.16     -0.46
   14   23   12      0.50     -0.72
   15   23   12     -0.55     -0.67
   16   23   12      0.71     -0.13
    4   24   12      3.66     -2.41
    5   24   12     -0.10     -0.47
    6   24   12      2.05     -1.64
    7   24   12      0.88     -1.28
    8   24   12      0.83      0.51
    9   24   12      1.24     -1.75
   10   24   12      1.46      1.31
   11   24   12      1.27      0.17
   12   24   12      1.35      0.92
   13   24   12      0.26      1.11
   14   24   12      0.52      0.64
   15   24   12     -0.27      0.43
    0   25   12     -1.41      0.05
    1   25   12     -0.90      0.23
    2   25   12      0.25      0.30
    3   25   12     -2.61      0.88
    4   25   12      1.05     -0.69
    5   25   12     -1.64      0.17
    6   25   12     -0.27     -0.85
    7   25   12      0.86     -1.63
    8   25   12     -0.93      0.46
    9   25   12      1.17     -1.10
   10   25   12     -0.75      0.32
   11   25   12     -0.09      0.57
   12   25   12     -0.02     -0.35
   13   25   12     -0.67      0.33
    0   26   12      0.48      0.03
    1   26   12      1.76     -0.31
    2   26   12      1.39     -0.32
    3   26   12     -0.40     -0.46
    4   26   12      1.90     -1.78
    5   26   12     -0.33     -0.37
    6   26   12      0.86     -1.58
    7   26   12      1.18     -1.03
    8   26   12     -0.16     -0.49
    9   26   12      1.42     -1.17
   10   26   12     -0.21     -0.52
   11   26   12      0.36     -0.13
    0   27   12     -0.87      0.04
    1   27   12     -0.73     -0.44
    2   27   12     -0.01     -0.71
    3   27   12     -1.00     -0.66
    4   27   12      0.77     -0.77
    5   27   12     -0.51     -0.64
    6   27   12      0.02     -0.31
    7   27   12      0.17     -0.84
    8   27   12     -0.87      0.16
    0   28   12      0.47      0.08
    1   28   12      0.29      0.19
    2   28   12      0.46      0.27
    3   28   12     -0.23      0.41
    4   28   12      0.16      0.00
   16   17   13      1.23     -0.26
   17   17   13      1.12      0.01
   15   18   13      0.68      1.12
   16   18   13     -0.19      0.33
   17   18   13      1.52      1.07
   18   18   13      0.06     -0.06
   13   19   13     -0.59     -1.38
   14   19   13      1.89     -0.44
   15   19   13     -0.86     -1.56
   16   19   13      1.30     -0.98
   17   19   13      0.69     -0.51
   18   19   13      0.67     -0.31
   19   19   13      0.99      0.07
   12   20   13     -0.41      0.01
   13   20   13     -0.03      0.90
   14   20   13      0.14      0.32
   15   20   13      0.25      1.14
   16   20   13      0.51      0.09
   17   20   13      0.81      0.64
   18   20   13      0.45     -0.24
   10   21   13      0.42      1.10
   11   21   13     -0.93     -0.14
   12   21   13      0.57     -0.37
   13   21   13     -1.72      0.10
   14   21   13      1.07     -0.60
   15   21   13     -0.91     -0.51
   16   21   13      1.01     -0.46
   17   21   13      0.05     -0.23
    7   22   13     -0.67     -0.75
    8   22   13      0.52      0.65
    9   22   13     -0.08     -1.50
   10   22   13      0.82      0.84
   11   22   13      0.75      0.43
   12   22   13      1.33     -0.08
   13   22   13      0.54      0.89
   14   22   13      0.82      0.11
   15   22   13     -0.26      0.11
   16   22   13      0.23      0.16
    0   23   13     -2.37     -0.21
    1   23   13      0.22     -0.40
    2   23   13     -1.76     -0.45
    3   23   13     -1.05     -0.94
    4   23   13     -0.58     -1.69
    5   23   13     -0.93     -0.90
    6   23   13      0.87     -1.11
    7   23   13      0.00     -1.40
    8   23   13      1.60      0.91
    9   23   13     -0.13     -1.68
   10   23   13      0.43      0.76
   11   23   13     -1.22     -0.13
   12   23   13     -0.39     -0.28
   13   23   13     -1.33      0.60
   14   23   13     -0.02      0.13
    0   24   13      0.51      0.18
    1   24   13      0.67     -0.21
    2   24   13      0.87      0.03
    3   24   13      0.88     -0.10
    4   24   13      1.38     -0.95
    5   24   13      0.60     -0.21
    6   24   13      1.09     -0.97
    7   24   13     -0.30     -1.07
    8   24   13      0.59      0.19
    9   24   13      0.17     -0.89
   10   24   13      0.70      0.18
   11   24   13      0.73      0.47
   12   24   13      0.71     -0.21
    0   25   13     -0.58      0.00
    1   25   13      0.01     -0.43
    2   25   13     -0.61     -0.05
    3   25   13     -0.24     -0.01
    4   25   13     -0.41     -0.10
    5   25   13     -0.74      0.37
    6   25   13      0.64     -0.18
    7   25   13     -0.64     -0.57
    8   25   13      1.06      0.11
    9   25   13     -0.16     -0.70
   10   25   13      0.36      0.07
    0   26   13      0.35      0.11
    1   26   13     -0.42      0.26
    2   26   13      0.07     -0.43
    3   26   13     -0.15     -0.20
    4   26   13      0.04     -1.28
    5   26   13     -0.10     -1.16
    6   26   13      0.73     -0.97
    7   26   13     -0.19     -1.10
    8   26   13      0.71     -0.31
    0   27   13      0.49      0.05
    1   27   13      0.19      0.01
    2   27   13      0.44     -0.32
    3   27   13      0.13      0.12
   15   16   14     -1.14     -1.91
   16   16   14      0.19      0.06
   14   17   14     -0.30      0.99
   15   17   14      0.24      0.44
   16   17   14      0.29      0.77
   17   17   14      0.97     -0.03
   12   18   14      0.00     -0.22
   13   18   14     -0.27     -1.71
   14   18   14      0.93      0.51
   15   18   14     -1.05     -1.65
   16   18   14      1.43      0.26
   17   18   14     -0.13     -0.31
   18   18   14      0.75      0.01
   11   19   14     -0.73      1.37
   12   19   14     -1.85      0.49
   13   19   14      0.17      0.50
   14   19   14     -1.14      0.89
   15   19   14      0.11     -0.05
   16   19   14      0.19      0.22
   17   19   14      0.83      0.14
    9   20   14      0.73     -0.55
   10   20   14      1.17     -0.37
   11   20   14     -0.32      0.18
   12   20   14      1.22     -0.29
   13   20   14     -0.16     -0.27
   14   20   14      1.50      0.65
   15   20   14     -0.24     -0.60
   16   20   14      1.10      0.38
    5   21   14     -0.25      0.58
    6   21   14      0.33     -1.34
    7   21   14     -0.30      0.93
    8   21   14     -0.50     -0.28
    9   21   14     -0.54      0.30
   10   21   14      0.10      0.21
   11   21   14     -0.38      0.40
   12   21   14     -0.63      0.00
   13   21   14     -0.21     -0.13
   14   21   14     -0.89      0.10
   15   21   14      0.05     -0.68
    0   22   14     -2.99     -0.14
    1   22   14      0.11      0.02
    2   22   14     -1.83      0.39
    3   22   14     -1.36      0.30
    4   22   14     -1.09      0.33
    5   22   14     -0.93      0.57
    6   22   14     -1.48     -0.59
    7   22   14      0.44      0.05
    8   22   14     -0.59     -0.28
    9   22   14      0.07     -0.45
   10   22   14      0.42      0.08
   11   22   14     -0.21      0.21
   12   22   14      0.68     -0.25
   13   22   14     -0.20      0.61
   14   22   14      0.52      0.29
    0   23   14      0.27      0.08
    1   23   14      1.53     -0.02
    2   23   14      0.81      0.09
    3   23   14     -0.24     -0.27
    4   23   14      0.79     -0.77
    5   23   14      0.05      0.13
    6   23   14      0.07     -1.22
    7   23   14      0.76      0.47
    8   23   14      0.31     -0.37
    9   23   14      0.24      0.04
   10   23   14      0.18      0.21
   11   23   14     -0.04      0.16
   12   23   14     -0.06     -0.13
    0   24   14     -2.12     -0.04
    1   24   14     -0.25     -0.07
    2   24   14     -0.97      0.07
    3   24   14     -0.49      0.06
    4   24   14      0.13     -0.28
    5   24   14      0.25      0.32
    6   24   14     -0.47     -0.47
    7   24   14      0.32     -0.32
    8   24   14     -0.47     -0.15
    9   24   14      0.20     -0.84
   10   24   14      0.07     -0.10
    0   25   14      0.28     -0.03
    1   25   14      0.93     -0.17
    2   25   14      0.25     -0.20
    3   25   14     -0.09      0.15
    4   25   14     -0.28     -0.66
    5   25   14     -0.30      0.38
    6   25   14     -0.46     -0.60
    7   25   14      0.31     -0.06
    0   26   14     -0.63      0.04
    1   26   14      0.04      0.07
    2   26   14     -0.25      0.41
   14   15   15     -1.38     -0.70
   15   15   15      0.55     -0.04
   12   16   15     -0.06     -1.67
   13   16   15     -0.37      2.53
   14   16   15     -0.19     -1.18
   15   16   15     -0.50      0.40
   16   16   15      0.16      0.00
   11   17   15     -1.48      0.33
   12   17   15     -0.88      0.08
   13   17   15     -0.54      1.30
   14   17   15     -0.99     -0.22
   15   17   15     -0.65      0.26
   16   17   15     -0.10      0.13
   17   17   15     -0.42      0.00
    9   18   15     -1.99     -0.26
   10   18   15      1.48      1.47
   11   18   15     -0.32      0.33
   12   18   15     -0.24     -1.08
   13   18   15      0.76      1.46
   14   18   15     -0.05     -1.24
   15   18   15      0.73      1.00
   16   18   15      0.57     -0.32
    6   19   15     -1.11      0.07
    7   19   15     -1.21     -1.84
    8   19   15      0.15      1.28
    9   19   15     -2.98     -1.58
   10   19   15      1.00      1.44
   11   19   15     -2.28      0.42
   12   19   15      0.22      0.39
   13   19   15     -1.00      1.17
   14   19   15     -0.04     -0.27
   15   19   15     -0.93      0.42
    0   20   15      0.23      0.03
    1   20   15     -0.98     -0.31
    2   20   15     -0.15      0.58
    3   20   15     -1.41     -0.24
    4   20   15     -0.34     -0.12
    5   20   15     -1.38      0.45
    6   20   15     -0.21      0.11
    7   20   15     -0.77      0.14
    8   20   15      0.79      0.98
    9   20   15     -1.15     -0.40
   10   20   15      1.06      0.82
   11   20   15     -0.59      0.17
   12   20   15     -0.29     -0.31
   13   20   15      0.48      0.76
   14   20   15     -0.41     -0.72
    0   21   15     -0.74     -0.09
    1   21   15     -0.08      0.11
    2   21   15     -0.47     -0.06
    3   21   15     -0.75      0.14
    4   21   15     -0.35      0.06
    5   21   15     -0.60      0.24
    6   21   15     -1.08      0.64
    7   21   15     -0.49      0.27
    8   21   15     -0.29      1.13
    9   21   15     -1.21     -0.17
   10   21   15      1.09      0.40
   11   21   15     -1.01      0.10
   12   21   15      0.49     -0.42
   13   21   15     -0.36      0.53
    0   22   15     -0.20      0.01
    1   22   15     -0.34     -0.26
    2   22   15      0.62      0.28
    3   22   15     -1.08     -0.61
    4   22   15      0.94      0.30
    5   22   15     -0.75     -0.53
    6   22   15      0.11     -0.85
    7   22   15     -0.19     -0.59
    8   22   15      0.37     -0.92
    9   22   15     -0.74     -0.34
   10   22   15      0.68      0.02
   11   22   15     -0.26      0.28
    0   23   15     -0.42     -0.05
    1   23   15      0.10      0.19
    2   23   15     -0.10      0.16
    3   23   15     -1.09      0.09
    4   23   15     -0.24      0.39
    5   23   15     -0.62      0.33
    6   23   15     -0.87      0.60
    7   23   15      0.21      0.68
    8   23   15     -0.29      0.52
    9   23   15     -0.24      0.23
    0   24   15      0.01      0.00
    1   24   15     -0.03     -0.11
    2   24   15      0.31      0.41
    3   24   15     -0.35     -0.39
    4   24   15      0.52      0.09
    5   24   15     -0.01     -0.35
    6   24   15      0.01     -0.46
   13   13   16     -0.06      0.04
   12   14   16     -1.27      0.43
   13   14   16      1.78      0.81
   14   14   16     -0.99      0.00
   10   15   16      0.41      2.24
   11   15   16      0.07      0.18
   12   15   16      0.60      0.61
   13   15   16     -0.85      0.77
   14   15   16      0.84     -0.08
   15   15   16     -0.78     -0.02
    9   16   16     -0.39     -0.65
   10   16   16     -0.35      0.59
   11   16   16      0.58     -1.24
   12   16   16     -0.64      0.04
   13   16   16      0.69     -0.51
   14   16   16     -0.86     -0.21
   15   16   16      0.21     -0.13
   16   16   16     -0.30      0.00
    6   17   16     -2.12     -1.60
    7   17   16     -0.57      1.37
    8   17   16     -2.07      0.30
    9   17   16     -0.75      0.80
   10   17   16     -1.19      2.27
   11   17   16     -0.50      0.98
   12   17   16     -0.74      2.02
   13   17   16     -0.08      1.32
   14   17   16     -0.04      0.66
   15   17   16     -0.24      0.66
    0   18   16     -1.11      0.06
    1   18   16     -1.84      0.32
    2   18   16     -0.73     -0.94
    3   18   16     -1.96      1.69
    4   18   16     -0.43     -1.76
    5   18   16     -1.22      2.32
    6   18   16     -1.22     -0.89
    7   18   16     -0.06      1.29
    8   18   16     -0.57      0.25
    9   18   16     -0.06      0.03
   10   18   16      0.64      0.42
   11   18   16     -0.05     -0.91
   12   18   16      0.04      0.00
   13   18   16      0.03     -0.79
   14   18   16     -0.01     -0.25
    0   19   16      1.51     -0.04
    1   19   16     -0.66     -0.57
    2   19   16      1.10     -0.50
    3   19   16     -1.12     -0.03
    4   19   16      0.15     -1.52
    5   19   16     -1.77      0.96
    6   19   16     -1.49     -0.92
    7   19   16     -1.19      0.49
    8   19   16     -2.02      0.41
    9   19   16     -0.86      0.16
   10   19   16     -1.27      1.17
   11   19   16     -0.21      0.32
   12   19   16     -1.06      1.06
   13   19   16      0.22      0.62
    0   20   16     -0.50      0.00
    1   20   16     -0.84      0.63
    2   20   16     -1.04      0.10
    3   20   16     -1.05      1.56
    4   20   16     -1.15     -0.56
    5   20   16     -0.58      1.17
    6   20   16     -0.72     -0.05
    7   20   16      0.29      0.17
    8   20   16     -0.25      0.63
    9   20   16     -0.25      0.01
   10   20   16      0.10      0.53
   11   20   16     -0.44      0.27
    0   21   16      0.03      0.00
    1   21   16     -0.96     -0.23
    2   21   16      0.31     -0.38
    3   21   16     -0.66     -0.39
    4   21   16      0.57     -0.19
    5   21   16     -0.61     -0.08
    6   21   16     -0.20      0.27
    7   21   16     -0.72     -0.01
    8   21   16     -0.37      0.40
    9   21   16     -0.34     -0.27
    0   22   16      0.08     -0.05
    1   22   16      0.59      0.37
    2   22   16      0.08     -0.46
    3   22   16     -0.08      0.48
    4   22   16     -0.47      0.07
    5   22   16     -0.20     -0.22
    6   22   16     -0.83      0.38
    7   22   16      0.12     -0.45
    0   23   16     -0.43     -0.01
    1   23   16     -0.37      0.18
    2   23   16     -0.23      0.14
    3   23   16     -0.59     -0.02
   11   12   17     -0.11     -1.23
   12   12   17      4.63      0.05
    9   13   17      0.71     -0.16
   10   13   17     -1.13      0.27
   11   13   17     -0.54     -0.42
   12   13   17     -0.21     -0.07
   13   13   17     -1.54      0.05
    8   14   17     -0.60      0.21
    9   14   17      1.44     -0.05
   10   14   17      2.11      1.08
   11   14   17     -0.33      0.75
   12   14   17      4.72      0.76
   13   14   17     -0.87      0.89
   14   14   17      3.45     -0.09
    5   15   17     -1.16      0.09
    6   15   17     -2.48     -0.96
    7   15   17      0.03      0.39
    8   15   17     -2.32      0.34
    9   15   17      0.19      0.11
   10   15   17     -0.55      0.12
   11   15   17     -0.94     -0.14
   12   15   17      0.27     -0.77
   13   15   17     -0.56     -0.08
   14   15   17     -0.15     -0.33
   15   15   17      0.50      0.06
    0   16   17     -1.35      0.02
    1   16   17     -0.02      0.16
    2   16   17     -1.22      1.43
    3   16   17      0.16      0.58
    4   16   17     -1.29      1.33
    5   16   17      0.24      0.85
    6   16   17     -2.09      0.62
    7   16   17      0.49      0.57
    8   16   17     -1.64      0.50
    9   16   17      0.01      0.09
   10   16   17      0.58      0.85
   11   16   17     -0.62      0.63
   12   16   17      1.56      0.74
   13   16   17     -0.98      0.83
   14   16   17      0.79      0.30
    0   17   17     -0.14      0.04
    1   17   17     -0.72      0.00
    2   17   17     -1.12     -1.04
    3   17   17     -1.00      0.00
    4   17   17     -2.34     -1.32
    5   17   17     -0.76     -0.11
    6   17   17     -2.15     -0.55
    7   17   17     -0.30      0.09
    8   17   17     -0.92      0.16
    9   17   17     -0.73      0.44
   10   17   17      0.09      0.55
   11   17   17     -0.53      0.27
   12   17   17      0.33      0.23
   13   17   17      0.12     -0.08
    0   18   17     -0.19      0.01
    1   18   17     -1.34     -0.15
    2   18   17     -0.57      0.45
    3   18   17      0.15      0.12
    4   18   17     -0.90      0.60
    5   18   17      0.22      0.23
    6   18   17     -1.30      0.86
    7   18   17     -0.38      0.27
    8   18   17     -1.17      0.60
    9   18   17     -0.40      0.23
   10   18   17     -0.50      0.43
   11   18   17     -0.24     -0.12
    0   19   17      0.79      0.02
    1   19   17     -0.96      0.42
    2   19   17     -0.59     -0.28
    3   19   17     -0.46      1.00
    4   19   17     -1.86     -0.44
    5   19   17     -0.92      0.30
    6   19   17     -1.22      0.03
    7   19   17     -0.91     -0.23
    8   19   17     -0.36      0.20
    9   19   17     -0.59      0.27
   10   19   17      0.08      0.50
    0   20   17      0.70     -0.01
    1   20   17     -1.27     -0.30
    2   20   17      0.15     -0.20
    3   20   17     -0.04     -0.40
    4   20   17      0.03      0.00
    5   20   17     -0.08     -0.16
    6   20   17      0.18      0.64
    7   20   17     -0.49     -0.04
    0   21   17      0.40     -0.02
    1   21   17     -0.44      0.49
    2   21   17     -0.11      0.00
    3   21   17     -0.13      0.86
    4   21   17     -0.42     -0.13
    8   10   18     -0.41      1.25
    9   10   18     -1.11     -1.80
   10   10   18     -0.55     -0.01
    7   11   18      0.37     -0.39
    8   11   18     -0.39      0.90
    9   11   18     -0.37     -0.74
   10   11   18      0.12      1.29
   11   11   18     -0.33      0.01
    5   12   18     -1.13     -0.18
    6   12   18     -0.19      0.18
    7   12   18     -1.09     -1.33
    8   12   18     -0.24      1.33
    9   12   18      0.01     -0.94
   10   12   18     -0.51      0.97
   11   12   18      0.92     -1.14
   12   12   18     -0.42      0.02
    0   13   18      1.19      0.04
    1   13   18      0.71      0.26
    2   13   18      0.73      0.38
    3   13   18      1.55      1.29
    4   13   18      0.87     -0.14
    5   13   18      0.66      1.52
    6   13   18      0.98      0.56
    7   13   18     -0.18      0.14
    8   13   18      0.63      1.04
    9   13   18     -0.09     -0.92
   10   13   18      0.97      1.03
   11   13   18     -0.01     -0.71
   12   13   18      1.29      0.89
   13   13   18     -0.73      0.03
    0   14   18     -1.06     -0.01
    1   14   18      0.31      0.41
    2   14   18     -1.61     -0.46
    3   14   18      0.29      1.28
    4   14   18     -1.10     -1.27
    5   14   18     -0.41      0.95
    6   14   18     -0.13     -0.50
    7   14   18     -0.43     -0.26
    8   14   18     -0.46      0.82
    9   14   18     -0.10     -0.43
   10   14   18     -0.58      0.99
   11   14   18      0.56      0.03
   12   14   18      0.21      0.44
   13   14   18      0.84      0.27
    0   15   18     -1.19      0.03
    1   15   18      0.34     -0.21
    2   15   18     -1.28     -0.06
    3   15   18      0.35      0.15
    4   15   18     -0.84     -0.31
    5   15   18     -0.60      0.53
    6   15   18     -0.58     -0.29
    7   15   18     -0.48     -0.04
    8   15   18     -0.05      0.49
    9   15   18      0.17     -0.56
   10   15   18      0.87      0.62
   11   15   18      0.04     -0.52
   12   15   18      1.03     -0.06
    0   16   18     -1.06      0.00
    1   16   18      0.68      0.77
    2   16   18     -0.94     -0.26
    3   16   18      0.46      1.57
    4   16   18     -0.38     -0.43
    5   16   18     -0.08      1.29
    6   16   18     -0.31     -0.02
    7   16   18     -0.11      0.59
    8   16   18     -0.41      0.39
    9   16   18     -0.37      0.26
   10   16   18     -0.07      0.28
   11   16   18     -0.31      0.67
    0   17   18     -1.61     -0.01
    1   17   18     -0.36     -0.17
    2   17   18     -1.75     -0.11
    3   17   18     -0.83     -0.14
    4   17   18     -1.37     -0.35
    5   17   18     -1.11     -0.04
    6   17   18     -1.15     -0.05
    7   17   18     -0.55     -0.05
    8   17   18     -1.01      0.21
    9   17   18     -0.32      0.11
    0   18   18     -0.33      0.02
    1   18   18      0.43      0.36
    2   18   18     -0.41     -0.08
    3   18   18      0.50      1.16
    4   18   18     -0.04     -0.47
    5   18   18     -0.06      0.84
    6   18   18      0.08     -0.26
    7   18   18     -0.09     -0.01
    0   19   18     -0.55     -0.02
    1   19   18     -0.56     -0.28
    2   19   18     -0.67      0.38
    3   19   18     -0.13     -0.04
    4   19   18     -0.36      0.08
    6    7   19      0.80     -1.30
    7    7   19     -2.52      0.04
    4    8   19      1.72     -0.29
    5    8   19     -1.45      2.94
    6    8   19      0.19      0.40
    7    8   19     -1.09      0.31
    8    8   19     -1.60      0.00
    0    9   19     -2.85      0.04
    1    9   19     -1.68      0.15
    2    9   19     -1.59     -1.61
    3    9   19     -1.90      0.09
    4    9   19      1.37     -1.43
    5    9   19     -2.36     -0.98
    6    9   19      2.44     -0.36
    7    9   19     -1.66     -1.33
    8    9   19      0.70      0.82
    9    9   19     -0.91     -0.08
    0   10   19      1.08      0.04
    1   10   19      0.62      1.32
    2   10   19      1.24     -0.27
    3   10   19     -0.06      2.38
    4   10   19      1.40     -0.13
    5   10   19     -1.25      1.79
    6   10   19     -0.04      0.45
    7   10   19     -1.51      0.59
    8   10   19     -1.36      0.46
    9   10   19     -1.01     -0.75
   10   10   19     -0.78      0.06
    0   11   19      0.66      0.06
    1   11   19      0.52      0.45
    2   11   19      1.17     -0.88
    3   11   19     -0.67      0.63
    4   11   19      1.94     -0.38
    5   11   19     -1.41     -0.19
    6   11   19      1.36      0.75
    7   11   19     -0.71     -0.72
    8   11   19      0.41      1.04
    9   11   19     -0.17     -0.26
   10   11   19     -0.13      0.45
   11   11   19      0.63      0.00
    0   12   19     -0.21     -0.01
    1   12   19     -1.58      0.59
    2   12   19      0.51     -0.22
    3   12   19     -1.08      1.45
    4   12   19      1.60     -0.46
    5   12   19     -0.24      0.58
    6   12   19      0.91     -0.55
    7   12   19      0.38     -0.49
    8   12   19     -0.07     -0.33
    9   12   19     -0.44      0.08
   10   12   19     -0.21     -0.10
   11   12   19     -0.57      0.17
   12   12   19      0.05     -0.01
    0   13   19      0.55     -0.05
    1   13   19      0.60      0.44
    2   13   19      0.74     -0.76
    3   13   19     -0.57      0.93
    4   13   19      0.69     -0.30
    5   13   19     -1.40      0.69
    6   13   19     -0.70      1.39
    7   13   19     -0.65      0.36
    8   13   19     -1.30      0.99
    9   13   19      0.25      0.42
   10   13   19     -0.29     -0.31
   11   13   19      0.66      0.35
    0   14   19      0.25     -0.02
    1   14   19     -0.22      0.75
    2   14   19      0.50      0.00
    3   14   19     -0.16      1.12
    4   14   19      1.22     -0.26
    5   14   19      0.43      0.12
    6   14   19      1.05     -0.38
    7   14   19      1.35     -0.38
    8   14   19      0.35     -0.27
    9   14   19      0.78      0.23
    0   15   19     -1.07     -0.07
    1   15   19     -0.92      0.37
    2   15   19     -0.79     -1.13
    3   15   19     -0.88      0.56
    4   15   19     -0.33     -0.36
    5   15   19     -0.69      0.16
    6   15   19     -0.82      0.30
    7   15   19     -0.12     -0.06
    8   15   19     -0.96      0.28
    0   16   19      0.24     -0.03
    1   16   19      0.59      0.52
    2   16   19      0.20      0.17
    3   16   19      0.28      0.48
    4   16   19     -0.01      0.43
    5   16   19      0.11      0.09
    6   16   19     -0.46      0.32
    0   17   19     -0.69     -0.02
    1   17   19     -0.69      0.38
    2   17   19     -0.60     -0.26
    0    0    0      0.00      0.00
# SQUEEZE RESULTS (Version =  30715)
# Note: Data are Listed for all Voids in the P1 Unit Cell
# i.e. Centre of Gravity, Solvent Accessible Volume,
# Recovered number of Electrons in the Void and
# Details about the Squeezed Material
loop_
  _platon_squeeze_void_nr
  _platon_squeeze_void_average_x
  _platon_squeeze_void_average_y
  _platon_squeeze_void_average_z
  _platon_squeeze_void_volume
  _platon_squeeze_void_count_electrons
  _platon_squeeze_void_content
   1  0.000  0.000  0.000       273        47 ' '
   2  0.000  0.500 -0.020      1144       174 ' '
   3  0.500  0.000 -0.021      1144       174 ' '
   4  0.500  0.500  0.000        28         0 ' '
   5  0.500  0.500  0.500       279        46 ' '
# Missing Reflections Below sin(th)/lambda = 0.25
loop_
  _platon_missing_refln_index_h
  _platon_missing_refln_index_k
  _platon_missing_refln_index_l
  _platon_missing_refln_theta
    0    1    0     1.709
    1    1    0     2.417
    0    0    1     2.621
    0    1    1     3.129
    0    0    8    21.457
_platon_squeeze_void_probe_radius                  1.20
_platon_squeeze_details
)
TITL b in P422
CELL   25.8521   25.8521   16.8589     90.00     90.00     90.00
SPGR P422
# Solvent Accessible Volume =    2894.3
# Electrons Found in S.A.V. =     439.8
# Note: Atoms in Void as Cxxx and Qxxx all others
C101 0.563 0.438 0.499 !       1.06 eA-3
C102 0.923 0.589 0.466 !       1.05 eA-3
C103 1.000 0.994 0.906 !       1.03 eA-3
C104 0.024 0.955 0.891 !       1.00 eA-3
C105 0.415 0.989 0.607 !       0.98 eA-3
C106 0.010 0.029 0.891 !       0.97 eA-3
C107 1.000 0.599 0.280 !       0.96 eA-3
C108 0.976 0.430 0.605 !       0.94 eA-3
C109 0.524 0.090 0.508 !       0.93 eA-3
C110 0.580 0.990 0.697 !       0.92 eA-3
C111 0.416 0.990 0.348 !       0.90 eA-3
C112 0.594 0.063 0.402 !       0.90 eA-3
C113 0.940 0.406 0.594 !       0.90 eA-3
Q114 0.015 0.393 0.645 !       0.89 eA-3
C115 0.455 0.915 0.487 !       0.88 eA-3
Q116 0.007 0.593 0.547 !       0.88 eA-3
C117 0.500 0.931 0.478 !       0.88 eA-3
C118 0.944 0.448 0.562 !       0.83 eA-3
C119 0.485 0.572 0.515 !       0.83 eA-3
C120 1.000 0.093-0.005 !       0.82 eA-3
C121 0.013 0.375 0.923 !       0.81 eA-3
C122 0.565 0.991 0.352 !       0.80 eA-3
C123 0.579 0.476 0.513 !       0.79 eA-3
C124 0.530 0.945 0.512 !       0.79 eA-3
C125 0.421 0.995 0.176 !       0.79 eA-3
C126 0.022 0.416 0.908 !       0.78 eA-3
C127 0.954 0.027 0.956 !       0.76 eA-3
C128 0.037 0.593 0.969 !       0.76 eA-3
C129 0.447 0.507 0.584 !       0.76 eA-3
C130 0.951 0.610 0.893 !       0.76 eA-3
C131 0.525 0.565 0.550 !       0.76 eA-3
C132 0.968 0.393 0.698 !       0.75 eA-3
C133 0.963 0.573 0.348 !       0.75 eA-3
C134 0.545 0.546 0.470 !       0.75 eA-3
C135 0.025 0.471 0.443 !       0.75 eA-3
C136 0.556 0.533 0.593 !       0.75 eA-3
C137 0.992 0.592 0.972 !       0.75 eA-3
C138 0.625 0.984 0.878 !       0.74 eA-3
C139 0.016 0.380 0.158 !       0.73 eA-3
C140 0.024 0.382 0.001 !       0.71 eA-3
C141 0.992 0.429 0.235 !       0.70 eA-3
C142 0.952 0.512 0.590 !       0.69 eA-3
C143 0.569 0.033 0.230 !       0.68 eA-3
C144 0.978 0.463 0.389 !       0.67 eA-3
C145 0.993 0.397 0.220 !       0.66 eA-3
C146 0.418 1.000 0.499 !       0.65 eA-3
C147 0.623 0.011 0.324 !       0.64 eA-3
C148 0.027 0.470 0.642 !       0.64 eA-3
C149 0.899 0.372 0.537 !       0.64 eA-3
C150 0.584 0.540 0.549 !       0.64 eA-3
C151 0.007 0.559 0.891 !       0.63 eA-3
C152 0.514 0.078 0.900 !       0.62 eA-3
C153 0.951 0.952-0.004 !       0.62 eA-3
Q154 0.015 0.382 0.500 !       0.60 eA-3
C155 0.500 0.906 0.002 !       0.60 eA-3
C156 0.515 0.987 0.641 !       0.60 eA-3
C157 0.009 0.637 0.954 !       0.59 eA-3
C158 0.963 0.558 0.815 !       0.59 eA-3
C159 0.453 0.948 0.966 !       0.58 eA-3
C160 0.036 0.625 0.042 !       0.58 eA-3
C161 0.522 0.978 0.299 !       0.57 eA-3
Q162 0.693 0.302 0.940 !       0.57 eA-3
C163 0.033 0.593 0.779 !       0.57 eA-3
C164 0.927 0.032 0.027 !       0.57 eA-3
C165 0.030 0.586 0.271 !       0.56 eA-3
C166 0.965 0.596 0.782 !       0.55 eA-3
C167 0.924 0.585 0.828 !       0.55 eA-3
C168 0.535 0.987 0.237 !       0.54 eA-3
C169 0.026 0.454 0.862 !       0.53 eA-3
C170 0.365 0.081 0.017 !       0.53 eA-3
C171 0.389 0.042 0.160 !       0.53 eA-3
C172 0.013 0.460 0.256 !       0.52 eA-3
Q173 0.615 0.944 0.410 !       0.52 eA-3
C174 0.615 0.493 0.437 !       0.52 eA-3
C175 0.080 0.614 0.061 !       0.51 eA-3
C176 0.539 0.996 0.184 !       0.51 eA-3
C177 1.000 0.999 0.969 !       0.51 eA-3
C178 0.518 0.013 0.486 !       0.50 eA-3
)
;
_shelx_fab_checksum              3235
loop_
_space_group_symop_operation_xyz
'x, y, z'
'-x, -y, z'
'-y, x, z'
'y, -x, z'
'-x, y, -z'
'x, -y, -z'
'y, x, -z'
'-y, -x, -z'
loop_
_atom_site_label
_atom_site_type_symbol
_atom_site_fract_x
_atom_site_fract_y
_atom_site_fract_z
_atom_site_U_iso_or_equiv
_atom_site_adp_type
_atom_site_occupancy
_atom_site_site_symmetry_order
_atom_site_calc_flag
_atom_site_refinement_flags_posn
_atom_site_refinement_flags_adp
_atom_site_refinement_flags_occupancy
O1 O 0.3374(4) 0.3374(4) 0.000000 0.295(8) Uani 1 2 d DS T P
C38 C 0.3049(3) 0.6475(3) 0.3340(5) 0.070(2) Uani 1 1 d . . .
H38 H 0.308218 0.682131 0.319974 0.084 Uiso 1 1 calc R U .
N18 N 0.3131(3) 0.6272(3) 0.4079(4) 0.0626(16) Uani 1 1 d . . .
N19 N 0.3043(3) 0.3043(3) 0.000000 0.107(3) Uani 1 2 d DS T P
Ni1 Ni 0.34101(4) 0.34101(4) 0.500000 0.0603(3) Uani 1 2 d S T P
Ni4 Ni 0.27276(4) 0.49961(7) 0.25878(6) 0.0663(3) Uani 1 1 d . . .
Ni6 Ni 0.500000 0.500000 0.16891(14) 0.0763(6) Uani 1 4 d S T P
N3 N 0.2921(3) 0.5628(3) 0.3273(4) 0.0644(17) Uani 1 1 d . . .
N6 N 0.2619(3) 0.4395(3) 0.1734(5) 0.087(3) Uani 1 1 d . . .
C1 C 0.3183(3) 0.4160(3) 0.3783(5) 0.069(2) Uani 1 1 d . . .
H1A H 0.352544 0.415516 0.361552 0.082 Uiso 1 1 calc R U .
N4 N 0.2623(3) 0.5612(3) 0.1752(4) 0.074(2) Uani 1 1 d . . .
N2 N 0.1957(2) 0.4957(4) 0.3094(4) 0.0818(18) Uani 1 1 d . . .
N1 N 0.2828(3) 0.4466(3) 0.3479(4) 0.0688(18) Uani 1 1 d . . .
N5 N 0.3463(2) 0.4912(3) 0.2160(3) 0.0704(17) Uani 1 1 d . . .
N16 N 0.2994(3) 0.3848(3) 0.4373(3) 0.0637(17) Uani 1 1 d . . .
C2 C 0.2913(3) 0.6085(3) 0.2850(4) 0.0644(19) Uani 1 1 d . . .
C3 C 0.1928(3) 0.4641(4) 0.3670(5) 0.083(2) Uani 1 1 d . . .
H3 H 0.162017 0.459608 0.394608 0.099 Uiso 1 1 calc R U .
C4 C 0.3936(3) 0.5098(3) 0.2213(4) 0.068(2) Uani 1 1 d . . .
H4 H 0.402496 0.536218 0.256121 0.081 Uiso 1 1 calc R U .
C5 C 0.3503(3) 0.4533(3) 0.1580(5) 0.071(2) Uani 1 1 d . . .
C6 C 0.2777(3) 0.6041(3) 0.2003(5) 0.074(2) Uani 1 1 d . . .
H6 H 0.280577 0.632398 0.166555 0.089 Uiso 1 1 calc R U .
C7 C 0.4005(3) 0.4510(3) 0.1307(5) 0.084(3) Uani 1 1 d . . .
H7 H 0.412943 0.428965 0.091524 0.101 Uiso 1 1 calc R U .
C8 C 0.3052(3) 0.5756(3) 0.3979(5) 0.062(2) Uani 1 1 d . . .
H8 H 0.308944 0.551733 0.438700 0.074 Uiso 1 1 calc R U .
C9 C 0.2148(4) 0.4106(4) 0.1544(8) 0.114(4) Uani 1 1 d . . .
H9A H 0.184935 0.433055 0.160484 0.137 Uiso 1 1 calc R U .
H9B H 0.216056 0.399164 0.099662 0.137 Uiso 1 1 calc R U .
C10 C 0.2480(3) 0.3975(3) 0.4426(5) 0.075(2) Uani 1 1 d . . .
H10 H 0.224011 0.382944 0.477084 0.090 Uiso 1 1 calc R U .
N7 N 0.4288(3) 0.4870(2) 0.1716(4) 0.0762(19) Uani 1 1 d . . .
C11 C 0.2383(3) 0.4354(3) 0.3884(5) 0.071(2) Uani 1 1 d . . .
C12 C 0.1502(4) 0.5283(5) 0.2918(7) 0.113(4) Uani 1 1 d . . .
H12A H 0.119088 0.510702 0.309276 0.136 Uiso 1 1 calc R U .
H12B H 0.147627 0.533412 0.234907 0.136 Uiso 1 1 calc R U .
C13 C 0.2528(5) 0.5584(4) 0.0876(5) 0.109(4) Uani 1 1 d . . .
H13A H 0.270498 0.528794 0.064957 0.131 Uiso 1 1 calc R U .
H13B H 0.265315 0.589484 0.061709 0.131 Uiso 1 1 calc R U .
C14 C 0.2097(6) 0.3685(5) 0.2036(9) 0.152(6) Uani 1 1 d . . .
H14A H 0.234285 0.342420 0.188470 0.228 Uiso 1 1 calc R U .
H14B H 0.175337 0.354788 0.199241 0.228 Uiso 1 1 calc R U .
H14C H 0.216087 0.378807 0.257425 0.228 Uiso 1 1 calc R U .
C16 C 0.3038(4) 0.4260(4) 0.1391(6) 0.089(3) Uani 1 1 d . . .
H16 H 0.304052 0.399104 0.102518 0.106 Uiso 1 1 calc R U .
Ni2 Ni 0.21768(6) 1.000000 0.000000 0.0599(4) Uani 1 2 d S T P
Ni3 Ni 0.15778(6) 0.84071(6) 0.24805(5) 0.0601(3) Uani 1 1 d . . .
Ni5 Ni 0.000000 1.000000 0.35183(11) 0.0642(5) Uani 1 4 d S T P
N15 N 0.2107(3) 0.7883(3) 0.1921(3) 0.0697(14) Uani 1 1 d . . .
N9 N 0.1222(3) 0.7852(3) 0.3271(4) 0.071(2) Uani 1 1 d . . .
N12 N 0.2110(3) 0.8738(3) 0.3324(4) 0.073(2) Uani 1 1 d . . .
N8 N 0.0994(3) 0.8130(3) 0.1798(3) 0.0605(17) Uani 1 1 d . . .
C17 C 0.0806(3) 0.8158(3) 0.1064(4) 0.0584(19) Uani 1 1 d . . .
H17 H 0.093837 0.837915 0.067985 0.070 Uiso 1 1 calc R U .
N13 N 0.1872(2) 0.8864(2) 0.1575(4) 0.0570(15) Uani 1 1 d . . .
N10 N 0.1130(2) 0.8976(3) 0.2983(3) 0.0610(15) Uani 1 1 d . . .
C18 C 0.1920(4) 0.9108(4) 0.3705(5) 0.082(2) Uani 1 1 d . . .
H18 H 0.211899 0.928998 0.406943 0.098 Uiso 1 1 calc R U .
C19 C 0.1839(3) 0.9321(3) 0.1270(4) 0.060(2) Uani 1 1 d . . .
H19 H 0.161930 0.957356 0.147243 0.072 Uiso 1 1 calc R U .
N14 N 0.2149(3) 0.9405(2) 0.0628(3) 0.0640(16) Uani 1 1 d . . .
N17 N 0.2162(3) 0.9593(3) -0.0930(4) 0.0665(17) Uani 1 1 d . . .
C21 C 0.0691(3) 0.7765(3) 0.2169(4) 0.0655(19) Uani 1 1 d . . .
C22 C 0.2229(3) 0.8608(3) 0.1133(4) 0.0611(18) Uani 1 1 d . . .
C23 C 0.1383(3) 0.9248(3) 0.3569(4) 0.0670(19) Uani 1 1 d . . .
C24 C 0.1054(3) 0.9623(3) 0.3854(4) 0.074(2) Uani 1 1 d . . .
H24 H 0.113363 0.986978 0.423661 0.089 Uiso 1 1 calc R U .
N11 N 0.0589(2) 0.9568(2) 0.3476(3) 0.0683(17) Uani 1 1 d . . .
C25 C 0.2335(3) 0.8077(3) 0.1312(4) 0.069(2) Uani 1 1 d . . .
H25 H 0.255809 0.788092 0.100140 0.083 Uiso 1 1 calc R U .
C26 C 0.2182(4) 0.7318(3) 0.2058(6) 0.092(3) Uani 1 1 d . . .
H26A H 0.252486 0.721853 0.187938 0.111 Uiso 1 1 calc R U .
H26B H 0.215953 0.724611 0.262144 0.111 Uiso 1 1 calc R U .
C27 C 0.2396(3) 0.8937(3) 0.0546(4) 0.071(2) Uani 1 1 d . . .
H27 H 0.263737 0.885658 0.015547 0.085 Uiso 1 1 calc R U .
C28 C 0.0814(4) 0.7650(3) 0.2985(5) 0.078(2) Uani 1 1 d . . .
H28 H 0.060381 0.743732 0.329026 0.094 Uiso 1 1 calc R U .
C29 C 0.0664(3) 0.9182(3) 0.2964(4) 0.065(2) Uani 1 1 d . . .
H29 H 0.040681 0.906663 0.262056 0.078 Uiso 1 1 calc R U .
C30 C 0.2669(4) 0.8625(4) 0.3429(7) 0.104(3) Uani 1 1 d . . .
H30A H 0.273979 0.827558 0.324998 0.125 Uiso 1 1 calc R U .
H30B H 0.275642 0.864593 0.398718 0.125 Uiso 1 1 calc R U .
C32 C 0.1340(4) 0.7745(4) 0.4121(5) 0.101(3) Uani 1 1 d . . .
H32A H 0.103662 0.760159 0.437853 0.121 Uiso 1 1 calc R U .
H32B H 0.142979 0.806495 0.438836 0.121 Uiso 1 1 calc R U .
C33 C 0.1793(4) 0.7010(4) 0.1634(9) 0.130(5) Uani 1 1 d . . .
H33A H 0.146881 0.719062 0.163446 0.195 Uiso 1 1 calc R U .
H33B H 0.175189 0.668174 0.189391 0.195 Uiso 1 1 calc R U .
H33C H 0.190412 0.695500 0.109730 0.195 Uiso 1 1 calc R U .
C36 C 0.1942(6) 0.5531(6) 0.0766(8) 0.179(7) Uani 1 1 d . . .
H36A H 0.182901 0.520475 0.097418 0.268 Uiso 1 1 calc R U .
H36B H 0.185913 0.554998 0.021110 0.268 Uiso 1 1 calc R U .
H36C H 0.176958 0.580659 0.104235 0.268 Uiso 1 1 calc R U .
C35 C 0.1535(5) 0.5795(5) 0.3315(11) 0.188(9) Uani 1 1 d . . .
H35A H 0.149007 0.575105 0.387623 0.282 Uiso 1 1 calc R U .
H35B H 0.126916 0.601770 0.311286 0.282 Uiso 1 1 calc R U .
H35C H 0.186773 0.594564 0.321271 0.282 Uiso 1 1 calc R U .
C34 C 0.1784(7) 0.7368(7) 0.4184(8) 0.195(8) Uani 1 1 d . . .
H34A H 0.168598 0.704491 0.394663 0.293 Uiso 1 1 calc R U .
H34B H 0.186732 0.731386 0.473229 0.293 Uiso 1 1 calc R U .
H34C H 0.207959 0.750566 0.391241 0.293 Uiso 1 1 calc R U .
C37 C 0.2414(3) 0.9665(3) -0.1637(4) 0.0669(19) Uani 1 1 d . . .
H37 H 0.266425 0.991417 -0.173751 0.080 Uiso 1 1 calc R U .
N20 N 0.2885(8) 1.000000 0.500000 0.190(8) Uani 1 2 d DS T P
O2 O 0.2678(5) 0.3129(5) 0.0346(10) 0.295(8) Uani 1 1 d D . .
C39 C 0.2994(5) 0.8994(7) 0.2975(11) 0.184(7) Uani 1 1 d . . .
H39A H 0.293510 0.894754 0.241767 0.276 Uiso 1 1 calc R U .
H39B H 0.335218 0.893225 0.309226 0.276 Uiso 1 1 calc R U .
H39C H 0.290546 0.934184 0.312266 0.276 Uiso 1 1 calc R U .
O4 O 0.3116(6) 0.9750(7) 0.5488(9) 0.323(9) Uani 1 1 d D . .
O3 O 0.2409(9) 1.000000 0.500000 0.323(9) Uani 1 2 d DS T P
loop_
_atom_site_aniso_label
_atom_site_aniso_U_11
_atom_site_aniso_U_22
_atom_site_aniso_U_33
_atom_site_aniso_U_23
_atom_site_aniso_U_13
_atom_site_aniso_U_12
O1 0.229(7) 0.229(7) 0.43(2) -0.156(10) 0.156(10) -0.048(9)
C38 0.067(5) 0.068(5) 0.074(4) 0.001(4) -0.002(4) 0.003(4)
N18 0.065(4) 0.068(4) 0.054(3) 0.005(3) -0.002(3) 0.002(3)
N19 0.088(4) 0.088(4) 0.145(9) -0.022(8) 0.022(8) -0.005(6)
Ni1 0.0639(5) 0.0639(5) 0.0533(7) 0.0016(8) -0.0016(8) 0.0012(7)
Ni4 0.0702(7) 0.0648(6) 0.0640(6) 0.0004(9) -0.0131(5) 0.0055(9)
Ni6 0.0747(9) 0.0747(9) 0.0793(13) 0.000 0.000 0.000
N3 0.066(4) 0.064(4) 0.063(4) -0.003(3) -0.007(3) 0.005(3)
N6 0.078(5) 0.086(6) 0.097(6) -0.018(5) -0.023(5) -0.009(5)
C1 0.061(5) 0.072(5) 0.073(5) -0.010(4) -0.001(4) 0.006(4)
N4 0.097(6) 0.068(5) 0.058(4) 0.003(4) -0.020(4) 0.014(4)
N2 0.074(4) 0.092(5) 0.079(4) 0.002(5) -0.016(3) 0.020(5)
N1 0.063(4) 0.068(4) 0.076(4) 0.008(4) -0.008(4) 0.007(3)
N5 0.073(4) 0.072(5) 0.066(3) -0.005(3) -0.016(3) 0.004(4)
N16 0.071(4) 0.074(4) 0.046(3) 0.006(3) -0.004(3) 0.005(3)
C2 0.068(5) 0.069(5) 0.056(4) 0.009(4) -0.006(3) 0.015(4)
C3 0.064(5) 0.101(7) 0.083(5) 0.011(5) -0.004(4) 0.013(5)
C4 0.085(5) 0.059(6) 0.059(3) -0.006(4) -0.003(4) -0.007(4)
C5 0.073(5) 0.075(5) 0.066(4) -0.019(4) -0.010(4) 0.006(4)
C6 0.085(6) 0.075(5) 0.063(4) 0.008(4) -0.018(4) 0.014(5)
C7 0.083(6) 0.090(6) 0.079(5) -0.030(5) -0.010(5) 0.018(5)
C8 0.061(5) 0.061(5) 0.063(5) 0.000(4) 0.000(4) 0.003(4)
C9 0.113(9) 0.104(8) 0.126(9) -0.030(7) -0.020(8) -0.011(7)
C10 0.071(5) 0.086(6) 0.068(5) -0.004(4) 0.001(4) 0.004(4)
N7 0.077(4) 0.071(5) 0.080(4) -0.004(3) 0.001(3) -0.003(3)
C11 0.057(5) 0.085(6) 0.071(4) -0.001(4) -0.013(4) 0.006(4)
C12 0.074(6) 0.136(10) 0.130(8) 0.021(8) -0.016(6) 0.027(6)
C13 0.170(11) 0.097(7) 0.062(5) 0.000(5) -0.043(6) 0.004(7)
C14 0.162(14) 0.127(11) 0.168(13) 0.012(11) -0.003(11) -0.052(10)
C16 0.082(6) 0.084(6) 0.099(6) -0.026(5) -0.005(5) -0.007(5)
Ni2 0.0769(10) 0.0565(8) 0.0462(6) -0.0032(11) 0.000 0.000
Ni3 0.0659(9) 0.0638(9) 0.0506(4) 0.0043(7) -0.0107(7) 0.0061(5)
Ni5 0.0681(8) 0.0681(8) 0.0564(10) 0.000 0.000 0.000
N15 0.079(5) 0.060(5) 0.071(3) 0.007(4) -0.015(4) 0.017(3)
N9 0.075(5) 0.083(5) 0.055(4) 0.017(4) -0.015(4) -0.010(4)
N12 0.068(5) 0.087(5) 0.065(4) 0.005(4) -0.010(4) 0.008(4)
N8 0.065(4) 0.071(4) 0.045(3) 0.000(3) -0.007(3) 0.003(3)
C17 0.064(5) 0.062(5) 0.048(4) 0.005(3) 0.002(3) -0.004(4)
N13 0.060(4) 0.062(4) 0.049(3) 0.003(3) -0.003(3) 0.008(3)
N10 0.059(4) 0.070(4) 0.054(2) -0.001(3) -0.008(3) 0.003(3)
C18 0.085(6) 0.088(6) 0.072(5) 0.001(5) -0.017(5) -0.005(5)
C19 0.074(5) 0.061(5) 0.046(4) -0.002(3) 0.001(4) 0.009(4)
N14 0.082(4) 0.058(4) 0.052(3) 0.000(3) 0.002(3) 0.015(3)
N17 0.080(4) 0.070(4) 0.050(3) -0.003(3) 0.003(3) -0.001(4)
C21 0.072(5) 0.075(5) 0.049(3) 0.012(4) 0.000(4) 0.002(4)
C22 0.058(4) 0.062(4) 0.064(4) 0.000(4) -0.003(3) 0.010(4)
C23 0.069(5) 0.070(5) 0.062(4) -0.002(4) -0.013(4) 0.002(4)
C24 0.086(6) 0.078(5) 0.059(4) -0.011(4) -0.023(4) -0.001(5)
N11 0.078(5) 0.067(4) 0.061(3) -0.009(3) -0.010(3) 0.001(3)
C25 0.078(5) 0.070(5) 0.060(4) -0.001(4) -0.014(4) 0.010(4)
C26 0.105(7) 0.066(5) 0.107(6) 0.020(5) -0.002(6) 0.029(5)
C27 0.084(5) 0.073(5) 0.055(4) -0.004(4) 0.005(4) 0.010(4)
C28 0.089(6) 0.077(5) 0.068(4) 0.019(4) -0.008(4) -0.010(5)
C29 0.075(5) 0.067(5) 0.052(3) 0.001(3) -0.011(3) -0.008(4)
C30 0.089(7) 0.115(8) 0.108(7) -0.008(7) -0.034(6) 0.026(6)
C32 0.136(9) 0.102(7) 0.064(5) 0.014(5) -0.017(6) -0.015(7)
C33 0.104(8) 0.061(6) 0.225(15) -0.011(8) -0.010(9) 0.001(5)
C36 0.233(18) 0.175(14) 0.128(10) -0.032(10) -0.093(12) -0.012(13)
C35 0.114(10) 0.112(10) 0.34(3) 0.010(14) 0.005(14) 0.048(9)
C34 0.231(18) 0.238(18) 0.116(9) 0.070(12) -0.060(11) 0.064(16)
C37 0.085(5) 0.064(5) 0.051(3) -0.008(3) 0.007(4) -0.003(4)
N20 0.26(3) 0.147(15) 0.167(16) 0.046(19) 0.000 0.000
O2 0.229(7) 0.229(7) 0.43(2) -0.156(10) 0.156(10) -0.048(9)
C39 0.113(11) 0.23(2) 0.208(18) 0.003(16) 0.016(12) -0.014(12)
O4 0.323(17) 0.347(19) 0.298(16) 0.175(15) -0.083(15) -0.067(17)
O3 0.323(17) 0.347(19) 0.298(16) 0.175(15) -0.083(15) -0.067(17)
loop_
_atom_type_symbol
_atom_type_description
_atom_type_scat_dispersion_real
_atom_type_scat_dispersion_imag
_atom_type_scat_source
C C 0.0181 0.0091 'International Tables Vol C Tables 4.2.6.8 and 6.1.1.4'
H H 0.0000 0.0000 'International Tables Vol C Tables 4.2.6.8 and 6.1.1.4'
N N 0.0311 0.0180 'International Tables Vol C Tables 4.2.6.8 and 6.1.1.4'
O O 0.0492 0.0322 'International Tables Vol C Tables 4.2.6.8 and 6.1.1.4'
Ni Ni -3.0029 0.5091 'International Tables Vol C Tables 4.2.6.8 and 6.1.1.4'
loop_
_geom_angle_atom_site_label_1
_geom_angle_atom_site_label_2
_geom_angle_atom_site_label_3
_geom_angle
_geom_angle_site_symmetry_1
_geom_angle_site_symmetry_3
C2 C38 N18 108.1(7) . .
C8 N18 C38 103.8(6) . .
C8 N18 Ni1 125.7(5) . 4_565
C38 N18 Ni1 129.6(6) . 4_565
O2 N19 O2 126.4(17) 7 .
O2 N19 O1 116.8(9) 7 .
O2 N19 O1 116.8(9) . .
N16 Ni1 N16 177.6(4) . 7_556
N16 Ni1 N18 89.0(3) . 6_566
N16 Ni1 N18 90.9(3) 7_556 6_566
N16 Ni1 N18 90.9(3) . 3_655
N16 Ni1 N18 89.0(3) 7_556 3_655
N18 Ni1 N18 175.7(4) 6_566 3_655
N5 Ni4 N1 94.0(3) . .
N5 Ni4 N3 93.2(3) . .
N1 Ni4 N3 95.1(3) . .
N5 Ni4 N6 78.9(3) . .
N1 Ni4 N6 91.4(3) . .
N3 Ni4 N6 170.2(3) . .
N5 Ni4 N4 88.0(3) . .
N1 Ni4 N4 173.9(3) . .
N3 Ni4 N4 79.1(3) . .
N6 Ni4 N4 94.6(2) . .
N5 Ni4 N2 170.9(4) . .
N1 Ni4 N2 78.3(3) . .
N3 Ni4 N2 92.3(3) . .
N6 Ni4 N2 96.3(3) . .
N4 Ni4 N2 100.2(3) . .
N7 Ni6 N7 177.2(4) . 2_665
N7 Ni6 N7 89.965(11) . 4_565
N7 Ni6 N7 89.966(11) 2_665 4_565
N7 Ni6 N7 89.966(11) . 3_655
N7 Ni6 N7 89.966(11) 2_665 3_655
N7 Ni6 N7 177.2(4) 4_565 3_655
C8 N3 C2 105.2(7) . .
C8 N3 Ni4 142.1(6) . .
C2 N3 Ni4 112.6(5) . .
C16 N6 C9 118.0(9) . .
C16 N6 Ni4 113.1(6) . .
C9 N6 Ni4 128.8(8) . .
N1 C1 N16 112.9(8) . .
C6 N4 C13 115.4(8) . .
C6 N4 Ni4 113.2(6) . .
C13 N4 Ni4 129.2(7) . .
C3 N2 C12 118.3(8) . .
C3 N2 Ni4 112.6(6) . .
C12 N2 Ni4 128.7(7) . .
C1 N1 C11 105.3(7) . .
C1 N1 Ni4 141.0(6) . .
C11 N1 Ni4 113.6(5) . .
C4 N5 C5 103.6(7) . .
C4 N5 Ni4 143.3(6) . .
C5 N5 Ni4 113.1(5) . .
C1 N16 C10 104.5(7) . .
C1 N16 Ni1 123.8(6) . .
C10 N16 Ni1 131.4(5) . .
C38 C2 N3 108.6(7) . .
C38 C2 C6 135.4(8) . .
N3 C2 C6 116.0(7) . .
N2 C3 C11 118.4(8) . .
N5 C4 N7 114.8(7) . .
C7 C5 N5 109.6(7) . .
C7 C5 C16 134.2(8) . .
N5 C5 C16 116.3(8) . .
N4 C6 C2 118.1(8) . .
N7 C7 C5 107.8(7) . .
N3 C8 N18 114.2(7) . .
C14 C9 N6 110.5(11) . .
C11 C10 N16 107.9(7) . .
C4 N7 C7 104.2(7) . .
C4 N7 Ni6 126.2(5) . .
C7 N7 Ni6 129.4(6) . .
C10 C11 N1 109.4(7) . .
C10 C11 C3 133.6(8) . .
N1 C11 C3 117.0(8) . .
N2 C12 C35 111.8(10) . .
N4 C13 C36 106.6(10) . .
N6 C16 C5 118.6(8) . .
N14 Ni2 N14 175.6(4) . 6_575
N14 Ni2 N17 89.3(3) . 6_575
N14 Ni2 N17 90.6(3) 6_575 6_575
N14 Ni2 N17 90.6(3) . .
N14 Ni2 N17 89.3(3) 6_575 .
N17 Ni2 N17 177.7(4) 6_575 .
N8 Ni3 N10 93.9(3) . .
N8 Ni3 N13 93.2(2) . .
N10 Ni3 N13 95.8(3) . .
N8 Ni3 N15 90.1(3) . .
N10 Ni3 N15 173.3(3) . .
N13 Ni3 N15 78.6(3) . .
N8 Ni3 N12 171.6(3) . .
N10 Ni3 N12 78.6(3) . .
N13 Ni3 N12 91.4(3) . .
N15 Ni3 N12 97.7(3) . .
N8 Ni3 N9 78.4(3) . .
N10 Ni3 N9 88.9(3) . .
N13 Ni3 N9 170.7(3) . .
N15 Ni3 N9 97.1(3) . .
N12 Ni3 N9 97.4(2) . .
N11 Ni5 N11 89.920(14) . 4_465
N11 Ni5 N11 89.919(15) . 3_665
N11 Ni5 N11 175.7(4) 4_465 3_665
N11 Ni5 N11 175.7(4) . 2_575
N11 Ni5 N11 89.920(15) 4_465 2_575
N11 Ni5 N11 89.920(14) 3_665 2_575
C25 N15 C26 116.4(7) . .
C25 N15 Ni3 113.4(5) . .
C26 N15 Ni3 129.4(6) . .
C28 N9 C32 117.2(8) . .
C28 N9 Ni3 113.0(6) . .
C32 N9 Ni3 129.0(6) . .
C18 N12 C30 118.3(9) . .
C18 N12 Ni3 112.9(6) . .
C30 N12 Ni3 128.4(7) . .
C17 N8 C21 104.6(6) . .
C17 N8 Ni3 141.3(6) . .
C21 N8 Ni3 114.0(5) . .
N8 C17 N17 113.9(7) . 8_665
C19 N13 C22 105.7(6) . .
C19 N13 Ni3 142.2(6) . .
C22 N13 Ni3 112.1(5) . .
C29 N10 C23 104.3(6) . .
C29 N10 Ni3 142.5(5) . .
C23 N10 Ni3 113.2(5) . .
N12 C18 C23 119.1(8) . .
N13 C19 N14 115.0(7) . .
C19 N14 C27 102.4(6) . .
C19 N14 Ni2 127.0(5) . .
C27 N14 Ni2 130.5(5) . .
C17 N17 C37 104.5(6) 8_665 .
C17 N17 Ni2 125.5(5) 8_665 .
C37 N17 Ni2 129.6(6) . .
C37 C21 N8 108.4(6) 8_665 .
C37 C21 C28 135.0(8) 8_665 .
N8 C21 C28 116.6(7) . .
N13 C22 C27 107.9(6) . .
N13 C22 C25 118.7(7) . .
C27 C22 C25 133.3(7) . .
C24 C23 N10 108.4(6) . .
C24 C23 C18 135.3(7) . .
N10 C23 C18 116.1(7) . .
N11 C24 C23 107.9(7) . .
C29 N11 C24 104.7(6) . .
C29 N11 Ni5 125.6(5) . .
C24 N11 Ni5 129.0(5) . .
N15 C25 C22 117.1(7) . .
C33 C26 N15 111.6(8) . .
N14 C27 C22 109.0(7) . .
N9 C28 C21 117.5(8) . .
N10 C29 N11 114.7(6) . .
N12 C30 C39 111.3(10) . .
N9 C32 C34 110.0(9) . .
C21 C37 N17 108.7(7) 8_665 .
O4 N20 O4 121(3) 6_576 .
O4 N20 O3 119.7(13) 6_576 .
O4 N20 O3 119.7(13) . .
loop_
_geom_bond_atom_site_label_1
_geom_bond_atom_site_label_2
_geom_bond_distance
_geom_bond_site_symmetry_2
O1 N19 1.210(11) .
C38 C2 1.351(11) .
C38 N18 1.368(10) .
N18 C8 1.361(10) .
N18 Ni1 1.898(6) 4_565
N19 O2 1.132(9) 7
N19 O2 1.132(9) .
Ni1 N16 1.885(6) .
Ni1 N16 1.885(6) 7_556
Ni4 N5 2.044(6) .
Ni4 N1 2.050(7) .
Ni4 N3 2.063(7) .
Ni4 N6 2.137(9) .
Ni4 N4 2.144(7) .
Ni4 N2 2.170(7) .
Ni6 N7 1.872(7) .
Ni6 N7 1.872(7) 2_665
Ni6 N7 1.872(7) 4_565
Ni6 N7 1.872(7) 3_655
N3 C8 1.280(10) .
N3 C2 1.379(10) .
N6 C16 1.275(12) .
N6 C9 1.464(12) .
C1 N1 1.316(11) .
C1 N16 1.370(11) .
N4 C6 1.253(11) .
N4 C13 1.498(10) .
N2 C3 1.271(11) .
N2 C12 1.479(11) .
N1 C11 1.368(11) .
N5 C4 1.317(9) .
N5 C5 1.390(10) .
N16 C10 1.372(10) .
C2 C6 1.474(10) .
C3 C11 1.436(11) .
C4 N7 1.368(9) .
C5 C7 1.378(12) .
C5 C16 1.429(12) .
C7 N7 1.370(10) .
C9 C14 1.376(16) .
C10 C11 1.363(11) .
C12 C35 1.484(17) .
C13 C36 1.533(17) .
Ni2 N14 1.870(6) .
Ni2 N14 1.870(6) 6_575
Ni2 N17 1.890(6) 6_575
Ni2 N17 1.890(6) .
Ni3 N8 2.029(6) .
Ni3 N10 2.055(6) .
Ni3 N13 2.074(6) .
Ni3 N15 2.144(5) .
Ni3 N12 2.157(8) .
Ni3 N9 2.163(7) .
Ni5 N11 1.890(6) .
Ni5 N11 1.891(6) 4_465
Ni5 N11 1.891(6) 3_665
Ni5 N11 1.891(6) 2_575
N15 C25 1.285(10) .
N15 C26 1.492(10) .
N9 C28 1.272(11) .
N9 C32 1.491(11) .
N12 C18 1.251(11) .
N12 C30 1.483(12) .
N8 C17 1.331(9) .
N8 C21 1.378(10) .
C17 N17 1.340(10) 8_665
N13 C19 1.290(10) .
N13 C22 1.360(9) .
N10 C29 1.318(9) .
N10 C23 1.377(9) .
C18 C23 1.452(11) .
C19 N14 1.365(10) .
N14 C27 1.373(10) .
N17 C37 1.370(9) .
C21 C37 1.365(11) 8_665
C21 C28 1.442(10) .
C22 C27 1.375(11) .
C22 C25 1.433(10) .
C23 C24 1.377(11) .
C24 N11 1.367(10) .
N11 C29 1.334(9) .
C26 C33 1.469(13) .
C30 C39 1.484(17) .
C32 C34 1.508(16) .
N20 O4 1.204(11) 6_576
N20 O4 1.204(11) .
N20 O3 1.231(13) .
loop_
_geom_torsion_atom_site_label_1
_geom_torsion_atom_site_label_2
_geom_torsion_atom_site_label_3
_geom_torsion_atom_site_label_4
_geom_torsion
_geom_torsion_site_symmetry_1
_geom_torsion_site_symmetry_4
C2 C38 N18 C8 1.8(9) . .
C2 C38 N18 Ni1 171.4(6) . 4_565
N16 C1 N1 C11 0.1(10) . .
N16 C1 N1 Ni4 -174.8(7) . .
N1 C1 N16 C10 0.3(9) . .
N1 C1 N16 Ni1 -173.9(6) . .
N18 Ni1 N16 C1 125.7(7) 6_566 .
N18 Ni1 N16 C1 -50.0(6) 3_655 .
N18 Ni1 N16 C10 -46.9(7) 6_566 .
N18 Ni1 N16 C10 137.4(8) 3_655 .
N18 C38 C2 N3 -1.6(9) . .
N18 C38 C2 C6 -179.8(9) . .
C8 N3 C2 C38 0.6(9) . .
Ni4 N3 C2 C38 -179.3(5) . .
C8 N3 C2 C6 179.2(7) . .
Ni4 N3 C2 C6 -0.7(9) . .
C12 N2 C3 C11 -174.9(9) . .
Ni4 N2 C3 C11 -1.8(11) . .
C5 N5 C4 N7 -0.2(9) . .
Ni4 N5 C4 N7 -178.0(6) . .
C4 N5 C5 C7 -0.3(9) . .
Ni4 N5 C5 C7 178.3(6) . .
C4 N5 C5 C16 -179.8(7) . .
Ni4 N5 C5 C16 -1.2(10) . .
C13 N4 C6 C2 -175.8(9) . .
Ni4 N4 C6 C2 -10.9(11) . .
C38 C2 C6 N4 -173.8(9) . .
N3 C2 C6 N4 8.1(12) . .
N5 C5 C7 N7 0.6(10) . .
C16 C5 C7 N7 -180.0(9) . .
C2 N3 C8 N18 0.6(10) . .
Ni4 N3 C8 N18 -179.5(6) . .
C38 N18 C8 N3 -1.5(9) . .
Ni1 N18 C8 N3 -171.7(6) 4_565 .
C16 N6 C9 C14 88.1(15) . .
Ni4 N6 C9 C14 -87.1(13) . .
C1 N16 C10 C11 -0.6(9) . .
Ni1 N16 C10 C11 173.0(6) . .
N5 C4 N7 C7 0.5(9) . .
N5 C4 N7 Ni6 -175.0(5) . .
C5 C7 N7 C4 -0.7(9) . .
C5 C7 N7 Ni6 174.6(6) . .
N7 Ni6 N7 C4 -46.4(7) 4_565 .
N7 Ni6 N7 C4 130.8(5) 3_655 .
N7 Ni6 N7 C7 139.2(6) 4_565 .
N7 Ni6 N7 C7 -43.6(8) 3_655 .
N16 C10 C11 N1 0.7(9) . .
N16 C10 C11 C3 -179.4(9) . .
C1 N1 C11 C10 -0.5(10) . .
Ni4 N1 C11 C10 176.0(5) . .
C1 N1 C11 C3 179.6(8) . .
Ni4 N1 C11 C3 -3.9(10) . .
N2 C3 C11 C10 -176.0(9) . .
N2 C3 C11 N1 3.9(13) . .
C3 N2 C12 C35 93.8(14) . .
Ni4 N2 C12 C35 -78.0(14) . .
C6 N4 C13 C36 -111.2(11) . .
Ni4 N4 C13 C36 86.8(12) . .
C9 N6 C16 C5 -178.9(9) . .
Ni4 N6 C16 C5 -3.0(13) . .
C7 C5 C16 N6 -176.5(10) . .
N5 C5 C16 N6 2.9(14) . .
C21 N8 C17 N17 -0.4(10) . 8_665
Ni3 N8 C17 N17 174.9(6) . 8_665
C30 N12 C18 C23 175.7(8) . .
Ni3 N12 C18 C23 2.7(11) . .
C22 N13 C19 N14 0.6(9) . .
Ni3 N13 C19 N14 -179.8(6) . .
N13 C19 N14 C27 0.1(9) . .
N13 C19 N14 Ni2 176.1(5) . .
N17 Ni2 N14 C19 44.0(7) 6_575 .
N17 Ni2 N14 C19 -133.7(7) . .
N17 Ni2 N14 C27 -141.1(8) 6_575 .
N17 Ni2 N14 C27 41.2(7) . .
N14 Ni2 N17 C17 45.9(7) . 8_665
N14 Ni2 N17 C17 -129.8(7) 6_575 8_665
N14 Ni2 N17 C37 -143.0(8) . .
N14 Ni2 N17 C37 41.4(7) 6_575 .
C17 N8 C21 C37 0.5(9) . 8_665
Ni3 N8 C21 C37 -176.3(5) . 8_665
C17 N8 C21 C28 179.4(8) . .
Ni3 N8 C21 C28 2.6(9) . .
C19 N13 C22 C27 -1.0(9) . .
Ni3 N13 C22 C27 179.2(5) . .
C19 N13 C22 C25 -177.4(7) . .
Ni3 N13 C22 C25 2.9(8) . .
C29 N10 C23 C24 -2.3(9) . .
Ni3 N10 C23 C24 179.0(5) . .
C29 N10 C23 C18 -178.4(7) . .
Ni3 N10 C23 C18 2.9(9) . .
N12 C18 C23 C24 -178.6(9) . .
N12 C18 C23 N10 -3.9(12) . .
N10 C23 C24 N11 3.0(10) . .
C18 C23 C24 N11 178.0(9) . .
C23 C24 N11 C29 -2.4(9) . .
C23 C24 N11 Ni5 -173.0(5) . .
N11 Ni5 N11 C29 48.2(7) 4_465 .
N11 Ni5 N11 C29 -127.5(5) 3_665 .
N11 Ni5 N11 C24 -143.0(6) 4_465 .
N11 Ni5 N11 C24 41.3(8) 3_665 .
C26 N15 C25 C22 174.6(7) . .
Ni3 N15 C25 C22 3.8(9) . .
N13 C22 C25 N15 -4.6(11) . .
C27 C22 C25 N15 -179.9(9) . .
C25 N15 C26 C33 -88.1(11) . .
Ni3 N15 C26 C33 80.9(11) . .
C19 N14 C27 C22 -0.7(9) . .
Ni2 N14 C27 C22 -176.5(6) . .
N13 C22 C27 N14 1.1(9) . .
C25 C22 C27 N14 176.7(8) . .
C32 N9 C28 C21 178.3(9) . .
Ni3 N9 C28 C21 7.6(11) . .
C37 C21 C28 N9 171.4(9) 8_665 .
N8 C21 C28 N9 -7.2(12) . .
C23 N10 C29 N11 0.8(8) . .
Ni3 N10 C29 N11 178.9(6) . .
C24 N11 C29 N10 1.0(9) . .
Ni5 N11 C29 N10 172.0(5) . .
C18 N12 C30 C39 -77.7(14) . .
Ni3 N12 C30 C39 94.1(12) . .
C28 N9 C32 C34 106.3(12) . .
Ni3 N9 C32 C34 -84.7(12) . .
C17 N17 C37 C21 0.2(9) 8_665 8_665
Ni2 N17 C37 C21 -172.4(6) . 8_665
