#------------------------------------------------------------------------------
#$Date: 2019-11-02 08:10:29 +0200 (Sat, 02 Nov 2019) $
#$Revision: 221051 $
#$URL: file:///home/coder/svn-repositories/cod/cif/4/12/78/4127891.cif $
#------------------------------------------------------------------------------
#
# This file is available in the Crystallography Open Database (COD),
# http://www.crystallography.net/
#
# All data on this site have been placed in the public domain by the
# contributors.
#
data_4127891
loop_
_publ_author_name
'Lysova, Anna A.'
'Samsonenko, Denis G.'
'Dorovatovskii, Pavel V.'
'Lazarenko, Vladimir A.'
'Khrustalev, Victor N.'
'Kovalenko, Konstantin A.'
'Dybtsev, Danil N.'
'Fedin, Vladimir P.'
_publ_section_title
;
 Tuning the Molecular and Cationic Affinity in a Series of Multifunctional
 Metal-Organic Frameworks Based on Dodecanuclear Zn(II) Carboxylate
 Wheels.
;
_journal_issue                   43
_journal_name_full               'Journal of the American Chemical Society'
_journal_page_first              17260
_journal_page_last               17269
_journal_paper_doi               10.1021/jacs.9b08322
_journal_volume                  141
_journal_year                    2019
_chemical_formula_sum            'C31.4 H48.6 N3.8 O15.8 S2 Zn4'
_chemical_formula_weight         1057.74
_space_group_crystal_system      trigonal
_space_group_IT_number           166
_space_group_name_Hall           '-R 3 2"'
_space_group_name_H-M_alt        'R -3 m :H'
_symmetry_space_group_name_Hall  '-R 3 2"'
_symmetry_space_group_name_H-M   'R -3 m :H'
_atom_sites_solution_hydrogens   geom
_atom_sites_solution_primary     dual
_atom_sites_solution_secondary   difmap
_audit_creation_method           SHELXL-2018/3
_cell_angle_alpha                90
_cell_angle_beta                 90
_cell_angle_gamma                120
_cell_formula_units_Z            9
_cell_length_a                   31.8116(9)
_cell_length_b                   31.8116(9)
_cell_length_c                   11.6096(4)
_cell_measurement_reflns_used    3132
_cell_measurement_temperature    130(2)
_cell_measurement_theta_max      27.99
_cell_measurement_theta_min      3.44
_cell_volume                     10174.6(5)
_computing_cell_refinement       'CrysAlisPro 1.171.38.46 (Rigaku OD, 2015)'
_computing_data_collection       'CrysAlisPro 1.171.38.46 (Rigaku OD, 2015)'
_computing_data_reduction        'CrysAlisPro 1.171.38.46 (Rigaku OD, 2015)'
_computing_molecular_graphics    'ShelXle (H\"ubschle, 2011)'
_computing_publication_material  'CIFTAB (Sheldrick, 2015)'
_computing_structure_refinement  'SHELXL-2018 (Sheldrick, 2015)'
_computing_structure_solution    'SHELXT-2018 (Sheldrick, 2015)'
_diffrn_ambient_temperature      130(2)
_diffrn_detector                 'CCD plate'
_diffrn_detector_area_resol_mean 10.6168
_diffrn_detector_type            AtlasS2
_diffrn_measured_fraction_theta_full 0.996
_diffrn_measured_fraction_theta_max 0.875
_diffrn_measurement_device       'four-circle diffractometer'
_diffrn_measurement_device_type  'New Xcalibur, AtlasS2'
_diffrn_measurement_method       '\w scans'
_diffrn_radiation_monochromator  graphite
_diffrn_radiation_probe          x-ray
_diffrn_radiation_source         'fine-focus sealed tube'
_diffrn_radiation_type           MoK\a
_diffrn_radiation_wavelength     0.71073
_diffrn_reflns_av_R_equivalents  0.0181
_diffrn_reflns_av_unetI/netI     0.0189
_diffrn_reflns_Laue_measured_fraction_full 0.996
_diffrn_reflns_Laue_measured_fraction_max 0.875
_diffrn_reflns_limit_h_max       40
_diffrn_reflns_limit_h_min       -26
_diffrn_reflns_limit_k_max       14
_diffrn_reflns_limit_k_min       -39
_diffrn_reflns_limit_l_max       15
_diffrn_reflns_limit_l_min       -8
_diffrn_reflns_number            7717
_diffrn_reflns_point_group_measured_fraction_full 0.996
_diffrn_reflns_point_group_measured_fraction_max 0.875
_diffrn_reflns_theta_full        25.500
_diffrn_reflns_theta_max         28.508
_diffrn_reflns_theta_min         3.389
_diffrn_source                   'sealed X-ray tube'
_exptl_absorpt_coefficient_mu    2.254
_exptl_absorpt_correction_T_max  1.00000
_exptl_absorpt_correction_T_min  0.82779
_exptl_absorpt_correction_type   multi-scan
_exptl_absorpt_process_details
;
CrysAlisPro 1.171.38.46 (Rigaku Oxford Diffraction, 2015)
Empirical absorption correction using spherical harmonics,
implemented in SCALE3 ABSPACK scaling algorithm.
;
_exptl_crystal_colour            yellow
_exptl_crystal_density_diffrn    1.554
_exptl_crystal_description       block
_exptl_crystal_F_000             4878
_exptl_crystal_size_max          0.23
_exptl_crystal_size_mid          0.20
_exptl_crystal_size_min          0.16
_refine_diff_density_max         0.729
_refine_diff_density_min         -0.458
_refine_diff_density_rms         0.060
_refine_ls_extinction_method     none
_refine_ls_goodness_of_fit_ref   1.055
_refine_ls_hydrogen_treatment    constr
_refine_ls_matrix_type           full
_refine_ls_number_parameters     158
_refine_ls_number_reflns         2656
_refine_ls_number_restraints     69
_refine_ls_restrained_S_all      1.178
_refine_ls_R_factor_all          0.0381
_refine_ls_R_factor_gt           0.0318
_refine_ls_shift/su_max          0.002
_refine_ls_shift/su_mean         0.000
_refine_ls_structure_factor_coef Fsqd
_refine_ls_weighting_details
'w=1/[\s^2^(Fo^2^)+(0.0473P)^2^+15.9630P] where P=(Fo^2^+2Fc^2^)/3'
_refine_ls_weighting_scheme      calc
_refine_ls_wR_factor_gt          0.0866
_refine_ls_wR_factor_ref         0.0892
_reflns_Friedel_coverage         0.000
_reflns_number_gt                2272
_reflns_number_total             2656
_reflns_threshold_expression     'I > 2\s(I)'
_cod_data_source_file            ja9b08322_si_004.cif
_cod_data_source_block           bu_sq
_cod_original_cell_volume        10174.6(7)
_cod_database_code               4127891
_shelx_shelxl_version_number     2018/3
_shelx_space_group_comment
;
The symmetry employed for this shelxl refinement is uniquely defined
by the following loop, which should always be used as a source of
symmetry information in preference to the above space-group names.
They are only intended as comments.
;
_shelx_estimated_absorpt_t_min   0.625
_shelx_estimated_absorpt_t_max   0.714
_shelx_res_file
;
TITL bu in R-3m
    bu_sq.res
    created by SHELXL-2018/3 at 14:30:30 on 18-Jul-2018
CELL  0.71073  31.8116  31.8116  11.6096   90.000   90.000  120.000
ZERR    9.000   0.0009   0.0009   0.0004    0.000    0.000    0.000
LATT  3
SYMM -Y, X-Y, Z
SYMM -X+Y, -X, Z
SYMM Y, X, -Z
SYMM X-Y, -Y, -Z
SYMM -X, -X+Y, -Z
SFAC C     H     N    O     S  ZN
UNIT 282.6 437.4 34.2 142.2 18 36
 
REM [Zn4(C6H12N2)(C4H8O2)2(C6H2SO4)2]*1.8(C3H7NO)*2H2O
 
LIST 4 ! automatically inserted. Change 6 to 4 for CHECKCIF!!
TEMP -143
 
L.S. 6 0 26
BOND $H
FMAP 2
PLAN 5
 
SIMU 0.005 0.007 N1 C1 C2 C3
SADI C1 C2  C2 C3  C3 C1
 
SIMU 0.005 0.007 O1S > C3S'
 
DFIX 1.45 0.02 C1S C2S  C2S C3S  C3S C4S  C1S C2S'  C2S' C3S'
DFIX 1.60 0.02 C3S' C4S
 
FREE C3S' C4S
 
EQIV $1 +x, 1+x-y, +z
 
BIND C2S O1S_$1
 
FREE C1 C3_$1
FREE C1 C1_$1
FREE C3 C1_$1
FREE C3 C2_$1
FREE C2 C3_$1
FREE C2 C2_$1
 
OMIT 0
 
OMIT  -1   5   3
 
ABIN
ACTA 51
SIZE 0.23 0.20 0.16
 
WGHT    0.047300   15.963000
FVAR       0.51694
ZN1   6    0.574679    0.787339    0.140271    10.50000    0.03138    0.03151 =
         0.03120    0.00071    0.00142    0.01569
ZN2   6    0.529974    0.666667    0.166667    10.50000    0.04215    0.03460 =
         0.05301    0.01432    0.00716    0.01730
N1    3    0.632083    0.816041    0.258297    10.50000    0.03497    0.04050 =
         0.03386   -0.00072   -0.00143    0.01749
C1    1    0.672991    0.808942    0.218134    10.50000    0.04530    0.10619 =
         0.04656   -0.02530   -0.01254    0.04663
AFIX  23
H1A   2    0.682860    0.822066    0.139270    10.50000   -1.20000
H1B   2    0.662272    0.773885    0.216345    10.50000   -1.20000
AFIX   0
C2    1    0.616785    0.785733    0.364971    10.50000    0.05653    0.07224 =
         0.03843    0.01382   -0.01729   -0.01397
AFIX  23
H2A   2    0.604050    0.751259    0.344308    10.50000   -1.20000
H2B   2    0.590486    0.788460    0.403500    10.50000   -1.20000
AFIX   0
C3    1    0.648347    0.863198    0.282636    10.50000    0.05849    0.04170 =
         0.09618   -0.01575   -0.03947    0.02570
AFIX  23
H3A   2    0.620431    0.867447    0.302496    10.50000   -1.20000
H3B   2    0.664194    0.883048    0.213430    10.50000   -1.20000
AFIX   0
O11   4    0.564235    0.653958    0.289577    11.00000    0.05236    0.04450 =
         0.06377    0.02035   -0.00544    0.01527
O12   4    0.509025    0.576051    0.311241    11.00000    0.05087    0.04215 =
         0.04423    0.00414   -0.01416    0.01568
C11   1    0.547998    0.613117    0.334119    11.00000    0.04085    0.03787 =
         0.03643    0.00260    0.00565    0.01793
C12   1    0.578593    0.608779    0.423799    11.00000    0.03993    0.03701 =
         0.03349    0.00447    0.00304    0.01680
C13   1    0.624315    0.641903    0.456853    11.00000    0.04454    0.03542 =
         0.05378    0.00762   -0.00270    0.00735
AFIX  43
H13   2    0.642318    0.673529    0.424796    11.00000   -1.20000
AFIX   0
S1    5    0.556137    0.556137    0.500000    10.50000    0.03445    0.03445 =
         0.03515    0.00382   -0.00382    0.00897
O1S   4    0.526840    0.723033    0.203168    11.00000    0.04475    0.03697 =
         0.06910    0.01435    0.02110    0.01924
PART -1
C1S   1    0.483381    0.722621    0.251268    10.50000    0.04318    0.04655 =
         0.08057    0.00804    0.03179    0.02102
C2S   1    0.495158    0.773125    0.276082    10.50000    0.04709    0.04357 =
         0.08758    0.01214    0.02755    0.02504
C3S   1    0.454864    0.770438    0.328560    10.25000    0.04470    0.05319 =
         0.09441    0.01392    0.02496    0.03323
AFIX  23
H3S1  2    0.446036    0.789894    0.278014    10.25000   -1.20000
H3S2  2    0.467850    0.789789    0.399839    10.25000   -1.20000
AFIX   0
C4S   1    0.406828    0.728226    0.364648    10.25000    0.05316    0.07574 =
         0.10354    0.01776    0.02180    0.02323
AFIX  33
H4S1  2    0.386889    0.740324    0.399729    10.25000   -1.50000
H4S2  2    0.390072    0.708477    0.297019    10.25000   -1.50000
H4S3  2    0.412221    0.708371    0.420713    10.25000   -1.50000
AFIX   0
C2S'  1    0.467357    0.692162    0.353645    10.25000    0.04585    0.04926 =
         0.08554    0.01960    0.02965    0.02288
AFIX  23
H2S1  2    0.494338    0.705481    0.409967    10.25000   -1.20000
H2S2  2    0.460797    0.659320    0.332019    10.25000   -1.20000
AFIX   0
C3S'  1    0.422594    0.687258    0.412632    10.25000    0.05679    0.07146 =
         0.09803    0.02157    0.02720    0.01840
AFIX  33
H3S3  2    0.414851    0.666161    0.480160    10.25000   -1.50000
H3S4  2    0.428816    0.719366    0.437012    10.25000   -1.50000
H3S5  2    0.395182    0.673077    0.358849    10.25000   -1.50000
PART 0
AFIX   0
HKLF 4
 
 
 
 
REM  bu in R-3m
REM wR2 = 0.0892, GooF = S = 1.055, Restrained GooF = 1.178 for all data
REM R1 = 0.0318 for 2272 Fo > 4sig(Fo) and 0.0381 for all 2656 data
REM 158 parameters refined using 69 restraints
 
END
 
WGHT      0.0473     15.9625
 
REM Highest difference peak  0.729,  deepest hole -0.458,  1-sigma level  0.060
Q1    1   0.6836  0.8418  0.2084  10.50000  0.05    0.73
Q2    1   0.6328  0.8544  0.3336  11.00000  0.05    0.53
Q3    1   0.6148  0.8074  0.3737  10.50000  0.05    0.45
Q4    1   0.6164  0.8082  0.2089  10.50000  0.05    0.35
Q5    1   0.4701  0.7750  0.2738  11.00000  0.05    0.33
;
_shelx_res_checksum              45887
_shelx_hkl_file
;
   0   0  -3 81471.6 383.494   1
   0   0   3 81455.0 378.781   1
   0   0  -6 101427. 581.819   1
   0   0   6 101580. 576.339   1
   0   0   9 10781.7 218.378   1
   0   0  12 1467.89 96.2969   1
   1  -1  11 223.361 43.4492   1
  -1   0  11 266.287 46.1421   1
   0   1  11 179.933 41.9943   1
  -1   0   8 11053.9 199.726   1
   0   1   8 10678.9 203.470   1
   1  -1   8 11079.5 205.464   1
   1   0  -5 18002.6 205.126   1
   0  -1  -5 17764.3 209.843   1
  -1   0   5 17989.7 201.887   1
   1  -1   5 18016.4 204.922   1
   0   1   5 17623.1 203.464   1
  -1   1  -2 90217.8 359.912   1
   0  -1  -2 91944.9 361.126   1
   1   0  -2 89423.6 339.866   1
  -1   0   2 90171.6 339.856   1
   0   1   2 90974.5 356.533   1
   1  -1   2 92069.9 354.077   1
   1   0   4 11934.1 149.952   1
   1  -1  -4 12140.2 149.958   1
  -1   0  -4 12166.0 152.358   1
  -1   1   4 11388.6 143.581   1
   0   1  -4 11611.5 147.522   1
   0  -1   4 11917.0 145.721   1
   1   0   7 9613.88 179.126   1
  -1   1   7 9743.36 177.101   1
   0  -1   7 10129.2 181.500   1
  -1   1  10-4.36775 30.3384   1
   1   0  10 25.1250 35.1520   1
   0  -1  10 39.9893 35.7646   1
   0  -1  13 187.499 49.7639   1
   1   0  13 260.903 53.4461   1
  -1   2   3 2621.73 62.0116   1
   1  -2  -3 2770.69 63.7395   1
   2  -1  -3 2578.80 58.3006   1
   2  -1   3 2560.42 62.8369   1
   1  -2   3 2301.59 59.6526   1
  -1  -1   3 2584.68 56.1529   1
  -1   2  -3 2586.87 60.0494   1
   1   1  -3 2438.31 56.9798   1
  -2   1  -3 2424.58 62.2317   1
  -1  -1  -3 2774.17 64.3534   1
   1   1   3 2404.13 62.8082   1
  -2   1   3 2604.37 57.5902   1
   1  -2  -6 1273.59 63.1959   1
  -1   2   6 1278.63 62.3221   1
   1   1   6 1121.60 59.7269   1
  -1  -1  -6 1247.76 62.1932   1
   1  -2   6 1197.18 60.6662   1
   2  -1   6 1140.29 61.2890   1
  -1   2  -6 1160.13 60.4478   1
  -2   1  -6 1144.22 61.9179   1
   1   1  -6 1218.74 58.4534   1
  -1  -1   6 1235.61 58.6544   1
  -2   1   6 1326.38 59.9770   1
   2  -1  -6 1253.51 59.6811   1
  -1  -1   9 90.0637 33.3901   1
   1  -2   9 116.626 36.9877   1
  -2   1   9 115.829 30.6251   1
  -1   2   9 120.707 36.0793   1
   2  -1   9 123.660 34.4953   1
   1   1   9 122.265 35.0806   1
   1  -2  12 122.745 40.6719   1
   2  -1  12 139.114 43.7389   1
   1   1  12 180.205 45.0193   1
  -1  -1  12 192.734 46.7380   1
   2  -2  13 3593.65 162.780   1
   0   2  10 7912.77 202.255   1
   2  -2  10 7890.78 199.675   1
  -2   0  10 7887.33 194.918   1
   2  -2   7 2100.78 84.7867   1
  -2   0   7 2049.23 79.9864   1
   0   2   7 2014.60 83.1968   1
   2   0  -4 3673.30 76.9923   1
  -2   0   4 3510.78 77.3381   1
   0   2   4 3576.05 83.8890   1
  -2   2  -4 3737.90 85.6352   1
   0  -2  -4 3533.30 85.1481   1
   2  -2   4 3613.28 83.2364   1
   0  -2   2 201.760 18.4694   1
   2  -2  -2 191.325 17.5012   1
   2   0   2 186.713 20.2079   1
   0   2  -2 198.207 17.9381   1
  -2   0  -2 157.836 20.0200   1
  -2   0  -5 4050.54 100.333   1
  -2   2   5 3713.81 92.0102   1
   2   0   5 3953.16 98.4887   1
   2  -2  -5 3797.50 93.0692   1
   0  -2   5 3894.32 93.2081   1
   0   2  -5 3967.16 93.2828   1
   2   0   8 14648.1 242.754   1
  -2   2   8 15102.0 238.156   1
   0  -2   8 15029.2 238.231   1
   0  -2  11 49.3115 36.6490   1
   2   0  11 52.2041 35.3339   1
   0  -2  14 22.9913 40.1303   1
   3  -2  14 130.749 46.7405   1
   2  -3  14 98.5502 45.9671   1
  -3   1  11 62.4386 36.6919   1
   1   2  11 108.934 42.4017   1
  -2  -1  11 93.9686 34.7622   1
   3  -2  11-4.05150 32.6072   1
   2  -3  11 40.9595 33.6019   1
  -2  -1   8 32.0297 27.0895   1
   2  -3   8 29.3962 27.6205   1
  -3   1   8-9.57970 22.8827   1
  -1   3   8 11.0118 26.8353   1
   1   2   8 24.7980 25.7541   1
   3  -2   8 18.1427 28.6714   1
  -2  -1   5 24302.1 226.357   1
   3  -2   5 24267.6 249.184   1
   1  -3  -5 24693.6 252.436   1
   1   2   5 24214.7 250.094   1
  -3   1   5 24555.5 229.168   1
  -3   2  -5 24606.6 251.030   1
  -1   3   5 24331.5 246.910   1
   2   1  -5 24868.5 232.962   1
   2  -3   5 23887.4 241.467   1
  -1  -2  -5 25453.0 260.959   1
   3  -1  -5 24033.1 231.831   1
  -2   3  -5 23731.8 246.433   1
  -3   2  -2 79920.1 348.791   1
   2   1  -2 79454.8 296.178   1
  -3   1   2 80564.0 299.322   1
   3  -2   2 79152.1 348.510   1
   1   2   2 80012.4 350.050   1
  -1  -2  -2 79578.4 349.030   1
   3  -1  -2 79429.0 302.258   1
   2  -3   2 80370.6 333.061   1
  -2   3  -2 79987.5 341.350   1
   1  -3  -2 79414.4 349.188   1
  -2  -1   2 79886.6 294.265   1
  -2   3   4 14047.1 162.198   1
   3  -2  -4 13757.7 156.348   1
   2   1   4 13476.9 169.248   1
  -3   1  -4 13691.6 169.600   1
  -2  -1  -4 13717.7 173.191   1
  -1   3  -4 13541.9 159.087   1
  -3   2   4 14012.3 153.283   1
   1  -3   4 13760.5 158.644   1
  -1  -2   4 13584.3 152.065   1
   2   1   7 34380.5 353.943   1
  -2   3   7 36134.7 347.775   1
  -3   2   7 35680.7 338.954   1
   1  -3   7 35434.9 342.825   1
  -1  -2   7 35999.2 338.156   1
   3  -1  10 4036.93 143.464   1
   2   1  10 3793.68 142.615   1
   1  -3  10 3736.09 136.310   1
  -3   2  10 3998.72 136.820   1
  -1  -2  10 4038.64 137.347   1
   3  -1  13 833.317 87.0814   1
  -1  -2  13 988.237 88.4508   1
   1  -3  13 974.171 87.1255   1
   3  -3  12 1130.35 92.3831   1
   0   3   9 9353.78 205.574   1
  -3   0   9 9119.00 191.008   1
   3  -3   9 9043.08 203.608   1
   0   3   6 1681.02 72.2534   1
   3  -3   6 1628.75 70.6662   1
  -3   0   6 1587.63 64.3398   1
   3   0  -6 1622.34 63.5674   1
   3  -3   3 6499.51 103.155   1
   0   3   3 6526.07 103.858   1
  -3   3  -3 6703.79 101.391   1
   3   0  -3 6248.19 85.3336   1
  -3   0   3 6520.60 86.0286   1
   0  -3  -3 6559.46 104.643   1
   0   3  -3 20020.1 162.501   1
   3  -3  -3 20023.7 172.060   1
   0  -3   3 19203.8 163.760   1
   3   0   3 18776.0 178.457   1
  -3   0  -3 19221.9 181.395   1
   3   0   6 25988.3 284.694   1
  -3   3   6 26034.2 270.027   1
   3  -3  -6 26041.0 275.099   1
   0   3  -6 25521.4 270.312   1
   0  -3   9 28267.3 348.288   1
   3   0   9 27788.2 357.868   1
   0  -3  12 511.569 65.1950   1
   3   0  12 521.203 66.2221   1
  -4   2  -3 4111.26 83.0478   1
   2  -4  -3 4407.15 82.6067   1
   2  -4   3 4114.95 78.6151   1
   2   2  -3 4032.06 67.1140   1
   4  -2   3 4068.83 82.8899   1
  -2  -2   3 4109.26 67.9334   1
   2   2   3 3954.18 82.5490   1
  -2   4  -3 4294.48 79.5508   1
  -2  -2  -3 3912.60 84.7024   1
   4  -2  -3 3940.37 71.0235   1
  -2   4  -6 246.958 32.7252   1
   4  -2  -6 168.598 25.6404   1
   2   2   6 221.227 34.7677   1
   2  -4  -6 258.376 34.6571   1
   4  -2   6 260.303 35.1251   1
   2  -4   6 233.574 34.3112   1
  -2  -2   6 202.906 30.7134   1
  -4   2   6 234.889 29.1384   1
   2   2  -6 216.270 28.9299   1
   2   2   9 56.8978 33.9265   1
   4  -2   9 23.8044 32.4677   1
   2  -4   9 35.4993 29.3155   1
  -4   2   9 96.8303 33.7762   1
  -2  -2   9 18.0377 27.6808   1
   4  -2  12-74.1650 40.0417   1
   2  -4  12 20.4326 34.0855   1
  -2  -2  12 88.7753 36.9681   1
   2  -4  15 38.4625 45.2267   1
   3  -4  13-32.4808 38.6111   1
   4  -3  13 37.2751 36.4887   1
   4  -3  10 20.4745 35.2931   1
   3  -4  10 77.1357 35.6066   1
   1   3  10-4.79480 30.6818   1
  -4   1  10-12.2658 26.7864   1
  -3  -1  10-11.8180 27.8860   1
  -4   1   7 1282.47 62.6830   1
  -3  -1   7 1346.91 64.7117   1
   1   3   7 1296.75 70.8065   1
   4  -3   7 1249.77 69.7348   1
  -1   4   7 1191.10 67.2200   1
   3  -4   7 1222.93 67.8031   1
   4  -3   4 4694.77 97.8009   1
   1   3   4 4509.89 98.2212   1
   1  -4  -4 4649.86 97.1069   1
   4  -1  -4 4439.26 84.3238   1
  -1  -3  -4 4417.01 100.285   1
  -4   3  -4 4580.76 100.102   1
  -3  -1   4 4645.98 82.4510   1
  -4   1   4 4521.20 83.1417   1
   3   1  -4 4358.21 82.1778   1
  -3   4  -4 4849.92 96.7616   1
   3  -4   4 4528.45 94.7638   1
   4  -1   2 34285.2 213.999   1
  -1   4  -2 34291.2 199.381   1
  -1  -3   2 34072.5 180.253   1
   3   1   2 33518.7 215.268   1
  -3  -1  -2 33654.4 217.001   1
  -4   1  -2 33363.4 217.310   1
   1  -4   2 33627.4 199.392   1
   1   3  -2 33669.9 180.908   1
   4  -3  -5 9749.94 146.564   1
  -1   4  -5 9583.88 148.608   1
  -1  -3   5 9328.51 140.044   1
   3   1   5 9121.36 154.211   1
  -4   1  -5 9774.00 160.765   1
   1   3  -5 9531.28 141.679   1
   4  -1   5 9423.91 156.242   1
   3  -4  -5 9483.32 153.966   1
  -3  -1  -5 9728.76 161.847   1
   1  -4   5 9517.58 146.270   1
   3   1   8 3829.27 125.952   1
  -1  -3   8 3955.01 119.598   1
   1  -4   8 3985.25 121.496   1
   4  -1   8 3829.52 127.264   1
   1  -4  11 2194.05 110.721   1
   3   1  11 2303.90 121.193   1
   4  -1  11 2277.01 116.773   1
  -1  -3  11 2285.04 113.935   1
  -1  -3  14 510.619 71.2870   1
   4  -1  14 469.016 69.9605   1
   1  -4  14 464.022 66.1552   1
   4  -4  14 1025.48 94.5756   1
   4  -4  11 4509.94 160.711   1
  -4   0  11 4879.57 158.022   1
   4  -4   8 8941.38 188.354   1
  -4   0   8 9337.89 177.906   1
   0   4   8 8783.36 191.835   1
   4   0  -5 1258.67 52.0410   1
   4  -4   5 1229.26 57.4199   1
   0   4   5 1407.34 62.1103   1
  -4   4  -5 1249.98 56.7419   1
   0  -4  -5 1287.59 62.8036   1
  -4   0   5 1273.69 51.4780   1
   4   0  -2 13212.8 89.4585   1
   4  -4   2 13620.4 132.542   1
  -4   0   2 13575.9 89.3541   1
  -4   4  -2 13982.8 134.047   1
   0  -4   1 1804.61 35.0997   1
   4   0   1 1818.50 37.6900   1
   0   4  -1 1638.33 34.3990   1
  -4   0  -1 1575.85 38.8539   1
  -4   0  -4 1472.26 61.3914   1
   0  -4   4 1604.31 52.6691   1
   0   4  -4 1511.43 53.8680   1
   4   0   4 1689.84 61.7284   1
   4  -4  -4 1686.32 57.1340   1
   0  -4   7 21065.3 257.580   1
   4   0   7 19855.8 268.037   1
   4   0  10 2081.01 109.183   1
   0  -4  10 2344.27 108.740   1
   4   0  13 875.152 87.1290   1
   0  -4  13 751.181 78.9071   1
   3  -5  14 274.581 57.6310   1
   5  -3  14 190.638 54.0520   1
   3  -5  11 322.694 49.8214   1
  -3  -2  11 380.625 51.0807   1
   5  -3  11 390.409 58.6829   1
  -5   2   8 541.586 45.9234   1
   3  -5   8 552.283 52.2501   1
   5  -3   8 599.990 53.8088   1
  -3  -2   8 556.182 46.8523   1
   2   3   8 487.099 51.0390   1
  -5   2   5 7785.75 125.391   1
   5  -2  -5 7797.09 125.074   1
   2  -5  -5 8257.15 148.429   1
  -2  -3  -5 7811.79 149.391   1
  -3   5  -5 8231.40 140.570   1
  -3  -2   5 7853.47 121.510   1
   2   3   5 7744.28 142.418   1
   3   2  -5 7616.94 123.694   1
   3  -5   5 7765.07 137.254   1
  -5   3  -5 7796.01 145.944   1
   5  -3   5 7879.81 142.968   1
  -3   5  -2 13773.2 135.237   1
  -2  -3  -2 14011.5 137.814   1
  -5   3  -2 13412.5 138.394   1
   3   2  -2 12830.5 91.7283   1
   3  -5   2 13409.4 131.035   1
   5  -3   2 13609.1 134.466   1
   2  -5   1 84640.3 333.734   1
   3   2   1 83812.7 328.535   1
  -5   2  -1 82589.3 331.137   1
  -2  -3   1 83953.7 274.796   1
   5  -2   1 84687.8 329.727   1
  -2   5  -1 85201.0 332.349   1
  -3  -2  -1 83866.7 330.012   1
   2   3  -4 6398.60 100.206   1
  -3  -2  -4 6625.35 124.285   1
  -5   2  -4 6670.03 123.667   1
   2  -5   4 6610.00 113.953   1
   3   2   4 6568.62 119.867   1
   5  -2   4 6603.83 121.486   1
  -2  -3   4 6236.19 98.0489   1
   3  -5  -4 7054.28 120.422   1
   5  -3  -4 6681.76 107.648   1
  -2   5  -4 6840.13 113.966   1
   2  -5   7 297.329 38.9175   1
   3   2   7 325.279 40.8850   1
   5  -2   7 296.762 39.9571   1
  -2  -3   7 308.365 35.9941   1
   3   2  10 833.778 70.0442   1
   2  -5  10 859.607 70.2964   1
  -2  -3  10 760.533 65.0703   1
   5  -2  10 816.807 69.3123   1
  -2  -3  13 333.481 56.7578   1
   5  -2  13 329.004 59.1205   1
   2  -5  13 277.758 58.2944   1
   5  -4  12 6.60951 34.2516   1
  -4  -1  12 30.6739 35.1844   1
   4  -5  12 18.4116 34.9453   1
  -5   1   9 213.632 38.8945   1
   4  -5   9 198.738 39.5769   1
   5  -4   9 102.946 36.1106   1
   1   4   9 145.089 37.1388   1
  -4  -1   9 169.369 36.4003   1
   4  -5   6 7525.36 150.129   1
  -4  -1   6 7539.45 131.166   1
   5  -1  -6 7480.77 133.996   1
   5  -4   6 7578.97 152.076   1
   1   4   6 7379.10 154.341   1
  -5   1   6 7594.73 134.737   1
   4   1  -6 7515.10 134.801   1
   4   1  -3 1478.98 38.6368   1
  -5   4  -3 1355.00 54.1464   1
   5  -4   3 1477.59 53.5175   1
  -4   5  -3 1578.43 53.2972   1
  -4  -1   3 1517.28 37.9040   1
   5  -1  -3 1427.14 38.1144   1
  -1  -4  -3 1367.50 53.1065   1
   1  -5  -3 1517.13 53.1447   1
   4  -5   3 1499.10 52.2849   1
  -5   1   3 1422.71 38.7094   1
   4   1   0 18502.0 96.3060   1
  -5   4   0 18698.7 124.579   1
   5  -1   0 18962.3 98.6362   1
  -5   1   0 18686.0 99.2124   1
   5  -4   0 18452.8 121.613   1
  -4  -1   0 18494.5 96.4673   1
   5  -1   3 4219.62 86.5863   1
   1  -5   3 4178.66 75.9396   1
  -5   1  -3 3716.82 85.9973   1
  -1   5  -3 4257.24 77.6930   1
   1   4  -3 4068.42 71.9122   1
  -4  -1  -3 4171.21 86.8272   1
   4   1   3 4019.45 85.2346   1
  -1  -4   3 4006.54 71.4092   1
  -1  -4   6 12184.6 177.862   1
   5  -4  -6 12619.3 189.020   1
   5  -1   6 12287.7 198.079   1
   4  -5  -6 12687.8 194.707   1
   4   1   6 11845.3 193.080   1
  -1   5  -6 12677.3 187.085   1
   1  -5   6 12282.2 183.367   1
   1   4  -6 11946.4 175.226   1
   1  -5   9 9608.90 203.236   1
  -1  -4   9 9143.28 191.084   1
   5  -1   9 9296.25 212.981   1
   4   1   9 8926.29 207.287   1
  -1  -4  12 579.337 67.2467   1
   1  -5  12 653.954 67.8601   1
   5  -1  12 676.091 74.2408   1
   4   1  12 702.870 77.1265   1
   1  -5  15 112.048 41.9357   1
   5  -5  13 753.530 80.4251   1
   5  -5  10 66.3629 39.1164   1
  -5   0  10 90.3691 33.7362   1
   5  -5   7 89.0863 27.7613   1
   5   0  -7 117.503 26.3534   1
  -5   0   7 109.032 24.4676   1
  -5   0   4 1537.80 46.6264   1
   0  -5  -4 1565.12 62.0236   1
  -5   5  -4 1446.30 58.1390   1
   5  -5   4 1498.97 60.5411   1
   5   0  -4 1469.49 46.8968   1
  -5   5  -1 40086.3 223.256   1
   5  -5   1 39809.2 221.272   1
   5   0   2 244598. 798.859   1
   0   5  -2 243725. 747.922   1
   0  -5   2 245385. 749.840   1
  -5   0  -2 246072. 803.289   1
   0   5  -5 42181.2 318.264   1
   5   0   5 41889.5 347.102   1
  -5   0  -5 42014.0 354.538   1
   0  -5   5 41402.6 312.900   1
   5  -5  -5 43921.7 332.598   1
   5   0   8 51818.5 474.833   1
   0  -5   8 51519.9 441.008   1
   0  -5  11 16118.3 291.705   1
   5   0  11 17068.9 316.762   1
   0  -5  14 4585.28 189.195   1
  -6   3   0 6519.35 67.9826   1
   6  -3   0 6875.14 69.3859   1
  -3   6  -3 12394.6 143.722   1
   6  -3   3 11746.2 145.869   1
  -3  -3  -3 12317.3 153.099   1
   6  -3  -3 11758.3 121.097   1
  -3  -3   3 12054.4 114.055   1
   3   3  -3 11881.4 114.371   1
   3   3   3 11790.1 149.188   1
   3  -6   3 11938.5 140.943   1
   3  -6   6 390.211 39.6080   1
   6  -3  -6 435.832 40.1082   1
  -3  -3   6 431.688 36.4702   1
   3   3   6 398.670 41.2493   1
   3   3  -6 381.610 37.2996   1
   6  -3   6 401.589 42.5517   1
   3  -6   9 3483.21 126.464   1
   3   3   9 3572.67 131.644   1
   6  -3   9 3476.15 131.850   1
  -3  -3   9 3645.24 118.984   1
   3  -6  12 4828.91 172.835   1
  -3  -3  12 4848.76 167.153   1
   6  -3  12 4820.01 177.446   1
   4  -6  13 512.301 67.7723   1
   6  -4  13 662.998 77.3615   1
   6  -4  10 200.589 45.8647   1
  -4  -2  10 205.434 40.3050   1
   4  -6  10 117.347 37.3356   1
   2   4   7 1373.75 72.7192   1
   6  -4   7 1222.63 71.1726   1
   6  -2  -7 1116.77 61.3589   1
   4  -6   7 1183.27 66.3659   1
   4   2  -7 1162.17 60.6656   1
  -4  -2   7 1190.78 59.9974   1
   6  -2  -4 10877.2 127.967   1
  -2  -4  -4 11620.1 165.473   1
   2  -6  -4 11564.8 163.239   1
   6  -4   4 10925.4 155.072   1
   4   2  -4 10959.0 122.297   1
   2   4   4 11086.3 160.739   1
  -4   6  -4 11532.2 157.600   1
   4  -6   4 10735.9 153.029   1
  -6   4  -4 10482.7 159.969   1
   4  -6   1 51290.0 262.344   1
   6  -4   1 50520.4 253.768   1
  -4   6  -1 51045.2 263.716   1
  -6   4  -1 49983.3 259.018   1
  -4  -2  -2 125116. 505.512   1
   2  -6   2 128340. 487.518   1
   4   2   2 125127. 507.115   1
   6  -2   2 128127. 499.963   1
  -6   2  -2 125404. 508.916   1
  -2   6  -2 127844. 487.224   1
  -2  -4   2 126567. 427.647   1
   2   4  -2 125520. 427.418   1
   4  -6  -5 8775.79 151.411   1
  -2  -4   5 8692.58 132.027   1
   4   2   5 8600.31 152.898   1
   6  -4  -5 8634.54 138.882   1
   2   4  -5 8651.00 132.645   1
   2  -6   5 8721.57 144.726   1
  -2   6  -5 9142.85 149.864   1
  -6   2  -5 8998.70 161.502   1
   6  -2   5 8950.17 156.422   1
  -4  -2  -5 9062.09 159.724   1
  -2  -4   8 510.280 45.9792   1
   4   2   8 495.841 53.7704   1
   2  -6   8 500.035 48.8281   1
   6  -2   8 510.788 51.3935   1
   2  -6  11 356.517 57.5304   1
   4   2  11 368.737 59.6530   1
   6  -2  11 367.764 56.8586   1
  -2  -4  11 403.467 54.4789   1
   6  -2  14 74.2213 46.3747   1
  -2  -4  14 54.4325 43.3674   1
   2  -6  14 39.1709 44.7026   1
   6  -5  14 108.057 52.7589   1
   5  -6  14 38.8773 41.5543   1
  -5  -1  11 892.325 72.5872   1
   5  -6  11 861.067 77.3742   1
   6  -5  11 895.918 80.2703   1
   6  -5   8 443.358 49.2386   1
  -6   1   8 483.894 43.9692   1
  -5  -1   8 480.219 42.3214   1
   5  -6   8 449.189 50.0559   1
  -5  -1   5 257.088 26.1613   1
  -5   6  -5 265.278 31.9065   1
  -6   5  -5 299.976 33.9625   1
   5  -6   5 236.920 32.6419   1
  -1  -5  -5 244.983 31.0040   1
   5   1  -5 236.697 23.8905   1
   1  -6  -5 274.306 34.6793   1
   6  -5   5 269.734 35.3851   1
   6  -1  -5 208.264 24.1460   1
  -6   1   5 266.884 26.2616   1
   6  -1  -2 829.051 20.4956   1
   6  -5   2 860.407 37.8722   1
   5  -6   2 813.789 36.9829   1
  -6   5  -2 883.713 38.1238   1
  -5   6  -2 885.424 39.0200   1
  -6   1  -1 94.7983 16.4481   1
   5   1   1 98.1769 18.0177   1
  -1  -5   1 80.8464 12.9150   1
   1  -6   1 115.302 19.1708   1
   6  -1   1 146.142 20.8970   1
  -5  -1  -1 144.650 20.0486   1
  -1   6  -4 19634.5 196.327   1
   6  -1   4 19201.2 215.472   1
   1   5  -4 19561.6 185.231   1
  -6   1  -4 19676.4 219.499   1
  -5  -1  -4 18752.3 220.868   1
   5  -6  -4 20833.9 210.662   1
   6  -5  -4 20411.7 197.986   1
   5   1   4 19309.4 214.902   1
   1  -6   4 19647.8 195.342   1
  -1  -5   7 4459.32 115.863   1
   6  -1   7 4676.88 133.591   1
   5   1   7 4108.81 128.215   1
   1  -6   7 4612.03 123.084   1
   6  -1  10 4824.56 165.031   1
   5   1  10 4711.73 158.626   1
  -1  -5  10 4704.90 149.710   1
   1  -6  10 4839.16 151.444   1
  -1  -5  13 1588.64 104.933   1
   6  -1  13 1792.47 116.118   1
   5   1  13 1475.25 111.477   1
   1  -6  13 1661.75 110.530   1
   6  -6  12 293.587 57.4048   1
   6  -6   9 253.270 44.4897   1
  -6   0   9 315.607 41.1645   1
   6   0  -6 11049.3 157.977   1
   6  -6   6 10717.0 185.219   1
  -6   0   6 10870.0 155.569   1
  -6   0   3 8183.76 81.8506   1
   6   0  -3 7839.45 82.1095   1
  -6   6  -3 7985.67 127.641   1
   6  -6   3 8117.31 123.160   1
   0  -6  -3 8328.88 130.878   1
  -6   0   0 1760.87 32.3301   1
   6   0   0 1853.95 31.9197   1
   6  -6   0 1898.32 47.3621   1
   0   6  -3 76759.7 372.792   1
  -6   0  -3 75681.4 424.870   1
   0  -6   3 76887.1 368.853   1
   6   0   3 76729.5 411.658   1
   0  -6   6 28796.4 282.843   1
   0   6  -6 29169.6 285.656   1
   6  -6  -6 29171.4 302.544   1
   6   0   6 29029.6 315.702   1
   6   0   9 11134.6 237.105   1
   0  -6   9 11645.7 216.910   1
   6   0  12 3429.64 156.448   1
   0  -6  12 3611.17 146.928   1
   0  -6  15 1883.31 126.314   1
   4  -7  14 104.205 52.0074   1
   7  -4  14 110.401 49.1067   1
   4  -7  11-34.7553 32.2568   1
   7  -4  11 7.37203 34.5214   1
  -4  -3  11 3.05473 31.5176   1
   7  -4   8 143.856 36.1694   1
  -4  -3   8 194.305 32.5804   1
   3   4   8 239.984 42.2942   1
   4  -7   8 217.782 38.1631   1
   4   3  -5 430.432 31.4149   1
   7  -4   5 493.349 42.0848   1
  -4   7  -5 450.247 38.7685   1
   7  -3  -5 491.865 33.3219   1
   3  -7  -5 489.634 41.4619   1
   3   4   5 448.609 40.9427   1
   4  -7   5 423.017 40.1295   1
  -7   4  -5 448.700 38.0118   1
  -4  -3   5 451.312 33.1550   1
  -3  -4  -5 508.810 43.6386   1
  -4  -3   2 2812.68 40.1967   1
   4   3  -2 2688.45 39.5206   1
  -7   4  -2 2994.88 68.2982   1
  -4   7  -2 2945.66 65.4126   1
   7  -4   2 2800.23 65.9358   1
   4  -7   2 2690.58 65.1745   1
  -3  -4  -2 2918.56 67.6580   1
   3  -7   1 77.9139 20.6663   1
   7  -3   1 89.0915 18.7163   1
  -4  -3  -1 63.7333 17.2920   1
  -7   3  -1 65.1017 17.4659   1
   7  -3   4 1577.52 63.1361   1
   3   4  -4 1471.80 47.8649   1
  -4  -3  -4 1721.87 66.9288   1
   3  -7   4 1462.18 57.9531   1
  -3  -4   4 1499.89 48.2811   1
   7  -4  -4 1615.32 53.2183   1
  -3   7  -4 1414.61 57.9242   1
  -7   3  -4 1428.89 66.8426   1
   4   3   4 1565.40 62.7320   1
  -3  -4   7 7264.81 144.148   1
   3   4  -7 7083.38 145.499   1
   3  -7   7 7239.49 156.298   1
   4   3   7 7406.31 169.564   1
   7  -3   7 7418.70 165.222   1
   7  -3  10 3105.27 133.981   1
  -3  -4  10 3211.08 120.828   1
   3  -7  10 3071.11 125.745   1
   4   3  10 3006.33 133.690   1
   7  -3  13 751.262 82.9458   1
  -3  -4  13 760.716 73.2792   1
   3  -7  13 822.754 80.5260   1
   5  -7  12 1420.61 104.823   1
  -5  -2  12 1552.70 94.4974   1
   7  -5  12 1515.00 106.636   1
   5  -7   9 3016.26 120.810   1
  -5  -2   9 3350.53 113.139   1
   7  -5   9 3118.54 124.244   1
   7  -2  -6 3623.34 91.7755   1
  -5  -2   6 3628.67 91.0830   1
   5  -7   6 3580.82 104.644   1
   5   2  -6 3704.42 91.7489   1
   7  -5   6 3594.59 109.468   1
   7  -2  -3 7461.10 85.3517   1
  -7   5  -3 7926.89 125.561   1
  -5   7  -3 7429.52 123.004   1
  -2  -5  -3 7635.80 124.981   1
   5  -7   3 7655.69 117.971   1
   5   2  -3 7617.08 79.1742   1
   7  -5   3 7341.28 121.520   1
  -5  -2   3 7576.29 80.9065   1
   7  -5   0 3373.52 58.2106   1
  -7   5   0 3367.78 58.5122   1
  -7   2   0 3493.48 49.5084   1
   7  -2   0 3562.38 48.6925   1
  -5  -2   0 3480.72 46.8221   1
  -7   2  -3 38.5381 20.0042   1
  -2  -5   3 92.2980 16.8565   1
   2   5  -3 46.0259 13.0376   1
  -2   7  -3 71.4817 18.2760   1
   5   2   3 45.6236 20.1469   1
   2  -7   3 43.5077 19.3236   1
   7  -2   3 47.4667 21.3871   1
  -5  -2  -3 72.8182 21.3261   1
  -2   7  -6 8124.79 153.952   1
  -2  -5   6 8301.99 143.595   1
   2   5  -6 8269.46 144.365   1
   2  -7   6 7931.97 150.725   1
   7  -2   6 8035.42 163.291   1
   7  -5  -6 8596.76 151.994   1
   5   2   6 8477.96 166.821   1
   7  -2   9 4120.18 145.022   1
   2  -7   9 4076.87 134.461   1
  -2  -5   9 4268.29 130.686   1
   5   2   9 4200.20 143.367   1
   5   2  12 119.492 48.7918   1
  -2  -5  12 140.882 42.8420   1
   2  -7  12 88.8735 38.5096   1
   7  -2  12 159.755 47.5231   1
   2  -7  15 36.3483 41.7494   1
   6  -7  13 30.1856 37.7420   1
   7  -6  13-14.5296 39.2373   1
   6  -7  10-30.9633 34.8997   1
   7  -6  10-6.73124 31.0364   1
  -6  -1  10 51.8696 30.3972   1
  -7   1   7 1501.11 64.9124   1
   7  -1  -7 1355.83 63.0259   1
  -6  -1   7 1441.13 64.2027   1
   6   1  -7 1446.11 63.1989   1
   7  -6   7 1470.63 76.0087   1
   6  -7   7 1385.37 72.5337   1
   6  -7   4 1962.64 68.8733   1
   7  -6   4 1811.21 65.8964   1
   7  -1  -4 1832.77 49.0106   1
  -7   6  -4 1739.21 68.6920   1
   6   1  -4 1890.66 48.7005   1
   1  -7  -4 2021.93 72.7490   1
  -1  -6  -4 2007.64 71.2825   1
  -6   7  -4 1880.00 68.4996   1
  -6  -1   4 1908.96 48.1450   1
  -7   6  -1 3131.86 64.4881   1
   7  -6   1 3030.81 64.0401   1
  -6   7  -1 3121.34 66.0523   1
   6  -7   1 3078.55 65.6397   1
  -1   7  -2 62319.4 313.831   1
  -1  -6   2 61448.1 290.587   1
   1  -7   2 61374.2 311.456   1
   1   6  -2 60943.1 291.092   1
   6   1   2 61071.9 331.306   1
  -6  -1  -2 62925.4 335.608   1
   7  -1   2 62355.5 330.940   1
  -7   1  -2 61415.1 334.845   1
   7  -6  -5 15.2916 21.1211   1
  -7   1  -5 31.1311 23.4194   1
   1  -7   5 42.1594 24.0942   1
  -1   7  -5 20.9079 17.9731   1
   6   1   5 49.8802 28.4904   1
   7  -1   5 166.163 31.8895   1
   1   6  -5 13.9119 15.9682   1
   6  -7  -5 35.5664 20.8565   1
  -6  -1  -5-14.2951 21.4599   1
  -1  -6   5 25.5668 22.6484   1
   6   1   8 967.967 69.5178   1
  -1  -6   8 934.212 60.9480   1
   1  -7   8 915.033 63.0752   1
   7  -1   8 897.963 69.8342   1
   6   1  11 938.278 83.2952   1
   1  -7  11 952.978 77.9966   1
  -1  -6  11 964.326 75.4974   1
   7  -1  11 995.008 84.1200   1
   7  -1  14-25.9118 43.9309   1
  -1  -6  14 4.83437 36.4736   1
   1  -7  14 85.0443 45.4762   1
   7  -7  14 85.1596 43.6916   1
   7  -7  11 165.287 45.1000   1
   7  -7   8 34.2882 30.6422   1
  -7   0   8 58.1563 25.1400   1
  -7   0   5 3029.96 70.7561   1
  -7   7  -5 2752.30 94.1363   1
   7  -7   5 2825.97 91.5492   1
   7   0  -5 2845.21 69.3202   1
  -7   7  -2 35143.3 253.635   1
   7  -7   2 33787.9 245.674   1
   7   0   1 18175.1 141.727   1
  -7   0  -1 16634.0 141.170   1
   0  -7   4 14942.1 166.678   1
  -7   0  -4 15034.8 196.309   1
   7   0   4 15202.6 192.204   1
   0   7  -4 14977.2 168.008   1
   7   0   7 3146.23 111.627   1
   0  -7   7 2935.14 97.0237   1
   0  -7  10 5986.16 170.036   1
   7   0  10 5993.28 188.048   1
   0  -7  13 558.199 68.4054   1
   7   0  13 527.664 76.5359   1
   8  -4   0 1248.03 34.7050   1
  -8   4   0 1229.98 34.9091   1
  -4  -4   3 11927.4 109.901   1
  -4  -4  -3 12126.2 160.506   1
   8  -4   3 12332.1 156.060   1
  -8   4  -3 12343.2 158.911   1
   4  -8   3 12244.1 150.045   1
   4   4  -3 11402.5 108.015   1
  -4   8  -3 12176.3 151.949   1
   4  -8   6 10560.6 180.565   1
   4   4   6 10876.7 190.079   1
  -4  -4   6 10373.8 156.996   1
   8  -4   6 11114.1 194.357   1
   4   4  -6 10482.4 154.883   1
   8  -4  -6 10441.8 161.525   1
   8  -4   9 51.7054 33.4868   1
   4  -8   9 7.08494 33.3863   1
  -4  -4   9 32.6424 26.2515   1
   4   4   9 50.1166 31.1632   1
   8  -4  12 177.418 51.7812   1
  -4  -4  12 187.788 44.0838   1
   4  -8  12 181.761 49.0519   1
   5  -8  13 797.367 80.5129   1
   8  -5  13 597.476 78.6211   1
  -5  -3  13 661.212 68.6160   1
   8  -5  10 1840.46 102.095   1
   5  -8  10 1770.30 97.3631   1
  -5  -3  10 1726.87 88.4745   1
   5  -8   7 281.944 39.4919   1
   8  -5   7 321.891 42.5204   1
   5   3  -7 335.434 33.3057   1
   8  -3  -7 348.136 36.3311   1
  -5  -3   7 323.089 33.7211   1
   8  -3  -4 1036.95 40.4509   1
  -5   8  -4 1183.38 53.5902   1
  -3  -5  -4 1089.10 54.9669   1
   8  -5   4 1126.43 54.9802   1
   5  -8   4 1080.37 54.9455   1
  -8   5  -4 970.584 53.1121   1
  -5  -3   4 1044.54 38.2261   1
   5   3  -4 1059.51 37.4594   1
   8  -3  -1 490.464 18.3249   1
  -5   8  -1 490.057 30.0947   1
   5  -8   1 529.828 31.2567   1
  -8   5  -1 497.315 28.5500   1
   8  -5   1 536.453 29.6645   1
  -3  -5   2 49724.9 233.971   1
   8  -3   2 49609.6 299.569   1
   5   3   2 47842.3 292.962   1
  -5  -3  -2 50369.5 303.128   1
  -3   8  -2 51624.0 295.892   1
   3  -8   2 49683.5 294.424   1
   3   5  -2 48278.7 233.159   1
  -8   3  -2 51068.5 301.473   1
   3  -8   5 85260.4 496.610   1
  -3   8  -5 87569.4 506.402   1
   5  -8  -5 87910.3 532.419   1
  -3  -5   5 84731.8 448.655   1
   8  -5  -5 86815.7 469.001   1
   5   3   5 83950.0 527.119   1
   3   5  -5 84831.9 445.586   1
   8  -3   5 84855.5 529.988   1
   3  -8   8 31973.3 360.768   1
   8  -3   8 32157.9 380.889   1
  -3  -5   8 32264.4 332.340   1
   5   3   8 31277.1 379.409   1
   3  -8  11 6743.05 194.687   1
   5   3  11 6998.56 207.137   1
   8  -3  11 6756.66 206.451   1
  -3  -5  11 6918.80 186.890   1
   3  -8  14 973.432 94.4916   1
  -3  -5  14 1029.10 89.1939   1
   8  -3  14 1105.70 100.783   1
   8  -6  14 432.300 70.3946   1
   6  -8  14 302.549 59.3360   1
   6  -8  11 1060.27 85.0294   1
  -6  -2  11 1178.34 79.2386   1
   8  -6  11 1196.67 89.1641   1
   8  -6   8 1396.65 80.5368   1
  -6  -2   8 1307.61 65.3938   1
   6  -8   8 1392.11 78.4830   1
  -6   8  -5 367.356 39.5143   1
   8  -6   5 441.315 40.9458   1
  -6  -2   5 437.112 29.3572   1
   8  -2  -5 427.059 30.1922   1
   6   2  -5 415.841 29.0294   1
   6  -8   5 424.568 39.2745   1
   2  -8  -5 478.180 41.6497   1
   8  -6   2 16278.9 167.543   1
   6  -8   2 16509.9 171.506   1
  -6   8  -2 17368.2 174.693   1
  -8   6  -2 17042.0 174.874   1
  -6  -2  -1 25347.3 175.502   1
   8  -2   1 25636.7 175.963   1
  -8   2  -1 24833.9 177.439   1
   2  -8   1 25149.0 189.345   1
   6   2   1 24579.2 173.456   1
  -6  -2  -4 109344. 577.144   1
   8  -2   4 106419. 567.325   1
   2  -8   4 108157. 526.731   1
  -2  -6   4 107044. 483.261   1
   2   6  -4 108055. 482.690   1
  -8   2  -4 108477. 571.414   1
   6   2   4 105414. 559.832   1
  -2   8  -4 110190. 543.403   1
   2  -8   7 27918.3 311.609   1
  -2  -6   7 28202.0 291.350   1
   8  -2   7 27569.1 331.926   1
   6   2   7 27687.3 331.977   1
   2  -8  10 15895.5 281.753   1
   8  -2  10 15681.2 298.629   1
  -2  -6  10 16260.2 269.632   1
   6   2  10 15781.4 302.991   1
  -2  -6  13 1519.89 100.928   1
   2  -8  13 1411.36 104.092   1
   8  -2  13 1597.28 119.119   1
   8  -7  12 636.402 72.5234   1
   7  -8  12 606.900 70.4392   1
   8  -7   9 1516.43 90.0747   1
   7  -8   9 1528.44 88.7473   1
  -7  -1   9 1500.80 75.3965   1
  -7  -1   6 1428.18 56.0111   1
   7   1  -6 1506.04 56.6214   1
   8  -7   6 1485.48 73.2858   1
   8  -1  -6 1347.26 55.1008   1
   7  -8   6 1523.37 73.5756   1
   8  -1  -3 4593.78 58.0154   1
  -7   8  -3 4656.89 100.443   1
   8  -7   3 4565.60 98.3504   1
  -7  -1   3 4651.11 55.1535   1
  -8   7  -3 4717.25 101.358   1
   7   1  -3 4465.34 53.5204   1
   7  -8   3 4529.01 98.0799   1
   7   1   0 6633.86 66.8419   1
  -8   1   0 6582.23 69.1319   1
   7  -8   0 6860.02 98.0607   1
   8  -1   0 6880.06 69.3658   1
   8  -7   0 6586.55 91.5963   1
  -7  -1   0 6478.61 65.9220   1
  -7  -1  -3 42795.4 320.748   1
   7   1   3 44785.0 315.351   1
   1  -8   3 44226.5 289.607   1
  -1   8  -3 44277.8 284.170   1
  -1  -7   3 44560.3 270.732   1
   8  -1   3 45473.7 315.434   1
   1   7  -3 44519.0 267.946   1
  -8   1  -3 45095.3 320.394   1
   1   7  -6 1340.55 60.5942   1
  -1   8  -6 1226.43 62.0660   1
   7   1   6 1211.80 67.5965   1
   8  -1   6 1309.74 69.2593   1
  -1  -7   6 1169.17 56.1446   1
   1  -8   6 1234.70 61.1698   1
   8  -7  -6 1345.09 62.5178   1
   8  -1   9 1714.40 96.8442   1
  -1  -7   9 2083.43 93.1838   1
   7   1   9 1896.56 100.812   1
   1  -8   9 1661.97 87.8208   1
   1  -8  12 1074.45 86.5591   1
  -1  -7  12 1064.22 85.4113   1
   8  -1  12 1103.66 92.0545   1
   7   1  12 1044.46 90.5308   1
   1  -8  15 763.597 84.6751   1
  -1  -7  15 858.225 87.5229   1
   8  -8  13 3246.44 159.145   1
   8  -8  10 1573.20 97.9531   1
  -8   0   7 0.44736 16.7556   1
   8  -8   7 0.12824 28.6687   1
   8   0  -7-0.20169 15.9077   1
   8  -8   4 43.0637 25.0614   1
   0  -8  -4 36.0709 20.5984   1
   8   0  -4 21.4879 10.6139   1
  -8   8  -4 75.5856 24.1455   1
  -8   8  -1 7074.07 106.812   1
   8  -8   1 6839.13 104.644   1
   8   0   2 33336.9 241.132   1
   0  -8   2 33856.4 229.051   1
  -8   0  -2 33042.8 240.394   1
   8   0   5 1306.66 64.8102   1
   0   8  -5 1336.17 56.0766   1
   0  -8   5 1321.09 56.2534   1
   8  -8  -5 1403.24 62.6521   1
   0  -8   8 721.063 55.2898   1
   8   0   8 816.204 65.1380   1
   8   0  11 3576.10 157.313   1
   0  -8  11 3873.29 145.308   1
   0  -8  14 890.256 84.8094   1
   5  -9  14 1759.65 124.802   1
   9  -5  14 1762.65 130.123   1
   5  -9  11 6900.49 200.904   1
   9  -5  11 7075.07 214.785   1
  -5  -4  11 7309.57 189.274   1
  -5  -4   8 18720.6 247.507   1
   5  -9   8 18039.9 273.108   1
   9  -5   8 18359.5 286.308   1
  -5  -4   5 10056.9 132.790   1
   9  -4  -5 10143.9 142.248   1
   4  -9  -5 11276.0 185.077   1
   5  -9   5 10044.4 167.824   1
   5   4  -5 10112.8 131.432   1
   9  -5   5 10169.1 175.477   1
  -5   9  -5 9755.51 174.383   1
  -5  -4   2 40718.8 183.689   1
   9  -5   2 41116.6 277.109   1
  -9   5  -2 42695.9 282.428   1
  -5   9  -2 42442.5 283.466   1
   5  -9   2 40708.7 280.778   1
  -4  -5  -2 41391.6 284.837   1
  -9   4  -1 8258.42 104.418   1
   9  -4   1 8446.70 102.694   1
   9  -5  -1 8060.64 86.7658   1
  -5  -4  -1 8363.53 103.370   1
   4  -9   1 8485.81 114.826   1
   5   4   4 15758.4 201.303   1
  -4  -5   4 15393.7 151.518   1
  -4   9  -4 16614.9 197.991   1
   9  -5  -4 16102.9 165.646   1
   4   5  -4 15297.2 149.943   1
  -5  -4  -4 16193.7 206.395   1
  -9   4  -4 15668.9 207.714   1
   9  -4   4 16355.7 204.735   1
   4  -9   7 186.608 35.2662   1
   9  -4   7 212.942 40.5175   1
   5   4   7 263.973 40.7137   1
   4   5  -7 251.388 31.6074   1
  -4  -5   7 273.801 32.4071   1
   9  -5  -7 221.572 30.1092   1
   5   4  10 2149.69 110.758   1
   4  -9  10 1844.83 99.4013   1
  -4  -5  10 1962.99 95.5141   1
   9  -4  10 1962.45 109.223   1
   4  -9  13 81.6034 39.3910   1
  -4  -5  13 59.9008 39.2071   1
   9  -4  13 176.772 53.6544   1
   9  -6  12 4005.23 170.170   1
   6  -9  12 3817.28 161.149   1
  -6  -3  12 4234.89 150.581   1
  -6  -3   9 2357.79 92.7660   1
   9  -6   9 2519.41 112.943   1
   6  -9   9 2437.55 110.234   1
   6   3  -6 10628.1 148.773   1
   6  -9   6 10672.9 186.895   1
   9  -3  -6 10872.5 157.947   1
  -6  -3   6 10530.0 150.613   1
   9  -6   6 10689.6 189.810   1
  -3  -6  -3 7771.41 131.530   1
   6   3  -3 7009.06 72.9667   1
  -6  -3   3 7548.15 76.7646   1
  -6   9  -3 8218.92 130.709   1
   9  -3  -3 7345.43 86.1943   1
   9  -6   3 7788.84 128.143   1
  -9   6  -3 7692.52 130.335   1
   6  -9   3 7451.79 126.857   1
  -9   6   0 12315.1 124.310   1
   9  -3   0 12172.6 104.217   1
  -6  -3   0 11916.8 101.072   1
   9  -6   0 11998.0 120.057   1
   3   6  -3 55035.9 283.565   1
  -3   9  -3 56403.1 344.560   1
   3  -9   3 55326.5 343.427   1
  -3  -6   3 55620.4 288.699   1
   9  -3   3 55924.0 362.652   1
  -9   3  -3 55965.4 356.153   1
  -6  -3  -3 55847.0 363.484   1
   6   3   3 55302.9 358.854   1
   9  -6  -6 14861.6 204.267   1
  -3  -6   6 14121.4 183.970   1
   9  -3   6 14791.6 226.840   1
   6   3   6 14257.3 223.998   1
   3   6  -6 14361.8 186.181   1
   3  -9   6 14715.5 212.202   1
   9  -3   9 8226.62 204.609   1
   6   3   9 8374.52 204.306   1
  -3  -6   9 8251.55 180.783   1
   3  -9   9 8350.62 193.339   1
  -3  -6  12 1961.22 107.486   1
   3  -9  12 1871.58 109.578   1
   9  -3  12 1770.03 115.907   1
   7  -9  13 1062.36 101.722   1
   9  -7  13 1013.49 94.0632   1
  -7  -2  10 92.3735 31.9087   1
   7  -9  10-50.6948 39.2199   1
   9  -7  10 48.6876 37.7669   1
  -7  -2   7 1304.70 58.4439   1
   9  -2  -7 1280.27 64.8100   1
   9  -7   7 1379.31 77.2941   1
   7  -9   7 1222.83 70.1872   1
   7   2  -7 1211.68 57.0285   1
  -7   9  -4 263.094 32.3332   1
   7  -9   4 206.310 32.4898   1
  -7  -2   4 233.041 18.8044   1
   9  -2  -4 256.965 19.7780   1
  -2  -7  -4 276.807 35.3003   1
  -9   7  -4 229.132 32.1979   1
   9  -7   4 220.856 32.0771   1
   7   2  -4 211.479 16.9661   1
   9  -7   1 588.593 33.1448   1
   9  -2  -1 597.436 17.6467   1
  -7   9  -1 641.751 37.1441   1
   7  -9   1 622.299 35.0399   1
  -9   7  -1 651.693 35.4771   1
   2  -9   2 16948.2 168.302   1
   7   2   2 17000.8 170.462   1
   9  -2   2 17782.7 173.682   1
  -2  -7   2 17264.1 146.305   1
  -7  -2  -2 17297.1 175.069   1
  -2   9  -2 17698.2 172.589   1
  -9   2  -2 17759.4 174.858   1
   2   7  -5 1223.80 53.3790   1
   9  -2   5 1276.05 64.5562   1
   2  -9   5 1337.26 58.9546   1
   7   2   5 1187.19 62.7627   1
  -2  -7   5 1319.90 54.7138   1
   9  -7  -5 1518.30 60.5843   1
  -2   9  -5 1258.15 58.7479   1
  -2  -7   8 154.544 30.4714   1
   9  -2   8 152.102 38.8097   1
   2  -9   8 146.699 35.0886   1
   7   2   8 82.5088 34.8089   1
  -2  -7  11 476.922 58.0999   1
   7   2  11 468.467 63.7642   1
   9  -2  11 531.684 66.3906   1
   2  -9  11 459.656 58.2288   1
   2  -9  14 44.6033 41.8318   1
  -2  -7  14-0.76076 35.2970   1
   8  -9  14 1427.16 112.505   1
   9  -8  14 1345.53 113.738   1
   8  -9  11 1247.56 92.0902   1
   9  -8  11 1283.63 95.4104   1
   8   1  -8 3362.44 101.444   1
   9  -8   8 3950.55 133.144   1
  -8  -1   8 3659.89 104.766   1
   8  -9   8 3537.45 124.704   1
   9  -1  -5 2518.75 63.1723   1
  -8  -1   5 2740.28 63.1448   1
   9  -8   5 2696.81 90.2151   1
   8   1  -5 2755.74 64.4932   1
   8  -9   5 2726.90 91.7095   1
  -9   8  -2 508.444 35.1626   1
  -8   9  -2 497.425 34.5484   1
   8  -9   2 453.230 34.6547   1
   9  -8   2 456.667 33.5271   1
   8   1   1 9218.81 105.925   1
  -9   1  -1 9309.67 110.176   1
  -8  -1  -1 9130.81 106.813   1
  -9   1  -4 793.990 53.9683   1
  -1   9  -4 832.076 44.3891   1
   8   1   4 850.457 51.2142   1
  -1  -8   4 796.488 43.1772   1
  -8  -1  -4 779.945 50.8059   1
   1   8  -4 812.245 39.8698   1
   1  -9   4 876.820 46.1439   1
   9  -1   4 871.631 51.0195   1
   8   1   7 2245.28 97.6180   1
  -1  -8   7 2292.31 85.3493   1
   9  -1   7 2446.98 101.821   1
   1  -9   7 2423.61 88.9563   1
   9  -1  10 282.511 52.7766   1
   8   1  10 251.030 51.3291   1
   1  -9  10 285.278 46.1297   1
  -1  -8  10 233.945 40.9978   1
   1  -9  13 763.544 78.4645   1
  -1  -8  13 811.329 79.2333   1
   9  -1  13 813.167 92.7523   1
   8   1  13 728.418 87.2848   1
   9  -9  12 445.036 66.7253   1
   9  -9   9 8961.89 211.932   1
   9   0  -6 18200.0 189.450   1
   9  -9   6 18575.1 257.120   1
   9  -9   3 33226.5 287.219   1
  -9   9  -3 35967.0 299.492   1
   9  -9   0 137493. 556.038   1
   9   0   0 134005. 444.511   1
   0   9  -3 129891. 554.207   1
   9   0   3 132015. 603.157   1
  -9   0  -3 131544. 605.869   1
   9   0   6 39084.1 384.687   1
   0   9  -6 38611.9 339.797   1
   0  -9   6 38817.3 336.289   1
   9   0   9 13129.2 258.810   1
   0  -9   9 13204.7 239.007   1
   0  -9  12 29.6529 32.0910   1
   9   0  12 87.9896 46.1362   1
   0  -9  15 147.343 48.2833   1
  10  -5   0 86702.4 365.971   1
 -10   5   0 86496.5 369.343   1
  10  -5   3 90443.7 481.075   1
  -5  -5  -3 91107.1 488.967   1
 -10   5  -3 89138.6 496.620   1
   5   5  -3 87667.0 352.678   1
   5 -10   3 88836.7 473.661   1
  -5  -5   3 88227.2 354.327   1
  -5  10  -3 90353.7 475.428   1
   5 -10   6 12913.5 204.449   1
   5   5  -6 13007.5 168.302   1
  10  -5   6 13500.9 217.790   1
  10  -5  -6 13298.9 181.411   1
  -5  -5   6 13463.4 175.337   1
   5   5   6 13294.8 220.251   1
  -5  -5   9 9480.51 190.751   1
  10  -5   9 9121.21 217.782   1
   5 -10   9 9056.40 209.439   1
   5 -10  12 507.131 68.3263   1
  -5  -5  12 499.781 56.9490   1
  10  -5  12 509.430 67.8215   1
  10  -6  13 503.102 72.4782   1
   6 -10  13 629.897 78.1672   1
  -6  -4  13 638.943 69.0395   1
   6 -10  10 1392.06 91.0707   1
  10  -6  10 1346.66 94.3269   1
  -6  -4  10 1385.59 78.6545   1
  -6  -4   7 5105.98 114.312   1
   6   4  -7 4655.95 109.697   1
   6 -10   7 5063.70 139.290   1
  10  -4  -7 5016.29 120.317   1
  10  -6   7 5001.00 140.920   1
  -6  -4   4 15151.0 137.862   1
  -6  10  -4 16196.8 205.703   1
  10  -6   4 15658.8 204.666   1
   6 -10   4 15027.9 196.163   1
 -10   6  -4 15556.5 209.282   1
  10  -4  -4 15325.4 149.834   1
   6   4  -4 14558.2 134.450   1
  -4  -6  -4 15779.7 207.719   1
   6 -10   1 13629.6 155.604   1
  10  -4  -1 13130.0 103.997   1
  10  -6   1 13907.7 144.940   1
  -4  10  -2 990.134 45.1793   1
  -4  -6   2 989.326 31.1064   1
   4 -10   2 942.498 43.5037   1
  10  -4   2 910.972 42.2359   1
 -10   4  -2 938.968 43.4714   1
  -6  -4  -2 1047.72 45.6354   1
  -4  10  -5 1938.62 74.6814   1
  10  -4   5 1694.05 75.6701   1
  -4  -6   5 1832.17 59.6799   1
  10  -6  -5 1776.86 63.7726   1
   4 -10   5 1738.35 72.5571   1
   6   4   5 1835.80 79.5309   1
   4   6  -5 1702.06 57.8823   1
  -4  -6   8 85.1968 26.6895   1
   4 -10   8 43.5932 30.6550   1
   6   4   8 66.8922 34.8214   1
  10  -4   8 65.9701 33.5889   1
   4 -10  11 30.9380 33.0224   1
  -4  -6  11 12.0355 29.3639   1
  10  -4  11 51.3545 37.6779   1
  -4  -6  14 87.4338 42.5770   1
   4 -10  14 2.76082 37.6925   1
   7 -10  14 75.8337 50.2749   1
   7 -10  11 660.064 69.6369   1
  10  -7  11 610.743 69.1364   1
  -7  -3  11 678.071 60.8135   1
  10  -7   8 8053.15 191.850   1
  -7  -3   8 8172.67 156.186   1
   7 -10   8 8025.15 187.355   1
   7   3  -5 20909.9 181.205   1
  10  -3  -5 19809.0 187.134   1
  -7  -3   5 20694.0 180.823   1
  10  -7   5 20744.0 251.508   1
   7 -10   5 19473.2 242.063   1
  -7  10  -2 13153.1 164.204   1
   7 -10   2 12835.3 163.451   1
  10  -7   2 13495.1 158.874   1
 -10   7  -2 13511.4 162.165   1
   3 -10   1 27777.1 223.326   1
 -10   3  -1 27492.2 199.162   1
  10  -7  -1 27619.2 197.722   1
  -7  -3  -4 502.240 41.8950   1
   7   3   4 642.649 45.0302   1
  -3  -7   4 593.557 33.8864   1
   3   7  -4 603.400 32.5359   1
 -10   3  -4 599.804 46.2877   1
   3 -10   4 650.259 42.1947   1
  10  -3   4 671.691 46.1111   1
  -3  10  -4 692.703 42.0086   1
   3   7  -7 398.317 38.6125   1
  -3  -7   7 411.098 39.1419   1
   3 -10   7 356.798 41.3063   1
  10  -3   7 338.793 44.0040   1
   7   3   7 335.055 43.4701   1
   3 -10  10-37.6117 34.6144   1
   7   3  10-23.2351 33.0184   1
  -3  -7  10 18.0220 29.3507   1
  10  -3  10 42.1016 36.0065   1
  10  -3  13 150.305 51.9039   1
   3 -10  13 67.5225 45.0144   1
  -3  -7  13 153.590 45.8982   1
   8 -10  12 1347.97 99.2212   1
  10  -8  12 1381.96 101.419   1
  10  -8   9 12121.0 247.893   1
   8 -10   9 12342.7 248.148   1
  -8  -2   9 12551.6 207.557   1
   8   2  -6 20787.8 201.280   1
  10  -8   6 21436.6 275.584   1
   8 -10   6 21618.3 271.346   1
  10  -2  -6 20731.8 209.809   1
  -8  -2   6 21412.5 205.569   1
 -10   8  -3 13302.8 178.694   1
  -8  10  -3 13285.9 175.443   1
  10  -2  -3 12186.0 95.1220   1
   8 -10   3 12438.1 170.623   1
  -8  -2   3 11504.2 79.5862   1
  10  -8   3 12673.6 171.378   1
  10  -8   0 24990.9 197.545   1
 -10   2   0 24358.9 155.814   1
   8 -10   0 25289.6 215.539   1
  -8  -2   0 24355.7 151.684   1
  10  -2   0 25296.4 157.238   1
 -10   2  -3 3374.15 87.2828   1
  -2  -8   3 2920.87 67.1269   1
   2   8  -3 3029.13 67.2940   1
  -2  10  -3 3127.29 78.7250   1
  -8  -2  -3 3366.91 86.1600   1
   2 -10   3 3056.58 78.9611   1
   8   2   3 3097.70 82.6570   1
  10  -2   3 3238.36 84.7036   1
   2 -10   6 248.341 33.0917   1
   2   8  -6 234.375 28.8883   1
   8   2   6 299.525 40.8912   1
  10  -8  -6 270.626 32.1833   1
  -2  -8   6 276.765 31.0252   1
  10  -2   6 274.211 40.7599   1
   8   2   9 40.6745 34.2923   1
   2 -10   9 6.85170 27.0373   1
  10  -2   9 114.839 41.3132   1
  -2  -8   9 21.4297 26.6205   1
  10  -2  12 591.127 70.9501   1
   2 -10  12 501.599 62.0576   1
  -2  -8  12 574.879 63.2938   1
   8   2  12 563.636 70.8164   1
   2 -10  15 30.3486 42.4766   1
   9 -10  13-3.54639 41.8048   1
  10  -9  13 25.6280 40.0254   1
   9 -10  10-32.6262 38.4904   1
  10  -9  10 10.0900 35.9192   1
   9   1  -7 103.302 20.3233   1
  10  -1  -7 53.6693 17.8257   1
   9 -10   7 123.812 34.0476   1
  10  -9   7 68.3363 28.5894   1
  -9  -1   7 107.237 22.3489   1
  -9  10  -4 4328.04 112.162   1
 -10   9  -4 4167.24 110.706   1
  10  -9   4 4223.72 107.731   1
  10  -1  -4 3932.62 62.5479   1
   9   1  -4 4099.58 58.7631   1
   9 -10   4 4155.78 108.568   1
  -1  -9  -4 4562.33 115.128   1
  10  -9   1 50.6686 19.3174   1
   9 -10   1 46.1554 19.4447   1
 -10   1   1 50.1878 6.47386   1
 -10   9  -1 73.4452 19.5128   1
  -9  10  -1 62.2155 19.3291   1
  10  -1  -1 33.6519 6.68399   1
   9   1   2 16789.4 174.540   1
   1 -10   2 17139.4 174.536   1
  10  -1   2 17385.2 175.920   1
  -9  -1  -2 16142.3 176.306   1
  -1  -9   2 16820.6 162.759   1
  -1  10  -5 4066.80 101.633   1
   1   9  -5 3841.60 94.1571   1
   9   1   5 3742.87 109.458   1
   1 -10   5 3906.14 99.7937   1
  -1  -9   5 3870.63 94.5021   1
  10  -1   5 4010.75 112.862   1
  10  -1   8 2612.99 113.687   1
   1 -10   8 2711.55 102.853   1
  -1  -9   8 2671.53 99.5917   1
   9   1   8 2658.29 114.305   1
  -1  -9  11 1818.95 100.527   1
   9   1  11 1738.85 111.196   1
   1 -10  11 1703.90 100.913   1
  10  -1  11 1840.89 113.115   1
   1 -10  14 76.9097 41.3444   1
  -1  -9  14 35.8518 38.5455   1
  10 -10  11 4782.21 175.367   1
  10 -10   8 15932.7 271.878   1
  10   0  -8 15921.4 214.173   1
  10 -10   5 18177.0 241.788   1
  10   0  -5 17579.9 154.347   1
  10 -10   2 27338.2 250.161   1
 -10  10  -2 28929.5 257.047   1
 -10   0  -1 4548.81 78.2557   1
  10   0   1 4556.59 78.4428   1
   0  10  -4 942.324 45.2467   1
   0 -10   4 895.463 46.5784   1
  10   0   4 846.545 51.1315   1
 -10   0  -4 799.230 51.7326   1
  10   0   7 3232.71 118.372   1
   0 -10   7 3291.84 104.462   1
   0 -10  10 504.721 57.6452   1
  10   0  10 412.297 58.2508   1
   0 -10  13 14.9480 33.6475   1
  10   0  13-3.69535 39.5022   1
   6 -11  14 412.663 70.3703   1
  -6  -5  11 903.838 69.8167   1
  11  -6  11 869.512 81.1609   1
   6 -11  11 872.445 78.3189   1
  -6  -5   8 8772.77 164.451   1
   6 -11   8 8605.52 192.032   1
  11  -6   8 8515.67 200.582   1
   6 -11   5 53211.6 409.567   1
  11  -5  -5 52304.9 336.666   1
  -6  -5   5 52941.7 318.913   1
  11  -6   5 53801.6 423.482   1
  -6  11  -2 95479.2 486.819   1
  -5  -6  -2 93305.0 474.489   1
  -6  -5   2 90459.0 328.503   1
   6 -11   2 93446.3 482.698   1
  11  -6   2 93494.7 460.773   1
 -11   6  -2 93760.3 475.030   1
  11  -5   1 54177.2 304.273   1
 -11   5  -1 54814.5 311.643   1
   5 -11   1 54777.7 341.798   1
  -6  -5  -1 52805.8 301.888   1
  11  -6  -1 53864.7 271.998   1
  11  -5   4 114535. 609.197   1
   5   6  -4 114257. 472.351   1
  -5  11  -4 118474. 602.548   1
   5 -11   4 115122. 594.882   1
  -5  -6   4 114757. 476.326   1
  -6  -5  -4 116334. 626.225   1
 -11   5  -4 118953. 624.373   1
  11  -6  -7 12962.6 199.522   1
   5   6  -7 12987.2 187.016   1
  -5  -6   7 13560.3 191.474   1
   5 -11   7 13430.5 225.143   1
   6   5   7 13203.9 237.150   1
  11  -5   7 13507.7 236.281   1
  -5  -6  10 644.698 57.1884   1
  11  -5  10 605.319 69.2186   1
   5 -11  10 568.821 62.9421   1
  -5  -6  13 33.8268 33.4391   1
  11  -5  13 56.5969 46.7222   1
   5 -11  13 76.6304 42.3284   1
   7 -11  12 336.586 59.5437   1
  11  -7  12 174.687 49.5748   1
  -7  -4  12 322.277 51.9588   1
   7 -11   9 145.838 40.4254   1
  11  -7   9 153.251 43.8056   1
  -7  -4   9 143.867 31.2526   1
  -7  -4   6 556.510 35.6277   1
   7 -11   6 687.537 52.1174   1
   7   4  -6 511.078 33.3727   1
  11  -4  -6 580.229 36.9764   1
  11  -7   6 561.678 49.1783   1
  -4  -7  -3 9268.57 149.044   1
 -11   7  -3 9392.83 152.679   1
  11  -7   3 9065.04 143.191   1
  -7  -4   3 8793.71 81.9013   1
   7 -11   3 8830.96 145.203   1
  -7  11  -3 9437.65 150.386   1
 -11   7   0 146.803 19.0706   1
 -11   4   0 164.644 17.5042   1
  11  -7   0 194.781 21.5346   1
  -7  -4   0 150.958 15.4035   1
  11  -4   0 153.018 17.0376   1
   4 -11   3 13429.0 173.920   1
  -4  -7   3 13141.8 130.459   1
 -11   4  -3 13281.5 179.833   1
  -7  -4  -3 13753.3 181.056   1
   7   4   3 13606.0 176.903   1
  11  -4   3 13001.0 170.632   1
  -4  11  -3 13868.3 175.648   1
   4 -11   6 5445.01 132.131   1
  11  -4   6 5598.31 141.359   1
   4   7  -6 5466.30 113.406   1
   7   4   6 5356.41 140.760   1
  11  -7  -6 5321.20 120.568   1
  -4  -7   6 5525.20 114.188   1
  11  -4   9 3421.90 134.545   1
   4 -11   9 3369.33 126.163   1
   7   4   9 3277.41 139.011   1
  -4  -7   9 3557.66 117.935   1
  11  -4  12 809.477 86.0330   1
  -4  -7  12 740.081 69.1718   1
   4 -11  12 738.197 76.7648   1
   8 -11  13 3467.87 162.059   1
  11  -8  13 3563.94 171.400   1
   8 -11  10 9165.59 226.657   1
  -8  -3  10 9722.39 195.751   1
  11  -8  10 9432.07 234.813   1
   8 -11   7 39480.6 402.676   1
  11  -8   7 39763.5 411.185   1
  11  -3  -7 38150.5 324.122   1
   8   3  -7 38511.1 310.654   1
  -8  -3   7 39740.7 316.189   1
  11  -3  -4 41628.4 241.996   1
  11  -8   4 43120.8 352.729   1
 -11   8  -4 44791.0 367.374   1
   8 -11   4 44225.1 352.946   1
  -8  -3   4 43778.6 223.362   1
   8   3  -4 40936.5 217.168   1
  -3  -8  -4 44967.2 373.461   1
   8 -11   1 23320.3 217.966   1
  11  -8   1 22611.5 201.587   1
 -11   8  -1 23575.0 209.550   1
  -8  -3   1 21791.1 117.167   1
  11  -3  -1 23159.4 134.749   1
   3 -11   2 687.859 39.0516   1
  11  -3   2 681.285 37.5011   1
  -8  -3  -2 644.192 37.4503   1
  -3  -8   2 657.788 30.3155   1
 -11   3  -2 716.042 39.8388   1
   8   3   2 685.778 37.3912   1
  -3  -8   5 591.447 38.2022   1
   8   3   5 585.411 46.4570   1
  -3  11  -5 545.016 41.5658   1
  11  -3   5 539.487 44.9179   1
   3 -11   5 494.467 42.1124   1
   3   8  -5 522.276 33.9070   1
  11  -3   8 34.1070 28.4015   1
   8   3   8 22.0620 32.1370   1
   3 -11   8 12.9410 27.7062   1
  -3  -8   8 20.7994 24.5630   1
  -3  -8  11 1155.50 80.5062   1
  11  -3  11 1110.46 88.9413   1
   8   3  11 953.975 86.6428   1
   3 -11  11 1063.97 81.9363   1
  -3  -8  14 302.037 56.1290   1
   3 -11  14 242.839 55.3091   1
   9 -11  14 127.887 55.7352   1
  11  -9  11 149.340 47.5081   1
   9 -11  11 118.393 43.3343   1
   9 -11   8 498.062 53.4228   1
  11  -2  -8 601.831 45.3616   1
   9   2  -8 512.770 40.6860   1
  11  -9   8 525.325 54.4360   1
  -9  -2   8 509.909 39.3265   1
   9 -11   5 6493.50 141.684   1
  11  -9   5 6372.00 143.391   1
  -9  -2   5 6418.58 90.6339   1
  11  -2  -5 6298.86 96.0356   1
   9   2  -5 6417.55 89.5584   1
   9 -11   2 199.705 28.0880   1
  -9  11  -2 241.503 27.5378   1
  11  -9   2 158.545 25.0725   1
 -11   9  -2 234.704 28.3389   1
  -9  -2  -1 693.128 34.0699   1
 -11   2  -1 684.167 33.8460   1
   9   2   1 861.996 36.6159   1
  11  -2   1 738.833 33.5109   1
   9   2   4 29983.2 291.489   1
  -2  11  -4 31463.4 277.853   1
 -11   2  -4 29790.6 301.646   1
   2   9  -4 30462.1 245.393   1
  -9  -2  -4 31342.6 303.229   1
  -2  -9   4 30588.0 247.587   1
   2 -11   4 30799.1 273.490   1
  11  -2   4 30307.1 294.300   1
   9   2   7 2067.86 98.3283   1
  11  -2   7 2142.42 97.1728   1
   2 -11   7 2258.40 91.0428   1
  -2  -9   7 2150.67 81.5707   1
  -2  -9  10 7151.96 178.921   1
  11  -2  10 6945.78 204.998   1
   9   2  10 6765.81 205.862   1
   2 -11  10 7007.41 190.307   1
  11  -2  13 2624.90 148.912   1
  -2  -9  13 2569.65 131.706   1
   2 -11  13 2580.02 138.583   1
  11 -10  12 1496.35 106.287   1
  10 -11  12 1552.11 107.475   1
  10 -11   9 2174.25 108.130   1
  11 -10   9 2284.64 112.103   1
  11  -1  -6 7968.12 120.202   1
  10 -11   6 7972.69 171.527   1
  11 -10   6 8027.94 172.367   1
  10   1  -6 8072.98 117.402   1
 -10  11  -3 11427.3 170.720   1
 -11  10  -3 11573.7 174.445   1
  10 -11   3 10697.8 165.637   1
  11 -10   3 11381.2 168.691   1
  10 -11   0 542.754 36.4679   1
  10   1   0 534.851 23.1315   1
 -11   1   0 546.794 24.5429   1
 -10  -1   0 540.232 23.8863   1
  11  -1   0 552.080 24.3029   1
  11 -10   0 553.075 34.5136   1
  11  -1   3 3142.90 86.3552   1
 -11   1  -3 2875.00 87.5034   1
  10   1   3 3200.68 87.6774   1
  -1 -10   3 3272.02 78.5166   1
  -1  11  -3 3191.03 83.1564   1
   1 -11   3 3203.47 81.9213   1
 -10  -1  -3 3207.30 88.6613   1
  -1 -10   6 30.3488 21.4345   1
   1 -11   6 40.8426 25.6945   1
  10   1   6 30.2028 27.2006   1
   1  10  -6-12.6243 18.1582   1
  11  -1   6-19.1812 24.6272   1
  -1 -10   9 422.906 46.8597   1
   1 -11   9 487.058 53.3153   1
  10   1   9 437.528 56.3949   1
  11  -1   9 375.308 56.2678   1
  10   1  12 136.351 48.6748   1
  11  -1  12 29.8577 42.7797   1
   1 -11  12 66.4434 37.6054   1
  -1 -10  12 82.4222 35.8312   1
  11 -11  13 9116.68 269.633   1
  11 -11  10 20590.9 344.514   1
  11 -11   7 52496.3 476.002   1
  11   0  -7 51735.9 354.130   1
  11 -11   4 31742.4 306.536   1
  11   0  -4 28665.2 152.630   1
 -11  11  -1 12713.3 166.912   1
  11 -11   1 12019.8 158.504   1
   0 -11   2 2890.59 73.6217   1
  11   0   2 2952.10 74.6046   1
 -11   0  -2 2660.85 75.7771   1
  11   0   5 7481.44 157.138   1
   0  11  -5 7121.59 133.254   1
   0 -11   5 7181.52 134.627   1
  11   0   8 78.5180 35.0990   1
   0 -11   8 37.7169 28.1535   1
  11   0  11 1027.42 87.4174   1
   0 -11  11 1140.54 84.0664   1
   0 -11  14 383.207 61.6907   1
 -12   6   0 3302.39 67.2781   1
  12  -6   0 3140.13 65.1224   1
   6 -12   3 10462.0 159.340   1
  12  -6   3 10302.6 156.496   1
  -6  -6  -3 10532.1 162.129   1
 -12   6  -3 10987.8 163.750   1
  -6  12  -3 11164.9 166.002   1
  -6  -6   3 10486.9 104.540   1
  12  -6  -6 682.125 43.1972   1
  12  -6   6 768.078 57.6432   1
   6 -12   6 767.385 54.6251   1
  -6  -6   6 696.591 41.3245   1
   6   6  -6 692.476 39.4233   1
  -6  -6   9 1141.45 66.4821   1
   6 -12   9 1050.66 75.5519   1
  12  -6   9 1130.72 82.0201   1
   6 -12  12 47.0503 35.2633   1
  12  -6  12 136.111 47.5832   1
  -6  -6  12 88.0407 34.9048   1
  12  -7  13 19.8525 39.8768   1
   7 -12  13-9.09848 42.7337   1
   7 -12  10 19.4811 35.6063   1
  12  -7  10 4.16426 36.0458   1
  -7  -5  10 61.7525 30.0852   1
  -7  -5   7 661.043 42.4781   1
  12  -7   7 613.524 54.8318   1
   7   5  -7 573.540 39.4124   1
  12  -5  -7 639.292 43.7183   1
   7 -12   7 610.251 52.8136   1
  -7  -5   4 358.809 22.8941   1
  12  -5  -4 324.456 24.1809   1
  12  -7   4 335.014 37.5433   1
  -7  12  -4 346.902 34.5900   1
  -5  -7  -4 246.598 32.7057   1
   7 -12   4 305.859 35.0427   1
   7   5  -4 315.636 20.6984   1
   7 -12   1 250.238 29.1653   1
  12  -7   1 223.374 25.7582   1
 -12   7  -1 251.193 23.9832   1
  12  -5  -1 256.309 18.2133   1
  -7  -5  -2 4646.54 95.9932   1
  12  -5   2 4707.09 96.1214   1
 -12   5  -2 5031.44 100.300   1
  -5  -7   2 4761.16 72.0427   1
   5 -12   2 4919.18 104.841   1
   5 -12   5 78.8446 27.4349   1
  12  -7  -5 44.0286 16.3949   1
   5   7  -5 61.6863 16.3815   1
  12  -5   5 93.9361 31.9311   1
   7   5   5 111.234 30.0935   1
  -5  -7   5 63.9853 17.7840   1
   5 -12   8 37.3833 29.1754   1
   7   5   8-66.7655 36.3394   1
  12  -5   8-12.6896 31.9747   1
  -5  -7   8 41.6253 21.9735   1
  12  -5  11 98.2834 43.6362   1
  -5  -7  11 146.999 36.6073   1
   5 -12  11 150.395 43.9282   1
   5 -12  14 24.9890 46.1992   1
   8 -12  14 300.690 65.6833   1
  12  -8  11 4041.12 164.205   1
   8 -12  11 4066.50 161.205   1
  -8  -4  11 4295.16 138.859   1
   8 -12   8 5507.52 157.419   1
  -8  -4   8 5848.14 128.415   1
   8   4  -8 5405.11 123.208   1
  12  -8   8 5526.94 162.843   1
  -8  -4   5 28526.4 207.109   1
   8   4  -5 27394.9 200.738   1
  12  -4  -5 27497.6 221.281   1
   8 -12   5 28190.5 300.289   1
  12  -8   5 28148.1 310.222   1
  12  -8   2 21565.9 214.782   1
 -12   8  -2 23102.7 225.467   1
  12  -4  -2 20155.7 128.366   1
  -8  12  -2 22466.9 231.646   1
  12  -4   1 8312.77 112.273   1
   4 -12   1 8479.57 133.448   1
 -12   4  -1 8172.30 114.651   1
  12  -8  -1 8115.33 108.465   1
  -8  -4  -1 8381.50 113.444   1
   4 -12   4 27774.1 269.522   1
  -8  -4  -4 28106.3 299.125   1
  12  -4   4 27830.7 284.165   1
  -4  12  -4 28603.4 277.816   1
  -4  -8   4 27369.0 218.238   1
   4   8  -4 27137.7 216.736   1
 -12   4  -4 27740.6 291.101   1
   8   4   4 27721.5 283.397   1
  12  -4   7 2571.14 104.545   1
  -4  -8   7 2439.97 83.7307   1
   4 -12   7 2539.69 98.4444   1
   8   4   7 2538.06 104.786   1
   4   8  -7 2280.67 81.0510   1
  -4  -8  10 289.815 41.6182   1
   4 -12  10 257.409 46.1491   1
  12  -4  10 297.636 52.4736   1
   8   4  10 284.684 51.0722   1
   4 -12  13 20.1119 43.6003   1
  12  -4  13 28.9549 48.5712   1
  12  -9  12 1960.81 121.217   1
   9 -12  12 2149.66 125.234   1
   9 -12   9 5236.46 163.858   1
  -9  -3   9 5584.10 133.901   1
  12  -9   9 5162.58 169.666   1
   9 -12   6 34807.2 360.719   1
  12  -3  -6 33403.3 265.961   1
   9   3  -6 33796.2 250.494   1
  -9  -3   6 35470.4 257.008   1
  -9  12  -3 27029.8 271.311   1
   9 -12   3 24436.8 256.798   1
 -12   9  -3 26539.9 264.959   1
  12  -9   3 26013.9 256.290   1
  12  -3  -3 24613.9 146.603   1
   9 -12   0 8484.27 135.755   1
  12  -3   0 8218.39 94.3561   1
  -9  -3   0 8091.12 90.6945   1
 -12   3   0 8163.54 96.5773   1
  12  -9   0 8333.47 119.932   1
   3 -12   3 1841.68 65.9348   1
  -9  -3  -3 2151.11 73.1797   1
 -12   3  -3 1863.48 69.4282   1
   9   3   3 2009.19 69.5941   1
  -3  -9   3 1836.66 54.1110   1
  -3  12  -3 1885.71 67.3940   1
  12  -3   3 1964.52 69.0386   1
   9   3   6 245.339 42.8504   1
  12  -9  -6 237.672 29.3169   1
  12  -3   6 253.472 38.2705   1
   3   9  -6 233.054 27.1104   1
   3 -12   6 256.870 36.1862   1
  -3  -9   6 220.682 28.9537   1
  12  -3   9 561.349 62.7528   1
  -3  -9   9 616.193 53.3018   1
   9   3   9 517.840 59.2373   1
   3 -12   9 502.185 52.5714   1
   3 -12  12 505.902 63.5138   1
  12  -3  12 575.651 71.8991   1
  -3  -9  12 474.349 56.7057   1
  12 -10  13 58.3521 42.2389   1
  10 -12  10 261.892 46.5730   1
  12 -10  10 412.896 57.4368   1
  12 -10   7 1493.15 81.4506   1
  10   2  -7 1483.63 57.3322   1
 -10  -2   7 1611.46 59.2517   1
  12  -2  -7 1558.70 61.3900   1
  10 -12   7 1568.05 83.9843   1
  12  -2  -4 801.461 27.2019   1
  10 -12   4 887.188 55.9440   1
  12 -10   4 926.267 55.2847   1
  10   2  -4 684.247 22.5669   1
  12  -2  -1 272.872 15.0627   1
 -10  -2   1 213.194 11.6793   1
 -12   2   1 243.878 14.0316   1
  12 -10   1 274.847 26.7854   1
  10 -12   1 299.423 31.5159   1
 -12  10  -1 248.537 25.5653   1
  12  -2   2 5079.20 99.3246   1
  10   2   2 4877.89 96.4076   1
  -2 -10   2 5088.28 92.1839   1
 -10  -2  -2 5026.52 100.168   1
   2 -12   2 5142.33 102.780   1
 -12   2  -2 5044.12 99.9030   1
   2 -12   5 46.0480 22.7248   1
   2  10  -5 7.60803 13.8283   1
  10   2   5-23.9699 23.0643   1
  12  -2   5 9.50296 23.4566   1
  -2 -10   5 25.2847 20.0464   1
  -2  12  -5 28.6028 18.4350   1
  -2 -10   8 2317.88 91.6307   1
   2 -12   8 2454.70 100.124   1
  12  -2   8 2374.16 112.800   1
  10   2   8 2295.77 109.507   1
  -2 -10  11 415.629 52.5177   1
   2 -12  11 457.252 61.1694   1
  12  -2  11 380.263 56.6495   1
  10   2  11 359.275 59.2308   1
  -2 -10  14 225.030 51.4167   1
   2 -12  14 228.494 56.3579   1
  11 -12  11 1120.46 90.3575   1
  12 -11  11 1105.49 92.1833   1
  12  -1  -8 5006.36 116.680   1
  11   1  -8 5260.03 117.692   1
  12 -11   8 5409.09 161.578   1
  11 -12   8 5520.76 159.845   1
  11   1  -5 5322.74 74.2575   1
  12  -1  -5 5275.69 78.2191   1
  11 -12   5 5318.33 135.750   1
  12 -11   5 5528.05 138.396   1
 -11  12  -2 508.997 38.2546   1
  12 -11   2 448.104 37.7259   1
 -12  11  -2 489.188 38.7758   1
  11 -12   2 454.461 37.9180   1
 -11  -1  -1 350.539 27.1053   1
  11   1   1 376.717 27.0552   1
  12  -1   1 378.809 27.1505   1
 -12   1  -1 364.589 26.1702   1
  12  -1   4 34491.0 320.352   1
 -11  -1  -4 35538.9 329.579   1
   1 -12   4 34693.3 296.195   1
  11   1   4 34366.2 319.274   1
  -1 -11   4 34585.2 282.139   1
  -1  12  -4 34827.7 298.973   1
   1  11  -4 34795.6 283.594   1
  -1 -11   7 5743.55 137.809   1
  12  -1   7 5885.19 161.031   1
   1 -12   7 5623.48 141.538   1
  11   1   7 5808.85 159.068   1
  11   1  10 2875.54 135.106   1
   1 -12  10 3114.97 124.571   1
  -1 -11  10 2959.37 120.446   1
  12  -1  10 2857.12 136.306   1
   1 -12  13 47.2800 41.4206   1
  11   1  13-5.31720 43.0732   1
  12  -1  13 80.0590 43.1828   1
  12 -12  12 318.829 62.5303   1
  12 -12   9 2323.23 114.721   1
  12 -12   6 1053.84 65.6954   1
  12   0  -6 1004.67 39.2758   1
  12 -12   3 5244.74 121.156   1
  12 -12   0 11547.3 158.315   1
  12   0   0 10943.5 108.169   1
 -12   0   0 10959.9 107.424   1
  12   0   3 29260.7 271.535   1
 -12   0  -3 29398.7 283.983   1
  12   0   6 10055.7 201.633   1
   0 -12   6 9896.32 171.139   1
   0 -12   9 1686.28 86.4434   1
  12   0   9 1667.56 98.7333   1
  12   0  12 68.1640 39.4585   1
   0 -12  12 159.102 41.9762   1
   7 -13  14-16.8527 46.0593   1
  -7  -6  11 456.155 50.4454   1
   7 -13  11 351.271 54.8874   1
  13  -7  11 500.193 66.0351   1
  13  -7   8 219.596 41.1139   1
   7   6  -8 272.461 31.8082   1
   7 -13   8 285.807 43.4061   1
  -7  -6   8 309.402 34.9046   1
   7 -13   5-18.7766 25.7597   1
  13  -7   5 0.55422 24.8581   1
  13  -6  -5 11.2428 13.0170   1
   7   6  -5 12.2323 10.8185   1
  -7  -6   5 0.77124 13.5688   1
 -13   7  -2 13616.7 174.245   1
  -7  -6   2 12631.7 105.940   1
  13  -6  -2 12569.5 120.920   1
  -6  -7  -2 13203.8 170.067   1
   7 -13   2 12704.6 175.215   1
  13  -7   2 13100.0 164.447   1
  -7  -6  -1 24156.9 205.846   1
  13  -7  -1 23961.7 185.279   1
   6 -13   1 24220.5 238.041   1
 -13   6  -1 24028.1 210.592   1
  13  -6   1 24067.3 206.540   1
   6   7  -4 21359.6 175.233   1
  13  -6   4 22459.9 256.296   1
   6 -13   4 22360.6 250.312   1
  -6  -7   4 22235.2 179.397   1
   6 -13   7 6260.88 156.117   1
  13  -6   7 6397.07 166.919   1
   6   7  -7 6022.88 123.729   1
  13  -7  -7 6273.17 137.158   1
  -6  -7   7 6386.77 130.242   1
  -6  -7  10 534.252 50.1164   1
   6 -13  10 507.539 59.1662   1
  13  -6  10 578.774 65.4224   1
  13  -6  13 129.866 50.4229   1
   6 -13  13 122.323 48.4864   1
   8 -13  12 129.736 45.7743   1
  -8  -5  12 150.159 34.2000   1
  13  -8  12 142.682 46.6415   1
  -8  -5   9 806.983 53.7029   1
   8 -13   9 736.352 68.3673   1
  13  -8   9 723.966 69.5822   1
  13  -5  -6 785.913 42.7662   1
   8   5  -6 734.498 37.5332   1
  13  -8   6 716.428 56.6407   1
  -8  -5   6 774.221 39.5573   1
   8 -13   6 709.105 55.8413   1
 -13   8  -3 16880.8 212.233   1
  -8  13  -3 16098.8 210.081   1
   8 -13   3 15692.0 205.270   1
  -8  -5   3 14579.7 108.221   1
  -5  -8  -3 16354.0 208.592   1
  13  -8   3 15063.8 193.962   1
  13  -5   0 6406.94 91.9746   1
 -13   8   0 6527.16 106.144   1
  -8  -5   0 6453.22 88.5330   1
  13  -8   0 6363.37 102.092   1
 -13   5   0 6363.05 92.9438   1
  -5  -8   3 32374.0 219.682   1
  -5  13  -3 34026.8 297.011   1
   5 -13   3 33162.5 295.686   1
 -13   5  -3 33864.5 300.658   1
  -8  -5  -3 33914.9 300.491   1
  -5  -8   6 17689.4 202.164   1
   5   8  -6 17535.8 199.976   1
  13  -5   6 18121.1 263.534   1
   8   5   6 17841.1 266.019   1
   5 -13   6 17998.7 249.761   1
  13  -8  -6 17884.1 222.651   1
  -5  -8   9 7251.46 163.103   1
  13  -5   9 6793.15 194.857   1
   5 -13   9 7169.65 184.500   1
  -5  -8  12 3413.32 136.632   1
  13  -5  12 3316.25 158.331   1
   5 -13  12 3085.54 147.911   1
  13  -9  13 115.965 49.7446   1
   9 -13  13 49.3839 47.6855   1
   9 -13  10 42.5621 32.3459   1
  13  -9  10 177.417 45.9707   1
  -9  -4  10 86.4450 29.4298   1
   9 -13   7 2027.68 94.3356   1
   9   4  -7 1927.15 65.4168   1
  13  -9   7 2081.26 98.3592   1
  13  -4  -7 2088.16 73.1882   1
  -9  -4   7 2191.94 70.3893   1
  13  -4  -4 9.32971 10.6417   1
  13  -9   4 35.8866 28.3381   1
   9   4  -4 32.0175 8.22270   1
  -9  -4   4 28.9655 9.49437   1
   9 -13   4 18.2517 24.3870   1
  13  -9   1 4243.68 92.2197   1
   9 -13   1 4418.93 102.750   1
  13  -4  -1 4331.13 62.8231   1
 -13   9  -1 4401.44 94.9711   1
  -9  -4   1 4264.88 56.2018   1
  -4  -9   2 289.212 22.8466   1
   4 -13   2 272.950 30.7222   1
  13  -4   2 273.665 28.3170   1
  -9  -4  -2 311.154 29.5177   1
 -13   4  -2 283.060 29.6609   1
   4   9  -5 2239.39 67.5401   1
  13  -4   5 2184.40 86.1779   1
   9   4   5 2187.97 87.5311   1
   4 -13   5 2260.94 83.1284   1
  -4  -9   5 2263.61 68.6006   1
  -4  -9   8 305.082 38.6335   1
   9   4   8 275.741 49.6194   1
   4 -13   8 331.390 46.0214   1
  13  -4   8 209.187 44.4792   1
  13  -4  11 860.263 80.6547   1
  -4  -9  11 1050.30 74.4433   1
   4 -13  11 966.886 81.5159   1
   4 -13  14-0.12231 40.3613   1
  10 -13  11 1898.22 113.602   1
  13 -10  11 1942.98 116.647   1
 -10  -3   8 2590.38 82.2794   1
  13 -10   8 2471.82 111.535   1
  10 -13   8 2388.28 108.211   1
  13  -3  -8 2427.65 84.0293   1
  10   3  -8 2378.63 79.3225   1
  13  -3  -5 63.1045 14.0089   1
  13 -10   5 1.62045 26.1713   1
  10   3  -5 37.9713 10.1688   1
  10 -13   5-2.78229 25.7086   1
 -10  -3   5 61.8539 12.6505   1
  10 -13   2-9.44004 22.4629   1
 -13  10  -2 25.3595 18.3503   1
 -10  13  -2 7.23851 17.2009   1
  13  -3  -2 12.8943 6.29141   1
  13 -10   2 11.3247 21.1050   1
  13  -3   1 5979.49 96.5574   1
 -13   3  -1 6040.24 99.4273   1
  13 -10  -1 6008.76 105.256   1
 -10  -3  -1 6239.92 98.5854   1
  -3 -10   4 7455.96 119.860   1
   3  10  -4 7384.11 118.680   1
  -3  13  -4 7574.29 142.915   1
  10   3   4 7246.05 145.505   1
   3 -13   4 7356.76 139.207   1
 -10  -3  -4 7822.96 154.142   1
  13  -3   4 7699.72 150.483   1
   3 -13   7 321.418 42.1146   1
  10   3   7 245.241 41.3928   1
  -3 -10   7 228.110 31.5485   1
  13  -3   7 262.339 44.1838   1
   3 -13  10 1063.15 78.5727   1
  13  -3  10 1147.77 90.0060   1
  10   3  10 1040.22 84.8198   1
  -3 -10  10 1045.05 72.5080   1
   3 -13  13 1371.56 101.927   1
  -3 -10  13 1435.42 98.1967   1
  13  -3  13 1339.88 108.663   1
  11 -13  12-34.4439 42.2089   1
  13 -11  12 16.1964 40.8583   1
  11 -13   9 159.079 45.5343   1
  13 -11   9 228.519 45.1912   1
  11   2  -6 6602.28 98.0021   1
  13  -2  -6 6702.14 104.243   1
  13 -11   6 6878.17 162.485   1
  11 -13   6 6850.13 161.671   1
  11 -13   3 1185.42 60.6740   1
  13 -11   3 1192.93 61.6065   1
 -11  -2   0 9363.12 100.594   1
  13  -2   0 9389.09 102.739   1
  13 -11   0 9407.45 138.454   1
 -13   2   0 9385.79 103.402   1
  11 -13   0 9411.14 146.928   1
  11   2   3 32636.0 292.711   1
 -11  -2  -3 32791.5 301.505   1
  13  -2   3 32870.2 290.155   1
  -2 -11   3 32395.5 256.039   1
 -13   2  -3 33029.9 294.513   1
  -2 -11   6 858.004 51.2560   1
  11   2   6 810.977 61.4961   1
  13  -2   6 879.238 61.7415   1
   2  11  -6 853.237 49.5838   1
   2 -13   6 865.847 54.3187   1
  11   2   9 504.512 59.6200   1
  -2 -11   9 578.567 55.1272   1
   2 -13   9 522.791 56.1261   1
  13  -2   9 562.179 63.3781   1
  -2 -11  12 751.896 72.0427   1
  11   2  12 742.334 83.4683   1
   2 -13  12 783.376 75.6944   1
  13  -2  12 758.639 87.1015   1
  13 -12  13 678.813 85.7628   1
  12 -13  13 638.507 81.5530   1
  12 -13  10 975.731 81.5065   1
  13 -12  10 982.535 82.9866   1
  12   1  -7 3749.39 84.4051   1
  12 -13   7 3965.11 132.606   1
  13 -12   7 3718.73 130.657   1
  13  -1  -7 3745.91 86.8819   1
  13 -12   4 5133.58 127.701   1
  12 -13   4 5122.92 128.754   1
  13  -1  -1 20200.6 119.478   1
 -13  12  -1 22952.4 236.929   1
  13 -12   1 21856.9 226.024   1
  12 -13   1 22341.0 233.340   1
  -1 -12   2 5977.10 109.366   1
   1 -13   2 5990.19 114.348   1
 -12  -1  -2 6233.28 112.183   1
  12   1   2 5781.77 108.746   1
  13  -1   2 6209.94 111.343   1
 -13   1  -2 6196.46 114.009   1
  -1  13  -5 30858.8 299.187   1
   1  12  -5 30135.2 280.704   1
  12   1   5 30194.1 324.783   1
   1 -13   5 30863.2 299.132   1
  -1 -12   5 29918.8 282.633   1
  13  -1   5 30628.5 328.718   1
  13  -1   8 655.866 64.0875   1
  12   1   8 642.750 63.8663   1
  -1 -12   8 676.614 54.9949   1
   1 -13   8 677.139 57.1215   1
  -1 -12  11 610.711 62.6785   1
  12   1  11 606.590 70.9615   1
   1 -13  11 603.664 65.2686   1
  13  -1  11 595.035 68.8084   1
  13 -13  11 366.241 59.2115   1
  13 -13   8 2167.16 107.761   1
  13   0  -8 2043.83 69.9340   1
  13   0  -5 19509.7 133.452   1
  13 -13   5 21491.0 276.919   1
 -13  13  -2 18149.4 224.584   1
  13 -13   2 17953.1 221.120   1
 -13   0  -1 7309.71 110.127   1
  13   0   1 7406.10 110.573   1
   0 -13   4 4897.19 111.418   1
  13   0   4 5174.36 125.311   1
   0 -13   7 2123.19 86.6702   1
  13   0   7 2053.90 100.508   1
  13   0  10 1475.31 101.122   1
   0 -13  10 1573.16 89.7681   1
  13   0  13 2117.23 143.349   1
   0 -13  13 1950.94 119.149   1
 -14   7   0 50737.6 307.762   1
  14  -7   0 50361.5 300.306   1
 -14   7  -3 3564.12 98.1416   1
   7 -14   3 3270.10 97.3336   1
  -7  14  -3 3470.16 98.5864   1
  14  -7   3 3473.68 97.4013   1
  -7  -7  -3 3367.74 97.0698   1
  -7  -7   3 3378.48 60.4202   1
  -7  -7   6 3707.28 88.9360   1
  14  -7   6 3823.65 121.800   1
   7   7  -6 3377.74 81.1192   1
  14  -7  -6 3662.08 95.6959   1
   7 -14   6 3828.85 117.087   1
  -7  -7   9 19.5204 23.1422   1
  14  -7   9-2.91700 33.8699   1
   7 -14   9 36.2398 31.7546   1
  14  -7  12 45.1663 39.7096   1
   7 -14  12-5.67341 39.6369   1
   8 -14  13 845.245 88.2804   1
  14  -8  13 892.073 94.7802   1
  -8  -6  10 496.512 47.7137   1
  14  -8  10 370.156 57.7170   1
   8 -14  10 399.613 55.8835   1
   8 -14   7 2174.51 96.6163   1
  14  -8   7 2124.42 101.595   1
   8   6  -7 2171.59 71.4382   1
  -8  -6   7 2327.78 74.1153   1
  14  -6  -7 2125.86 76.5164   1
  14  -8   4 217.725 31.8953   1
  -8  -6   4 286.313 19.8022   1
   8 -14   4 198.432 31.1071   1
   8 -14   1 13364.3 181.091   1
  14  -8   1 12736.7 159.129   1
  14  -6  -1 12600.5 125.712   1
 -14   8  -1 12786.9 162.049   1
  14  -6   2 47089.5 330.488   1
  -8  -6  -2 47173.0 334.673   1
  -6  -8   2 46232.7 257.581   1
   6 -14   2 47097.2 353.724   1
  14  -8  -2 46416.8 280.066   1
 -14   6  -2 47407.7 338.138   1
  14  -6   5 37108.0 363.223   1
   6 -14   5 37488.5 350.381   1
   6   8  -5 35478.4 261.688   1
   6 -14   8 16867.4 276.030   1
  -6  -8   8 17270.1 232.540   1
  14  -6   8 16577.0 289.402   1
  -6  -8  11 3751.50 132.562   1
  14  -6  11 3623.22 159.197   1
   6 -14  11 3255.63 145.433   1
   6 -14  14 300.296 61.8007   1
  14  -9  11 4284.17 171.641   1
   9 -14  11 4374.57 169.326   1
  -9  -5  11 4785.83 142.910   1
  -9  -5   8 17389.5 216.469   1
   9 -14   8 16486.0 282.888   1
   9   5  -8 15716.7 205.886   1
  14  -9   8 16771.7 288.651   1
  14  -5  -8 16168.3 223.231   1
  14  -9   5 10730.3 195.318   1
  -9  -5   5 10868.0 120.331   1
   9 -14   5 10520.2 189.799   1
   9   5  -5 10217.9 113.271   1
  14  -5  -5 10699.5 134.515   1
   9 -14   2 6839.80 135.241   1
  -9  -5   2 6513.33 64.2723   1
 -14   9  -2 7245.79 135.224   1
  14  -9   2 6685.41 128.863   1
  14  -5  -2 6804.19 79.1463   1
  14  -5   1 1620.15 53.7083   1
  -9  -5  -1 1622.09 52.7868   1
  14  -9  -1 1554.40 51.1469   1
   5 -14   1 1585.84 63.0234   1
 -14   5  -1 1669.60 56.4359   1
   5 -14   4 37.7816 25.8166   1
  -5  -9   4 68.3746 18.1090   1
  14  -5   4 38.7957 24.4642   1
   9   5   7 46.7985 32.2725   1
  14  -5   7 71.4181 33.7941   1
   5 -14   7 127.692 37.0558   1
   5   9  -7 44.5795 17.9476   1
  -5  -9   7 41.8739 23.5330   1
  -5  -9  10 1072.92 72.0282   1
   5 -14  10 951.722 76.6489   1
  14  -5  10 1015.78 85.7496   1
  14  -5  13 80.0740 48.8828   1
   5 -14  13 78.7834 42.5149   1
  14 -10  12 163.492 53.6600   1
  10 -14  12 241.499 52.4585   1
  14 -10   9 1245.31 88.8015   1
  10 -14   9 1322.63 88.6177   1
 -10  -4   9 1349.80 65.6902   1
  14 -10   6 6444.19 160.741   1
  14  -4  -6 6450.18 110.265   1
  10 -14   6 6298.12 157.141   1
 -10  -4   6 6684.63 102.122   1
  10   4  -6 6176.70 98.1597   1
  10 -14   3 24054.7 268.741   1
 -14  10  -3 25391.3 273.191   1
  -4 -10  -3 25509.3 277.278   1
  14 -10   3 24941.1 261.644   1
  14  -4   0 21526.8 172.190   1
 -10  -4   0 21044.9 163.837   1
  14 -10   0 21442.6 207.855   1
  10 -14   0 21775.4 233.746   1
 -10  -4  -3 7183.86 140.427   1
  14  -4   3 7571.19 137.216   1
  -4 -10   3 7353.08 111.888   1
   4 -14   3 7307.73 138.502   1
  10   4   3 7191.72 136.348   1
 -14   4  -3 7200.91 139.761   1
   4  10  -6 3377.76 91.6258   1
  -4 -10   6 3507.19 93.5464   1
   4 -14   6 3360.29 107.269   1
  14  -4   6 3527.50 118.805   1
  14 -10  -6 3732.52 107.800   1
  10   4   6 3468.61 118.980   1
  -4 -10   9 394.731 44.1291   1
  14  -4   9 352.114 51.5483   1
  10   4   9 312.677 52.1299   1
   4 -14   9 267.963 43.1720   1
  -4 -10  12 132.564 37.8187   1
   4 -14  12 199.403 49.4215   1
  14  -4  12 187.394 47.2196   1
  14 -11  13 524.669 80.4526   1
  11 -14  13 469.537 69.5535   1
  11 -14  10 18.8929 39.1489   1
  14 -11  10-1.59545 37.6977   1
  14 -11   7 2696.16 111.494   1
  11   3  -7 2532.82 69.3594   1
  11 -14   7 2820.84 112.251   1
  14  -3  -7 2646.61 75.6282   1
 -11  -3   7 2821.87 74.0409   1
  11 -14   4 14145.0 215.096   1
  14 -11   4 14102.4 210.791   1
  14  -3  -4 13530.9 110.225   1
  11 -14   1 11085.3 168.595   1
 -14  11  -1 11359.9 163.654   1
 -11  -3   1 10313.8 84.5350   1
  14 -11   1 10756.6 156.544   1
  11   3   2 63127.1 387.155   1
  -3 -11   2 61766.0 356.549   1
   3 -14   2 62953.1 411.252   1
 -11  -3  -2 62719.2 388.375   1
  14  -3   2 63533.0 387.801   1
  -3 -11   5 10936.7 159.610   1
   3  11  -5 10667.1 158.049   1
  11   3   5 10618.9 194.696   1
   3 -14   5 11051.4 184.510   1
  14  -3   5 10766.0 194.022   1
   3 -14   8-25.0150 29.4494   1
  -3 -11   8-25.3568 25.6359   1
  14  -3   8-10.2793 30.4578   1
  11   3   8-1.43676 29.9189   1
  11   3  11 441.873 65.2263   1
  14  -3  11 402.063 65.5842   1
   3 -14  11 431.707 56.1128   1
  -3 -11  11 415.952 55.2896   1
   3 -14  14 748.777 82.8077   1
  14 -12  11 555.377 73.0075   1
  12 -14  11 549.152 66.9814   1
  14  -2  -8 772.860 45.9456   1
  12 -14   8 875.387 71.7272   1
  12   2  -8 759.535 43.8446   1
  14 -12   8 838.336 70.6203   1
  14  -2  -5 289.262 19.0449   1
  14 -12   5 315.976 41.6690   1
  12 -14   5 308.887 42.6173   1
  12   2  -5 252.337 15.4766   1
  12 -14   2 3136.67 93.3531   1
  14 -12   2 3138.49 91.4934   1
 -14  12  -2 3391.76 96.3629   1
  14 -12  -1 1534.53 58.8834   1
 -12  -2  -1 1524.26 50.5965   1
 -14   2  -1 1522.19 51.8073   1
  12   2   1 1506.23 50.1344   1
  14  -2   1 1547.62 51.2355   1
  12   2   4 4471.04 117.246   1
  -2 -12   4 4299.69 97.2769   1
   2 -14   4 4211.13 106.772   1
  14  -2   4 4329.22 113.911   1
  14  -2   7 582.645 56.3473   1
  -2 -12   7 521.205 45.2562   1
   2 -14   7 598.271 52.0323   1
  12   2   7 433.369 50.5505   1
   2 -14  10 60.7361 33.4864   1
  12   2  10 60.7231 41.9225   1
  14  -2  10-44.1582 41.2087   1
  -2 -12  10 16.3561 29.8927   1
  -2 -12  13 1481.90 100.666   1
  14  -2  13 1187.65 110.471   1
   2 -14  13 1392.77 101.528   1
  13 -14  12 1299.22 106.091   1
  14 -13  12 1425.88 110.332   1
  13 -14   9 2334.47 117.446   1
  14 -13   9 2346.54 118.580   1
  14 -13   6 23260.3 309.503   1
  13   1  -6 21726.3 167.926   1
  14  -1  -6 22029.5 175.631   1
  13 -14   6 23595.4 312.162   1
  14 -13   3 4551.41 117.814   1
  13 -14   3 4605.41 118.831   1
 -13  -1   0 6462.12 85.4157   1
 -14   1   0 6506.54 88.7550   1
  13   1   0 6382.13 85.6322   1
  14  -1   0 6506.13 88.5587   1
  14 -13   0 6652.49 126.382   1
  13 -14   0 6649.47 128.619   1
 -14   1  -3 5754.29 125.539   1
 -13  -1  -3 5439.49 123.429   1
  -1 -13   3 5837.42 114.267   1
   1 -14   3 5651.30 118.126   1
  14  -1   3 5752.49 122.891   1
  13   1   3 5550.08 120.354   1
  -1 -13   6 75.1687 25.7522   1
  13   1   6 46.7942 28.1564   1
  14  -1   6-12.9232 28.6714   1
   1 -14   6 47.8249 24.2773   1
  13   1   9 357.074 56.0464   1
  14  -1   9 417.357 57.2567   1
   1 -14   9 413.141 51.5947   1
  -1 -13   9 401.718 46.9533   1
  -1 -13  12 901.821 78.1382   1
  14  -1  12 1013.49 98.1592   1
  13   1  12 1004.54 96.5011   1
   1 -14  12 888.225 79.0501   1
  14 -14  13 160.821 55.9945   1
  14 -14  10 326.667 56.2772   1
  14 -14   7 9898.15 214.417   1
  14   0  -7 9675.78 127.499   1
  14 -14   4 1411.85 71.7129   1
  14 -14   1 8331.96 146.101   1
 -14   0   1 7103.26 67.8408   1
 -14   0  -2 898.086 45.4454   1
   0 -14   2 868.563 45.8663   1
  14   0   2 901.552 46.4991   1
  14   0   5 28933.7 328.552   1
   0 -14   5 29636.9 295.503   1
   0 -14   8 8516.92 186.980   1
  14   0   8 8058.25 206.770   1
  14   0  11 6796.58 224.463   1
   0 -14  11 6580.48 194.149   1
   8 -15  11 101.294 44.1799   1
  15  -8  11-43.0112 41.4650   1
  -8  -7  11 29.5760 26.7146   1
   8   7  -8 549.706 41.5114   1
  15  -8   8 549.233 59.7455   1
   8 -15   8 629.415 61.6070   1
  -8  -7   8 683.195 47.0720   1
   8   7  -5 225.107 21.2163   1
  15  -8   5 193.757 34.9617   1
  15  -7  -5 161.508 20.6750   1
  -8  -7   5 210.191 21.5215   1
   8 -15   5 239.374 36.6458   1
  -8  -7   2 2029.91 44.1256   1
  15  -7  -2 1967.00 50.7645   1
 -15   8  -2 2158.64 73.2189   1
  -7  -8  -2 2055.95 69.6473   1
   8 -15   2 2161.93 78.1606   1
  15  -8   2 2101.15 70.8748   1
  -8  -7  -1 20037.3 198.867   1
   7 -15   1 20178.2 232.632   1
  15  -7   1 20241.1 200.498   1
  15  -8  -1 19995.3 179.350   1
   7 -15   4 1345.35 67.9151   1
  -7  -8   4 1340.52 44.1583   1
  15  -7   4 1352.57 67.0120   1
   7   8  -7 15608.4 196.166   1
  15  -8  -7 16285.0 224.265   1
  -7  -8   7 17030.4 208.001   1
  15  -7   7 16581.7 274.567   1
   7 -15   7 16870.3 264.635   1
  -7  -8  10 952.885 66.1525   1
  15  -7  10 1029.73 88.2766   1
   7 -15  10 789.864 72.9302   1
  15  -7  13 535.757 78.4642   1
   7 -15  13 598.945 75.9201   1
  15  -9  12 1798.06 122.742   1
   9 -15  12 1877.81 120.169   1
   9 -15   9 3840.57 142.970   1
  15  -9   9 3751.23 146.225   1
  -9  -6   9 4042.84 112.933   1
  15  -9   6 8071.50 183.080   1
  15  -6  -6 8023.04 132.246   1
   9   6  -6 7742.99 114.532   1
   9 -15   6 8018.60 176.871   1
  -9  -6   6 8444.95 122.299   1
  -6  -9  -3 2314.12 82.7366   1
   9 -15   3 2135.10 81.8073   1
 -15   9  -3 2287.62 83.7789   1
  -9  -6   3 1999.42 39.8365   1
  15  -9   3 2173.56 76.8475   1
  15  -6   0 271.125 23.8914   1
  -9  -6   0 304.794 23.1539   1
 -15   6   0 279.140 23.3294   1
  15  -9   0 289.724 27.7977   1
  15  -6   3 379.398 36.4876   1
  -9  -6  -3 256.970 32.9142   1
   6 -15   3 275.610 33.7561   1
  -6  -9   3 307.157 24.0316   1
 -15   6  -3 297.908 36.2053   1
  -6  -9   6 1857.27 65.6548   1
  15  -9  -6 1757.70 70.8110   1
  15  -6   6 1650.37 83.6066   1
   6 -15   6 1761.65 82.8894   1
   6   9  -6 1656.48 60.6216   1
   6 -15   9 146.878 38.3668   1
  -6  -9   9 156.991 32.5251   1
  15  -6   9 196.909 46.4724   1
   6 -15  12 287.653 56.9738   1
  -6  -9  12 309.025 49.3283   1
  15  -6  12 311.251 62.0513   1
  15 -10  13 553.643 76.7525   1
  10 -15  13 797.010 87.3821   1
 -10  -5  10 2255.26 90.6948   1
  15 -10  10 2001.93 113.912   1
  10 -15  10 2148.36 116.378   1
  10 -15   7 1636.77 87.4806   1
  10   5  -7 1520.71 55.1880   1
  15 -10   7 1625.17 88.9309   1
  15  -5  -7 1552.04 62.0658   1
 -10  -5   7 1742.52 59.6750   1
  15  -5  -4 3377.62 64.4609   1
  15 -10   4 3660.35 107.295   1
  10 -15   4 3257.25 104.992   1
 -10  -5   4 3183.47 49.8399   1
  15  -5  -1 17985.5 146.255   1
  10 -15   1 17933.2 220.864   1
 -15  10  -1 18659.2 211.503   1
  15 -10   1 17708.3 200.774   1
 -10  -5   1 17647.5 132.930   1
  -5 -10   2 38.6123 13.7166   1
   5 -15   2 67.3893 23.1078   1
  15  -5   2 46.6384 18.7578   1
  15 -10  -2 85.2824 19.5650   1
 -15   5  -2 81.3839 20.4271   1
 -10  -5  -2 56.5123 20.1228   1
   5  10  -5 13431.0 167.246   1
  -5 -10   5 14064.1 171.717   1
  15  -5   5 14808.9 227.526   1
   5 -15   5 14376.1 218.469   1
  15  -5   8 4203.61 146.353   1
   5 -15   8 4320.07 139.243   1
  -5 -10   8 4251.95 118.830   1
  15  -5  11 2384.79 131.657   1
   5 -15  11 2015.18 113.975   1
  -5 -10  11 2137.85 102.719   1
   5 -15  14 535.995 75.8670   1
  11 -15  11 851.493 82.5099   1
  15 -11  11 853.442 84.5522   1
  15  -4  -8 601.146 42.9967   1
  11   4  -8 581.419 38.3670   1
  11 -15   8 642.628 65.4112   1
 -11  -4   8 674.912 42.5384   1
  15 -11   8 681.736 64.2554   1
  15 -11   5 1673.94 79.2653   1
 -11  -4   5 1453.09 37.4977   1
  11   4  -5 1210.14 33.6082   1
  11 -15   5 1687.50 79.5954   1
  15  -4  -5 1487.67 44.5205   1
  11 -15   2 38354.2 336.919   1
 -15  11  -2 39502.5 333.034   1
  15 -11   2 37903.4 319.431   1
  15  -4  -2 37245.2 187.041   1
 -15   4  -1 17722.0 182.222   1
  15 -11  -1 17919.2 192.138   1
  11   4   4 14303.5 213.499   1
   4 -15   4 13989.3 204.595   1
  -4 -11   4 14482.8 170.657   1
  15  -4   4 14937.6 213.989   1
  15  -4   7 9825.39 211.236   1
  -4 -11   7 10099.0 174.826   1
  11   4   7 9979.97 214.868   1
   4 -15   7 9637.46 193.126   1
   4 -15  10 2586.37 121.857   1
  15  -4  10 2780.92 135.496   1
  -4 -11  10 2835.77 114.150   1
  15  -4  13 829.495 93.1842   1
   4 -15  13 822.997 88.4384   1
  12 -15  12 234.992 55.6734   1
  15 -12  12 146.947 49.1033   1
  12 -15   9 511.648 61.9756   1
  15 -12   9 695.521 71.3919   1
  12   3  -6 2919.91 60.4517   1
  15 -12   6 3466.72 120.539   1
  12 -15   6 3151.78 116.287   1
  15  -3  -6 3155.70 68.1035   1
  12 -15   3 2812.27 94.0921   1
  15 -12   3 2644.88 90.7087   1
  15 -12   0 1035.85 50.3927   1
  12 -15   0 1050.23 55.4638   1
  15  -3   0 1000.80 37.3417   1
 -12  -3   0 1009.94 35.4309   1
 -15   3   0 988.799 37.5114   1
  -3 -12   3 45.9030 15.7121   1
 -12  -3  -3 86.0369 23.2369   1
   3 -15   3 85.0330 23.3636   1
 -15   3  -3 72.9490 21.7324   1
  15  -3   3 84.0923 23.1932   1
  12   3   3 83.5526 23.7032   1
   3 -15   6 209.501 32.4655   1
  15  -3   6 267.154 40.4510   1
   3  12  -6 240.382 29.4010   1
  12   3   6 268.729 42.2083   1
  -3 -12   6 251.322 30.9490   1
  12   3   9 52.0863 36.7848   1
  -3 -12   9 31.6659 27.3833   1
  15  -3   9 74.1211 45.4856   1
   3 -15   9-105.570 40.2747   1
  -3 -12  12 1202.22 88.5250   1
  15  -3  12 1155.95 105.195   1
   3 -15  12 1169.74 94.0610   1
  13 -15  13 265.344 58.3938   1
  15 -13  13 245.371 65.2827   1
  13 -15  10 131.855 44.7284   1
  15 -13  10 154.236 46.1377   1
  15  -2  -7 245.296 24.3086   1
  13 -15   7 292.053 46.7799   1
  15 -13   7 325.770 48.9875   1
  13   2  -7 243.695 21.8862   1
  13 -15   4 1809.63 79.7172   1
  15 -13   4 1842.99 79.5482   1
  13 -15   1 8022.11 147.720   1
  15 -13   1 8363.46 145.647   1
 -15   2   1 7420.78 77.9670   1
  15  -2  -1 7996.14 81.5906   1
 -13  -2   1 7040.30 68.5835   1
  15  -2   2 2597.09 75.9005   1
   2 -15   2 2556.85 80.8693   1
  13   2   2 2510.90 74.2830   1
  -2 -13   2 2497.77 73.5311   1
 -15   2  -2 2636.59 77.4564   1
 -13  -2  -2 2595.40 76.2199   1
  -2 -13   5 1309.71 59.5477   1
  13   2   5 1628.39 77.6454   1
  15  -2   5 1296.61 70.4560   1
   2 -15   5 1196.22 62.5882   1
  15  -2   8 828.282 72.2925   1
  13   2   8 706.368 67.2452   1
  -2 -13   8 711.699 56.1506   1
   2 -15   8 777.266 63.1572   1
   2 -15  11 173.832 45.0263   1
  -2 -13  11 127.358 38.1046   1
  15  -2  11 117.887 45.5577   1
  13   2  11 232.514 55.0252   1
   2 -15  14 149.220 49.0184   1
  14 -15  11 150.201 47.1914   1
  15 -14  11 167.759 53.6096   1
  14 -15   8 2415.03 115.262   1
  15 -14   8 2595.74 117.151   1
  15 -14   5 783.041 55.7591   1
  15  -1  -5 527.830 16.9628   1
  14 -15   5 752.907 60.1747   1
  14 -15   2 1935.15 77.2261   1
  15 -14   2 1952.44 77.7001   1
 -14  -1  -1 1183.77 47.7259   1
  15  -1   1 1231.52 46.9306   1
  14 -15  -1 1339.14 61.5215   1
  14   1   1 1238.69 47.5621   1
 -15   1  -1 1230.47 47.9800   1
  15 -14  -1 1253.40 58.3895   1
  -1 -14   4 3776.73 98.1572   1
   1 -15   4 3796.18 105.465   1
  14   1   4 3679.35 107.820   1
  15  -1   4 3854.91 109.772   1
  -1 -14   7 801.129 56.5447   1
  15  -1   7 814.894 67.5250   1
   1 -15   7 894.210 61.3965   1
  14   1   7 720.751 64.1143   1
  15  -1  10 834.922 80.8402   1
  14   1  10 811.285 80.0995   1
  -1 -14  10 884.319 71.2995   1
   1 -15  10 865.075 72.4334   1
  -1 -14  13 505.927 64.2912   1
   1 -15  13 469.294 65.7499   1
  15 -15  12 235.585 62.7371   1
  15 -15   9 19.5351 34.8209   1
  15   0  -6 2711.82 49.1037   1
  15 -15   6 3110.28 119.679   1
  15 -15   3 24351.0 283.690   1
  15 -15   0 25608.6 267.825   1
  15   0   0 25728.1 188.187   1
 -15   0   0 25339.2 186.220   1
  15   0   3 31514.6 299.296   1
   0 -15   3 31225.4 290.224   1
  15   0   6 34059.3 381.248   1
   0 -15   6 33911.9 340.360   1
  15   0   9 6435.55 199.038   1
   0 -15   9 6197.61 167.250   1
   0 -15  12 2410.50 125.632   1
  15   0  12 2482.82 142.768   1
  16  -8   0 1898.65 58.9927   1
 -16   8   0 1968.10 61.3836   1
  16  -8   3 1052.41 55.9332   1
   8 -16   3 1039.69 59.7411   1
  -8  -8  -3 1017.66 58.6275   1
  -8  -8   3 1080.83 36.0077   1
  -8  -8   6 13.6319 16.5613   1
   8 -16   6-10.3729 29.1717   1
  16  -8  -6-5.49054 14.0797   1
   8   8  -6 0.34831 13.0466   1
  16  -8   6-18.1049 29.3636   1
  16  -8   9 432.009 58.0042   1
   8 -16   9 516.252 60.4182   1
  -8  -8   9 577.345 48.2041   1
   8 -16  12 2770.63 142.701   1
  16  -8  12 3092.34 156.532   1
   9 -16  13-19.4349 40.9177   1
  -9  -7  10 737.655 56.0408   1
  16  -9  10 707.281 75.1422   1
   9 -16  10 754.848 76.4031   1
  16  -7  -7 10147.8 164.844   1
  -9  -7   7 10722.1 154.376   1
   9   7  -7 9942.56 147.498   1
  16  -9   7 9986.70 213.161   1
   9 -16   7 10242.6 208.738   1
  -9  -7   4 11051.5 111.229   1
   9 -16   4 10859.5 190.963   1
  16  -9   4 11500.1 192.038   1
 -16   9  -1 12814.0 172.870   1
   9 -16   1 12208.1 184.726   1
  16  -7  -1 12620.9 137.038   1
  16  -9   1 12465.9 168.552   1
  16  -7   2 24862.2 244.231   1
  16  -9  -2 24360.8 205.320   1
 -16   7  -2 25743.1 257.639   1
   7 -16   2 25044.4 269.489   1
  -7  -9   2 24270.0 188.681   1
  -9  -7  -2 24678.9 246.807   1
  -7  -9   5 6077.16 104.111   1
  16  -7   5 6119.24 149.709   1
   7 -16   5 5981.07 145.071   1
  -7  -9   8 521.586 43.0723   1
   7 -16   8 520.285 55.5450   1
  16  -7   8 555.935 64.3703   1
  16  -7  11 99.1399 43.4057   1
   7 -16  11 130.156 44.8140   1
  -7  -9  11 61.6888 29.1108   1
   7 -16  14 49.2843 46.4942   1
  10 -16  11-18.5535 37.4803   1
  16 -10  11 4.19285 35.3444   1
 -10  -6   8 49.7340 21.0479   1
  10   6  -8-3.66006 14.7027   1
  10 -16   8-8.20912 31.8975   1
  16 -10   8 19.5255 33.5060   1
 -10  -6   5 117.453 14.8464   1
  16  -6  -5 107.404 17.1475   1
  16 -10   5 152.882 36.0807   1
  10 -16   5 66.1007 28.7951   1
 -16  10  -2 288.700 30.7618   1
 -10  -6   2 228.563 14.5204   1
  10 -16   2 268.515 35.6281   1
  16  -6  -2 253.528 19.3569   1
  16 -10   2 229.764 29.8636   1
  16  -6   1 1608.16 56.7829   1
  16 -10  -1 1568.09 55.1007   1
 -16   6  -1 1586.22 58.0761   1
 -10  -6  -1 1550.19 55.8295   1
   6 -16   1 1533.08 67.3840   1
   6 -16   4 7412.14 153.130   1
  16  -6   4 7645.24 155.930   1
  -6 -10   4 7517.70 114.259   1
  -6 -10   7 5933.70 128.736   1
  16  -6   7 5768.76 163.826   1
   6  10  -7 5394.24 119.055   1
   6 -16   7 6021.64 155.678   1
  -6 -10  10 5138.79 147.616   1
  16  -6  10 5202.18 185.127   1
   6 -16  10 4970.52 170.618   1
  11 -16  12 59.1724 44.4564   1
  16 -11  12 18.9500 39.2896   1
  16 -11   9 650.506 69.3897   1
  11 -16   9 588.774 64.0036   1
 -11  -5   9 638.692 45.6780   1
  16 -11   6 1579.49 85.9379   1
  11   5  -6 1501.16 45.2926   1
 -11  -5   6 1749.11 49.9564   1
  16  -5  -6 1555.52 53.4942   1
  11 -16   6 1576.29 83.5965   1
  16  -5  -3 766.936 26.1348   1
  16 -11   3 790.891 52.7724   1
  11 -16   3 873.050 56.2286   1
  11 -16   0 12602.1 189.939   1
  16 -11   0 12397.2 165.259   1
 -16   5   0 12429.8 139.329   1
 -11  -5   0 12268.3 131.890   1
  16  -5   0 12765.8 140.490   1
  -5 -11   3 19874.5 191.233   1
 -16   5  -3 20809.7 246.408   1
   5 -16   3 20259.9 245.158   1
 -11  -5  -3 20409.5 244.319   1
  16  -5   3 20523.7 240.319   1
  -5 -11   6 34779.0 300.720   1
  16  -5   6 34486.2 380.964   1
   5  11  -6 33578.6 294.423   1
   5 -16   9 11254.9 240.593   1
  16  -5   9 11364.7 256.733   1
  -5 -11   9 12021.2 216.358   1
   5 -16  12 8466.64 245.720   1
  16  -5  12 8641.80 262.104   1
  12 -16  13-13.9259 43.5481   1
  16 -12  10 277.939 55.8028   1
  12 -16  10 339.596 61.5270   1
  12   4  -7 2169.11 59.9393   1
  16 -12   7 2189.67 104.809   1
  16  -4  -7 2320.69 69.1049   1
  12 -16   7 2244.51 103.372   1
  16  -4  -4 2039.04 42.2130   1
  16  -4  -4 1825.19 38.0326   1
  12 -16   4 2169.51 89.9097   1
  16 -12   4 2164.06 87.5199   1
 -12  -4   1 144.536 12.6819   1
  12 -16   1 137.607 28.8966   1
  16  -4  -1 127.023 14.8693   1
  16 -12   1 138.854 25.6985   1
 -16  12  -1 128.894 23.1199   1
  16 -12  -2 1861.77 64.8302   1
 -16   4  -2 1843.50 67.7739   1
   4 -16   2 1757.04 70.5184   1
  16  -4   2 1939.16 67.4182   1
  -4 -12   2 1811.67 60.8074   1
 -12  -4  -2 1774.22 65.7168   1
  -4 -12   5 117.668 26.5745   1
  16  -4   5 135.659 32.6268   1
  12   4   5 148.159 33.5782   1
   4 -16   5 48.6609 25.8651   1
  16  -4   8 1889.26 101.698   1
  12   4   8 2097.48 106.206   1
  -4 -12   8 2081.77 88.2479   1
   4 -16   8 2048.60 98.4569   1
  16  -4  11 545.445 68.4056   1
   4 -16  11 684.777 77.3498   1
  -4 -12  11 604.792 62.3353   1
   4 -16  14 275.711 59.8603   1
  16 -13  11 448.445 63.4710   1
  13 -16  11 325.589 56.9011   1
  13 -16   8 649.352 63.6671   1
  16 -13   8 688.289 68.0685   1
  13 -16   5 355.386 44.2581   1
  16  -3  -5 337.229 18.1505   1
  16 -13   5 386.478 44.9670   1
  13 -16   2 16043.0 220.118   1
  16 -13   2 15885.8 213.767   1
 -16   3  -1 10406.2 140.605   1
 -13  -3  -1 10616.8 138.372   1
  16 -13  -1 10686.4 161.346   1
  16  -3   1 10704.0 141.604   1
   3 -16   4 16134.0 223.470   1
  -3 -13   4 15985.9 194.277   1
  13   3   4 16318.8 230.952   1
  16  -3   4 16586.8 230.974   1
  -3 -13   7 6062.74 140.629   1
  16  -3   7 5983.10 169.615   1
  13   3   7 5977.79 172.096   1
   3 -16   7 6058.44 155.499   1
  13   3  10 4237.92 170.589   1
  -3 -13  10 4349.44 143.258   1
   3 -16  10 4016.35 150.805   1
  16  -3  10 4133.61 169.004   1
   3 -16  13 698.555 80.3924   1
  16 -14  12 2817.94 149.777   1
  14 -16  12 2691.46 147.104   1
  14 -16   9 2640.05 124.102   1
  16 -14   9 2791.14 131.963   1
  16 -14   6 13016.1 239.130   1
  16  -2  -6 11356.5 114.348   1
  14 -16   6 12323.5 232.926   1
  16 -14   3 33.5956 24.1346   1
  14 -16   3 28.9170 25.0166   1
 -16   2   0 127.639 16.1371   1
  14 -16   0 169.592 30.1030   1
 -14  -2   0 118.590 15.7016   1
  16 -14   0 142.733 26.2956   1
  16  -2   0 137.174 16.9934   1
  16  -2   3 4776.68 114.483   1
  14   2   3 4963.48 116.805   1
   2 -16   3 4704.36 114.209   1
 -16   2  -3 4584.71 115.937   1
  -2 -14   3 4867.61 107.225   1
 -14  -2  -3 4798.17 118.616   1
   2 -16   6 3217.74 106.727   1
  16  -2   6 3235.05 118.597   1
  14   2   6 3239.78 118.324   1
  -2 -14   6 3315.80 100.219   1
  16  -2   9 2164.21 115.771   1
  -2 -14   9 2260.65 101.386   1
   2 -16   9 2109.18 103.124   1
  14   2   9 2150.98 118.670   1
  16  -2  12 627.749 78.8534   1
   2 -16  12 583.742 68.4514   1
  14   2  12 532.086 76.8330   1
  -2 -14  12 581.394 68.5925   1
  16 -15  10 618.797 70.3878   1
  15 -16  10 524.731 64.7874   1
  15 -16   7 3985.07 138.843   1
  16 -15   7 3994.34 140.363   1
  15   1  -7 3546.73 68.5370   1
  16  -1  -7 3559.92 71.8625   1
  16 -15   4 18890.5 265.209   1
  15 -16   4 19423.9 269.918   1
  16  -1  -1 19376.5 130.977   1
  15 -16   1 20551.9 244.803   1
 -16   1   1 19066.3 127.667   1
  16 -15   1 20720.0 244.745   1
  15   1   2 14190.4 183.402   1
   1 -16   2 14278.7 196.602   1
  16  -1   2 14325.4 183.900   1
 -15  -1  -2 14533.6 186.924   1
  -1 -15   2 14439.9 193.042   1
 -16   1  -2 14586.9 186.971   1
   1 -16   5 5449.25 130.767   1
  16  -1   5 5673.52 147.428   1
  -1 -15   5 5519.39 128.811   1
  15   1   5 5236.09 140.850   1
  15   1   8 784.711 71.4798   1
  -1 -15   8 825.108 61.8995   1
  16  -1   8 914.552 74.3128   1
   1 -16   8 810.604 63.0838   1
  15   1  11-4.79415 43.0629   1
  16  -1  11 0.39245 38.9472   1
  -1 -15  11-78.8654 37.3078   1
   1 -16  11-35.7956 34.2764   1
  16 -16  11 1888.36 124.048   1
  16 -16   8 11550.9 255.366   1
  16 -16   5 50232.7 463.423   1
  16 -16   2 66523.5 483.453   1
  16 -16  -1 139922. 706.417   1
 -16   0  -1 138344. 594.251   1
  16   0   1 139399. 595.424   1
   0 -16   4 60634.9 434.567   1
  16   0   4 60540.9 461.434   1
  16   0   7 24671.8 345.545   1
   0 -16   7 24865.0 304.633   1
   0 -16  10 962.491 76.8011   1
  16   0  10 1049.34 91.8512   1
  17  -9  11 1267.33 100.136   1
   9 -17  11 1047.36 87.0561   1
   9 -17   8 766.767 67.4172   1
  17  -9   8 684.544 67.6639   1
  -9  -8   8 716.210 46.9360   1
  17  -9   5 559.628 55.2626   1
  -9  -8   5 582.412 30.6702   1
   9 -17   5 458.408 47.8224   1
 -17   9  -2 1923.94 73.9768   1
   9 -17   2 1758.52 75.3272   1
  -8  -9  -2 1747.65 69.4392   1
  -9  -8   2 1833.06 45.4058   1
  17  -8  -2 1763.12 51.2786   1
  17  -9   2 1770.77 69.5960   1
   8 -17   1 11361.7 187.564   1
  -9  -8  -1 11598.7 158.076   1
 -17   8  -1 11845.2 165.372   1
  17  -9  -1 11460.3 143.160   1
  17  -8   1 11430.0 156.566   1
   8 -17   4 1067.51 63.1604   1
  17  -8   4 1236.64 65.7796   1
  -8  -9   4 1143.93 40.7396   1
  -8  -9   7-2.29309 17.9297   1
   8   9  -7 37.1468 17.9013   1
   8 -17   7 50.9583 34.1025   1
  17  -8   7 21.8365 31.7578   1
  17  -9  -7-8.54273 18.5286   1
  17  -8  10 2734.05 135.465   1
  -8  -9  10 2968.78 110.059   1
   8 -17  10 2701.67 130.196   1
   8 -17  13 1012.32 93.0921   1
  10 -17  12 73.8370 48.3358   1
  17 -10  12 176.723 53.0997   1
  17 -10   9 2670.51 127.499   1
 -10  -7   9 2971.40 95.3415   1
  10 -17   9 2727.38 128.007   1
  10 -17   6 60.6563 31.5726   1
  10   7  -6 33.8125 13.4505   1
  17  -7  -6 29.1544 14.2165   1
  17 -10   6 113.822 31.7229   1
 -10  -7   6 64.0307 16.1929   1
  17  -7  -3 1114.74 37.7696   1
  10 -17   3 1186.45 65.8596   1
 -10  -7   3 1105.96 31.8501   1
  17 -10   3 1178.17 61.2409   1
  17  -7   0 89.3795 17.4332   1
 -17   7   0 120.638 19.4759   1
  17 -10   0 118.260 21.8565   1
 -10  -7   0 99.5132 17.6325   1
  -7 -10   3 6510.04 100.114   1
 -10  -7  -3 6708.21 139.612   1
   7 -17   3 6479.57 144.363   1
  17  -7   3 6510.85 137.902   1
   7 -17   6 228.870 37.8974   1
  17 -10  -6 292.730 33.1840   1
   7  10  -6 203.134 24.7404   1
  17  -7   6 240.316 43.0379   1
  -7 -10   6 267.345 28.3736   1
  -7 -10   9 97.1533 28.9245   1
   7 -17   9 47.2690 33.7363   1
  17  -7   9 50.7808 37.2409   1
   7 -17  12 154.594 49.3508   1
  17  -7  12 146.710 53.2002   1
  11 -17  13 62.4385 45.2139   1
  11 -17  10 2705.20 130.899   1
  17 -11  10 2523.37 131.167   1
  11   6  -7 14512.5 162.135   1
  17 -11   7 14395.0 266.083   1
 -11  -6   7 15897.5 173.539   1
  17  -6  -7 15057.2 190.613   1
  11 -17   7 15014.8 259.448   1
  11 -17   4 11133.3 201.027   1
  17 -11   4 11608.8 198.558   1
 -17  11  -1 1279.99 58.6838   1
  11 -17   1 1258.73 63.8112   1
  17 -11   1 1188.21 55.9170   1
  17  -6  -1 1332.68 42.8008   1
 -11  -6   1 1299.71 37.8684   1
  -6 -11   2 343.707 26.9406   1
  17 -11  -2 309.587 28.2081   1
  17  -6   2 352.801 34.1596   1
 -17   6  -2 368.477 33.8101   1
   6 -17   2 351.723 38.5305   1
 -11  -6  -2 337.772 32.5512   1
  -6 -11   5 237.821 27.1538   1
  17  -6   5 230.828 37.9695   1
   6 -17   5 204.125 35.3742   1
   6 -17   8 1864.87 95.5257   1
  -6 -11   8 1888.28 80.1367   1
  17  -6   8 1889.47 102.852   1
  -6 -11  11 4165.06 141.221   1
  17  -6  11 4126.92 176.262   1
   6 -17  11 3922.08 157.770   1
   6 -17  14 599.816 81.4342   1
  12 -17  11 2534.69 133.381   1
  17 -12  11 2420.61 138.493   1
  17 -12   8 6164.07 182.612   1
 -12  -5   8 6545.40 120.074   1
  12 -17   8 6164.41 177.775   1
  17 -12   5 19870.9 277.027   1
  17  -5  -5 19216.8 164.163   1
  12 -17   5 20141.5 281.991   1
  12 -17   2 13679.4 205.842   1
  17 -12   2 13405.0 194.777   1
  17  -5  -2 13314.7 114.559   1
  17  -5   1 6478.50 114.017   1
   5 -17   1 6494.02 140.949   1
 -17   5  -1 6224.50 111.837   1
  17 -12  -1 6137.22 116.378   1
 -12  -5  -1 6394.01 110.827   1
   5 -17   4 513.501 46.1500   1
  17  -5   4 521.476 44.7161   1
  -5 -12   4 521.716 34.4213   1
   5 -17   7 168.571 37.3760   1
  -5 -12   7 224.978 32.9736   1
  17  -5   7 203.424 41.2319   1
   5 -17  10 2440.48 119.286   1
  17  -5  10 2556.12 132.110   1
  -5 -12  10 2446.53 105.689   1
   5 -17  13 379.918 65.8001   1
  17 -13  12 252.320 60.0813   1
  13 -17  12 135.608 47.1260   1
  17 -13   9 214.856 50.8835   1
  13 -17   9 156.619 46.2720   1
  13   4  -6 1502.08 38.3046   1
  17 -13   6 1896.68 93.8732   1
  17  -4  -6 1888.68 50.9140   1
  13 -17   6 1959.14 94.4804   1
  17 -13   3 13586.4 207.842   1
  13 -17   3 13622.3 215.420   1
 -17   4   0 5099.77 87.8540   1
  17  -4   0 5106.82 87.6202   1
 -13  -4   0 5117.36 84.3040   1
  17 -13   0 5143.62 112.871   1
  13 -17   0 5324.33 127.211   1
 -13  -4  -3 23433.1 266.673   1
  17  -4   3 23715.9 262.264   1
 -17   4  -3 23403.4 265.114   1
   4 -17   3 23211.2 265.135   1
  -4 -13   3 23058.4 224.676   1
   4 -17   6 13878.1 228.621   1
  -4 -13   6 14135.7 198.428   1
  13   4   6 13860.4 247.886   1
  17  -4   6 14139.9 244.142   1
  13   4   9 3790.46 156.252   1
   4 -17   9 4226.38 146.891   1
  -4 -13   9 4129.59 130.461   1
  17  -4   9 4162.23 161.227   1
  17  -4  12 273.217 54.3385   1
   4 -17  12 371.123 60.2242   1
  17 -14  10 359.404 58.7862   1
  14 -17  10 186.585 52.6962   1
  17 -14   7 66.9692 33.9468   1
  14 -17   7 77.5984 39.2166   1
  14   3  -7 61.8918 12.3440   1
  17  -3  -7 83.7207 16.8639   1
  14 -17   4 4501.35 130.096   1
  17 -14   4 4220.50 123.758   1
  17 -14   1 22588.3 252.889   1
  14 -17   1 22058.1 258.970   1
 -17   3   1 21170.1 151.858   1
  17  -3  -1 22227.5 156.137   1
 -14  -3   1 20249.7 134.254   1
 -14  -3  -2 50241.7 362.146   1
   3 -17   2 49629.9 397.333   1
 -17   3  -2 49831.2 364.133   1
  -3 -14   2 50086.5 357.658   1
  17  -3   2 49793.0 358.238   1
  17 -14  -2 49957.9 370.908   1
  17  -3   5 41252.8 402.404   1
  14   3   5 41625.1 407.130   1
   3 -17   5 41629.0 386.105   1
  -3 -14   5 42591.4 347.716   1
   3 -17   8 16592.8 271.295   1
  17  -3   8 16036.0 298.374   1
  -3 -14   8 16617.5 250.392   1
  14   3   8 15918.9 293.968   1
   3 -17  11 4796.91 172.154   1
  17  -3  11 5029.61 194.179   1
  -3 -14  11 5147.79 166.125   1
   3 -17  14 405.426 68.7788   1
  15 -17  11 226.933 54.2299   1
  17 -15  11 147.948 47.6506   1
  17 -15   8 321.005 52.5265   1
  15 -17   8 283.074 50.3883   1
  15 -17   5 1099.41 73.4744   1
  17 -15   5 1088.96 71.1387   1
  15 -17   2 1195.02 64.9955   1
  17 -15   2 1037.85 58.7643   1
  15 -17  -1 6760.33 143.715   1
  17 -15  -1 6559.14 132.842   1
 -17   2  -1 6392.30 111.495   1
 -15  -2  -1 6430.91 110.854   1
  17  -2   1 6362.16 110.568   1
  17  -2   4 18938.3 252.476   1
  15   2   4 19696.0 257.176   1
  -2 -15   4 19486.5 230.350   1
   2 -17   4 19507.4 250.103   1
  15   2   7 4565.56 151.260   1
   2 -17   7 4568.10 136.055   1
  17  -2   7 4632.20 151.914   1
  -2 -15   7 4984.05 132.537   1
  -2 -15  10 1050.60 75.9022   1
   2 -17  10 1048.98 79.6037   1
  15   2  10 918.831 87.6800   1
  17  -2  10 1016.26 91.3953   1
   2 -17  13 365.664 61.2981   1
  16 -17  12 403.006 71.4978   1
  17 -16  12 221.875 55.1710   1
  16 -17   9 25.5036 37.8897   1
  17 -16   9 36.5436 42.0156   1
  16 -17   6 2027.52 99.7401   1
  17 -16   6 1940.07 97.7720   1
  16 -17   3 8199.63 171.681   1
  17 -16   3 8413.59 170.883   1
  17  -1   0 13479.0 139.110   1
  17 -16   0 13387.2 197.622   1
 -17   1   0 13431.8 138.540   1
  16 -17   0 13796.8 206.168   1
 -16  -1   0 13480.4 136.400   1
 -16  -1  -3 10140.2 176.057   1
  17  -1   3 10668.3 175.699   1
   1 -17   3 10792.9 182.523   1
  -1 -16   3 10456.9 169.148   1
 -17   1  -3 10408.8 174.421   1
  16   1   3 10481.5 173.369   1
  -1 -16   6 24.5120 23.2235   1
  16   1   6 3.96957 30.6507   1
  17  -1   6 3.86766 27.4701   1
   1 -17   6 18.9900 25.1922   1
  16   1   9 83.5436 38.9263   1
  17  -1   9 166.942 44.2414   1
   1 -17   9 107.845 36.2462   1
  -1 -16   9 57.5167 33.2476   1
  16   1  12 383.652 69.3996   1
  -1 -16  12 374.017 56.5482   1
   1 -17  12 428.118 60.6374   1
  17  -1  12 441.631 70.1417   1
  17 -17  10 309.894 55.4642   1
  17 -17   7 513.837 59.9114   1
  17 -17   4 7195.72 170.528   1
  17 -17   1 8863.11 169.792   1
 -17   0   1 7701.36 78.5121   1
   0 -17   2 5567.62 127.462   1
  17   0   2 5406.93 115.242   1
 -17   0  -2 5271.64 113.947   1
   0 -17   5 3652.37 111.021   1
  17   0   5 3515.06 118.624   1
  17   0   8 2034.36 110.636   1
   0 -17   8 2132.03 98.7274   1
   0 -17  11 698.758 70.1080   1
  17   0  11 595.943 76.6220   1
 -18   9   0 18206.2 198.680   1
  18  -9   0 18228.3 193.526   1
  18  -9   3 3195.46 99.1725   1
  18  -9  -3 3229.25 72.4337   1
   9 -18   3 3211.64 104.024   1
  -9  -9   3 3294.45 63.7135   1
  -9  -9   6 1211.03 48.8565   1
  18  -9   6 1160.68 73.6798   1
   9 -18   6 1253.44 74.5546   1
  18  -9  -6 1072.57 53.4843   1
  -9  -9   9 991.361 59.8462   1
   9 -18   9 939.617 76.1198   1
  18  -9   9 835.024 79.8543   1
   9 -18  12 130.619 46.3749   1
  18  -9  12 197.895 55.7433   1
  10 -18  13 13.1941 41.6149   1
  18 -10  10 135.079 43.9632   1
  10 -18  10 215.772 50.6512   1
  18  -8  -7 227.614 30.0734   1
  10 -18   7 232.210 43.6496   1
  10   8  -7 185.064 21.6442   1
 -10  -8   7 247.649 27.4133   1
  18 -10   7 207.845 43.4829   1
  18 -10   4 212.459 36.0657   1
  10 -18   4 199.775 35.6761   1
 -10  -8   4 231.190 18.1009   1
  18  -8  -1 849.220 39.2461   1
  10 -18   1 862.913 54.4737   1
 -18  10  -1 884.465 49.6418   1
  18 -10   1 895.301 49.5947   1
  18  -8   2 7501.50 138.446   1
 -18   8  -2 7659.11 144.591   1
   8 -18   2 7596.31 155.238   1
  18 -10  -2 7324.95 115.590   1
  -8 -10   2 7228.08 104.670   1
 -10  -8  -2 7478.73 140.513   1
  18  -8   5 8762.30 186.831   1
   8 -18   5 8243.40 179.642   1
  -8 -10   5 9009.83 128.398   1
   8 -18   8 1883.14 99.3096   1
  -8 -10   8 1966.67 75.9539   1
  18  -8   8 1832.13 100.670   1
  18  -8  11 3833.08 170.921   1
   8 -18  11 3680.51 157.057   1
  18 -11  11 751.392 85.2641   1
  11 -18  11 730.215 81.2280   1
  18 -11   8 46.9032 35.1206   1
  11 -18   8 16.1585 35.0830   1
 -11  -7   8 29.0645 18.5353   1
  18  -7  -5 1563.58 51.9549   1
  18 -11   5 1563.27 79.0341   1
  11 -18   5 1452.62 77.3789   1
 -11  -7   5 1416.55 40.5026   1
  -7 -11  -2 705.783 46.4663   1
  11 -18   2 711.444 52.2150   1
  18  -7  -2 745.650 32.1708   1
  18 -11   2 690.352 47.4993   1
 -11  -7   2 663.636 24.4872   1
  18  -7   1 6294.73 116.370   1
 -18   7  -1 6180.41 117.268   1
  18 -11  -1 6202.72 114.502   1
   7 -18   1 6231.19 140.518   1
 -11  -7  -1 6264.84 116.073   1
  18  -7   4 4075.15 119.052   1
   7 -18   4 4126.98 124.465   1
  -7 -11   4 4031.10 85.4923   1
   7  11  -7 353.606 32.9386   1
   7 -18   7 380.760 49.3467   1
  18  -7   7 374.552 53.1376   1
  -7 -11   7 378.856 35.8310   1
  -7 -11  10 39.3320 25.2606   1
  18  -7  10-26.4704 40.8536   1
   7 -18  10 103.966 39.6807   1
   7 -18  13-104.784 52.0629   1
  12 -18  12 760.754 84.2475   1
  18 -12  12 741.617 86.8632   1
  18 -12   9 3530.86 150.000   1
  12 -18   9 3680.13 148.309   1
  18 -12   6 3044.54 118.821   1
  12 -18   6 2982.59 115.605   1
 -12  -6   6 2962.63 60.0559   1
  18  -6  -6 3092.94 74.3223   1
  18  -6  -3 4730.87 69.1854   1
  18 -12   3 4596.49 121.712   1
  12 -18   3 4853.54 132.082   1
  18 -12   0 8200.75 139.427   1
 -12  -6   0 7939.87 112.120   1
 -18   6   0 8181.81 122.372   1
  12 -18   0 8292.83 162.022   1
  18  -6   0 8475.53 122.033   1
  -6 -12   3 22.9598 14.7202   1
 -12  -6  -3 35.1543 18.6168   1
   6 -18   3-24.2137 25.5838   1
  18  -6   3 1.12057 21.9392   1
  -6 -12   6 775.661 46.3659   1
  18  -6   6 813.058 65.1645   1
   6 -18   6 699.947 58.4770   1
  18  -6   9 827.794 75.5593   1
   6 -18   9 797.860 69.2177   1
  -6 -12   9 883.138 59.7760   1
  18  -6  12-65.8651 46.6911   1
   6 -18  12 7.60997 38.2295   1
  18 -13  10 444.350 66.6881   1
  13 -18  10 240.164 48.9704   1
  18  -5  -7 980.093 43.8016   1
  13   5  -7 814.250 34.1831   1
  18 -13   7 900.530 71.6509   1
  13 -18   7 1018.50 76.4509   1
  18 -13   4 112.666 30.8343   1
  18  -5  -4 93.3958 10.3912   1
  18  -5  -4 103.585 12.0255   1
  13 -18   4 76.4503 28.6917   1
 -13  -5   1 48.5092 10.5054   1
  13 -18   1 6.73333 23.1390   1
  18  -5  -1 23.3845 12.8349   1
  18 -13   1 14.5061 20.1290   1
  -5 -13   2 2790.54 76.6781   1
  18 -13  -2 2880.29 83.4017   1
  18  -5   2 2868.96 85.9167   1
 -18   5  -2 2701.80 85.6775   1
   5 -18   2 2720.73 92.3604   1
 -13  -5  -2 2927.32 85.2343   1
   5 -18   5 1715.43 81.3716   1
  18  -5   5 1685.96 83.1987   1
  -5 -13   5 1692.77 64.5110   1
  18  -5   8 456.464 55.8116   1
   5 -18   8 456.705 53.1117   1
  -5 -13   8 522.529 48.4938   1
  18  -5  11 68.9058 48.8506   1
  -5 -13  11 57.5256 30.0227   1
   5 -18  11-15.7756 34.9944   1
   5 -18  14 60.6537 49.8981   1
  18 -14  11 795.929 89.7807   1
  14 -18  11 854.851 88.8191   1
  18 -14   8 968.262 78.7036   1
  14 -18   8 1041.58 80.7941   1
  18  -4  -5 2868.27 46.1364   1
  18  -4  -5 3173.84 50.3832   1
  14 -18   5 3505.39 124.103   1
  18 -14   5 3486.63 120.150   1
  14 -18   2 68.4590 26.5942   1
  18  -4  -2 88.0809 10.8392   1
  18 -14   2 68.4909 26.4590   1
  18  -4   1 102.472 20.8401   1
  18 -14  -1 137.203 25.4009   1
 -18   4  -1 152.798 23.3935   1
 -14  -4  -1 128.057 21.0875   1
   4 -18   4 217.190 32.1555   1
  18  -4   4 225.717 33.9804   1
  -4 -14   4 237.136 26.7832   1
  14   4   4 210.417 31.7329   1
  -4 -14   7 1022.12 61.1138   1
  14   4   7 833.583 71.5677   1
  18  -4   7 911.469 72.2079   1
   4 -18   7 902.011 65.9593   1
   4 -18  10 986.371 77.6751   1
  18  -4  10 998.313 87.1042   1
  -4 -14  10 972.626 70.5655   1
   4 -18  13 69.4404 41.5790   1
  18 -15  12 146.052 55.2086   1
  15 -18  12 81.0189 40.8952   1
  15 -18   9 83.7306 46.1170   1
  18 -15   9 86.1545 41.5006   1
  18 -15   6 923.844 71.5564   1
  15 -18   6 891.962 70.0528   1
  18  -3  -6 675.104 25.5946   1
  15 -18   3 5526.58 145.338   1
  18 -15   3 5718.93 142.092   1
  15 -18   0 19139.2 249.185   1
 -15  -3   0 18839.4 167.161   1
 -18   3   0 18519.9 172.475   1
  18 -15   0 18777.7 230.989   1
  18  -3   0 19697.4 178.811   1
  15   3   3 8652.87 159.497   1
 -15  -3  -3 8266.84 158.144   1
  -3 -15   3 8590.48 147.434   1
   3 -18   3 8678.80 165.917   1
  18  -3   3 8995.36 162.674   1
  18  -3   6 1796.35 90.9859   1
  15   3   6 1878.21 95.5102   1
   3 -18   6 1893.71 87.9181   1
  -3 -15   6 1950.29 78.8982   1
  18  -3   9 512.000 63.1962   1
   3 -18   9 567.686 60.3399   1
  -3 -15   9 566.512 56.6532   1
  15   3   9 500.809 64.7458   1
   3 -18  12 78.9769 42.6231   1
  18  -3  12 9.33013 42.9188   1
  18 -16  10-36.9016 39.2305   1
  16 -18  10 72.5157 40.5420   1
  16 -18   7 152.493 41.4476   1
  18 -16   7 221.272 44.4170   1
  16 -18   4 3316.47 116.477   1
  18 -16   4 3376.14 115.047   1
  16 -18   1 1674.19 76.0358   1
 -18   2   1 1610.04 39.1065   1
  18 -16   1 1826.39 76.9149   1
  18  -2  -1 1755.44 41.4472   1
 -16  -2   1 1582.80 35.0785   1
 -18   2  -2-4.95510 18.5812   1
   2 -18   2 6.49417 21.8797   1
  18 -16  -2 40.4958 21.7818   1
  16   2   2 22.9958 18.9496   1
 -16  -2  -2 36.3114 16.1504   1
  -2 -16   2 1.53260 18.7891   1
  18  -2   2 62.8416 21.3591   1
  18  -2   5 75.4635 30.6488   1
  16   2   5 25.4640 25.1316   1
   2 -18   5 13.7154 24.6933   1
  -2 -16   5 69.9434 22.0421   1
  18  -2   8 83.9558 36.1782   1
   2 -18   8 31.3696 30.6609   1
  -2 -16   8 87.7016 34.0534   1
  16   2   8 121.011 37.6715   1
  16   2  11 1216.03 101.487   1
  18  -2  11 1012.28 93.3460   1
   2 -18  11 1150.90 90.0138   1
  17 -18  11 1487.65 112.202   1
  18 -17  11 1327.51 108.991   1
  17 -18   8 1788.51 104.476   1
  18 -17   8 1893.17 108.349   1
  17 -18   5 3114.08 121.967   1
  18 -17   5 3441.18 123.097   1
  17 -18   2 537.325 48.3171   1
  18 -17   2 589.669 49.4799   1
  17 -18  -1 1189.14 64.6478   1
  18 -17  -1 1228.72 62.8026   1
  18  -1   1 1226.31 49.8526   1
 -18   1  -1 1235.41 51.7847   1
  17   1   1 1230.44 49.7063   1
 -17  -1  -1 1214.97 51.0693   1
   1 -18   4 470.771 43.8872   1
  18  -1   4 620.850 50.0494   1
  17   1   4 535.756 47.1037   1
  -1 -17   4 487.068 40.6555   1
   1 -18   7 212.438 38.1519   1
  -1 -17   7 288.598 40.1104   1
  18  -1   7 319.762 52.3959   1
  17   1   7 289.765 48.7527   1
  17   1  10-43.3654 39.5904   1
   1 -18  10 39.3978 37.5496   1
  18  -1  10 71.7379 45.9566   1
  -1 -17  10 1.08573 30.4236   1
  18 -18  12 261.135 61.7627   1
  18 -18   9 755.717 76.9997   1
  18 -18   6 906.139 70.6768   1
  18 -18   3 142.376 28.5040   1
  18 -18   0 935.847 58.8598   1
 -18   0   0 940.985 37.7504   1
  18   0   0 884.560 36.3730   1
  18   0   3 2470.69 87.3709   1
   0 -18   3 2383.56 86.9319   1
   0 -18   6 6094.34 150.371   1
  18   0   6 5752.36 161.603   1
  18   0   9-18.7808 40.1237   1
   0 -18   9 94.4221 39.9512   1
   0 -18  12-16.4223 35.0311   1
  18   0  12 61.2338 47.3022   1
  19 -10  11 2017.17 128.004   1
  10 -19  11 1867.84 118.557   1
 -10  -9   8 1594.16 64.9807   1
  19 -10   8 1515.05 95.1470   1
  10 -19   8 1522.37 92.3164   1
 -10  -9   5 2541.39 60.1459   1
  19 -10   5 2363.08 99.0978   1
  10 -19   5 2310.84 98.4503   1
  10 -19   2 2315.49 90.7217   1
  19  -9  -2 2325.08 62.6482   1
 -10  -9   2 2256.29 54.0569   1
  19 -10   2 2263.13 80.5322   1
  -9 -10  -2 2160.18 80.1483   1
   9 -19   1 2238.60 89.3677   1
 -10  -9  -1 2226.99 72.7795   1
 -19   9  -1 2209.75 75.2737   1
  19 -10  -1 2323.16 69.1457   1
  19  -9   1 2184.67 72.9373   1
   9 -19   4 2266.16 93.6347   1
  19  -9   4 2178.12 89.7285   1
  -9 -10   4 2215.09 57.4395   1
  19  -9   7 774.959 68.2783   1
  -9 -10   7 758.073 44.4781   1
  19 -10  -7 794.684 51.8104   1
   9 -19   7 721.872 65.4941   1
  19  -9  10 1661.97 111.096   1
   9 -19  10 1540.11 101.786   1
   9 -19  13 0.16821 44.9300   1
  11 -19  12 1315.98 105.429   1
  19 -11  12 1316.45 110.219   1
  11 -19   9 1743.77 104.206   1
  19 -11   9 1632.97 105.757   1
  11 -19   6 106.193 36.8149   1
 -11  -8   6 96.3272 16.6113   1
  19 -11   6 98.6575 35.8196   1
  19  -8  -6 82.9332 18.3533   1
  19  -8  -3 149.255 17.4084   1
  19 -11   3 108.559 26.4639   1
  11 -19   3 115.007 31.1574   1
 -11  -8   3 123.490 13.2908   1
 -11  -8   0 16575.8 178.066   1
  11 -19   0 17592.9 247.764   1
 -19   8   0 16637.9 188.662   1
  19 -11   0 16832.9 198.747   1
  19  -8   0 17204.5 186.775   1
  19  -8   3 23497.0 270.590   1
   8 -19   3 23453.7 291.667   1
  19 -11  -3 23519.3 222.864   1
  -8 -11   3 23107.9 201.977   1
  -8 -11   6 16038.7 190.275   1
  19  -8   6 15528.3 264.527   1
   8 -19   6 15800.6 262.178   1
   8 -19   9 13310.8 272.103   1
  -8 -11   9 14012.1 218.891   1
  19  -8   9 13382.1 286.031   1
  19  -8  12 1841.40 126.827   1
   8 -19  12 1935.11 124.623   1
  19 -12  10 362.807 61.1031   1
  12 -19  10 210.170 49.8593   1
 -12  -7   7-4.21000 12.6929   1
  19  -7  -7 24.4818 16.8351   1
  12 -19   7 3.07765 32.0282   1
  19 -12   7-61.1816 38.0099   1
  19  -7  -4 212.171 18.0783   1
  19 -12   4 221.902 37.9489   1
  12 -19   4 153.876 33.6251   1
 -19  12  -1 5833.96 130.392   1
  12 -19   1 5953.64 140.030   1
  19 -12   1 5858.42 126.050   1
  19  -7  -1 5996.74 96.0696   1
 -12  -7   1 5814.47 86.8611   1
   7 -19   2 11431.3 197.175   1
  19 -12  -2 11445.3 158.681   1
 -12  -7  -2 11344.7 176.451   1
  19  -7   2 11513.7 176.520   1
 -19   7  -2 11521.0 178.668   1
  -7 -12   2 11303.0 148.281   1
  19  -7   5 10819.7 209.090   1
   7 -19   5 10813.0 207.456   1
  -7 -12   5 10868.3 153.445   1
  -7 -12   8 5800.20 136.500   1
  19  -7   8 5501.13 179.356   1
   7 -19   8 5762.03 170.985   1
  19  -7  11 2642.04 145.790   1
   7 -19  11 2635.71 134.993   1
  13 -19  11 1776.44 118.119   1
  19 -13  11 1776.09 121.069   1
  13 -19   8 301.519 49.9057   1
  19 -13   8 345.724 53.5700   1
  19 -13   5 740.393 60.5604   1
  19  -6  -5 723.839 31.8917   1
  13 -19   5 720.626 57.4002   1
 -13  -6   2 3163.09 45.2391   1
  13 -19   2 3803.98 118.312   1
  19 -13   2 3880.28 109.266   1
  19  -6  -2 3813.28 66.0355   1
 -13  -6   2 3072.68 46.9765   1
  19  -6   1 8517.60 136.860   1
  19 -13  -1 8275.45 141.078   1
 -19   6  -1 8434.42 138.249   1
   6 -19   1 8799.30 171.246   1
 -13  -6  -1 8286.90 133.406   1
   6 -19   4 1867.23 83.6114   1
  -6 -13   4 1869.30 63.8848   1
  19  -6   4 1881.51 81.9814   1
   6 -19   7 1133.77 77.4507   1
  19  -6   7 1237.28 82.5639   1
  -6 -13   7 1250.66 63.5922   1
  19  -6  10 105.951 46.9422   1
  -6 -13  10 182.052 36.8858   1
   6 -19  10 182.058 47.6033   1
   6 -19  13 854.256 89.3712   1
  14 -19  12 168.762 54.4825   1
  19 -14  12 161.949 50.4278   1
  19 -14   9 178.557 46.6085   1
  14 -19   9 187.701 46.5374   1
  19  -5  -6 9886.52 113.673   1
  19 -14   6 10048.4 217.298   1
  14 -19   6 10471.8 219.623   1
  14 -19   3 24880.6 306.220   1
  19 -14   3 24315.1 292.524   1
  14 -19   0 23348.6 286.139   1
  19  -5   0 23199.6 203.992   1
 -19   5   0 22442.6 203.677   1
  19 -14   0 23039.1 253.052   1
  -5 -14   3 25219.4 248.034   1
   5 -19   3 24128.4 291.165   1
  19  -5   3 24377.4 275.446   1
   5 -19   6 7105.60 171.247   1
  -5 -14   6 7289.17 143.755   1
  19  -5   6 7179.07 180.533   1
  -5 -14   9-5.59358 28.4398   1
  19  -5   9-70.6130 42.3724   1
   5 -19   9-14.1048 33.7454   1
   5 -19  12 220.514 53.1728   1
  19  -5  12 202.332 53.3558   1
  19 -15  10-46.9726 38.5198   1
  15 -19  10 38.6108 36.8461   1
  19 -15   7 44.5287 34.1660   1
  15 -19   7-40.8962 36.9329   1
  15 -19   4 3956.27 127.311   1
  19 -15   4 4058.68 125.413   1
 -15  -4   1 1665.33 39.7379   1
  19 -15   1 1877.37 77.9420   1
  15 -19   1 1784.49 79.7077   1
  19  -4  -1 1848.65 47.1670   1
  -4 -15   2 132.802 21.3046   1
   4 -19   2 70.1492 23.3537   1
  19  -4   2 164.731 25.3915   1
 -19   4  -2 144.749 26.6914   1
  19 -15  -2 146.729 27.3774   1
 -15  -4  -2 165.797 26.0525   1
  15   4   5 7286.67 171.397   1
  -4 -15   5 7467.58 143.015   1
   4 -19   5 7289.16 165.938   1
  19  -4   5 7248.15 169.287   1
  -4 -15   8 42.5390 28.6990   1
   4 -19   8 48.3273 35.6035   1
  19  -4   8-22.4105 34.6920   1
  15   4   8-7.07778 33.1699   1
  19  -4  11 58.5671 38.9348   1
   4 -19  11 160.977 44.2298   1
  16 -19  11 1300.73 102.053   1
  19 -16  11 1184.88 99.4774   1
  16 -19   8 3744.83 147.705   1
  19 -16   8 3689.70 147.223   1
  16 -19   5 16263.3 271.231   1
  19 -16   5 16395.1 265.064   1
  16 -19   2 11363.4 202.450   1
  19 -16   2 11358.9 196.251   1
  16 -19  -1 10960.6 195.347   1
 -16  -3  -1 10410.6 148.825   1
  19 -16  -1 10692.4 178.432   1
 -19   3  -1 10535.8 150.093   1
  19  -3   1 11098.0 153.904   1
  -3 -16   4 472.651 39.7275   1
  16   3   4 506.156 46.8449   1
   3 -19   4 446.441 44.7789   1
  19  -3   4 504.409 47.6210   1
  -3 -16   7 279.614 42.4637   1
  16   3   7 157.139 41.4048   1
  19  -3   7 178.779 41.6653   1
   3 -19   7 258.431 43.0881   1
  -3 -16  10 1417.86 86.5754   1
   3 -19  10 1305.60 90.6443   1
  19  -3  10 1384.22 104.390   1
  16   3  10 1172.34 97.6322   1
   3 -19  13 319.294 60.4616   1
  17 -19  12 2586.48 150.443   1
  19 -17  12 2671.62 154.739   1
  19 -17   9 5054.72 179.250   1
  17 -19   9 5264.95 184.866   1
  17 -19   6 15928.9 275.917   1
  19 -17   6 16331.3 280.336   1
  17 -19   3 29820.1 344.145   1
  19 -17   3 30114.0 340.092   1
  19 -17   0 25013.6 282.066   1
  19  -2   0 26158.4 209.671   1
  17 -19   0 25651.4 303.974   1
 -19   2   0 25256.7 206.296   1
 -17  -2   0 25226.9 198.088   1
  -2 -17   3 8592.44 157.935   1
  19  -2   3 8817.25 163.711   1
   2 -19   3 9122.33 176.926   1
  17   2   3 8906.85 166.664   1
  19  -2   6 2124.05 102.421   1
  17   2   6 1923.40 98.1115   1
   2 -19   6 2069.84 92.7978   1
  -2 -17   6 2042.52 85.5143   1
  17   2   9 26.5362 35.7537   1
  19  -2   9-11.7760 36.7888   1
   2 -19   9 81.4547 38.8146   1
  -2 -17   9-32.1698 32.6238   1
   2 -19  12 74.5164 39.0234   1
  19  -2  12-33.2936 40.2621   1
  18 -19  10 6.41109 40.9181   1
  19 -18  10 102.147 44.4830   1
  19 -18   7 340.421 52.1613   1
  18 -19   7 308.975 50.8858   1
  18 -19   4 9041.38 197.186   1
  19 -18   4 9095.76 196.511   1
  19 -18   1 3742.04 114.642   1
 -18  -1   1 3138.97 51.6574   1
  18 -19   1 3876.31 117.291   1
 -19   1   1 3343.59 54.7643   1
  -1 -18   2 10719.0 184.362   1
  19  -1   2 10691.2 166.303   1
  18   1   2 10768.5 168.205   1
  19 -18  -2 10777.0 189.603   1
 -19   1  -2 10523.1 167.062   1
   1 -19   2 10686.6 190.827   1
 -18  -1  -2 10449.6 166.109   1
  18   1   5 4578.77 136.651   1
   1 -19   5 4434.49 128.507   1
  -1 -18   5 4651.73 126.687   1
  19  -1   5 4668.29 137.801   1
  -1 -18   8 2565.56 107.433   1
  18   1   8 2455.88 123.925   1
  19  -1   8 2434.74 120.954   1
   1 -19   8 2586.84 110.669   1
   1 -19  11 208.778 46.1736   1
  -1 -18  11 202.882 46.6982   1
  19  -1  11 273.084 59.9527   1
  18   1  11 286.830 60.7291   1
  19 -19  11 3337.99 163.406   1
  19 -19   8 1874.17 110.349   1
  19 -19   5 1136.46 78.4851   1
  19 -19   2 86.9676 32.2874   1
  19   0   1 3843.65 89.9020   1
  19 -19  -1 3769.60 115.398   1
 -19   0  -1 3709.67 88.6722   1
   0 -19   4 13635.8 217.704   1
  19   0   4 13600.3 221.084   1
  19   0   7 3103.50 132.174   1
   0 -19   7 3078.43 113.596   1
   0 -19  10 2367.36 117.807   1
  19   0  10 2090.07 129.129   1
  20 -10   0 74.6997 20.5511   1
  20 -10   3 10550.5 184.402   1
  10 -20   3 10698.1 199.982   1
 -10 -10   3 10786.4 122.576   1
  20 -10  -3 10642.7 140.030   1
 -10 -10   6 5212.18 97.7710   1
  20 -10   6 4721.62 151.385   1
  20 -10  -6 5020.87 114.157   1
  10 -20   6 4996.73 151.167   1
  10 -20   9 2363.78 118.570   1
  20 -10   9 2114.74 119.112   1
  10 -20  12 499.448 73.0913   1
  20 -10  12 537.176 75.4687   1
  11 -20  10 14484.7 306.261   1
  20 -11  10 14346.4 315.370   1
 -11  -9   7 8712.85 129.807   1
  20 -11   7 8126.82 205.046   1
  11 -20   7 7999.19 200.282   1
  20  -9  -4 12721.4 145.178   1
  20 -11   4 13207.0 220.182   1
  11 -20   4 12964.0 227.619   1
 -11  -9   4 12561.0 120.665   1
  -9 -11  -1 8042.63 146.287   1
  11 -20   1 8160.47 170.826   1
  20  -9  -1 8104.46 123.850   1
  20 -11   1 7977.16 145.511   1
 -20  11  -1 8016.20 150.812   1
   9 -20   2-1.46222 27.0171   1
  20  -9   2 46.8212 23.2002   1
  -9 -11   2 21.9475 13.8729   1
  20 -11  -2 4.06384 15.5107   1
 -11  -9  -2 20.0107 16.6265   1
  20  -9   5 1437.05 79.4564   1
   9 -20   5 1455.26 79.9367   1
  -9 -11   5 1572.94 53.0178   1
  20  -9   8 449.759 57.7350   1
   9 -20   8 393.140 53.1707   1
  -9 -11   8 484.024 42.0071   1
   9 -20  11 80.8570 48.2291   1
  20 -12  11 418.645 68.7286   1
  12 -20  11 482.198 67.1186   1
  20 -12   8 124.533 40.0722   1
  12 -20   8 172.560 44.7308   1
  20 -12   5 4310.26 134.835   1
  12 -20   5 4213.28 137.320   1
  20  -8  -5 4347.71 87.0871   1
 -12  -8   5 3871.04 63.6676   1
 -12  -8   2 3818.96 63.8832   1
  12 -20   2 4163.33 125.584   1
  20  -8  -2 4016.57 78.6274   1
  20 -12   2 4095.38 111.809   1
 -12  -8   2 3920.47 66.5315   1
  20  -8   1 15049.0 190.148   1
   8 -20   1 15086.2 235.735   1
 -20   8  -1 14974.0 194.813   1
 -12  -8  -1 14931.1 189.263   1
  20 -12  -1 14754.0 186.440   1
  20  -8   4 8469.87 175.110   1
   8 -20   4 8461.51 179.512   1
  -8 -12   4 8770.21 129.486   1
  -8 -12   7 3289.10 93.5478   1
  20  -8   7 3130.21 128.171   1
   8 -20   7 3252.38 125.651   1
  20  -8  10 2542.67 135.761   1
   8 -20  10 2317.42 124.950   1
   8 -20  13 202.745 56.2905   1
  13 -20  12-55.7561 45.4513   1
  20 -13  12-0.92272 41.5277   1
  20 -13   9 169.444 46.1512   1
  13 -20   9 192.948 51.0752   1
  13 -20   6 69.7047 35.9873   1
  20 -13   6 112.565 38.0261   1
  20  -7  -6 88.4620 17.1979   1
 -13  -7   6 106.577 12.6337   1
  20 -13   3 2.82948 22.8882   1
  13 -20   3-18.2935 28.6654   1
  20  -7  -3-8.90947 10.5684   1
  20  -7   0 6069.85 109.142   1
 -20   7   0 5690.76 107.075   1
 -13  -7   0 5939.30 102.717   1
  20 -13   0 6123.00 127.800   1
  13 -20   0 5937.74 145.981   1
  20 -13  -3 301.124 31.0071   1
  -7 -13   3 218.068 25.1127   1
   7 -20   3 213.495 31.4556   1
  20  -7   3 209.268 30.7621   1
  -7 -13   6 0.93734 19.7111   1
  20  -7   6-33.7241 31.4865   1
   7 -20   6-6.38453 30.4408   1
  20  -7   9 46.3498 36.3602   1
  -7 -13   9 69.8250 27.1265   1
   7 -20   9 50.9316 39.7103   1
  20  -7  12 82.2365 49.0856   1
   7 -20  12 84.2321 46.1644   1
  20 -14  10 213.837 53.7482   1
  14 -20  10 166.864 49.7383   1
  20 -14   7 3795.43 141.018   1
  14 -20   7 3832.15 140.737   1
  14 -20   4 18237.7 274.445   1
  20  -6  -4 16363.1 131.414   1
  20 -14   4 18352.9 268.066   1
  20  -6  -4 16448.5 126.124   1
  20  -6  -1 47578.3 283.056   1
  14 -20   1 47263.3 426.275   1
  20 -14   1 47215.7 384.256   1
 -14  -6   1 46627.0 256.344   1
   6 -20   2 50747.2 432.859   1
  20 -14  -2 51484.7 380.122   1
  20  -6   2 52122.7 393.565   1
  -6 -14   2 51341.5 360.796   1
 -14  -6  -2 51618.9 391.202   1
   6 -20   5 5998.18 157.044   1
  -6 -14   5 6275.99 125.166   1
  20  -6   5 6549.31 164.295   1
  20  -6   8 2237.85 118.188   1
  -6 -14   8 2419.14 92.9487   1
   6 -20   8 2308.98 110.169   1
   6 -20  11 127.809 45.3941   1
  20  -6  11 16.2677 38.2826   1
  20 -15  11 865.477 86.4631   1
  15 -20  11 899.406 89.3979   1
  15 -20   8 3560.15 143.159   1
  20 -15   8 3380.65 140.240   1
  15 -20   5 29486.8 365.346   1
  20 -15   5 29186.8 361.099   1
  20  -5  -2 37340.4 209.941   1
  15 -20   2 38229.5 385.061   1
  20 -15   2 37796.0 362.192   1
  20 -15  -1 31047.9 300.713   1
 -20   5  -1 30396.8 271.647   1
   5 -20   1 32016.8 345.933   1
 -15  -5  -1 29956.6 260.729   1
  20  -5   1 30279.8 265.055   1
   5 -20   4 25715.5 315.239   1
  -5 -15   4 26198.0 262.284   1
  20  -5   4 26091.7 308.959   1
  -5 -15   7 15901.8 227.988   1
  20  -5   7 14929.3 284.564   1
   5 -20   7 15816.5 269.439   1
   5 -20  10 1366.34 99.0349   1
  20  -5  10 1230.53 98.4089   1
  -5 -15  10 1315.32 80.6430   1
   5 -20  13 21.2085 39.8111   1
  16 -20  12 422.557 73.8231   1
  16 -20   9 383.125 59.5228   1
  20 -16   9 318.350 56.2987   1
  20 -16   6 1926.82 99.3900   1
  16 -20   6 1845.06 100.139   1
  16 -20   3 3949.29 126.649   1
  20 -16   3 3871.43 121.134   1
 -20   4   0 4635.50 90.7190   1
  16 -20   0 4702.19 130.011   1
  20 -16   0 4647.44 119.559   1
  20  -4   0 4612.47 89.5303   1
 -16  -4   0 4699.11 87.5824   1
   4 -20   3 6450.62 152.686   1
  -4 -16   3 6233.40 127.468   1
  20  -4   3 6523.74 143.140   1
  16   4   6 6432.33 175.011   1
  20  -4   6 6295.24 169.988   1
   4 -20   6 6258.52 165.630   1
  -4 -16   6 6547.56 144.744   1
   4 -20   9 3824.31 143.623   1
  -4 -16   9 3855.22 130.500   1
  20  -4   9 3714.27 155.858   1
  20  -4  12 2193.99 140.750   1
   4 -20  12 2112.56 124.160   1
  17 -20  10 3538.23 159.302   1
  20 -17  10 3607.39 164.267   1
  20 -17   7 4536.77 157.193   1
  17 -20   7 4374.48 152.440   1
  17 -20   4 20911.6 299.115   1
  20 -17   4 20362.8 291.742   1
  17 -20   1 18789.2 263.998   1
  20 -17   1 18669.5 251.269   1
  20  -3  -1 18539.2 149.709   1
 -17  -3   1 16968.2 128.849   1
  20  -3   2 2949.77 90.0964   1
  -3 -17   2 2796.86 92.1019   1
   3 -20   2 2910.48 102.232   1
 -17  -3  -2 2884.67 90.2517   1
  20 -17  -2 2941.79 97.7074   1
 -20   3  -2 2859.83 89.7967   1
  20  -3   5 431.310 47.9928   1
  17   3   5 366.025 44.7274   1
   3 -20   5 453.574 47.4281   1
  -3 -17   5 423.780 40.4450   1
  17   3   8 1694.82 101.807   1
  -3 -17   8 1721.25 84.6937   1
  20  -3   8 1678.85 99.9190   1
   3 -20   8 1666.44 92.8471   1
  20  -3  11 604.902 77.3875   1
   3 -20  11 662.003 75.2526   1
  20 -18  11 128.214 49.5039   1
  18 -20  11 48.1364 45.4773   1
  18 -20   8 34.8027 37.5987   1
  20 -18   8 24.1327 38.9727   1
  18 -20   5 2565.03 113.179   1
  20 -18   5 2598.42 109.951   1
  18 -20   2 4227.58 129.027   1
  20 -18   2 4050.96 124.282   1
 -18  -2  -1 75.3501 17.8561   1
  18 -20  -1 102.837 32.5863   1
  20 -18  -1 69.0431 24.2388   1
  20  -2   1 92.9966 19.7878   1
 -20   2  -1 82.5689 20.0566   1
  -2 -18   4 411.756 39.0490   1
  20  -2   4 366.882 44.3210   1
   2 -20   4 347.328 40.5186   1
  18   2   4 454.781 46.4193   1
  20  -2   7 565.558 62.3690   1
   2 -20   7 608.378 56.2705   1
  18   2   7 627.045 63.0694   1
  -2 -18   7 666.173 55.3375   1
  18   2  10 793.662 85.6360   1
  20  -2  10 749.127 78.8091   1
   2 -20  10 869.441 76.5160   1
  -2 -18  10 743.218 67.8849   1
  20 -19   9 1220.14 97.4906   1
  19 -20   9 1294.36 100.692   1
  19 -20   6 523.848 57.6681   1
  20 -19   6 621.886 64.8187   1
  19 -20   3 1269.48 74.9522   1
  20 -19   3 1414.04 78.7418   1
  20  -1   0 136.398 18.0878   1
  19 -20   0 106.834 27.7855   1
  20 -19   0 125.304 31.3797   1
 -20   1   0 101.234 16.4445   1
 -19  -1   0 119.677 17.3980   1
  -1 -19   3 659.411 48.5257   1
   1 -20   3 757.062 54.4399   1
  20  -1   3 662.334 48.7059   1
  19   1   3 688.612 48.8965   1
  19   1   6 2548.31 112.615   1
   1 -20   6 2681.45 105.810   1
  -1 -19   6 2783.64 104.848   1
  20  -1   6 2449.56 111.127   1
  -1 -19   9 883.843 72.3994   1
   1 -20   9 845.366 70.5501   1
  19   1   9 793.760 79.2855   1
  20  -1   9 792.047 75.9202   1
  20 -20  10 9124.10 258.664   1
  20 -20   7 9807.73 236.672   1
  20 -20   4 21186.7 313.065   1
 -20   0   1 11573.3 102.764   1
  20 -20   1 13227.5 225.162   1
  20 -20  -2 9930.92 192.777   1
   0 -20   2 10046.4 188.912   1
  20   0   2 10130.9 167.069   1
 -20   0  -2 9425.71 162.511   1
  20   0   5 1603.67 87.9910   1
   0 -20   5 1618.87 81.4994   1
  20   0   8 1421.90 96.2282   1
   0 -20   8 1485.94 89.4977   1
   0 -20  11 1052.11 83.7365   1
  20   0  11 1256.69 108.352   1
  11 -21  11 370.670 65.3096   1
  21 -11  11 301.642 62.5251   1
  21 -11   8 7210.82 203.970   1
  11 -21   8 7007.26 193.214   1
 -11 -10   5 8830.01 113.521   1
  21 -11   5 8750.08 193.314   1
  11 -21   5 8717.93 196.050   1
 -11 -10   2 14642.8 149.356   1
  11 -21   2 15002.6 237.925   1
  21 -10  -2 15026.2 170.795   1
  21 -11   2 15079.3 215.394   1
 -11 -10  -1 10375.6 163.334   1
 -21  10  -1 10453.5 170.785   1
  10 -21   1 10489.4 200.649   1
  21 -11  -1 10123.2 148.892   1
  21 -10   1 10556.4 165.429   1
  10 -21   4 9477.23 197.894   1
  21 -11  -4 9304.33 139.317   1
 -10 -11   4 9537.61 122.452   1
  21 -10   4 9462.94 191.605   1
  21 -10   7 2972.49 125.964   1
 -10 -11   7 3214.71 85.2594   1
  10 -21   7 2939.78 124.866   1
  10 -21  10 439.394 66.2328   1
  21 -10  10 456.448 67.9651   1
  12 -21  12 79.3122 45.6805   1
  21 -12   9 68.2585 45.8910   1
  12 -21   9-78.4702 39.7645   1
  21  -9  -6 0.92952 15.0678   1
 -12  -9   6-1.28501 10.8023   1
  21 -12   6 27.2543 31.9403   1
  12 -21   6 1.02757 33.6997   1
  21  -9  -3 2701.41 65.1000   1
 -12  -9   3 2501.88 51.8048   1
  12 -21   3 2586.19 101.945   1
  21 -12   3 2677.14 96.3696   1
 -21   9   0 1967.10 68.2470   1
  21 -12   0 2090.25 73.8862   1
  12 -21   0 2128.27 91.6620   1
  21  -9   0 1914.41 65.2926   1
 -12  -9   0 1990.94 64.4669   1
  21 -12  -3 86.2578 18.7936   1
  -9 -12   3 67.0537 15.4175   1
   9 -21   3 70.0607 27.0316   1
  21  -9   3 94.3795 28.4416   1
  -9 -12   6 882.094 46.0196   1
  21  -9   6 884.358 69.2788   1
   9 -21   6 824.022 67.5570   1
   9 -21   9-25.1186 39.6020   1
  21  -9   9-30.3507 37.2951   1
   9 -21  12 140.379 50.6870   1
  13 -21  10 2493.23 134.201   1
  21 -13  10 2544.46 139.454   1
 -13  -8   7 9348.59 116.336   1
  21 -13   7 9470.40 226.137   1
  13 -21   7 9382.81 222.479   1
  21 -13   4 26113.3 321.896   1
  21  -8  -4 25584.8 190.642   1
  13 -21   4 25880.8 332.514   1
  13 -21   1 23542.2 301.982   1
 -13  -8   1 22632.1 189.524   1
  21 -13   1 23345.8 263.825   1
  21  -8  -1 23500.0 210.168   1
   8 -21   2 7744.63 171.270   1
  -8 -13   2 7498.95 125.804   1
  21 -13  -2 7802.84 136.969   1
 -13  -8  -2 7644.85 148.925   1
  21  -8   2 7891.84 151.780   1
   8 -21   5 3379.98 120.841   1
  21  -8   5 3288.12 117.973   1
  -8 -13   5 3515.79 87.5496   1
  -8 -13   8 118.965 29.4173   1
   8 -21   8 97.8286 38.0131   1
  21  -8   8 84.5414 39.5587   1
  21  -8  11-5.25677 39.7119   1
   8 -21  11 1.04994 39.7065   1
  21 -14  11 129.212 51.7591   1
  14 -21  11 163.159 53.7855   1
  14 -21   8 127.155 46.1115   1
  21 -14   8 125.568 43.4408   1
  21  -7  -5 571.215 26.5989   1
  21  -7  -5 610.676 28.7281   1
  14 -21   5 599.576 57.8316   1
  21 -14   5 487.126 51.9335   1
 -14  -7   2 348.695 17.2208   1
  14 -21   2 428.191 46.4377   1
  21  -7  -2 434.489 25.1428   1
 -14  -7   2 382.454 18.3515   1
  21 -14   2 378.417 41.5594   1
 -21   7  -1 3598.33 94.7264   1
  21  -7   1 3631.85 94.1103   1
  21 -14  -1 3650.43 99.0893   1
   7 -21   1 3642.51 116.356   1
 -14  -7  -1 3553.95 90.7325   1
  -7 -14   4 17.1791 15.7122   1
   7 -21   4 28.2154 26.0155   1
  21  -7   4 72.7772 28.1846   1
  -7 -14   7 1817.62 76.1427   1
   7 -21   7 1644.33 93.1480   1
  21  -7   7 1829.76 101.487   1
  21  -7  10 97.6024 45.1290   1
   7 -21  10 109.361 45.3060   1
   7 -21  13 209.256 56.9713   1
  15 -21  12 40.4827 42.2091   1
  15 -21   9 2140.58 119.276   1
  21 -15   9 2159.48 122.219   1
  21  -6  -6 2172.61 49.6073   1
  15 -21   6 2636.71 117.473   1
  21 -15   6 2535.90 114.855   1
  15 -21   3 4370.18 135.636   1
  21 -15   3 4202.96 125.042   1
  21  -6  -3 4049.35 61.0573   1
  15 -21   0 7151.61 165.681   1
 -21   6   0 6676.64 114.703   1
  21  -6   0 7023.19 116.741   1
 -15  -6   0 6635.49 108.271   1
  21 -15   0 6946.50 143.313   1
  21 -15  -3 6655.43 136.951   1
   6 -21   3 6876.55 163.837   1
  -6 -15   3 6676.60 128.724   1
  21  -6   3 6754.10 147.363   1
  21  -6   6 590.001 58.5197   1
  -6 -15   6 653.558 47.7472   1
   6 -21   6 639.179 62.8125   1
  -6 -15   9 4.03628 25.0860   1
  21  -6   9 73.1124 41.5767   1
   6 -21   9-46.7066 36.8388   1
   6 -21  12 73.2360 40.8393   1
  16 -21  10 5092.14 191.478   1
  21 -16  10 4961.22 194.125   1
  21 -16   7 8360.73 214.442   1
  16 -21   7 8276.71 208.804   1
  16 -21   4 7258.13 179.198   1
  21 -16   4 7216.21 173.490   1
 -16  -5   1 5755.38 79.4312   1
  16 -21   1 6031.69 152.167   1
  21  -5  -1 6367.75 95.0401   1
  21 -16   1 6147.14 142.774   1
  -5 -16   2 2702.92 85.4337   1
   5 -21   2 2730.99 100.900   1
  21 -16  -2 2785.69 91.2104   1
 -16  -5  -2 2705.50 87.1297   1
 -21   5  -2 2793.12 91.7878   1
  21  -5   2 2758.57 87.7874   1
   5 -21   5 2218.02 96.7002   1
  -5 -16   5 2325.65 81.7899   1
  21  -5   5 2348.69 100.717   1
  -5 -16   8 125.222 32.1830   1
   5 -21   8 106.636 36.0369   1
  21  -5   8 118.439 40.3692   1
  21  -5  11 22.2451 39.5031   1
   5 -21  11 13.4130 37.4133   1
  21 -17  11 32.9486 41.9368   1
  17 -21  11-77.8320 51.7028   1
  17 -21   8-15.9253 36.9549   1
  21 -17   8 42.3883 38.4798   1
  17 -21   5 895.609 71.2863   1
  21 -17   5 990.554 73.1341   1
  21  -4  -2 3043.65 47.8431   1
  17 -21   2 3426.90 117.361   1
  21 -17   2 3331.83 109.560   1
 -21   4  -1 478.098 36.2872   1
  21 -17  -1 500.953 44.4165   1
 -17  -4  -1 432.897 34.0366   1
  17 -21  -1 478.977 48.7190   1
  21  -4   1 474.909 35.8199   1
  21  -4   4 2226.75 91.7997   1
   4 -21   4 2246.40 95.3694   1
  -4 -17   4 2326.23 83.7880   1
   4 -21   7 70.7031 29.9351   1
  -4 -17   7 91.3014 30.1791   1
  21  -4   7 73.1938 38.2509   1
  21  -4  10 168.591 50.3219   1
  -4 -17  10 113.167 37.1242   1
   4 -21  10 156.229 43.3787   1
   4 -21  13 76.4231 49.8634   1
  18 -21   9 670.318 73.3287   1
  21 -18   9 541.811 67.7453   1
  18 -21   6 1236.89 82.9489   1
  21 -18   6 1150.48 83.0198   1
  21 -18   3 5685.90 152.523   1
  18 -21   3 5649.19 156.657   1
  21  -3   0 181.449 21.3603   1
  18 -21   0 247.432 38.7981   1
 -21   3   0 203.436 21.8161   1
  21 -18   0 191.348 32.5930   1
 -18  -3   0 200.470 21.1892   1
  21 -18  -3 40.3970 27.2687   1
  21  -3   3 9.90868 21.9073   1
  -3 -18   3 15.5902 17.7263   1
   3 -21   3 25.5047 22.6508   1
  18   3   6 500.617 56.8215   1
  21  -3   6 476.027 54.9489   1
  -3 -18   6 522.797 50.9889   1
   3 -21   6 409.868 49.1126   1
  18   3   9 6.63447 34.6619   1
  21  -3   9 49.1468 36.6002   1
   3 -21   9-15.2636 35.5841   1
  -3 -18   9 43.6419 29.7915   1
   3 -21  12 127.715 45.8514   1
  19 -21  10 14.3362 37.6714   1
  21 -19  10 52.0767 42.1784   1
  19 -21   7 10.6885 36.9567   1
  21 -19   7 82.4898 36.6914   1
  19 -21   4 2609.86 112.911   1
  21 -19   4 2500.38 108.766   1
  21 -19   1 610.556 52.8024   1
 -19  -2   1 426.721 20.2734   1
  19 -21   1 523.156 51.0102   1
  21  -2  -1 509.232 24.4296   1
  21 -19  -2 3927.48 118.214   1
  -2 -19   2 3836.74 113.292   1
  19 -21  -2 4018.36 128.946   1
  21  -2   2 4131.64 108.063   1
 -21   2  -2 3986.98 108.698   1
 -19  -2  -2 3932.42 104.676   1
   2 -21   2 3897.97 120.119   1
   2 -21   5 19.0682 30.3406   1
  -2 -19   5 12.1928 22.1751   1
  21  -2   5 30.7507 29.1575   1
  19   2   5 96.2756 32.6345   1
  19   2   8 210.588 46.1746   1
  -2 -19   8 236.166 42.7862   1
  21  -2   8 226.483 48.4867   1
   2 -21   8 208.995 42.2218   1
  21  -2  11 895.949 94.5844   1
   2 -21  11 937.141 82.5997   1
  21 -20  11 387.627 66.9703   1
  20 -21  11 476.333 77.4589   1
  20 -21   8 1964.03 113.339   1
  21 -20   8 1952.93 112.723   1
  20 -21   5 1872.70 100.366   1
  21 -20   5 1825.94 98.1575   1
  20 -21   2 8003.41 180.766   1
  21 -20   2 7809.03 180.115   1
  21  -1   1 12673.7 169.211   1
  20 -21  -1 12622.5 221.017   1
 -21   1  -1 12333.3 168.873   1
  21 -20  -1 12899.3 219.703   1
 -20  -1  -1 12069.2 164.198   1
   1 -21   4 1365.34 76.1698   1
  -1 -20   4 1336.61 71.3139   1
  20   1   4 1376.06 76.0184   1
  21  -1   4 1306.77 74.8542   1
   1 -21   7 230.809 43.4811   1
  -1 -20   7 186.953 36.4897   1
  20   1   7 177.929 42.7281   1
  21  -1   7 234.746 49.2442   1
  21  -1  10 258.801 54.6183   1
   1 -21  10 170.327 47.5579   1
  20   1  10 204.414 52.1415   1
  -1 -20  10 255.934 47.6829   1
  21 -21   9 450.510 67.7718   1
  21 -21   6 214.603 45.2344   1
  21 -21   3 1009.69 71.8493   1
 -21   0   0 5053.62 91.4967   1
  21 -21   0 5020.26 142.335   1
   0 -21   3 14259.8 230.869   1
  21   0   3 14248.2 217.647   1
   0 -21   6 1040.22 68.1829   1
  21   0   6 1030.05 75.1171   1
   0 -21   9 2993.81 126.872   1
  21   0   9 2800.77 142.943   1
  22 -11   0 65904.2 430.957   1
 -11 -11   0 66986.4 423.335   1
  22 -11   3 25725.3 301.732   1
  22 -11  -3 25795.9 232.348   1
 -11 -11   3 26273.3 203.612   1
  11 -22   3 26393.5 333.007   1
 -11 -11   6 3588.40 80.2951   1
  22 -11   6 3414.64 131.016   1
  11 -22   6 3267.36 130.674   1
  22 -11  -6 3377.02 95.0968   1
  11 -22   9 697.015 72.0004   1
  22 -11   9 764.185 77.0073   1
  11 -22  12 66.0524 46.7047   1
  12 -22  10 2334.01 128.231   1
  22 -12  10 2240.26 130.699   1
  12 -22   7 253.160 48.1835   1
  22 -12   7 152.460 45.5035   1
 -12 -10   4-0.28838 8.95500   1
  22 -10  -4 10.5274 13.1632   1
  22 -12   4 16.9421 28.6920   1
  12 -22   4 3.49914 31.4425   1
  12 -22   1 837.397 61.5270   1
  22 -10  -1 908.235 45.9487   1
  22 -12   1 799.011 50.7620   1
 -12 -10   1 840.477 40.0566   1
 -10 -12  -1 796.371 49.4096   1
  22 -10   2 4056.87 111.653   1
  22 -12  -2 4029.20 95.5443   1
 -10 -12   2 3967.79 87.0565   1
  10 -22   2 3979.56 124.948   1
  22 -10   5 958.792 69.4868   1
  10 -22   5 955.634 72.2759   1
 -10 -12   5 1049.58 45.0612   1
  10 -22   8 359.776 55.3964   1
  22 -10   8 445.964 62.8872   1
  22 -10  11 33.2627 42.3429   1
  10 -22  11-4.69053 37.4939   1
  13 -22  11 1519.86 112.357   1
  22 -13  11 1688.73 120.317   1
  22 -13   8 8552.44 225.634   1
  13 -22   8 8663.06 225.309   1
  22  -9  -5 7105.14 106.610   1
  22 -13   5 7153.51 179.923   1
  13 -22   5 7161.74 183.930   1
 -13  -9   2 8262.83 101.758   1
  13 -22   2 8656.76 189.049   1
 -13  -9   2 8399.12 104.659   1
  22  -9  -2 8819.50 123.402   1
  22 -13   2 8663.21 168.071   1
  22  -9   1 3381.22 93.8515   1
   9 -22   1 3259.84 113.545   1
 -22   9  -1 3272.35 94.9161   1
 -13  -9  -1 3356.44 91.9322   1
  22 -13  -1 3306.96 92.6729   1
   9 -22   4 268.916 42.2827   1
  -9 -13   4 295.581 28.0032   1
  22 -13  -4 262.172 29.5447   1
  22  -9   4 274.194 41.2652   1
   9 -22   7 774.532 67.7394   1
  -9 -13   7 945.045 52.6350   1
  22  -9   7 838.831 73.5778   1
   9 -22  10 2143.06 122.521   1
  22  -9  10 2032.97 124.515   1
  14 -22  12 943.756 95.7680   1
  14 -22   9 8682.31 233.776   1
  22 -14   9 8690.77 240.775   1
  22 -14   6 19053.0 307.185   1
  22  -8  -6 18509.2 171.596   1
  14 -22   6 18875.7 315.001   1
  14 -22   3 25734.7 330.904   1
  22  -8  -3 25807.1 193.148   1
  22 -14   3 25416.1 307.250   1
  22  -8   0 17183.5 196.348   1
  14 -22   0 17112.5 262.138   1
  22 -14   0 16752.3 219.947   1
 -14  -8   0 16412.5 182.427   1
 -22   8   0 16629.8 196.718   1
  22 -14  -3 9181.01 154.469   1
  -8 -14   3 9092.54 142.562   1
   8 -22   3 8837.34 189.459   1
  22  -8   3 8863.52 174.744   1
  -8 -14   6 23.5376 19.6232   1
  22  -8   6 1.73073 28.6356   1
   8 -22   6-24.0620 31.3565   1
   8 -22   9 1046.85 84.5389   1
  22  -8   9 1084.94 89.6577   1
   8 -22  12 649.397 79.3614   1
  22 -15  10-44.6938 46.0798   1
  15 -22  10-39.9264 41.2155   1
  15 -22   7 73.2777 41.3058   1
  22 -15   7 10.8885 34.3234   1
  15 -22   4 1625.59 86.8482   1
  22  -7  -4 1524.71 38.5689   1
  22 -15   4 1588.04 82.7015   1
  22  -7  -1 1590.36 52.2842   1
  15 -22   1 1613.49 81.6491   1
  22 -15   1 1647.37 74.1527   1
 -15  -7   1 1661.36 47.6071   1
  -7 -15   2 1392.36 60.1655   1
  22 -15  -2 1385.91 63.0996   1
   7 -22   2 1412.45 76.3997   1
  22  -7   2 1452.07 67.4169   1
 -15  -7  -2 1458.69 66.6837   1
  22  -7   5 446.150 50.4428   1
  -7 -15   5 478.201 38.2571   1
   7 -22   5 460.426 51.3625   1
   7 -22   8 8.35032 35.7282   1
  -7 -15   8-1.66970 22.6264   1
  22  -7   8 32.5268 36.3888   1
  22  -7  11 1046.73 120.885   1
   7 -22  11-21.1538 39.1873   1
  16 -22  11 1921.12 126.510   1
  22 -16  11 2005.18 130.904   1
  22 -16   8 4946.71 172.795   1
  16 -22   8 5429.02 184.301   1
  22 -16   5 364.740 51.3088   1
  22  -6  -5 205.638 12.5324   1
  16 -22   5 384.004 52.5373   1
  22  -6  -2 1272.37 39.8004   1
  16 -22   2 1275.89 74.6752   1
  22 -16   2 1280.27 70.7218   1
  16 -22  -1 618.407 54.1230   1
   6 -22   1 532.201 50.3689   1
 -22   6  -1 560.136 39.7863   1
  22 -16  -1 589.573 45.8889   1
  22  -6   1 565.367 39.4392   1
 -16  -6  -1 537.197 38.3290   1
   6 -22   4 977.203 69.9445   1
  -6 -16   4 929.370 52.2720   1
  22  -6   4 861.378 61.2713   1
  -6 -16   7 6728.40 147.785   1
  22  -6   7 6002.76 183.727   1
   6 -22   7 6305.91 177.432   1
   6 -22  10 695.467 73.7421   1
  22  -6  10 666.170 77.8318   1
   6 -22  13 46.5425 42.8953   1
  17 -22   9 275.645 53.1975   1
  22 -17   9 388.710 63.7759   1
  17 -22   6 601.478 63.1446   1
  22 -17   6 636.742 65.5322   1
  17 -22   3 52.6322 32.2699   1
  22 -17   3 24.5251 32.1099   1
  17 -22   0 2435.10 100.432   1
 -17  -5   0 2291.55 63.2573   1
  22 -17   0 2437.93 91.3295   1
 -22   5   0 2283.18 67.3735   1
  22  -5   0 2470.69 69.4337   1
  22 -17  -3 5706.94 135.480   1
  -5 -17   3 5832.76 129.017   1
   5 -22   3 5753.82 154.194   1
  22  -5   3 5738.42 139.039   1
  22  -5   6 6560.82 181.103   1
   5 -22   6 6722.02 176.184   1
  -5 -17   6 7003.35 150.066   1
   5 -22   9 1648.31 100.251   1
  22  -5   9 1631.75 108.349   1
  -5 -17   9 1594.17 84.1848   1
   5 -22  12 570.188 72.1570   1
  18 -22  10-13.4771 40.0308   1
  22 -18  10 88.6067 49.0967   1
  18 -22   7 87.4738 44.9202   1
  22 -18   7 56.4830 40.3417   1
  22 -18   4 178.570 39.6236   1
  18 -22   4 107.654 35.5462   1
  22  -4  -1 2086.01 52.6329   1
  22 -18   1 1895.11 84.1410   1
  18 -22   1 1910.27 92.8146   1
 -18  -4   1 1622.14 40.0836   1
   4 -22   2 43.8339 27.0468   1
  22 -18  -2 34.4453 25.2518   1
 -18  -4  -2 27.5218 19.9042   1
  22  -4   2 21.0897 20.8960   1
 -22   4  -2 5.37786 19.9280   1
  -4 -18   2 7.57355 21.4301   1
  22  -4   5 205.673 39.0445   1
   4 -22   5 112.187 30.6399   1
  -4 -18   5 209.124 33.2891   1
   4 -22   8 159.575 38.5616   1
  -4 -18   8 182.793 38.6491   1
  22  -4   8 163.304 46.9586   1
  22  -4  11 162.214 55.2251   1
   4 -22  11 233.913 53.1988   1
  22 -19  11 634.654 81.8397   1
  19 -22  11 738.054 88.1544   1
  19 -22   8 1651.33 105.603   1
  22 -19   8 1560.63 104.860   1
  22 -19   5 757.402 68.0513   1
  19 -22   5 681.848 67.1182   1
  19 -22   2 4930.38 147.153   1
  22 -19   2 5040.76 142.114   1
  22  -3   1 313.313 31.1940   1
 -19  -3  -1 259.364 28.2293   1
  22 -19  -1 277.785 38.0134   1
 -22   3  -1 333.159 32.4829   1
  19 -22  -1 276.887 40.6828   1
  22  -3   4 50.8399 27.2720   1
   3 -22   4 29.0499 26.2028   1
  -3 -19   4 31.5006 21.0559   1
   3 -22   7 286.836 45.7596   1
  -3 -19   7 184.238 35.9345   1
  22  -3   7 226.224 46.6240   1
  19   3   7 249.312 47.3077   1
  22  -3  10 1795.84 120.590   1
   3 -22  10 1922.75 113.811   1
  20 -22   9 265.500 57.9886   1
  22 -20   9 310.836 58.3940   1
  20 -22   6 1942.41 108.275   1
  22 -20   6 1841.85 103.596   1
  20 -22   3 21299.0 313.200   1
  22 -20   3 21619.3 308.013   1
  22  -2   0 6066.64 104.188   1
 -22   2   0 5699.07 99.8341   1
  22 -20   0 5726.68 147.026   1
 -20  -2   0 5822.08 98.3504   1
  20 -22   0 5673.77 152.512   1
  22 -20  -3 3604.36 117.705   1
  20   2   3 3509.22 109.590   1
  -2 -20   3 3387.91 109.292   1
   2 -22   3 3396.62 117.038   1
  22  -2   3 3523.95 108.995   1
   2 -22   6 1147.40 76.3003   1
  -2 -20   6 1296.94 76.8696   1
  22  -2   6 1107.49 77.5174   1
  20   2   6 1137.70 80.3031   1
  20   2   9 148.299 44.3130   1
   2 -22   9 242.433 48.1094   1
  -2 -20   9 274.899 47.4000   1
  22  -2   9 156.400 43.1343   1
  21 -22  10 979.904 92.9459   1
  22 -21  10 884.348 91.5211   1
  22 -21   7 877.116 78.4916   1
  21 -22   7 980.606 84.1282   1
  21 -22   4 567.759 58.2131   1
  22 -21   4 549.657 59.0323   1
 -22   1   1 8.94752 7.50939   1
 -21  -1   1 8.77287 6.86080   1
  21 -22   1 16.7091 27.9067   1
  22 -21   1-31.7318 28.2653   1
  22  -1   2 1176.53 59.8962   1
  21   1   2 1122.58 59.3653   1
  21 -22  -2 1190.84 74.3283   1
  -1 -21   2 1180.23 68.5316   1
   1 -22   2 1127.58 67.9153   1
  22 -21  -2 1166.19 70.5955   1
 -22   1  -2 1160.19 61.9581   1
 -21  -1  -2 1036.09 59.1771   1
  22  -1   5 419.960 50.1271   1
  21   1   5 404.650 48.8846   1
   1 -22   5 409.894 47.9343   1
  -1 -21   5 504.592 49.9055   1
   1 -22   8 254.792 45.0016   1
  -1 -21   8 270.614 43.4914   1
  21   1   8 332.241 54.8570   1
  22  -1   8 242.547 52.1090   1
   1 -22  11 439.814 63.5792   1
  21   1  11 323.464 65.8248   1
  22  -1  11 277.100 65.8438   1
  22 -22   8 1564.32 108.729   1
  22 -22   5 2011.32 105.013   1
  22 -22   2 4381.29 142.451   1
  22 -22  -1 152.876 35.2226   1
 -22   0  -1 136.167 23.5129   1
   0 -22   4 341.232 43.6827   1
  22   0   4 338.274 41.9091   1
  22   0   7 7251.59 204.054   1
   0 -22   7 7851.15 191.705   1
   0 -22  10 3122.06 136.717   1
  22   0  10 2775.48 152.025   1
  12 -23  11 420.666 65.0723   1
  23 -12  11 491.661 71.7880   1
  12 -23   8-21.9604 38.3833   1
  23 -12   8-16.0212 36.5754   1
 -12 -11   5 288.225 23.5598   1
  23 -11  -5 297.638 27.6687   1
  23 -12   5 276.441 43.1236   1
  12 -23   5 304.587 47.3023   1
  12 -23   2 750.523 61.9202   1
  23 -11  -2 753.256 41.2558   1
 -12 -11   2 733.406 35.4436   1
  23 -12   2 783.585 54.4838   1
  11 -23   1 3547.53 122.169   1
  23 -12  -1 3591.81 93.3631   1
  23 -11   1 3616.23 102.260   1
 -12 -11  -1 3452.76 98.8572   1
  23 -12  -4 673.967 39.8988   1
  23 -11   4 685.649 58.0133   1
  11 -23   4 643.376 60.3010   1
 -11 -12   4 680.113 35.8942   1
  11 -23   7 16.0266 34.1605   1
  23 -11   7 24.3401 35.0677   1
  11 -23  10 282.855 54.4503   1
  23 -11  10 187.818 51.2083   1
  13 -23  12 588.767 79.5655   1
  13 -23   9 1563.30 104.206   1
  23 -13   9 1537.57 106.879   1
  23 -13   6 969.205 74.2693   1
  13 -23   6 1139.83 80.1266   1
  13 -23   3 1460.10 82.6378   1
 -13 -10   3 1419.82 41.1375   1
  23 -10  -3 1550.28 53.8576   1
  23 -13   3 1465.15 76.7219   1
  13 -23   0 8810.97 192.098   1
  23 -13   0 8671.86 155.917   1
 -13 -10   0 8407.42 138.981   1
  23 -10   0 8639.77 144.381   1
  10 -23   3 523.293 51.3100   1
  23 -13  -3 584.350 40.3670   1
 -10 -13   3 505.062 33.0188   1
  23 -10   3 475.849 46.2794   1
 -10 -13   6 1013.58 48.6674   1
  23 -10   6 1021.26 75.1075   1
  10 -23   6 984.457 74.2958   1
  10 -23   9 189.765 47.9368   1
  23 -10   9 166.773 49.2860   1
  10 -23  12 114.283 51.8006   1
  23 -14  10 259.112 58.3284   1
  14 -23  10 193.049 51.4985   1
  23 -14   7 5960.70 185.326   1
  14 -23   7 6209.37 184.571   1
  23 -14   4 978.275 69.8606   1
  23  -9  -4 1035.90 40.2146   1
  14 -23   4 998.505 73.1565   1
 -14  -9   1 9533.85 128.028   1
  23 -14   1 9348.51 172.689   1
  14 -23   1 9591.25 201.330   1
  23  -9  -1 9487.90 139.094   1
  -9 -14   2 2097.58 71.1032   1
   9 -23   2 2127.25 97.9043   1
  23  -9   2 2172.16 83.9075   1
  23 -14  -2 2050.23 74.8457   1
  23  -9   5 493.543 53.1986   1
   9 -23   5 416.478 51.6528   1
  -9 -14   5 561.658 38.5568   1
   9 -23   8 1770.31 101.968   1
  23  -9   8 1811.54 108.018   1
  23  -9  11 777.880 87.4983   1
   9 -23  11 923.976 85.8900   1
  23 -15  11 339.969 65.4478   1
  15 -23  11 261.936 59.0089   1
  23 -15   8 2688.49 131.592   1
  15 -23   8 3001.89 134.467   1
  23 -15   5 5832.31 165.672   1
  23  -8  -5 5468.00 80.5550   1
  15 -23   5 5779.01 168.469   1
 -15  -8   2 8624.00 89.3025   1
  15 -23   2 9382.51 197.967   1
  23 -15   2 9416.44 184.320   1
 -15  -8   2 8592.64 92.3655   1
  23  -8  -2 9704.63 122.768   1
   8 -23   1 10376.6 210.892   1
 -23   8  -1 9764.43 164.987   1
  23  -8   1 10427.9 167.025   1
  23 -15  -1 10429.7 175.984   1
 -15  -8  -1 9928.33 159.641   1
  23 -15  -4 836.443 52.5863   1
   8 -23   4 939.952 70.1657   1
  -8 -15   4 874.637 48.3068   1
  23  -8   4 780.383 58.6137   1
   8 -23   7 33.9926 33.8691   1
  -8 -15   7-13.0273 21.2425   1
  23  -8   7 52.7000 35.5116   1
  23  -8  10 67.7677 39.9558   1
   8 -23  10-20.8553 38.0256   1
  16 -23   9 1134.42 92.9831   1
  23 -16   9 1188.42 95.3223   1
  23 -16   6 433.439 56.3912   1
  16 -23   6 592.407 63.5843   1
  23 -16   3-13.9762 26.7037   1
  23  -7  -3 37.7775 10.4199   1
  16 -23   3-19.7800 34.1522   1
  23 -16   0 1082.57 62.4057   1
  16 -23   0 1011.41 69.6400   1
  23  -7   0 1024.02 48.4347   1
 -23   7   0 967.618 47.3018   1
 -16  -7   0 961.569 43.7895   1
  23  -7   3 53.7258 29.0187   1
  23 -16  -3 1.11070 19.6508   1
  -7 -16   3 19.8850 17.0324   1
   7 -23   3-14.1154 26.6402   1
   7 -23   6 2099.91 105.574   1
  -7 -16   6 2113.41 80.3152   1
  23  -7   6 2068.74 104.641   1
   7 -23   9 1084.09 86.3711   1
  23  -7   9 1014.08 89.9982   1
   7 -23  12-13.6439 40.9310   1
  23 -17  10 58.6147 45.0546   1
  17 -23  10 64.4552 43.6113   1
  17 -23   7-49.8660 39.7993   1
  23 -17   7 91.1727 39.6384   1
  17 -23   4 3976.41 138.180   1
  23 -17   4 4106.42 136.837   1
  17 -23   1 10782.5 212.504   1
  23  -6  -1 10965.9 134.237   1
 -17  -6   1 9824.72 111.381   1
  23 -17   1 10710.4 195.610   1
   6 -23   2 9951.38 204.612   1
 -17  -6  -2 9158.67 165.883   1
  23  -6   2 9927.91 173.372   1
  -6 -17   2 9775.18 168.484   1
  23 -17  -2 9839.01 176.469   1
   6 -23   5 4787.69 148.029   1
  -6 -17   5 4927.07 121.150   1
  23  -6   5 4692.65 146.713   1
  -6 -17   8 5781.67 149.325   1
  23  -6   8 5422.76 188.609   1
   6 -23   8 5402.34 174.608   1
  23  -6  11 763.375 84.1007   1
   6 -23  11 796.327 79.9826   1
  23 -18  11 186.740 58.0119   1
  18 -23  11 146.871 48.4598   1
  18 -23   8 241.757 51.5822   1
  23 -18   8 227.318 49.5522   1
  18 -23   5 1067.47 80.2073   1
  23 -18   5 924.428 71.1933   1
  18 -23   2 1333.30 79.0305   1
  23 -18   2 1172.34 71.9650   1
  18 -23  -1 1494.78 82.3359   1
  23 -18  -1 1487.87 73.2119   1
 -23   5  -1 1466.02 62.1819   1
   5 -23   1 1435.35 79.5710   1
  23  -5   1 1500.84 62.0633   1
 -18  -5  -1 1415.27 59.4652   1
   5 -23   4 323.824 46.3221   1
  -5 -18   4 323.380 37.7931   1
  23  -5   4 260.263 40.3323   1
   5 -23   7 123.774 38.5662   1
  -5 -18   7 171.980 33.2370   1
  23  -5   7 164.553 44.2085   1
  23  -5  10 63.3853 40.4753   1
   5 -23  10 6.89491 38.0132   1
  19 -23   9 684.330 75.6943   1
  23 -19   9 657.676 75.9848   1
  23 -19   6 790.224 72.1087   1
  19 -23   6 837.299 73.2209   1
  19 -23   3 242.031 43.1130   1
  23 -19   3 227.546 42.0654   1
  19 -23   0 192.608 39.3023   1
 -23   4   0 197.176 22.6843   1
  23 -19   0 187.669 33.7728   1
 -19  -4   0 167.776 20.3980   1
  23  -4   0 201.777 23.0203   1
  23  -4   3 494.333 44.6199   1
  -4 -19   3 479.758 42.4777   1
   4 -23   3 491.789 49.7003   1
  23 -19  -3 553.187 49.1960   1
  23  -4   6 1067.90 77.9351   1
   4 -23   6 1070.88 75.1441   1
  -4 -19   6 1147.04 67.7151   1
  -4 -19   9 819.847 67.0352   1
  23  -4   9 822.057 80.8888   1
   4 -23   9 804.911 73.9576   1
   4 -23  12 58.9453 41.2422   1
  20 -23  10 62.6055 47.6976   1
  23 -20  10 16.3749 44.1609   1
  20 -23   7 205.379 50.2881   1
  23 -20   7 269.979 57.7120   1
  20 -23   4 3202.48 127.301   1
  23 -20   4 3224.73 126.628   1
  23  -3  -1 2114.39 51.2885   1
 -20  -3   1 1776.34 40.5401   1
  23 -20   1 2262.66 99.6875   1
  20 -23   1 2231.92 100.471   1
  23 -20  -2 266.236 38.0446   1
  20 -23  -2 326.503 47.2084   1
  -3 -20   2 333.048 38.7483   1
   3 -23   2 257.566 43.4477   1
 -20  -3  -2 277.012 34.1177   1
  23  -3   2 309.147 35.1855   1
  23  -3   5 1203.74 78.7896   1
   3 -23   5 1278.62 81.2320   1
  -3 -20   5 1220.78 68.2573   1
   3 -23   8 304.379 49.8857   1
  -3 -20   8 337.569 45.8268   1
  23  -3   8 216.069 46.3695   1
  23  -3  11 79.2129 44.6519   1
   3 -23  11 69.4231 37.7549   1
  21 -23   8-2.14006 38.6945   1
  23 -21   8-23.1980 40.1189   1
  23 -21   5 18.5117 32.2841   1
  21 -23   5 13.5967 33.5490   1
  21 -23   2 267.018 46.1853   1
  23 -21   2 216.282 40.9412   1
  21 -23  -1 500.066 51.0019   1
  23 -21  -1 558.859 51.1898   1
 -23   2  -1 561.826 40.1380   1
 -21  -2  -1 531.212 39.4014   1
  23  -2   1 547.272 38.6158   1
  23  -2   4 440.013 47.1787   1
   2 -23   4 475.316 50.3296   1
  -2 -21   4 491.601 46.3648   1
  21   2   4 363.865 46.0548   1
  21   2   7 1390.54 94.6621   1
   2 -23   7 1518.33 89.3607   1
  -2 -21   7 1582.32 86.9811   1
  23  -2   7 1453.56 94.3667   1
  23  -2  10 15.4310 38.3173   1
   2 -23  10 116.701 45.5625   1
  22 -23   9 3344.84 156.936   1
  23 -22   9 2836.15 151.153   1
  22 -23   6 3243.98 140.020   1
  23 -22   6 3296.92 138.170   1
  22 -23   3 11778.3 241.006   1
  23 -22   3 12206.1 240.447   1
  22 -23   0 4943.04 148.523   1
  23 -22   0 4903.02 143.816   1
 -23   1   0 4887.69 92.7681   1
 -22  -1   0 4766.89 88.9481   1
  23  -1   3 1841.49 83.5528   1
  22 -23  -3 1716.11 90.6683   1
  23 -22  -3 1675.22 86.0649   1
  -1 -22   3 1762.05 84.4799   1
   1 -23   3 1680.88 84.6406   1
  22   1   3 1778.02 81.4105   1
  23  -1   6 98.7862 35.6077   1
  22   1   6 46.0960 28.8234   1
   1 -23   6 161.293 36.7036   1
  -1 -22   6 109.708 32.1586   1
   1 -23   9-2.50016 34.6579   1
  23  -1   9 2.73241 36.7017   1
  -1 -22   9 11.3202 31.1142   1
  22   1   9 64.6687 43.9021   1
  23 -23  10 1323.29 111.070   1
  23 -23   7 3186.84 144.674   1
  23 -23   4 8369.33 209.510   1
  23 -23   1 2911.86 117.820   1
   0 -23   2 76.2009 28.4712   1
  23 -23  -2 73.3392 30.4587   1
  23   0   2 66.4422 21.7840   1
  23   0   5 4789.91 149.657   1
   0 -23   5 4725.16 144.154   1
  23   0   8 3156.94 145.937   1
   0 -23   8 3291.93 130.910   1
  12 -24   0 1273.02 79.4431   1
 -12 -12   0 1222.05 58.0531   1
  24 -12   0 1300.32 62.4156   1
  24 -12   3 5530.68 144.528   1
  12 -24   3 5635.28 160.820   1
 -12 -12   3 5647.60 95.8554   1
  24 -12  -3 5651.14 111.272   1
  12 -24   6 575.100 61.3460   1
  24 -12   6 619.546 65.2811   1
  12 -24   9 2901.13 140.395   1
  24 -12   9 2686.36 138.591   1
  12 -24  12 641.020 81.4499   1
  13 -24  10 411.331 64.3720   1
  24 -13  10 423.901 66.8249   1
  13 -24   7 271.405 50.7740   1
  24 -13   7 348.964 55.1853   1
 -13 -11   4 139.930 16.1228   1
  24 -11  -4 122.396 20.7966   1
  24 -13   4 95.3463 33.3364   1
  13 -24   4 104.183 33.2174   1
 -13 -11   1 630.637 37.7152   1
  13 -24   1 611.062 55.7679   1
  24 -11  -1 644.030 42.0707   1
  24 -13   1 611.722 46.5959   1
  24 -11   2 1318.42 67.8453   1
 -11 -13   2 1218.45 51.4249   1
  11 -24   2 1319.73 77.9588   1
  24 -13  -2 1297.44 57.7334   1
  24 -13  -5 1334.74 59.1656   1
  24 -11   5 1365.62 83.8960   1
  11 -24   5 1249.66 83.0673   1
 -11 -13   5 1332.32 50.9434   1
  24 -11   8 5462.61 187.374   1
  11 -24   8 5754.66 183.474   1
  24 -11  11 497.364 77.3720   1
  11 -24  11 419.536 68.5922   1
  24 -14  11 579.033 81.0555   1
  14 -24  11 477.129 70.8134   1
  24 -14   8 383.771 59.1594   1
  14 -24   8 354.469 59.3235   1
  24 -10  -5 248.105 23.4771   1
  24 -14   5 206.744 46.0691   1
  14 -24   5 223.388 46.7057   1
 -14 -10   2 11.6836 10.6924   1
  14 -24   2 11.1391 28.4731   1
 -14 -10   2 31.3441 11.9334   1
  24 -14   2-9.91872 25.7575   1
  24 -10  -2 18.5602 14.7817   1
  24 -10   1 2774.18 89.1313   1
  10 -24   1 2704.31 110.285   1
 -14 -10  -1 2640.64 86.1077   1
  24 -14  -1 2680.35 87.3321   1
  24 -14  -4 1375.72 61.3255   1
  24 -10   4 1349.92 76.3350   1
  10 -24   4 1495.85 87.8156   1
 -10 -14   4 1429.14 55.5887   1
  24 -10   7 2153.03 111.875   1
  10 -24   7 2308.54 116.056   1
  24 -10  10 141.763 52.2442   1
  10 -24  10 59.6259 40.0555   1
  24 -15   9 717.274 79.1581   1
  15 -24   9 734.181 78.0839   1
  24 -15   6 203.449 43.5666   1
  15 -24   6 196.635 44.5340   1
  15 -24   3 2953.06 117.300   1
  24  -9  -3 3152.18 69.6147   1
  24 -15   3 2957.60 107.784   1
 -15  -9   0 3322.50 84.7931   1
  24  -9   0 3328.00 90.3535   1
  15 -24   0 3480.37 124.912   1
  24 -15   0 3352.97 103.016   1
  -9 -15   3 433.917 35.8330   1
  24 -15  -3 438.825 37.9860   1
   9 -24   3 413.908 51.0133   1
  24  -9   3 371.699 42.5344   1
  -9 -15   6 203.710 30.1149   1
  24  -9   6 190.964 43.9720   1
   9 -24   6 134.832 38.8320   1
  24  -9   9-2.30666 40.8416   1
   9 -24   9-28.1557 40.1198   1
   9 -24  12 26.3530 44.6205   1
  24 -16  10 134.709 55.6805   1
  16 -24  10 91.9683 43.8479   1
  24 -16   7 395.750 57.3437   1
  16 -24   7 481.883 65.1945   1
  24 -16   4 109.530 37.4204   1
  16 -24   4 165.078 42.3678   1
  24  -8  -4 128.124 14.6899   1
  24  -8  -1 8544.96 129.408   1
  16 -24   1 8264.83 196.817   1
  24 -16   1 8341.99 170.468   1
 -16  -8   1 8230.89 111.131   1
  -8 -16   2 590.045 41.6600   1
  24 -16  -2 577.719 43.5605   1
   8 -24   2 569.595 55.5489   1
  24  -8   2 629.119 48.8016   1
   8 -24   5 22.0520 32.7643   1
  -8 -16   5 38.9630 21.7423   1
   8 -24   8 319.607 51.9131   1
  24  -8   8 327.364 53.9674   1
   8 -24  11 279.658 58.1157   1
  24  -8  11 245.826 60.6809   1
  24 -17  11 825.079 89.8154   1
  17 -24  11 594.237 78.6630   1
  17 -24   8 83.9867 42.5043   1
  24 -17   8 194.394 49.2507   1
  24 -17   5 3.52320 31.5028   1
  17 -24   5 28.3067 34.4382   1
  17 -24   2 8.51307 29.5802   1
  24  -7  -2-8.97052 11.9905   1
  24 -17   2-11.8558 25.6880   1
   7 -24   1 1319.12 77.9043   1
  17 -24  -1 1454.13 82.5322   1
 -24   7  -1 1309.50 60.7844   1
  24 -17  -1 1397.17 69.9921   1
  24  -7   1 1408.12 62.1684   1
 -17  -7  -1 1248.58 56.9279   1
  24 -17  -4 960.209 58.7048   1
   7 -24   4 859.951 67.3242   1
  -7 -17   4 956.475 54.5471   1
  24  -7   4 922.309 66.3902   1
  -7 -17   7 2136.69 85.7530   1
  24  -7   7 2155.88 112.657   1
   7 -24   7 2068.35 107.721   1
   7 -24  10 807.530 80.1801   1
  24  -7  10 699.133 82.5859   1
  18 -24   9 2059.93 123.932   1
  24 -18   9 1942.50 121.508   1
  24 -18   6 5064.73 168.950   1
  18 -24   6 5199.98 174.503   1
  18 -24   3 2419.24 110.451   1
  24 -18   3 2518.34 105.725   1
  18 -24   0 2950.54 115.619   1
 -18  -6   0 2949.78 75.3114   1
  24 -18   0 2917.78 103.559   1
  24  -6   0 3300.25 84.6287   1
 -24   6   0 2896.18 78.7912   1
  24 -18  -3 13.5750 22.7211   1
  -6 -18   3 34.9274 21.5355   1
   6 -24   3 46.3705 31.7686   1
  24  -6   3 7.88229 23.5197   1
  -6 -18   6 107.283 27.0160   1
   6 -24   6 64.6811 35.4102   1
  24  -6   6 90.6277 36.4804   1
   6 -24   9 641.704 68.7402   1
  24  -6   9 595.729 73.4944   1
   6 -24  12 48.6967 45.6126   1
  19 -24  10 1162.20 97.4959   1
  24 -19  10 957.232 99.0375   1
  24 -19   7 3629.65 148.324   1
  19 -24   7 3488.43 148.575   1
  19 -24   4 2041.57 103.753   1
  24 -19   4 2070.26 103.404   1
  19 -24   1 2551.80 109.536   1
  24 -19   1 2430.71 99.5084   1
 -19  -5   1 2128.00 48.5152   1
  24  -5  -1 2614.34 62.8042   1
  -5 -19   2 961.391 60.4286   1
   5 -24   2 861.185 65.8318   1
 -19  -5  -2 833.396 54.2945   1
  24 -19  -2 835.049 57.1714   1
  24  -5   2 953.200 56.3838   1
  -5 -19   5 733.008 52.8716   1
  24  -5   5 699.921 61.8688   1
   5 -24   5 728.907 64.5713   1
  -5 -19   8 2779.25 108.058   1
  24  -5   8 2541.77 129.953   1
   5 -24   8 2456.88 118.728   1
  24  -5  11 675.647 88.9816   1
   5 -24  11 747.711 80.0980   1
  20 -24   8 125.658 44.8549   1
  24 -20   8 270.939 54.6802   1
  24 -20   5 120.373 42.1357   1
  20 -24   5 98.4659 35.9989   1
  20 -24   2 1078.49 77.1861   1
  24 -20   2 1040.62 70.0067   1
   4 -24   1 47.0751 28.9983   1
  24  -4   1 89.9492 22.3257   1
  20 -24  -1 100.304 37.4735   1
 -20  -4  -1 68.1589 21.0734   1
  24 -20  -1 62.4449 25.3832   1
 -24   4  -1 62.9184 20.1836   1
  24 -20  -4 1897.19 87.9559   1
   4 -24   4 1971.52 95.9215   1
  24  -4   4 1945.04 90.9000   1
  -4 -20   4 2075.89 87.5353   1
  24  -4   7 955.870 78.0711   1
   4 -24   7 971.609 75.2945   1
  -4 -20   7 1047.68 67.7520   1
   4 -24  10 208.312 50.4490   1
  24  -4  10 262.846 55.9513   1
  21 -24   9 636.581 77.6304   1
  24 -21   9 440.584 74.2371   1
  21 -24   6-105.584 42.9034   1
  24 -21   6 16.2348 37.2420   1
  21 -24   3 227.773 41.6359   1
  24 -21   3 159.296 40.2967   1
 -24   3   0 4663.38 93.6542   1
  21 -24   0 4839.63 147.981   1
  24 -21   0 4839.08 141.271   1
 -21  -3   0 4755.94 91.0245   1
  24  -3   0 5091.65 98.7534   1
  24 -21  -3 6677.44 166.013   1
  24  -3   3 6609.64 155.548   1
   3 -24   3 6354.79 165.256   1
  -3 -21   3 6479.98 155.339   1
   3 -24   6 8321.02 199.418   1
  24  -3   6 8399.62 207.157   1
  -3 -21   6 8897.99 190.615   1
   3 -24   9 2663.24 128.341   1
  24  -3   9 2343.04 135.083   1
  22 -24  10 152.036 52.9377   1
  24 -22  10 291.575 64.7779   1
  22 -24   7 15.7064 36.8944   1
  24 -22   7 89.9213 44.4439   1
  22 -24   4 76.9377 35.8336   1
  24 -22   4 63.8735 37.6445   1
  22 -24   1 10388.6 222.247   1
  24 -22   1 10138.2 212.728   1
  22 -24  -2 4550.05 146.413   1
  -2 -22   2 4688.10 137.058   1
   2 -24   2 4502.78 141.983   1
  24  -2   2 4445.58 115.821   1
  24 -22  -2 4744.42 144.029   1
   2 -24   5 18490.5 294.300   1
  -2 -22   5 18074.1 273.558   1
  22   2   5 18234.8 291.669   1
  24  -2   5 18416.7 293.645   1
  24  -2   8 2974.25 141.167   1
  22   2   8 3244.72 146.277   1
   2 -24   8 3362.18 135.371   1
  -2 -22   8 3462.81 130.991   1
  23 -24   8 948.693 91.6708   1
  24 -23   8 836.063 85.3505   1
  23 -24   5 2015.00 110.334   1
  24 -23   5 1912.13 105.570   1
  23 -24   2 3873.77 138.374   1
  24 -23   2 3628.08 134.376   1
  23 -24  -1 1427.58 82.2216   1
  24 -23  -1 1393.54 80.7654   1
 -24   1  -1 1530.39 62.3019   1
 -23  -1  -1 1436.96 59.4756   1
  24  -1   1 1419.69 60.4815   1
   1 -24   4 31.7936 27.4255   1
  -1 -23   4 7.40268 29.2468   1
  23   1   4 142.747 37.0561   1
  24  -1   4 72.4657 28.7701   1
  -1 -23   7 215.683 42.1385   1
  23   1   7 121.646 42.1385   1
  24  -1   7 116.588 37.2465   1
   1 -24   7 174.916 41.9649   1
  23   1  10 322.529 59.2461   1
   1 -24  10 467.877 64.0555   1
  24  -1  10 297.780 63.5880   1
  24 -24   9 14.0831 44.3859   1
  24 -24   6 49.6511 43.5485   1
  24 -24   3 3445.16 133.530   1
  24 -24   0 1476.99 84.9241   1
  24 -24  -3 3652.24 132.808   1
   0 -24   3 3580.40 125.115   1
  24   0   3 3727.10 116.338   1
  24   0   6 5395.98 173.511   1
   0 -24   6 5884.94 168.169   1
  24   0   9 217.414 55.4069   1
   0 -24   9 176.113 41.9078   1
  13 -25  11 284.457 61.5420   1
  25 -13  11 124.683 52.7707   1
  13 -25   8 201.722 47.1324   1
  25 -13   8 186.873 50.4479   1
  25 -12  -5 329.331 29.6383   1
  25 -13   5 279.212 45.3763   1
  13 -25   5 313.884 49.4024   1
 -13 -12   2 870.758 41.5596   1
  13 -25   2 899.827 69.9702   1
  25 -12  -2 867.845 46.9153   1
  25 -13   2 905.022 58.8539   1
  12 -25   1 1730.16 92.1930   1
  25 -13  -1 1793.86 70.1459   1
  25 -12   1 1678.49 74.4032   1
  25 -13  -4 2538.25 77.3140   1
  25 -12   4 2448.85 105.048   1
  12 -25   4 2372.58 112.414   1
 -12 -13   4 2483.01 66.4556   1
  25 -12   7 2677.58 126.135   1
  12 -25   7 2811.87 132.558   1
  12 -25  10 1210.93 98.6820   1
  25 -12  10 1071.39 99.3821   1
  25 -14   9 9406.18 255.992   1
  14 -25   9 9356.30 252.455   1
  25 -14   6 6006.10 176.362   1
  14 -25   6 6504.68 189.504   1
  25 -14   3 5116.56 144.001   1
  14 -25   3 5098.99 156.486   1
 -14 -11   3 4743.75 76.6207   1
  25 -11  -3 5320.25 102.236   1
 -14 -11   3 4775.77 79.7215   1
  25 -11   0 229.028 29.8875   1
  11 -25   0 220.508 44.0322   1
  14 -25   0 219.186 41.4504   1
  25 -14   0 216.955 33.8046   1
 -14 -11   0 244.555 28.4726   1
 -11 -14   3 35.3072 16.2879   1
  11 -25   3 50.1189 29.9823   1
  25 -14  -3 101.189 23.9133   1
  25 -11   3 22.2846 25.6583   1
  25 -14  -6 1845.12 74.1850   1
  25 -11   6 1597.45 96.5483   1
  11 -25   6 1813.15 101.843   1
  11 -25   9 619.100 74.2995   1
  25 -11   9 564.490 72.9057   1
  15 -25  10 3501.03 162.789   1
  25 -15  10 3684.86 167.792   1
  25 -15   7 5920.14 186.694   1
  15 -25   7 5878.12 190.047   1
  25 -15   4 9201.03 201.668   1
  15 -25   4 9352.87 217.129   1
  25 -10  -4 9108.79 121.554   1
  15 -25   1 9262.89 210.524   1
 -15 -10   1 9411.41 132.453   1
  25 -15   1 9326.00 179.904   1
  25 -10  -1 9528.98 146.894   1
  25 -10   2 4078.01 117.778   1
  10 -25   2 3945.53 135.223   1
  25 -15  -2 4039.47 109.080   1
 -10 -15   2 3917.64 99.3244   1
  25 -10   5 121.260 37.4784   1
  25 -15  -5 141.910 27.0164   1
  10 -25   5 123.215 39.3571   1
 -10 -15   5 162.699 25.1726   1
  10 -25   8 519.833 62.7687   1
  25 -10   8 568.946 68.5696   1
  25 -10  11-19.9214 42.1333   1
  10 -25  11 115.300 52.4668   1
  16 -25  11 1195.92 102.637   1
  25 -16   8 5983.17 198.253   1
  16 -25   8 5985.24 196.987   1
  25 -16   5 11386.8 239.392   1
  16 -25   5 11904.9 249.725   1
  16 -25   2 31450.3 386.872   1
 -16  -9   2 28677.8 182.247   1
 -16  -9   2 28216.1 189.032   1
  25 -16   2 31328.5 348.930   1
   9 -25   1 49433.1 494.813   1
  16 -25  -1 50592.1 514.594   1
 -16  -9  -1 49118.9 382.744   1
  25 -16  -4 5289.48 125.822   1
   9 -25   4 5239.00 162.042   1
  -9 -16   4 5626.50 121.453   1
  25  -9   4 5347.89 151.056   1
   9 -25   7 3489.60 144.303   1
  25  -9   7 3335.98 140.139   1
  25  -9  10 404.740 67.7188   1
   9 -25  10 422.954 60.8923   1
  17 -25   9 209.614 54.2875   1
  25 -17   9 209.532 57.6096   1
  25 -17   6 1018.37 80.9335   1
  17 -25   6 1170.22 86.9908   1
  17 -25   3 1732.60 96.1386   1
  25 -17   3 1543.15 82.7271   1
  17 -25   0 8103.45 194.438   1
  25  -8   0 7966.19 137.586   1
  25 -17   0 7810.07 163.648   1
 -17  -8   0 7805.58 127.293   1
 -25   8   0 7622.79 137.623   1
  25 -17  -3 724.992 52.1605   1
   8 -25   3 819.313 66.3328   1
  -8 -17   3 804.345 49.9294   1
  25  -8   3 752.371 56.7649   1
  -8 -17   6 266.779 34.5840   1
  25  -8   6 242.492 44.2573   1
   8 -25   6 227.525 48.3333   1
  25  -8   9 530.396 70.0611   1
   8 -25   9 591.204 68.5831   1
   8 -25  12 461.063 70.6616   1
  18 -25  10 182.330 55.5040   1
  25 -18  10 133.529 56.9004   1
  18 -25   7 799.713 76.5695   1
  25 -18   7 685.891 71.4373   1
  18 -25   4 1736.66 98.0295   1
  25 -18   4 1710.03 92.1695   1
 -18  -7   1 645.992 30.5690   1
  18 -25   1 633.562 59.4966   1
  25  -7  -1 692.048 36.3866   1
  25 -18   1 653.807 54.1930   1
  -7 -18   2 2794.44 94.8715   1
   7 -25   2 2717.71 113.757   1
  25 -18  -2 2744.45 96.3717   1
  25  -7   2 2663.37 93.4739   1
  25 -18  -5 636.210 51.5013   1
  -7 -18   5 632.394 45.7431   1
  25  -7   5 621.194 58.5018   1
   7 -25   5 602.476 60.9560   1
  25  -7   8 1826.81 111.764   1
   7 -25   8 1765.20 104.972   1
  25  -7  11 248.225 56.6852   1
   7 -25  11 214.476 56.0452   1
  25 -19   8 2572.14 136.378   1
  19 -25   8 2707.65 137.136   1
  19 -25   5 2038.36 107.809   1
  25 -19   5 2049.30 105.725   1
  19 -25   2 3104.04 125.722   1
  25 -19   2 3202.18 116.927   1
  25  -6  -2 3049.37 58.5457   1
   6 -25   1 397.271 49.1029   1
  19 -25  -1 394.611 49.8267   1
 -25   6  -1 325.062 33.3083   1
  25  -6   1 396.881 35.7264   1
  25 -19  -1 462.199 47.2538   1
 -19  -6  -1 350.612 34.2983   1
  25 -19  -4 797.073 59.0967   1
   6 -25   4 752.658 65.8579   1
  -6 -19   4 776.210 50.9607   1
  25  -6   4 785.939 61.7196   1
  25  -6   7 3943.43 152.952   1
   6 -25   7 3901.33 148.276   1
  -6 -19   7 4153.43 122.595   1
   6 -25  10 2745.58 138.709   1
  25  -6  10 2863.51 151.108   1
  20 -25   9 73.7835 44.5895   1
  25 -20   9 69.3440 43.8580   1
  25 -20   6 1498.80 99.2409   1
  20 -25   6 1473.42 96.1871   1
  20 -25   3 214.327 42.9743   1
  25 -20   3 246.576 43.4066   1
  25  -5   0 3914.97 92.0143   1
 -25   5   0 3588.26 86.2625   1
  20 -25   0 3733.37 132.780   1
  25 -20   0 3640.73 122.713   1
 -20  -5   0 3556.61 79.4592   1
  25  -5   3 6323.87 154.712   1
  25 -20  -3 6014.48 151.372   1
  -5 -20   3 5918.40 143.274   1
   5 -25   3 6145.94 171.312   1
  25  -5   6 14629.4 279.684   1
   5 -25   6 14678.7 274.101   1
  -5 -20   6 15619.3 242.803   1
  25  -5   9 9485.27 258.336   1
   5 -25   9 9922.95 251.700   1
   5 -25  12 3373.39 166.054   1
  21 -25  10 933.538 95.8164   1
  25 -21  10 741.610 87.8038   1
  25 -21   7 4296.32 167.805   1
  21 -25   7 4250.69 168.150   1
  21 -25   4 1086.07 80.3180   1
  25 -21   4 973.196 73.3469   1
  21 -25   1 2675.50 115.251   1
  25 -21   1 2670.93 108.825   1
  25  -4  -1 2661.13 61.3916   1
  21 -25  -2 56.0037 31.3235   1
  -4 -21   2-31.2327 26.3919   1
   4 -25   2 17.8300 30.3156   1
  25  -4   2 105.475 32.2629   1
  25 -21  -2 31.5330 26.8513   1
  25  -4   5-46.7248 33.4183   1
   4 -25   5-37.2793 33.1359   1
  -4 -21   5 13.8201 24.2618   1
   4 -25   8-61.8163 40.0107   1
  25  -4   8 13.8484 37.8036   1
  -4 -21   8-21.6069 28.1281   1
   4 -25  11 57.0262 44.0437   1
  25 -22   8 1972.50 121.266   1
  22 -25   8 2188.50 126.604   1
  22 -25   5 2323.55 118.431   1
  25 -22   5 2282.20 113.841   1
  22 -25   2 1263.88 82.6847   1
  25 -22   2 1107.76 75.5504   1
   3 -25   1 3147.74 124.029   1
  22 -25  -1 3409.52 129.127   1
  25 -22  -1 3121.91 114.205   1
 -25   3  -1 3209.14 93.1529   1
 -22  -3  -1 2881.30 84.4467   1
  25  -3   1 3455.35 94.3000   1
  25 -22  -4 15708.3 264.746   1
   3 -25   4 15204.0 268.293   1
  -3 -22   4 15451.3 247.950   1
  25  -3   4 15445.8 255.131   1
   3 -25   7 7307.60 198.749   1
  -3 -22   7 7144.22 178.310   1
  25  -3   7 7045.35 204.257   1
   3 -25  10 1263.71 96.0535   1
  25  -3  10 1019.84 97.1525   1
  23 -25   9 1051.03 98.2158   1
  25 -23   9 903.344 99.8163   1
  23 -25   6 568.250 66.1477   1
  25 -23   6 511.035 62.4138   1
  23 -25   3 13.1022 32.3884   1
  25 -23   3 62.3028 35.0559   1
  23 -25   0 895.011 69.5293   1
  25 -23   0 813.619 63.4939   1
  25  -2   3 714.479 54.8644   1
   2 -25   3 749.747 62.9002   1
  23 -25  -3 762.477 66.1647   1
  25 -23  -3 809.208 63.9978   1
  -2 -23   3 789.162 58.9929   1
  25  -2   6 5358.84 170.446   1
   2 -25   6 5797.02 171.570   1
  -2 -23   6 5701.48 160.332   1
  25  -2   9 387.000 61.9560   1
  24 -25   7 444.235 68.0192   1
  25 -24   7 507.786 67.3052   1
  24 -25   4 2292.86 114.913   1
  25 -24   4 2540.52 120.955   1
  24 -25   1 3878.07 139.231   1
  25 -24   1 3844.78 138.460   1
  -1 -24   2 3992.34 134.346   1
   1 -25   2 3794.18 133.276   1
  24 -25  -2 3875.93 139.263   1
  25 -24  -2 3940.60 138.168   1
  25  -1   2 3959.52 112.104   1
  24   1   5 2791.80 120.961   1
  25  -1   5 2993.50 121.055   1
   1 -25   5 2943.28 121.449   1
  -1 -24   5 2995.84 118.801   1
   1 -25   8 76.9415 40.1013   1
  -1 -24   8 17.3001 34.5015   1
  25  -1   8 41.5792 34.2700   1
  24   1   8 56.5790 36.9775   1
  25 -25   8 7088.61 233.564   1
  25 -25   5 9547.83 240.771   1
  25 -25   2 44147.2 484.958   1
  25 -25  -1 16296.0 277.542   1
  25 -25  -4 35044.3 430.031   1
   0 -25   4 35188.1 409.464   1
  25   0   4 34722.6 390.887   1
   0 -25   7 7625.23 201.429   1
  25   0   7 7350.66 212.408   1
  25   0  10 3809.86 173.336   1
  26 -13   0 271.847 34.8422   1
  13 -26   0 218.723 40.4081   1
 -13 -13   0 190.454 27.4257   1
  26 -13   3 2666.44 106.243   1
  13 -26   3 2693.38 117.260   1
 -13 -13   3 2683.51 68.6067   1
  26 -13  -3 2725.31 81.5438   1
  13 -26   6 188.129 45.8713   1
  26 -13   6 207.540 45.4106   1
  13 -26   9 499.419 64.7369   1
  26 -13   9 546.947 73.4515   1
  14 -26  10 319.180 62.1896   1
  26 -14  10 447.593 70.2994   1
  14 -26   7 384.361 56.8442   1
  26 -14   7 389.688 58.2968   1
  26 -14   4 66.0731 31.7585   1
  26 -12  -4 69.4063 18.6783   1
  14 -26   4 51.3269 35.4236   1
  26 -12  -1 94.9038 23.0568   1
  26 -14   1 100.789 29.0666   1
  14 -26   1 121.790 38.2098   1
 -14 -12   1 120.097 22.8012   1
 -12 -14   2 5473.52 111.174   1
  26 -12   2 5466.45 140.046   1
  12 -26   2 5306.69 161.141   1
  26 -14  -2 5325.49 119.550   1
  26 -14  -5 879.705 48.4842   1
  12 -26   5 872.080 72.0001   1
  26 -12   5 773.519 66.5771   1
  26 -12   8 1788.04 113.623   1
  12 -26   8 1817.56 113.706   1
  12 -26  11 444.454 69.9587   1
  15 -26  11 1101.06 101.215   1
  26 -15   8 1671.32 108.412   1
  15 -26   8 1679.32 111.431   1
  26 -15   5 536.022 60.8915   1
  15 -26   5 591.740 65.2767   1
  26 -11  -2 145.566 24.5747   1
  26 -15   2 156.189 34.6138   1
 -15 -11   2 141.868 18.9559   1
  15 -26   2 82.5036 30.8444   1
 -15 -11   2 143.060 19.0230   1
 -15 -11  -1 246.284 30.7737   1
  26 -11   1 352.031 39.7957   1
  11 -26   1 311.682 44.7390   1
  26 -15  -1 373.543 37.9198   1
  26 -15  -4 576.715 42.6084   1
 -11 -15   4 517.833 36.9818   1
  11 -26   4 622.808 62.7916   1
  26 -11   4 546.195 55.7557   1
  26 -11   7 356.299 58.8718   1
  11 -26   7 298.600 52.2418   1
  11 -26  10 274.848 54.7689   1
  26 -11  10 274.897 63.7351   1
  26 -16   9 27.3126 45.3347   1
  16 -26   9 67.0260 44.6820   1
  26 -16   6 1925.00 108.536   1
  16 -26   6 1958.40 110.359   1
  26 -16   3 399.591 53.2501   1
  16 -26   3 366.071 51.3852   1
  26 -10  -3 365.084 27.9813   1
  26 -10   0 3900.61 101.927   1
  16 -26   0 3824.17 137.135   1
  26 -16   0 3941.90 116.373   1
 -16 -10   0 3592.56 92.0496   1
 -10 -16   3 2071.88 74.7211   1
  10 -26   3 2036.47 100.670   1
  26 -16  -3 2136.07 81.0669   1
  26 -10   3 2064.44 91.4899   1
  26 -16  -6 1799.49 78.3898   1
  10 -26   6 1862.05 106.956   1
  26 -10   6 1612.36 96.7285   1
  26 -10   9 2250.48 129.668   1
  10 -26   9 2200.56 122.527   1
  26 -17  10 262.769 63.6273   1
  17 -26  10 332.201 66.7122   1
  26 -17   7 1553.46 99.5539   1
  17 -26   7 1744.28 108.386   1
  26 -17   4 2.15523 31.4073   1
  17 -26   4 27.2142 35.6027   1
  26  -9  -1 960.951 46.9907   1
  17 -26   1 1013.53 76.0602   1
 -17  -9   1 989.650 40.8806   1
  26 -17   1 1066.08 66.5385   1
  -9 -17   2 1359.59 64.6701   1
   9 -26   2 1459.55 87.6191   1
  26 -17  -2 1509.86 73.1291   1
  26  -9   2 1414.88 71.7144   1
  26 -17  -5 998.826 60.1860   1
   9 -26   5 966.993 76.7524   1
  -9 -17   5 1017.30 54.0356   1
  26  -9   5 881.930 69.7551   1
   9 -26   8 23.3060 36.2391   1
  26  -9   8-20.3222 41.0164   1
   9 -26  11 201.826 54.7347   1
  18 -26   8 180.672 53.1129   1
  26 -18   8 88.7090 39.7938   1
  26 -18   5 1034.19 80.7607   1
  18 -26   5 948.500 78.7016   1
  26  -8  -2 493.219 29.3376   1
  18 -26   2 485.087 57.2880   1
  26 -18   2 478.466 51.8900   1
  18 -26  -1 2362.70 108.578   1
  26 -18  -1 2323.71 91.8058   1
 -18  -8  -1 1985.31 74.1880   1
  26  -8   1 2338.45 81.7146   1
   8 -26   1 2393.16 111.480   1
  26 -18  -4 3.59996 21.1868   1
  26  -8   4-10.0329 29.8078   1
   8 -26   4 120.687 37.3269   1
  -8 -18   4 35.6499 24.0953   1
  26  -8   7 1365.29 95.3708   1
   8 -26   7 1370.78 92.2662   1
   8 -26  10 1219.26 96.1001   1
  26  -8  10 1202.80 102.497   1
  19 -26   9 111.996 46.9469   1
  26 -19   9 82.9529 45.8617   1
  26 -19   6 1640.29 101.618   1
  19 -26   6 1694.40 104.933   1
  19 -26   3 1326.21 85.9667   1
  26 -19   3 1169.51 75.4942   1
 -26   7   0 2892.67 82.3583   1
  19 -26   0 3193.18 126.858   1
 -19  -7   0 2917.74 78.3078   1
  26 -19   0 2987.37 109.087   1
  26  -7   0 3154.34 86.0479   1
  26 -19  -3 770.676 55.6014   1
  -7 -19   3 857.703 54.3308   1
   7 -26   3 840.413 70.4190   1
  26  -7   3 803.176 59.0335   1
  26  -7   6 1513.95 93.9346   1
   7 -26   6 1549.45 95.2229   1
  -7 -19   6 1516.36 74.5861   1
   7 -26   9-25.0625 40.1636   1
  26  -7   9 112.415 45.2831   1
   7 -26  12 42.0413 43.4423   1
  20 -26  10 2.48463 43.0264   1
  26 -20  10-46.1883 45.7501   1
  20 -26   7 77.1484 40.6142   1
  26 -20   7 33.1649 40.0600   1
  26 -20   4 664.207 63.7774   1
  20 -26   4 582.710 61.3724   1
  20 -26   1 0.88301 31.9654   1
  26  -6  -1 29.2502 16.5657   1
  26 -20   1-26.2246 30.1046   1
  20 -26  -2 4176.92 146.683   1
  -6 -20   2 4380.99 126.364   1
   6 -26   2 4178.08 144.265   1
  26 -20  -2 4270.05 128.279   1
  26  -6   2 4372.00 119.911   1
  26 -20  -5 4048.70 130.153   1
  26  -6   5 3675.26 133.418   1
   6 -26   5 3632.03 138.202   1
  -6 -20   5 3620.20 113.999   1
  26  -6   8 3401.30 154.489   1
   6 -26   8 3534.31 146.501   1
  21 -26   8 750.492 82.7608   1
  26 -21   8 661.491 79.3831   1
  26 -21   5 439.610 60.3465   1
  21 -26   5 470.885 61.5245   1
  21 -26   2 2437.14 114.005   1
  26 -21   2 2475.76 108.561   1
   5 -26   1 4187.44 144.636   1
  21 -26  -1 3881.77 140.878   1
  26  -5   1 4208.35 107.673   1
  26 -21  -1 4065.97 130.499   1
  26 -21  -4 2648.98 107.353   1
  26  -5   4 3070.21 122.888   1
   5 -26   4 2478.80 113.216   1
  -5 -21   4 2655.16 99.5092   1
  26  -5   7 2824.66 132.826   1
   5 -26   7 2888.32 131.149   1
  -5 -21   7 3298.96 118.291   1
   5 -26  10 663.070 72.8845   1
  26  -5  10 623.357 78.8708   1
  22 -26   9 544.220 72.2587   1
  26 -22   9 433.278 74.9847   1
  22 -26   6 621.830 67.5922   1
  26 -22   6 664.880 73.3776   1
  22 -26   3 845.224 73.8476   1
  26 -22   3 913.681 73.9637   1
  26  -4   0 70.3080 18.8311   1
  22 -26   0 3.81136 30.6481   1
  26 -22   0 61.3816 35.3415   1
  -4 -22   3 967.137 63.2107   1
   4 -26   3 841.765 65.5860   1
  26 -22  -3 968.236 69.0401   1
  26  -4   3 993.298 64.8869   1
  26  -4   6 276.746 47.8340   1
   4 -26   6 270.653 49.2871   1
  -4 -22   6 275.652 39.5438   1
   4 -26   9 722.457 73.4214   1
  26  -4   9 693.110 76.4783   1
  23 -26   7 795.677 83.6928   1
  26 -23   7 839.548 82.7697   1
  23 -26   4 1930.82 106.385   1
  26 -23   4 1846.77 103.400   1
  23 -26   1 6135.23 180.690   1
  26 -23   1 6359.19 173.118   1
  -3 -23   2 3933.21 130.206   1
   3 -26   2 3868.33 137.847   1
  26 -23  -2 3721.18 130.060   1
  23 -26  -2 3964.50 142.520   1
  26  -3   2 3912.27 113.489   1
   3 -26   5 7342.12 193.917   1
  -3 -23   5 7377.29 176.971   1
  26  -3   5 7289.44 191.340   1
  26  -3   8 2028.20 121.815   1
   3 -26   8 2343.78 119.053   1
  24 -26   8 267.535 69.7598   1
  26 -24   8 230.333 63.5352   1
  26 -24   5 314.035 49.0674   1
  24 -26   5 250.533 51.0335   1
  24 -26   2 3156.07 130.984   1
  26 -24   2 2892.24 120.581   1
  26  -2   1-2.36033 17.8894   1
   2 -26   1-5.76970 30.9823   1
  24 -26  -1-35.4493 34.8839   1
  26 -24  -1-10.2867 31.8303   1
  26 -24  -4 653.038 63.1808   1
   2 -26   4 575.995 58.7122   1
  -2 -24   4 595.046 54.4064   1
  26  -2   4 622.655 56.8620   1
  26  -2   7 80.4565 40.2344   1
  -2 -24   7 83.7214 36.0462   1
   2 -26   7 75.6045 37.0384   1
  26  -2  10 88.0383 46.3206   1
  25 -26   9 218.041 61.0843   1
  26 -25   9 210.252 64.6083   1
  25 -26   6 691.880 75.9656   1
  26 -25   6 727.323 76.4374   1
  25 -26   3 1550.58 97.9201   1
  26 -25   3 1652.75 98.0806   1
  25 -26   0 4637.08 153.774   1
  26 -25   0 4811.95 154.430   1
  25 -26  -3 7433.00 200.517   1
  -1 -25   3 7293.10 182.443   1
   1 -26   3 7472.61 190.511   1
  26 -25  -3 7633.83 194.104   1
  26  -1   3 7798.12 172.794   1
  25   1   6 2264.77 112.486   1
  26  -1   6 2411.98 118.394   1
   1 -26   6 2276.55 112.060   1
  -1 -25   6 2281.03 108.116   1
  26  -1   9 436.922 68.5818   1
   1 -26   9 581.789 67.7057   1
  26 -26   7 1100.83 95.1993   1
  26 -26   4 2067.22 113.398   1
  26 -26   1 7611.47 206.016   1
   0 -26   2 3692.46 136.798   1
  26 -26  -2 3799.98 140.693   1
   0 -26   5 2781.09 121.659   1
  26   0   5 2514.92 117.315   1
   0 -26   8 328.374 54.2856   1
  26   0   8 305.126 59.1892   1
  14 -27   8 205.331 51.5048   1
  27 -14   8 76.1139 43.2067   1
  14 -27   5 0.36981 33.6576   1
  27 -14   5 26.7573 30.9329   1
 -14 -13   2 4770.98 96.5104   1
  14 -27   2 4813.68 154.740   1
  27 -13  -2 5136.56 115.650   1
  27 -14   2 5068.92 139.933   1
  13 -27   1 2885.29 122.101   1
  27 -14  -1 2859.10 93.0666   1
 -13 -14   1 2871.60 87.8279   1
  27 -13   1 2909.08 100.345   1
  27 -14  -4 441.309 37.2342   1
 -13 -14   4 417.692 30.5319   1
  13 -27   4 425.628 55.0993   1
  27 -13   4 496.993 54.0052   1
  27 -13   7 81.0460 37.7712   1
  13 -27   7 1.57570 39.3076   1
  13 -27  10 53.8847 43.4002   1
  27 -13  10 53.5854 41.0446   1
  15 -27   9 192.767 51.9883   1
  27 -15   9 222.008 55.3864   1
  27 -15   6 547.982 60.7460   1
  15 -27   6 571.801 67.3371   1
  27 -15   3 337.271 44.6841   1
 -15 -12   3 287.308 21.5639   1
  15 -27   3 325.947 50.0527   1
  27 -12  -3 359.385 31.2134   1
  12 -27   0 165.618 41.3924   1
  15 -27   0 201.725 42.9027   1
  27 -12   0 178.314 28.1257   1
 -15 -12   0 132.676 25.5593   1
  27 -15   0 106.716 27.9089   1
 -12 -15   3 4.25511 16.1451   1
  12 -27   3 41.0667 33.4637   1
  27 -15  -3 20.5325 19.5089   1
  27 -12   3-11.4608 27.9869   1
  27 -12   6 852.567 73.5081   1
  12 -27   6 907.810 77.9009   1
  12 -27   9 323.737 57.4829   1
  27 -12   9 267.949 56.3334   1
  27 -16  10 122.021 52.5263   1
  16 -27  10 174.191 51.3846   1
  27 -16   7 1323.34 94.5775   1
  16 -27   7 1471.24 101.851   1
  27 -16   4 54.9852 33.0795   1
  16 -27   4 73.8636 38.9121   1
  27 -16   1 175.703 34.5190   1
  27 -11  -1 203.136 29.5969   1
  16 -27   1 233.452 49.4337   1
 -11 -16   2 2042.34 75.2029   1
  11 -27   2 2054.29 105.317   1
  27 -11   2 1944.68 86.1576   1
  27 -16  -2 2009.52 80.9495   1
  27 -16  -5 3825.30 108.623   1
  11 -27   5 3510.96 139.568   1
  27 -11   5 3535.69 134.967   1
  11 -27   8 5167.92 187.772   1
  27 -11   8 4930.28 184.908   1
  11 -27  11 3745.74 174.280   1
  27 -17   8 2737.41 139.836   1
  17 -27   8 2782.84 138.645   1
  27 -17   5 839.897 72.8006   1
  17 -27   5 873.031 78.8344   1
 -17 -10   2 2634.61 56.0988   1
  17 -27   2 2859.42 121.667   1
  27 -17   2 3019.10 112.665   1
  27 -10  -2 3089.73 77.8930   1
  10 -27   1 82.2995 33.5235   1
  17 -27  -1 142.229 42.5145   1
  27 -10   1 90.8272 27.6975   1
  27 -17  -1 78.0505 26.0419   1
  27 -10   4 183.230 39.8837   1
  27 -17  -4 246.471 33.7079   1
  10 -27   4 185.529 45.0674   1
 -10 -17   4 241.765 30.5311   1
  27 -10   7 218.347 46.9515   1
  10 -27   7 316.447 54.3336   1
  27 -10  10 498.792 74.4952   1
  10 -27  10 668.840 77.5612   1
  27 -18   9 161.889 51.9207   1
  18 -27   9 169.180 48.9943   1
  27 -18   6 96.7217 40.4772   1
  18 -27   6 25.3752 36.1607   1
  27 -18   3 384.287 50.8281   1
  18 -27   3 293.035 47.8040   1
  18 -27   0 183.744 44.1739   1
  27 -18   0 223.491 37.7269   1
  27  -9   0 231.905 30.1015   1
  -9 -18   3 70.9533 22.0634   1
   9 -27   3 56.0454 31.6140   1
  27 -18  -3 164.736 29.5409   1
  27  -9   3 98.2061 29.0980   1
  27 -18  -6 368.229 42.8025   1
  27  -9   6 297.307 49.8251   1
   9 -27   6 330.412 52.5954   1
  27  -9   9 449.539 67.0120   1
   9 -27   9 284.081 57.2559   1
  27 -19  10 356.738 70.1789   1
  19 -27  10 267.500 62.1120   1
  19 -27   7 26.8999 39.6888   1
  27 -19   7-65.9439 41.1799   1
  27 -19   4 255.267 48.1661   1
  19 -27   4 272.309 50.2311   1
  19 -27   1 2891.62 121.869   1
  27  -8  -1 3011.46 76.9672   1
  27 -19   1 3007.35 112.187   1
  -8 -19   2 13379.4 212.110   1
   8 -27   2 13476.9 263.496   1
  27 -19  -2 13092.3 219.688   1
  27  -8   2 13188.9 214.726   1
  27 -19  -5 9346.95 189.106   1
   8 -27   5 8900.55 223.772   1
  -8 -19   5 9225.69 170.882   1
  27  -8   5 9204.70 214.513   1
  27  -8   8 8608.82 236.907   1
   8 -27   8 8949.78 236.696   1
   8 -27  11 1192.35 102.944   1
  27 -20   8 1133.81 98.3415   1
  20 -27   8 1239.50 98.5593   1
  20 -27   5 1557.42 101.709   1
  27 -20   5 1592.57 98.8112   1
  20 -27   2 596.580 62.1987   1
  27 -20   2 566.159 60.6363   1
   7 -27   1 197.304 43.1218   1
  20 -27  -1 155.080 39.5124   1
  27  -7   1 189.936 28.7133   1
  27 -20  -1 169.695 35.4111   1
  27 -20  -4 42.6222 24.3793   1
   7 -27   4-3.66405 34.9168   1
  -7 -20   4 19.7603 20.9080   1
  27  -7   4 48.1290 29.0494   1
  27  -7   7 205.425 51.1346   1
   7 -27   7 161.966 46.9828   1
  27  -7  10 44.7600 40.1267   1
   7 -27  10 62.9066 41.6673   1
  21 -27   9 22.1104 42.9009   1
  27 -21   9 33.9626 40.6712   1
  27 -21   6 1597.07 100.663   1
  21 -27   6 1617.35 105.999   1
  21 -27   3 1755.74 102.249   1
  27 -21   3 1716.86 95.1014   1
  27  -6   0 10169.6 154.634   1
  21 -27   0 9957.39 227.189   1
  27 -21   0 9890.74 207.110   1
  27  -6   3 3440.53 117.136   1
  27 -21  -3 3217.56 116.234   1
  -6 -21   3 3238.87 109.796   1
   6 -27   3 3340.60 136.720   1
  27  -6   6 1442.84 93.1240   1
   6 -27   6 1325.70 90.9309   1
  -6 -21   6 1479.13 76.8077   1
  27  -6   9 159.261 49.9780   1
   6 -27   9 118.491 41.2621   1
  22 -27   7 879.264 85.6907   1
  27 -22   7 744.593 77.3367   1
  22 -27   4 8219.40 218.402   1
  27 -22   4 8000.58 208.563   1
  22 -27   1 13628.3 268.057   1
  27 -22   1 13044.9 247.016   1
  22 -27  -2 2236.12 112.102   1
  -5 -22   2 2182.24 96.5844   1
   5 -27   2 2117.41 104.693   1
  27 -22  -2 2136.82 97.5590   1
  27  -5   2 2244.69 88.4622   1
  27  -5   5 5819.80 172.298   1
   5 -27   5 5740.18 176.294   1
  -5 -22   5 5545.02 148.905   1
  27 -22  -5 5820.94 164.085   1
   5 -27   8 957.693 81.2828   1
  27  -5   8 923.937 84.2111   1
   5 -27  11 226.683 56.2470   1
  23 -27   8 157.676 56.0682   1
  27 -23   8 138.610 56.1404   1
  27 -23   5 69.7880 36.2544   1
  23 -27   5 39.3505 39.8800   1
  23 -27   2 2627.69 122.302   1
  27 -23   2 2401.69 111.627   1
  27  -4   1 134.590 25.7533   1
  23 -27  -1 70.2497 30.6432   1
  27 -23  -1 125.856 34.8412   1
   4 -27   1 64.8158 32.0551   1
  27  -4   4 287.170 45.3073   1
  27 -23  -4 267.806 43.0134   1
   4 -27   4 300.643 48.5298   1
  -4 -23   4 272.236 38.7948   1
  -4 -23   7 198.045 41.6725   1
  27  -4   7 136.555 39.5798   1
   4 -27   7 219.202 47.4836   1
  27  -4  10 107.277 52.1264   1
   4 -27  10-48.2906 39.5409   1
  24 -27   9 2182.48 139.916   1
  27 -24   9 1941.44 139.968   1
  24 -27   6 2795.90 136.712   1
  27 -24   6 2490.75 137.260   1
  24 -27   3 5896.67 184.047   1
  27 -24   3 5516.38 174.725   1
  24 -27   0 1730.43 99.1526   1
  27 -24   0 1594.32 91.1910   1
  24 -27  -3 1947.43 107.479   1
  27 -24  -3 1891.72 97.7084   1
  -3 -24   3 1939.73 93.0009   1
   3 -27   3 1805.20 98.1558   1
  27  -3   3 1912.08 87.6796   1
   3 -27   6-17.5290 33.1214   1
  -3 -24   6 17.8496 29.6736   1
  27  -3   9 43.5639 42.8186   1
   3 -27   9 22.0262 34.3029   1
  25 -27   7 24.0187 44.4659   1
  27 -25   7 52.5395 46.9399   1
  25 -27   4 379.120 62.4238   1
  27 -25   4 428.524 60.5032   1
  25 -27   1 82.2325 36.0917   1
  27 -25   1 44.8210 34.1284   1
  -2 -25   2 81.7522 29.0419   1
   2 -27   2 43.5847 33.8672   1
  25 -27  -2 41.6113 30.2398   1
  27 -25  -2 121.874 35.4560   1
  27  -2   2 103.697 26.0707   1
  27  -2   5 708.523 63.0280   1
  27 -25  -5 621.952 64.1012   1
   2 -27   5 653.547 66.7808   1
  -2 -25   5 656.210 59.7547   1
  27  -2   8 1522.42 106.814   1
   2 -27   8 1684.25 103.925   1
  26 -27   8 29.5755 45.5846   1
  27 -26   8-9.15364 43.0811   1
  27 -26   5 85.6687 41.6009   1
  26 -27   5 31.0552 38.8729   1
  26 -27   2 3.27926 33.6811   1
  27 -26   2-16.7729 32.3914   1
   1 -27   1 35.9401 31.1746   1
  -1 -26   1 34.5572 28.5169   1
  26 -27  -1 44.5905 34.8814   1
  27 -26  -1 1.02244 32.4346   1
  27  -1   4 115.700 32.6623   1
  26 -27  -4 164.142 42.3370   1
  27 -26  -4 171.599 43.5914   1
   1 -27   4 168.958 44.6294   1
  -1 -26   4 132.789 34.5868   1
  27  -1   7-19.8853 36.0724   1
   1 -27   7 78.0330 39.3663   1
  -1 -26   7 45.0998 37.6560   1
  27  -1  10-77.3304 50.7604   1
  27 -27   6 2969.70 147.684   1
  27 -27   3 4549.68 164.378   1
  27 -27   0 412.302 53.9518   1
  27 -27  -3 1031.26 78.6300   1
   0 -27   3 929.419 72.2326   1
  27   0   6 293.665 50.1463   1
   0 -27   6 341.888 53.0761   1
  14 -28   0 2914.49 126.703   1
  28 -14   0 2967.11 98.3431   1
 -14 -14   3 399.297 29.9912   1
  14 -28   3 385.204 56.9871   1
  28 -14   3 480.793 52.3798   1
  28 -14  -3 427.683 36.9920   1
  14 -28   6 323.506 53.9910   1
  28 -14   6 292.526 49.0963   1
  14 -28   9 123.939 50.1557   1
  28 -14   9 92.9869 45.9354   1
  15 -28  10 123.884 52.6378   1
  28 -15  10 120.296 50.9085   1
  28 -15   7 198.846 48.1121   1
  15 -28   7 224.074 54.1410   1
  28 -15   4 1094.64 78.2588   1
  15 -28   4 1084.18 82.6159   1
  28 -13  -4 1109.27 50.3033   1
  28 -13  -1 319.592 34.9192   1
  28 -15   1 338.319 41.9513   1
  15 -28   1 246.239 45.5469   1
 -13 -15   2 192.007 26.4779   1
  13 -28   2 199.908 43.2483   1
  28 -13   2 197.629 36.2003   1
  28 -15  -2 254.144 32.6344   1
  13 -28   5 337.779 53.6861   1
  28 -13   5 335.963 52.1314   1
  13 -28   8 192.045 51.5221   1
  28 -13   8 230.404 53.5666   1
  28 -16   8 4773.93 182.636   1
  16 -28   8 4946.70 186.881   1
  28 -16   5 4302.12 152.998   1
  16 -28   5 4174.28 156.145   1
 -16 -12   2 6651.85 104.489   1
  16 -28   2 7064.52 195.689   1
  28 -12  -2 7139.58 130.495   1
  28 -16   2 6943.66 170.047   1
  16 -28  -1 6491.67 190.271   1
  28 -12   1 6646.59 151.087   1
  12 -28   1 6393.21 187.776   1
  28 -16  -1 6617.82 148.754   1
  28 -16  -4 384.673 37.7834   1
  12 -28   4 400.191 54.5562   1
  28 -12   4 296.273 45.8807   1
  28 -12   7 136.669 44.0376   1
  12 -28   7 91.3649 42.0480   1
  12 -28  10 233.213 55.3450   1
  28 -12  10 270.590 60.5747   1
  28 -17   9 4952.38 195.054   1
  17 -28   9 4881.47 193.316   1
  28 -17   6 10778.3 250.366   1
  17 -28   6 10879.8 263.360   1
  17 -28   3 16135.6 302.394   1
  28 -11  -3 16876.8 179.995   1
  28 -17   3 15876.1 268.039   1
  11 -28   0 8385.86 213.971   1
  17 -28   0 8009.64 210.159   1
  28 -11   0 8443.33 157.062   1
  28 -17   0 8385.07 176.205   1
 -11 -17   3 242.727 30.4062   1
  11 -28   3 248.125 47.8356   1
  28 -17  -3 244.494 34.7115   1
  28 -11   3 228.707 38.8230   1
  28 -11   6-12.2479 35.0382   1
  11 -28   6 7.18105 34.3418   1
  11 -28   9 449.237 65.3522   1
  28 -11   9 572.551 75.5513   1
  18 -28  10 669.047 82.8406   1
  28 -18   7 2712.39 132.892   1
  18 -28   7 2704.93 136.383   1
  28 -18   4 2496.52 116.177   1
  18 -28   4 2429.12 120.466   1
  28 -10  -1 4184.94 99.9435   1
  18 -28   1 4086.48 149.281   1
  28 -18   1 4112.99 130.712   1
 -10 -18   2 1039.05 59.0382   1
  10 -28   2 982.684 77.3900   1
  28 -18  -2 1169.58 66.1539   1
  28 -10   2 1000.97 63.0899   1
  28 -18  -5 542.395 49.4333   1
  28 -10   5 499.234 59.0102   1
  10 -28   5 469.088 59.3153   1
  10 -28   8 33.9292 40.5850   1
  28 -10   8 24.0802 37.7718   1
  19 -28   8 630.895 75.9950   1
  28 -19   8 582.931 73.9336   1
  28 -19   5 258.632 52.3076   1
  19 -28   5 172.542 47.5254   1
  28 -19   2 400.967 48.1613   1
  19 -28   2 450.609 56.9675   1
  19 -28  -1 10693.5 243.889   1
   9 -28   1 10875.8 242.444   1
  28 -19  -1 11002.4 205.050   1
  28  -9   1 10891.2 185.731   1
  28 -19  -4 5208.53 138.826   1
   9 -28   4 5008.39 166.418   1
  -9 -19   4 5074.45 126.151   1
  28  -9   4 4929.72 151.308   1
  28  -9   7 6413.32 199.396   1
   9 -28   7 6802.23 205.711   1
   9 -28  10 3060.80 155.310   1
  28  -9  10 3332.41 166.449   1
  20 -28   9 696.548 87.0234   1
  28 -20   9 715.353 83.2934   1
  28 -20   6-45.2485 38.0033   1
  20 -28   6 30.9363 37.3272   1
  20 -28   3 1391.10 94.8619   1
  28 -20   3 1442.52 87.0543   1
  20 -28   0 8705.04 220.786   1
  28 -20   0 8472.23 186.959   1
  28  -8   0 8696.38 150.374   1
  -8 -20   3 9226.95 178.085   1
   8 -28   3 9111.76 221.382   1
  28 -20  -3 9061.70 185.383   1
  28  -8   3 8870.58 189.405   1
  28  -8   6 6257.91 187.694   1
  28 -20  -6 6622.56 165.606   1
   8 -28   6 6366.81 194.964   1
  28  -8   9 3792.30 170.810   1
   8 -28   9 3486.91 158.307   1
  21 -28   7 72.3037 44.6645   1
  28 -21   7 91.6121 47.9356   1
  28 -21   4 95.5524 39.8635   1
  21 -28   4 126.747 45.7785   1
  21 -28   1 1195.27 84.8225   1
  28 -21   1 1164.52 76.1351   1
  21 -28  -2-27.4400 32.5796   1
  -7 -21   2-6.41960 22.8470   1
   7 -28   2 10.4528 31.3431   1
  28 -21  -2 3.28893 27.9289   1
  28  -7   2 3.21219 21.1004   1
  28 -21  -5 1555.95 81.9562   1
  28  -7   5 1531.13 90.5053   1
   7 -28   5 1468.39 96.2768   1
  -7 -21   5 1490.99 75.6835   1
  28  -7   8 898.818 87.1302   1
   7 -28   8 1139.73 91.6597   1
   7 -28  11 395.288 68.0092   1
  22 -28   8 116.263 46.2974   1
  28 -22   8 67.5645 42.3728   1
  28 -22   5 109.149 43.2200   1
  22 -28   5 163.490 48.5778   1
  22 -28   2 59.1316 33.3282   1
  28 -22   2 68.1235 35.5889   1
   6 -28   1 1325.53 87.5376   1
  22 -28  -1 1327.61 90.2469   1
  28  -6   1 1364.56 65.2391   1
  28 -22  -1 1343.19 81.4777   1
  28 -22  -4 1066.16 72.7847   1
  28  -6   4 1013.45 71.4718   1
   6 -28   4 1072.76 82.2030   1
  -6 -22   4 1052.26 66.5048   1
  28  -6   7-1.01930 36.1445   1
   6 -28   7-21.5290 39.6338   1
   6 -28  10 149.572 47.8676   1
  28  -6  10 304.672 67.4033   1
  23 -28   9 368.425 69.0466   1
  28 -23   9 102.213 49.9241   1
  23 -28   6 1100.71 92.5527   1
  28 -23   6 1005.41 89.5204   1
  23 -28   3 1093.58 85.4263   1
  28 -23   3 1009.58 77.7139   1
  23 -28   0 1459.68 94.5522   1
  28 -23   0 1387.70 83.3249   1
  23 -28  -3 1168.86 85.8744   1
  28 -23  -3 1126.63 73.5935   1
  -5 -23   3 1200.28 72.3792   1
   5 -28   3 1060.44 78.9743   1
  28  -5   3 1136.42 69.3358   1
  28  -5   6 312.437 49.2165   1
  28 -23  -6 411.766 53.2627   1
   5 -28   6 293.951 50.7753   1
  -5 -23   6 262.718 40.9952   1
   5 -28   9-13.3139 38.8149   1
  28  -5   9 27.4478 39.7837   1
  28 -24   7 3109.15 155.596   1
  24 -28   7 3067.21 156.186   1
  24 -28   4 5231.53 183.162   1
  28 -24   4 5177.71 172.140   1
  24 -28   1 294.560 48.9584   1
  28 -24   1 382.205 53.0049   1
  -4 -24   2 374.049 46.0152   1
  24 -28  -2 412.346 56.3211   1
   4 -28   2 402.468 53.1405   1
  28  -4   2 443.625 42.4653   1
  28 -24  -2 497.013 54.7082   1
  28 -24  -5 87.4728 36.5923   1
  28  -4   5 61.4951 32.3393   1
   4 -28   5 8.41744 32.6293   1
  -4 -24   5 12.3848 28.5182   1
   4 -28   8 203.912 49.5436   1
  28  -4   8 224.580 52.7662   1
  28 -25   8 1923.68 145.341   1
  25 -28   8 2375.24 148.968   1
  25 -28   5 6896.87 214.630   1
  28 -25   5 6719.77 206.290   1
  25 -28   2 4727.74 168.479   1
  28 -25   2 4893.68 162.608   1
   3 -28   1 1270.46 88.5394   1
  25 -28  -1 1279.67 91.1512   1
  28 -25  -1 1173.03 79.4145   1
  25 -28  -4 325.853 55.3792   1
  28 -25  -4 306.113 47.9755   1
   3 -28   4 283.963 51.0068   1
  -3 -25   4 283.031 42.9580   1
  28  -3   4 327.074 45.6676   1
   3 -28   7 104.734 44.1020   1
  28  -3   7 137.642 41.5424   1
  26 -28   6 2652.18 138.314   1
  28 -26   6 2617.16 137.225   1
  26 -28   3 4405.47 163.938   1
  28 -26   3 4148.67 159.897   1
  26 -28   0 1539.80 97.7124   1
  28 -26   0 1609.40 93.9059   1
  26 -28  -3 2221.88 116.020   1
  28 -26  -3 2309.10 111.472   1
  -2 -26   3 2381.56 107.729   1
   2 -28   3 2249.03 109.371   1
  28  -2   3 2319.65 96.3284   1
  28  -2   6 559.127 60.0950   1
   2 -28   6 591.448 65.3933   1
  -2 -26   6 652.845 64.8996   1
  28  -2   9 257.924 59.7385   1
  27 -28   7 60.5061 49.8099   1
  28 -27   7 72.9649 42.7377   1
  27 -28   4 43.4448 40.5161   1
  28 -27   4 70.3042 39.5139   1
  27 -28   1 3510.55 145.472   1
  28 -27   1 3494.54 140.798   1
  -1 -27   2 4894.94 161.222   1
   1 -28   2 4843.26 161.673   1
  27 -28  -2 5043.34 170.301   1
  28 -27  -2 5001.65 163.442   1
  27 -28  -5 4571.04 169.626   1
  28 -27  -5 4310.70 162.687   1
   1 -28   5 4433.22 158.544   1
  -1 -27   5 4327.68 152.195   1
  28  -1   5 4372.31 151.257   1
  28  -1   8 1314.92 100.568   1
   1 -28   8 1366.48 95.7752   1
  28 -28   8-1.53124 49.6679   1
  28 -28   5-47.4021 40.2329   1
  28 -28   2 1309.28 90.5334   1
   0 -28   1 9203.00 229.481   1
  28 -28  -1 9433.33 229.553   1
  28 -28  -4 6207.93 190.564   1
   0 -28   4 6436.15 186.169   1
   0 -28   7 5241.77 176.798   1
  29 -15   8 1018.72 88.9517   1
  15 -29   8 1180.77 96.3307   1
  29 -15   5 1036.21 77.5952   1
  15 -29   5 1014.56 82.8018   1
  29 -15   2 1117.08 70.9432   1
 -15 -14   2 1056.07 47.8372   1
  15 -29   2 1020.67 80.8937   1
  29 -14  -2 1272.23 62.6131   1
  29 -14   1 2381.05 94.4497   1
  15 -29  -1 2429.72 121.151   1
  14 -29   1 2468.32 118.215   1
  29 -15  -1 2446.45 89.4209   1
  29 -14   4 949.947 72.6933   1
  14 -29   4 960.273 80.8903   1
  29 -15  -4 1034.97 54.5894   1
  29 -14   7 33.5382 35.8706   1
  14 -29   7 39.4511 38.5007   1
  14 -29  10 152.237 54.1907   1
  29 -14  10 28.6168 39.8717   1
  29 -16   9 412.716 69.2636   1
  16 -29   9 502.038 72.0566   1
  29 -16   6 117.246 41.8274   1
  16 -29   6 91.1055 39.0591   1
  29 -16   3-30.7248 32.6207   1
  16 -29   3-0.42285 34.3981   1
  29 -13  -3-0.92157 17.1005   1
  29 -16   0 302.882 38.1140   1
  13 -29   0 336.154 52.3668   1
  16 -29   0 345.628 55.2151   1
  29 -13   0 311.747 35.5495   1
 -13 -16   3 1387.87 59.1716   1
  29 -13   3 1382.28 80.3382   1
  13 -29   3 1298.50 90.4497   1
  29 -16  -3 1369.02 65.5860   1
  29 -13   6 169.654 42.6660   1
  13 -29   6 263.435 52.4512   1
  13 -29   9 331.133 61.1284   1
  29 -13   9 329.642 61.1467   1
  29 -17   7 1935.73 116.211   1
  17 -29   7 1942.72 118.429   1
  29 -17   4 5126.47 161.392   1
  17 -29   4 5385.90 180.496   1
  29 -12  -1 4014.21 103.602   1
  17 -29   1 3911.54 151.040   1
  29 -17   1 3932.03 126.444   1
  12 -29   2 4304.51 157.454   1
 -12 -17   2 4348.38 112.254   1
  29 -12   2 4252.52 129.132   1
  29 -17  -2 4379.95 120.466   1
  12 -29   5 1447.19 97.8818   1
  29 -12   5 1403.29 89.4592   1
  12 -29   8 149.292 46.4087   1
  29 -12   8 177.177 50.3582   1
  18 -29   8-2.63834 41.0266   1
  29 -18   8 22.8473 40.1886   1
  29 -18   5 672.917 68.7950   1
  18 -29   5 407.926 61.3317   1
  29 -18   2 302.054 46.3091   1
  29 -11  -2 300.832 27.9387   1
  18 -29   2 215.303 44.2091   1
  18 -29  -1 3890.16 149.525   1
  11 -29   1 3772.15 146.568   1
  29 -11   1 3716.99 111.887   1
  29 -18  -1 3894.82 119.849   1
  29 -11   4 523.543 56.6297   1
  29 -18  -4 549.969 45.8655   1
  11 -29   4 514.920 62.7566   1
  11 -29   7 1491.74 104.045   1
  29 -11   7 1296.52 96.7592   1
  29 -11  10 992.941 97.6665   1
  11 -29  10 958.162 95.3601   1
  29 -19   9 153.008 51.1505   1
  19 -29   9 195.766 54.3096   1
  29 -19   6 325.084 58.9693   1
  19 -29   6 253.125 52.8320   1
  19 -29   3 2304.49 120.365   1
  29 -19   3 2313.11 107.304   1
  10 -29   0 1459.87 93.7665   1
  19 -29   0 1516.86 95.2832   1
  29 -10   0 1627.58 69.7354   1
  29 -19   0 1400.41 77.3829   1
  29 -10   3 58.1440 30.7307   1
 -10 -19   3 95.8129 26.2466   1
  10 -29   3 83.4923 35.5091   1
  29 -19  -3 96.9767 28.1175   1
  29 -10   6 57.4157 35.2373   1
  10 -29   6 85.2663 41.2923   1
  10 -29   9-4.13224 43.3203   1
  29 -10   9 91.8495 52.3396   1
  29 -20   7 2570.51 133.980   1
  20 -29   7 2608.20 140.072   1
  20 -29   4 2821.70 135.890   1
  29 -20   4 2800.90 123.259   1
  20 -29   1 1712.94 99.8017   1
  29  -9  -1 1743.75 63.2096   1
  29 -20   1 1811.27 93.3368   1
  20 -29  -2 28.6956 35.5538   1
  -9 -20   2 102.941 28.4769   1
  29  -9   2 88.4033 29.8497   1
   9 -29   2 29.4142 32.4167   1
  29 -20  -2 67.2390 29.2025   1
  29 -20  -5 782.779 58.7062   1
  29  -9   5 672.286 64.2355   1
   9 -29   5 666.706 68.5094   1
   9 -29   8 237.068 52.0983   1
  29  -9   8 199.629 50.7260   1
  21 -29   8 271.604 58.6954   1
  29 -21   8 196.159 53.8437   1
  29 -21   5 650.429 70.5998   1
  21 -29   5 628.518 70.5787   1
  21 -29   2 4162.99 156.179   1
  29 -21   2 3908.21 139.242   1
   8 -29   1 1773.44 103.397   1
  21 -29  -1 1645.44 101.322   1
  29 -21  -1 1770.28 90.8414   1
  29  -8   1 1774.49 76.1529   1
  29 -21  -4 1381.50 77.8974   1
   8 -29   4 1241.50 87.3127   1
  -8 -21   4 1388.08 73.2846   1
  29  -8   4 1307.73 80.0510   1
  29  -8   7 115.268 41.3861   1
   8 -29   7 181.651 48.7202   1
  29  -8  10 116.122 57.6358   1
   8 -29  10 84.0473 47.5500   1
  22 -29   9 225.611 58.1255   1
  29 -22   9 119.494 54.9622   1
  29 -22   6 144.427 45.2326   1
  22 -29   6 69.2439 44.9312   1
  22 -29   3 1277.70 94.0003   1
  29 -22   3 1216.32 85.0169   1
  29  -7   0 986.947 50.6429   1
  22 -29   0 968.002 77.0561   1
  29 -22   0 906.557 69.0425   1
  -7 -22   3 74.3307 27.8312   1
   7 -29   3 84.8615 39.6917   1
  29 -22  -3 125.977 34.2383   1
  29  -7   3 140.880 34.4953   1
  29 -22  -6 28.5321 31.5514   1
  29  -7   6-2.82535 32.3052   1
   7 -29   6-62.0543 37.5759   1
  29  -7   9 240.637 54.5104   1
   7 -29   9 152.279 50.5571   1
  23 -29   7 127.080 49.6555   1
  29 -23   7 119.948 48.7058   1
  29 -23   4-0.26129 35.4266   1
  23 -29   4-26.0742 40.8004   1
  23 -29   1 96.7422 38.2715   1
  29 -23   1 168.134 41.0680   1
  23 -29  -2 1178.27 85.8366   1
  -6 -23   2 1346.02 78.1951   1
   6 -29   2 1334.33 91.2542   1
  29  -6   2 1190.67 66.5445   1
  29 -23  -2 1261.53 78.9341   1
  29 -23  -5 63.0382 31.0994   1
  29  -6   5 70.1607 35.8125   1
   6 -29   5 93.3563 42.4401   1
  -6 -23   5 25.5122 26.6497   1
   6 -29   8 149.569 44.6579   1
  29  -6   8 146.563 46.8731   1
  24 -29   8 112.123 54.2908   1
  29 -24   8 194.374 59.0562   1
  29 -24   5 11.3903 36.3240   1
  24 -29   5 91.8730 42.5960   1
  24 -29   2 871.506 78.1936   1
  29 -24   2 768.122 70.2208   1
   5 -29   1 56.3887 35.4518   1
  29  -5   1 75.8341 22.7097   1
  24 -29  -1 135.924 42.4764   1
  29 -24  -1 106.496 36.1531   1
  29  -5   4-29.0394 26.1722   1
  29 -24  -4 32.9549 30.1393   1
   5 -29   4 23.5498 34.5484   1
  -5 -24   4-12.5271 26.8524   1
  29  -5   7 151.781 44.0167   1
   5 -29   7 154.891 45.7327   1
   5 -29  10 117.962 50.0239   1
  25 -29   6 46.7411 46.5756   1
  29 -25   6 95.6671 43.3323   1
  25 -29   3 46.5497 40.7505   1
  29 -25   3 117.843 42.0534   1
  25 -29   0 306.140 54.0663   1
  29 -25   0 359.169 51.4570   1
  25 -29  -3 988.515 81.0587   1
  29 -25  -3 971.360 73.7261   1
  -4 -25   3 974.180 67.8635   1
   4 -29   3 1018.40 79.5898   1
  29  -4   3 1028.12 68.9258   1
  29 -25  -6 332.026 51.7955   1
  29  -4   6 360.325 53.0289   1
   4 -29   6 300.569 54.8728   1
   4 -29   9 470.308 67.6096   1
  29  -4   9 414.420 66.0943   1
  26 -29   7 463.207 78.5806   1
  29 -26   7 620.585 87.2229   1
  29 -26   4 623.052 68.8614   1
  26 -29   4 554.468 70.0760   1
  26 -29   1 109.872 39.2812   1
  29 -26   1 254.116 55.1190   1
  -3 -26   2-57.7220 30.7500   1
   3 -29   2 6.87649 32.5296   1
  26 -29  -2-13.5563 37.0535   1
  29 -26  -2-57.4422 37.7946   1
  29  -3   5 68.8623 34.6372   1
  29 -26  -5 9.76544 31.1476   1
   3 -29   5 66.4093 40.6896   1
  -3 -26   5-42.1067 33.0279   1
   3 -29   8 53.7260 38.9604   1
  29  -3   8 7.70521 35.9174   1
  29 -27   8 58.1320 53.9456   1
  29 -27   5 374.516 59.1906   1
  27 -29   5 438.891 64.1351   1
  27 -29   2 425.450 61.4828   1
  29 -27   2 429.328 55.9728   1
  -2 -27   1-17.5556 29.2422   1
   2 -29   1-6.66061 33.4975   1
  27 -29  -1 45.2715 33.2479   1
  29 -27  -1 76.9401 37.3715   1
  29  -2   4 23.6434 29.8954   1
  27 -29  -4-29.4212 36.5159   1
  29 -27  -4 25.9989 31.1854   1
   2 -29   4 7.18800 31.7479   1
  -2 -27   4-53.6728 30.1505   1
   2 -29   7 114.651 42.9522   1
  29  -2   7 85.1985 37.4106   1
  28 -29   6 95.6038 48.3160   1
  29 -28   6 17.4368 40.0136   1
  28 -29   3 321.298 55.4669   1
  29 -28   3 338.892 57.2984   1
  28 -29   0 1210.09 86.8041   1
  29 -28   0 1310.98 89.1938   1
  28 -29  -3 958.059 78.0980   1
  29 -28  -3 944.688 78.1932   1
  -1 -28   3 957.617 73.4520   1
   1 -29   3 941.034 76.3386   1
  29 -28  -6 663.395 71.1078   1
  29  -1   6 663.435 65.9070   1
   1 -29   6 631.212 68.2294   1
  -1 -28   6 604.912 63.0288   1
  29 -29   7 103.377 53.9953   1
  29 -29   4 99.9905 48.1888   1
  29 -29   1 49.0780 34.1211   1
   0 -29   2 122.519 38.3420   1
  29 -29  -2 39.5563 35.9664   1
  29 -29  -5 881.166 80.5516   1
   0 -29   5 891.183 75.9672   1
  15 -30   0 2360.55 118.709   1
  30 -15   0 2300.69 91.7141   1
  30 -15   3 2009.46 99.5174   1
  15 -30   3 2169.78 116.850   1
  30 -15  -3 2146.87 79.1355   1
  15 -30   6 95.5035 42.8454   1
  30 -15   6 156.121 45.9753   1
  15 -30   9 206.357 54.8477   1
  30 -15   9 206.872 61.6563   1
  30 -16   7 2591.07 131.397   1
  16 -30   7 2800.98 143.708   1
  30 -16   4 2277.89 110.277   1
  16 -30   4 2543.88 126.463   1
  30 -16   1 577.014 51.9407   1
  16 -30   1 638.274 67.7523   1
  30 -14  -1 720.789 50.3947   1
 -14 -16   2-19.6837 18.3750   1
  14 -30   2-9.73460 34.0585   1
  30 -14   2-48.4658 31.6013   1
  30 -16  -2-43.1030 24.1253   1
  30 -14   5 1700.81 99.7459   1
  14 -30   5 1839.70 111.366   1
  30 -14   8 846.959 83.1829   1
  14 -30   8 1079.47 93.8546   1
  30 -17   8 422.500 66.0532   1
  17 -30   8 424.960 65.3144   1
  30 -17   5-9.61252 34.5428   1
  17 -30   5-48.9959 42.8927   1
  17 -30   2 733.079 73.2996   1
  30 -13  -2 809.839 49.5495   1
  30 -17   2 769.464 61.7458   1
  17 -30  -1 5303.93 181.422   1
  13 -30   1 5221.37 178.773   1
  30 -13   1 5337.89 140.861   1
  30 -17  -1 5592.41 141.833   1
  13 -30   4 7852.51 221.938   1
  30 -17  -4 8147.53 162.276   1
  30 -13   4 7315.16 191.229   1
  13 -30   7 4655.99 182.254   1
  30 -13   7 4414.86 172.693   1
  13 -30  10 2058.34 133.029   1
  30 -18   9-18.4035 39.5006   1
  18 -30   9-3.25166 39.8220   1
  30 -18   6 32.5114 41.0393   1
  18 -30   6 62.3092 45.7713   1
  18 -30   3 916.898 79.9499   1
  30 -18   3 849.173 70.4817   1
  30 -12   0 637.983 47.9499   1
  12 -30   0 694.014 70.9524   1
  18 -30   0 514.584 61.0925   1
  30 -18   0 604.853 53.4547   1
  12 -30   3 150.339 45.2080   1
  30 -18  -3 145.654 28.5924   1
  30 -12   3 111.109 32.2276   1
  30 -12   6 196.152 45.4209   1
  12 -30   6 147.757 46.3096   1
  12 -30   9-21.8005 47.9144   1
  30 -12   9-41.7313 42.3649   1
  30 -19   7 1294.33 98.1099   1
  19 -30   7 1439.12 105.562   1
  30 -19   4 5284.15 168.433   1
  19 -30   4 5444.70 189.827   1
  19 -30   1 9293.29 235.978   1
  30 -11  -1 9466.70 155.916   1
  30 -19   1 9327.32 201.724   1
  19 -30  -2 9744.08 246.846   1
 -11 -19   2 9349.90 176.662   1
  11 -30   2 8927.10 231.190   1
  30 -19  -2 9309.91 185.709   1
  30 -11   2 9074.25 188.634   1
  11 -30   5 2430.58 126.510   1
  30 -11   5 2312.48 115.121   1
  11 -30   8 406.004 66.0159   1
  30 -11   8 389.572 61.8327   1
  30 -20   8 912.766 87.5010   1
  20 -30   8 1031.83 94.3750   1
  30 -20   5 7173.74 207.383   1
  20 -30   5 7576.29 222.071   1
  20 -30   2 8627.54 226.468   1
  30 -20   2 8226.56 197.157   1
  20 -30  -1 14189.9 289.012   1
  10 -30   1 13413.4 280.358   1
  30 -20  -1 13733.3 236.328   1
  30 -10   1 14150.3 220.533   1
  30 -20  -4 5945.94 151.713   1
  10 -30   4 5733.52 186.568   1
  30 -10   4 5891.68 167.934   1
  30 -10   7 2999.82 142.082   1
  10 -30   7 3266.30 151.591   1
  10 -30  10 136.460 49.3604   1
  30 -21   9 32.4267 49.0515   1
  30 -21   6 7.44711 41.3237   1
  21 -30   6-35.8831 39.8135   1
  30 -21   3 13.9168 34.3643   1
  21 -30   3 22.6729 37.7226   1
   9 -30   0 849.552 75.0172   1
  21 -30   0 943.969 79.0821   1
  30 -21   0 970.868 69.4284   1
  30  -9   0 918.203 52.3774   1
  -9 -21   3 762.071 55.0845   1
  30 -21  -3 770.206 58.8322   1
   9 -30   3 709.692 69.9422   1
  30  -9   3 700.103 58.5780   1
  30  -9   6 1443.17 95.9980   1
   9 -30   6 1439.75 99.4832   1
   9 -30   9 357.559 61.7322   1
  30  -9   9 473.526 71.7819   1
  30 -22   7 3465.58 160.036   1
  22 -30   7 3568.21 164.649   1
  22 -30   4 7009.11 212.476   1
  30 -22   4 6998.62 201.140   1
  22 -30   1 5981.50 186.100   1
  30 -22   1 5778.05 167.619   1
  22 -30  -2 3317.02 144.255   1
  -8 -22   2 3302.44 116.184   1
   8 -30   2 3416.21 144.394   1
  30 -22  -2 3249.04 121.291   1
  30  -8   2 3386.62 113.052   1
  30  -8   5 73.1195 36.0728   1
  30 -22  -5 22.1112 26.2929   1
   8 -30   5 195.753 53.8388   1
   8 -30   8 103.975 50.6700   1
  30  -8   8 44.7449 38.3242   1
  23 -30   8 763.724 86.6630   1
  30 -23   8 664.334 83.7016   1
  23 -30   5 1243.77 96.6709   1
  30 -23   5 1332.94 94.6271   1
  23 -30   2 1373.95 97.7723   1
  30 -23   2 1169.21 82.1020   1
   7 -30   1 905.312 78.9077   1
  23 -30  -1 970.699 81.1663   1
  30  -7   1 1023.83 59.1159   1
  30 -23  -1 942.461 71.8192   1
  30 -23  -4 946.372 69.1149   1
  30  -7   4 1146.13 77.1155   1
   7 -30   4 1200.78 89.4851   1
  -7 -23   4 1073.79 69.6143   1
  30  -7   7 34.8811 36.9135   1
   7 -30   7 146.288 47.8300   1
   7 -30  10 20.8848 40.9306   1
  30 -24   6 680.389 73.0143   1
  24 -30   6 849.342 82.6868   1
  30 -24   3 71.0603 38.0712   1
  24 -30   3 25.2884 37.8264   1
  24 -30   0 194.653 43.8707   1
  30 -24   0 178.964 41.1428   1
  24 -30  -3 2500.18 126.572   1
  -6 -24   3 2626.75 106.609   1
   6 -30   3 2586.92 125.984   1
  30 -24  -3 2425.33 109.910   1
  30  -6   3 2504.79 104.505   1
  30 -24  -6 2363.09 113.052   1
   6 -30   6 2059.49 116.210   1
  30  -6   6 2024.80 111.286   1
   6 -30   9 623.130 76.9035   1
  30 -25   7 4102.87 177.404   1
  25 -30   7 3687.08 178.657   1
  25 -30   4 4502.48 173.226   1
  30 -25   4 4207.66 160.007   1
  25 -30   1 1074.36 87.7598   1
  30 -25   1 983.520 77.3876   1
  -5 -25   2 201.748 41.7128   1
  25 -30  -2 174.207 45.3732   1
   5 -30   2 224.480 49.6425   1
  30 -25  -2 211.127 40.8075   1
  30 -25  -5 319.434 49.6982   1
  30  -5   5 330.614 49.7543   1
   5 -30   5 401.944 61.0342   1
  -5 -25   5 370.213 47.9382   1
   5 -30   8 3.84308 36.6347   1
  30  -5   8 45.1736 43.0337   1
  30 -26   8 163.613 63.9161   1
  26 -30   5 1411.83 104.608   1
  30 -26   5 1370.29 99.7748   1
  26 -30   2 1008.32 85.8131   1
  30 -26   2 865.515 75.8814   1
  -4 -26   1 719.265 66.6680   1
   4 -30   1 697.775 73.4962   1
  30 -26  -1 770.812 68.6523   1
  26 -30  -1 771.883 73.2841   1
  26 -30  -4 528.426 69.7075   1
  30 -26  -4 369.429 52.7275   1
   4 -30   4 556.642 69.2195   1
  -4 -26   4 472.061 53.3924   1
  30  -4   4 432.042 50.0746   1
  30 -26  -7 53.7850 34.8662   1
   4 -30   7 83.6878 45.6084   1
  30  -4   7 136.907 46.4118   1
  27 -30   6 594.791 76.5984   1
  30 -27   6 606.434 72.3777   1
  27 -30   3 2059.01 119.481   1
  30 -27   3 2306.54 121.172   1
  27 -30   0 1171.88 91.0872   1
  30 -27   0 1193.37 86.6123   1
  27 -30  -3 1311.66 94.0051   1
  30 -27  -3 1098.25 81.5995   1
  -3 -27   3 1147.05 77.8223   1
   3 -30   3 1244.68 90.0128   1
  30 -27  -6 263.743 46.4320   1
  30  -3   6 249.334 47.8413   1
   3 -30   6 249.205 52.3098   1
  30  -3   9-22.3459 38.7594   1
  28 -30   7-10.7202 48.2461   1
  30 -28   7 33.1102 46.7005   1
  28 -30   4 24.8485 38.2618   1
  30 -28   4 78.3785 41.3555   1
  28 -30   1 1479.46 103.170   1
  30 -28   1 1375.92 95.3845   1
  -2 -28   2 138.254 33.6286   1
   2 -30   2 142.342 41.7547   1
  28 -30  -2 210.041 45.4633   1
  30 -28  -2 156.838 40.2478   1
  28 -30  -5 3.88787 38.2054   1
  30 -28  -5-9.22047 32.6725   1
  30  -2   5-24.9149 32.2757   1
   2 -30   5-23.0790 36.7634   1
  -2 -28   5 4.10762 28.6738   1
  30  -2   8 135.145 44.7840   1
  29 -30   5 102.108 51.6941   1
  30 -29   5 51.6678 43.0363   1
  29 -30   2 25.6678 42.9381   1
  30 -29   2 20.7041 33.4739   1
  -1 -29   1 209.401 46.4202   1
   1 -30   1 150.153 43.2072   1
  29 -30  -1 154.242 44.8193   1
  30 -29  -1 144.203 42.7853   1
  29 -30  -4 628.175 70.7730   1
  30 -29  -4 713.719 72.3455   1
   1 -30   4 585.721 63.5562   1
  -1 -29   4 626.262 62.9124   1
   1 -30   7 564.448 69.5819   1
  30 -30   6 7.60280 43.9319   1
  30 -30   3 47.8118 38.4433   1
  30 -30   0 94.3477 42.0871   1
  30 -30  -3 1230.25 92.1372   1
   0 -30   3 1251.38 88.7409   1
  30 -30  -6 1461.85 104.124   1
   0 -30   6 1556.16 99.1930   1
  31 -16   8 1580.08 112.116   1
  16 -31   8 1870.65 123.592   1
  31 -16   5 3932.27 150.721   1
  16 -31   5 4014.38 164.252   1
  31 -16   2 3217.12 119.899   1
  16 -31   2 3275.66 147.109   1
  31 -15  -2 3353.03 100.851   1
  31 -15   1 1546.80 79.5003   1
  16 -31  -1 1698.78 107.618   1
  15 -31   1 1542.37 100.225   1
  31 -16  -1 1538.87 74.7012   1
  15 -31   4 29.8653 38.0134   1
  31 -15   4 112.903 36.8447   1
  31 -15   7 7.82275 36.7148   1
  15 -31   7-12.0579 37.9747   1
  17 -31   9 1033.83 98.4048   1
  31 -17   9 981.110 93.0460   1
  17 -31   6 751.621 78.8638   1
  31 -17   6 815.120 77.4624   1
  31 -17   3 32.9061 31.1368   1
  17 -31   3-15.7492 36.6871   1
  31 -14   0 2240.68 87.8591   1
  14 -31   0 2356.45 120.944   1
  17 -31   0 2384.93 123.162   1
  31 -17   0 2263.08 94.1780   1
  14 -31   3 3285.66 144.424   1
  31 -14   3 3121.58 120.686   1
  31 -17  -3 3305.87 103.981   1
  14 -31   6 2514.63 132.452   1
  31 -14   6 2195.23 118.438   1
  14 -31   9 906.298 93.0631   1
  31 -14   9 751.313 83.1200   1
  31 -18   7 159.752 48.5006   1
  18 -31   7 184.423 52.2396   1
  31 -18   4 4.55546 33.5458   1
  18 -31   4-73.1864 47.4976   1
  31 -18   1 56.4156 29.8991   1
  18 -31   1 31.9730 36.3598   1
  31 -13  -1 72.3842 24.2146   1
  13 -31   2 3589.59 149.341   1
  31 -13   2 3459.89 119.733   1
  31 -18  -2 3649.19 114.530   1
  31 -13   5 202.337 45.2670   1
  13 -31   5 316.980 57.1722   1
  13 -31   8 381.366 65.5010   1
  31 -13   8 248.485 56.1915   1
  19 -31   8 85.2665 46.5865   1
  31 -19   8 17.6705 37.4723   1
  31 -19   5 158.239 42.6280   1
  19 -31   5 234.560 51.2414   1
  19 -31   2 2052.21 116.308   1
  31 -19   2 2050.68 100.069   1
  19 -31  -1 109.408 40.6226   1
  12 -31   1 25.0918 32.6724   1
  31 -12   1 76.6891 25.3163   1
  31 -19  -1 69.7041 31.8219   1
  31 -19  -4 854.847 58.9609   1
  12 -31   4 836.950 79.2448   1
  31 -12   4 787.698 68.2809   1
  31 -12   7-41.6312 37.3908   1
  12 -31   7-72.6855 45.3887   1
  31 -20   6 7506.00 220.820   1
  20 -31   6 8028.12 237.229   1
  20 -31   3 6737.40 207.972   1
  31 -20   3 6352.92 180.495   1
  11 -31   0 11619.1 270.477   1
  20 -31   0 11913.7 271.256   1
  31 -11   0 11683.3 189.271   1
  31 -20   0 11782.1 230.087   1
  11 -31   3 15625.4 309.668   1
  31 -20  -3 15924.0 250.272   1
  31 -11   3 15098.2 261.152   1
  11 -31   6 5806.87 195.821   1
  31 -11   6 5539.63 185.162   1
  11 -31   9 707.968 83.0496   1
  31 -11   9 641.649 82.2316   1
  21 -31   7 232.086 55.1170   1
  31 -21   7 201.095 52.7929   1
  21 -31   4 1012.19 88.9169   1
  31 -21   4 1159.16 86.4277   1
  21 -31   1 1520.41 100.159   1
  31 -21   1 1478.95 86.6851   1
  21 -31  -2 3942.21 159.355   1
 -10 -21   2 3817.63 120.309   1
  10 -31   2 3670.13 151.345   1
  31 -21  -2 4058.27 131.924   1
  31 -10   2 3721.87 122.603   1
  10 -31   5 1818.07 110.624   1
  31 -10   5 1896.73 103.962   1
  10 -31   8 658.494 76.7450   1
  31 -10   8 830.900 86.3382   1
  22 -31   8 88.5095 47.8230   1
  31 -22   8 167.738 53.3185   1
  31 -22   5 2136.14 118.555   1
  22 -31   5 2163.76 124.010   1
  31 -22   2 413.359 53.6644   1
  22 -31   2 453.993 61.6755   1
   9 -31   1 328.556 56.3981   1
  22 -31  -1 355.340 55.7126   1
  31  -9   1 371.045 39.6791   1
  31 -22  -1 363.540 47.3280   1
  31  -9   4 1467.57 87.8328   1
  31 -22  -4 1520.88 82.4748   1
   9 -31   4 1317.87 95.2342   1
  31  -9   7 601.930 69.9758   1
   9 -31   7 784.065 80.1199   1
   9 -31  10 953.856 96.1633   1
  31 -23   6 5534.04 192.771   1
  23 -31   6 6216.84 215.303   1
  23 -31   3 2793.12 139.806   1
  31 -23   3 2785.83 127.226   1
   8 -31   0 4815.82 178.410   1
  23 -31   0 4802.54 171.337   1
  31 -23   0 4673.82 151.309   1
  31  -8   3 612.219 55.2004   1
  23 -31  -3 511.958 70.7095   1
  -8 -23   3 588.763 54.9414   1
   8 -31   3 523.057 63.5524   1
  31 -23  -3 477.210 52.3064   1
  31  -8   6 97.4197 41.7254   1
   8 -31   6-0.65896 38.5483   1
   8 -31   9 113.957 48.5244   1
  31  -8   9 65.6536 46.6089   1
  24 -31   7 104.573 52.5001   1
  31 -24   7 55.5795 42.7322   1
  31 -24   4-28.7038 38.1844   1
  24 -31   4 33.7978 41.7669   1
  24 -31   1 23.2001 37.5713   1
  31 -24   1 65.6537 36.5601   1
  -7 -24   2 1592.69 87.0398   1
  24 -31  -2 1530.95 100.520   1
   7 -31   2 1545.51 100.801   1
  31  -7   2 1640.86 81.0905   1
  31 -24  -2 1611.21 90.2641   1
  31 -24  -5 366.530 49.1981   1
  31  -7   5 336.355 48.1147   1
   7 -31   5 409.672 63.1843   1
   7 -31   8 177.074 50.3549   1
  31  -7   8 207.894 48.9310   1
  31 -25   8 2264.56 143.071   1
  25 -31   5 3610.22 161.272   1
  31 -25   5 3412.37 150.769   1
  25 -31   2 128.456 42.3186   1
  31 -25   2 127.682 40.6559   1
   6 -31   1 72.1988 37.4569   1
  25 -31  -1 167.361 48.2718   1
  31 -25  -1 110.581 35.6094   1
  31  -6   4 355.104 45.4314   1
  25 -31  -4 374.479 59.9930   1
  31 -25  -4 345.273 49.7256   1
   6 -31   4 338.714 56.3488   1
  -6 -25   4 347.900 44.0657   1
  31  -6   7 3.03924 36.5597   1
   6 -31   7 69.9118 42.7412   1
  26 -31   6 1157.07 100.492   1
  31 -26   6 1293.35 103.594   1
  26 -31   3 772.299 80.3776   1
  31 -26   3 770.692 71.7407   1
  26 -31   0 438.371 63.0034   1
  31 -26   0 490.597 59.3922   1
  26 -31  -3 147.850 40.1164   1
  -5 -26   3 197.613 38.5740   1
   5 -31   3 180.261 46.5470   1
  31 -26  -3 207.201 45.3933   1
  31 -26  -6-22.8055 32.8209   1
  31  -5   6 9.01108 32.9758   1
   5 -31   6 36.0726 38.4436   1
  31  -5   9 68.7745 45.7753   1
   5 -31   9-32.3697 40.6849   1
  27 -31   7 215.368 64.5332   1
  31 -27   7 213.954 58.5788   1
  27 -31   4 2024.07 121.604   1
  31 -27   4 2026.61 116.922   1
  27 -31   1 719.631 77.3144   1
  31 -27   1 627.617 65.5970   1
  -4 -27   2 3302.32 133.676   1
   4 -31   2 3389.79 147.157   1
  27 -31  -2 3541.97 153.909   1
  31 -27  -2 3305.24 139.678   1
  27 -31  -5 2180.56 128.537   1
  31 -27  -5 2149.82 115.990   1
  31  -4   5 2171.53 110.095   1
   4 -31   5 2247.15 122.615   1
   4 -31   8 385.835 59.8125   1
  31  -4   8 372.104 62.2959   1
  31 -28   5-31.7316 41.1431   1
  28 -31   5 43.4300 39.8585   1
  28 -31   2 61.3837 43.5018   1
  31 -28   2 122.742 40.8523   1
  -3 -28   1 1118.95 81.9743   1
   3 -31   1 1122.89 90.1176   1
  28 -31  -1 1282.02 95.0955   1
  31 -28  -1 1214.13 90.0404   1
  28 -31  -4 63.6958 36.9137   1
  31 -28  -4 118.650 38.0496   1
   3 -31   4 238.293 51.2231   1
  -3 -28   4 58.7300 30.5376   1
  31 -28  -7 72.1410 39.7263   1
   3 -31   7-19.1338 37.2728   1
  31  -3   7 72.9977 40.6195   1
  29 -31   6 166.128 54.8955   1
  31 -29   6 255.419 58.2369   1
  29 -31   3 82.2024 44.8764   1
  31 -29   3 18.1191 36.5323   1
  29 -31   0 2291.19 122.703   1
  31 -29   0 2243.01 118.054   1
  29 -31  -3 401.732 61.3829   1
  31 -29  -3 465.665 60.1283   1
  -2 -29   3 447.448 55.7351   1
   2 -31   3 420.408 58.9295   1
  29 -31  -6 239.593 50.8302   1
  31 -29  -6 254.719 52.6721   1
  31  -2   6 203.559 46.4797   1
   2 -31   6 180.079 47.7304   1
  30 -31   4 122.338 47.4507   1
  31 -30   4 59.8737 45.6786   1
  30 -31   1-38.6644 41.9576   1
  31 -30   1 10.9706 37.4090   1
  -1 -30   2 454.639 61.4676   1
   1 -31   2 514.572 66.3999   1
  30 -31  -2 515.842 66.8713   1
  31 -30  -2 390.530 58.6953   1
  30 -31  -5 302.819 59.1539   1
  31 -30  -5 381.343 61.0984   1
   1 -31   5 428.313 62.6525   1
  -1 -30   5 343.368 53.2945   1
  31 -31   5 41.4735 43.7007   1
  31 -31   2 367.108 61.6238   1
   0 -31   1 1720.76 109.347   1
  31 -31  -1 1903.95 116.935   1
  31 -31  -4 2062.51 120.197   1
   0 -31   4 2150.17 118.732   1
  31 -31  -7 3031.91 154.810   1
  16 -32   0 6175.55 198.121   1
  32 -16   0 6466.32 155.326   1
  32 -16   3 5745.26 169.682   1
  16 -32   3 5968.78 196.654   1
  32 -16   6 1045.42 86.8504   1
  16 -32   6 1113.86 94.6768   1
  32 -16   9 701.272 86.3362   1
  32 -17   7 53.4932 42.6032   1
  17 -32   7 61.8233 43.4647   1
  17 -32   4 467.874 65.2783   1
  32 -17   4 399.895 55.4837   1
  15 -32  -1 39.1481 37.3122   1
  32 -15  -1 47.5665 24.1769   1
  32 -17   1 104.836 36.3999   1
  17 -32   1 68.3088 39.7182   1
  32 -15   2 771.464 62.6186   1
  15 -32   2 694.822 72.6309   1
  32 -17  -2 749.926 53.1584   1
  15 -32   5 646.806 74.3319   1
  32 -15   5 449.695 59.4527   1
  15 -32   8 39.4741 42.6384   1
  32 -15   8 33.6054 37.9278   1
  18 -32   8 488.001 70.9571   1
  32 -18   8 520.400 69.8526   1
  32 -18   5 540.162 63.5079   1
  18 -32   5 680.753 76.3579   1
  32 -18   2 1246.65 80.9654   1
  18 -32   2 1109.61 87.8222   1
  18 -32  -1 505.294 67.5023   1
  14 -32   1 516.638 65.2906   1
  32 -14   1 583.720 53.5887   1
  32 -18  -1 554.513 51.2286   1
  14 -32   4 755.476 79.3916   1
  32 -14   4 742.895 68.3221   1
  32 -14   7 65.1788 41.5760   1
  14 -32   7 15.2202 44.1470   1
  32 -19   6 2793.63 139.550   1
  19 -32   6 2907.34 148.425   1
  32 -19   3 1538.41 92.4945   1
  19 -32   3 1600.13 104.019   1
  13 -32   0 2574.36 132.584   1
  19 -32   0 2737.83 134.160   1
  32 -13   0 2579.63 93.6830   1
  32 -19   0 2473.58 104.632   1
  13 -32   3 1523.05 104.802   1
  32 -13   3 1586.57 88.7757   1
  32 -19  -3 1644.87 79.2541   1
  32 -13   6 203.092 55.4449   1
  13 -32   9-5.62072 48.0836   1
  32 -13   9 16.0585 42.8488   1
  20 -32   7-10.5272 41.7881   1
  32 -20   7-23.2526 38.0047   1
  32 -20   4 227.626 48.1645   1
  20 -32   4 240.460 52.5492   1
  32 -20   1 38.8655 29.7660   1
  20 -32   1 64.8213 38.8424   1
  32 -12   2 555.951 52.7802   1
  20 -32  -2 553.954 68.8874   1
  12 -32   2 514.855 62.7631   1
  32 -20  -2 507.064 50.3015   1
  32 -12   5 168.808 43.4841   1
  12 -32   5 136.475 44.7301   1
  12 -32   8 31.7293 43.7226   1
  32 -12   8 4.43641 36.5891   1
  21 -32   8 348.092 66.3249   1
  32 -21   8 374.329 67.9903   1
  32 -21   5 1698.40 105.328   1
  21 -32   5 1720.92 113.659   1
  32 -21   2 112.731 35.1264   1
  21 -32   2 50.5304 35.7655   1
  32 -11   1 476.704 46.0089   1
  21 -32  -1 491.477 64.9954   1
  11 -32   1 479.215 64.3959   1
  32 -21  -1 491.775 50.2799   1
  32 -11   4 37.7682 35.2871   1
  11 -32   4 45.7557 38.8256   1
  11 -32   7-15.1688 41.7428   1
  32 -11   7 49.5978 39.3583   1
  32 -22   6 92.4483 43.4469   1
  22 -32   6 126.694 48.5200   1
  32 -22   3-9.95602 34.7820   1
  22 -32   3 45.8098 42.5994   1
  10 -32   0 74.9949 41.1152   1
  22 -32   0 100.266 36.4333   1
  32 -22   0 161.024 37.2166   1
  22 -32  -3 930.569 85.0794   1
  32 -22  -3 898.289 66.6262   1
  10 -32   3 891.750 80.5981   1
  32 -10   3 852.747 65.8615   1
  32 -10   6 304.446 52.0073   1
  10 -32   6 300.747 58.0972   1
  10 -32   9-24.2526 42.8558   1
  32 -10   9 37.0139 40.4269   1
  23 -32   7 799.218 86.4766   1
  32 -23   7 932.698 90.5253   1
  32 -23   4 31.6953 35.7089   1
  23 -32   4 93.9149 41.7536   1
  23 -32   1 26.6938 37.3358   1
  32 -23   1 134.946 44.4585   1
  23 -32  -2 112.280 44.2364   1
  -9 -23   2 118.510 32.5857   1
   9 -32   2 81.2927 42.2808   1
  32 -23  -2 76.5495 31.6437   1
  32  -9   2 69.8170 28.5730   1
  32  -9   5 265.793 50.3875   1
   9 -32   5 168.950 48.1037   1
   9 -32   8 3.31154 40.9782   1
  32  -9   8-37.5464 42.2688   1
  32 -24   5-38.6714 43.1274   1
  24 -32   5-4.51986 39.8979   1
  24 -32   2 49.5776 38.1929   1
  32 -24   2 94.2676 40.8481   1
   8 -32   1 301.075 52.2433   1
  24 -32  -1 366.592 58.1961   1
  32 -24  -1 310.136 48.4930   1
  32  -8   4 21.8693 28.9515   1
  32 -24  -4 7.62745 28.6107   1
   8 -32   4-30.9472 39.6029   1
  32  -8   7 78.9182 34.9141   1
   8 -32   7 58.7828 45.3748   1
  32 -25   6 2759.14 142.564   1
  25 -32   6 2660.22 149.944   1
  25 -32   3 1493.98 108.641   1
  32 -25   3 1589.95 101.142   1
   7 -32   0 1558.55 105.049   1
  25 -32   0 1511.93 104.597   1
  32 -25   0 1575.78 95.9845   1
  25 -32  -3-45.7030 41.4726   1
  -7 -25   3 55.0218 28.2295   1
   7 -32   3 16.0414 36.9431   1
  32 -25  -3 71.9955 34.9477   1
  32  -7   6 137.576 43.2714   1
   7 -32   6-16.8673 39.4235   1
   7 -32   9-25.1878 41.5191   1
  32  -7   9-40.2467 42.6277   1
  32 -26   7 40.6353 48.1875   1
  32 -26   4 248.947 54.0501   1
  26 -32   4 218.881 56.5242   1
  26 -32   1 8.56345 37.0826   1
  32 -26   1 11.8318 32.9531   1
  -6 -26   2 348.110 48.8405   1
  26 -32  -2 325.413 54.6377   1
   6 -32   2 328.457 56.3523   1
  32 -26  -2 312.566 50.4280   1
  32 -26  -5 22.1435 28.9243   1
  32  -6   5 8.61326 30.1830   1
   6 -32   5-7.54096 36.3933   1
   6 -32   8 16.4232 40.9284   1
  32  -6   8-14.0727 37.0876   1
  32 -27   5 126.454 46.9142   1
  27 -32   5 155.688 56.6169   1
  27 -32   2 51.7199 42.3955   1
  32 -27   2 60.1127 41.0716   1
  -5 -27   1 122.242 37.6507   1
   5 -32   1 128.072 47.5706   1
  27 -32  -1 97.2851 44.2119   1
  32 -27  -1 78.1414 39.9141   1
  27 -32  -4 578.419 70.9363   1
  32 -27  -4 637.429 64.5824   1
   5 -32   4 663.274 72.5846   1
  32  -5   7 868.655 83.8585   1
   5 -32   7 1025.50 89.0751   1
  28 -32   6 610.691 81.3963   1
  32 -28   6 651.100 76.2097   1
  28 -32   3 273.065 62.4484   1
  32 -28   3 247.194 55.4961   1
   4 -32   0 675.380 75.5277   1
  28 -32   0 578.759 67.0568   1
  32 -28   0 557.393 64.5510   1
  28 -32  -3 43.1514 41.1590   1
  -4 -28   3 3.22679 27.2651   1
   4 -32   3 72.6530 41.2446   1
  32 -28  -3-30.0915 32.5648   1
  32 -28  -6-1.50596 33.5415   1
   4 -32   6 7.30635 35.3603   1
  32 -29   4 226.676 54.4529   1
  29 -32   4 96.3732 46.7355   1
  29 -32   1 146.402 48.6951   1
  32 -29   1 128.982 42.7204   1
  -3 -29   2 385.790 53.5991   1
   3 -32   2 350.617 58.6276   1
  29 -32  -2 378.918 57.8585   1
  32 -29  -2 354.207 56.5197   1
  29 -32  -5 414.390 68.8567   1
  32 -29  -5 496.341 61.4486   1
   3 -32   5 537.653 71.1001   1
  32  -3   8 228.143 52.9070   1
  32 -30   5 78.6705 43.3585   1
  30 -32   5 148.384 55.9944   1
  30 -32   2 109.591 47.7320   1
  32 -30   2 176.422 48.2922   1
  -2 -30   1 327.265 51.1511   1
   2 -32   1 286.643 53.5513   1
  30 -32  -1 354.261 60.8017   1
  32 -30  -1 391.919 59.4107   1
  30 -32  -4 1394.14 103.249   1
  32 -30  -4 1250.10 92.2753   1
   2 -32   4 1335.43 99.0868   1
  -2 -30   4 1430.29 94.3884   1
  31 -32   3 256.483 54.2323   1
  32 -31   3 220.133 54.7323   1
  31 -32   0 35.8244 40.4475   1
  32 -31   0 53.8845 41.2111   1
  31 -32  -3 18.2134 36.5236   1
  32 -31  -3 53.0328 37.2550   1
  -1 -31   3 80.3299 36.4067   1
   1 -32   3 43.6942 34.9804   1
  31 -32  -6 89.5688 43.3823   1
  32 -31  -6 57.6745 36.9448   1
  32 -32   4 1277.29 105.230   1
  32 -32   1 822.960 79.2519   1
   0 -32   2 998.092 83.9724   1
  32 -32  -2 1126.38 91.3446   1
  32 -32  -5 1237.32 97.4859   1
   0 -32   5 1290.79 97.0960   1
  17 -33   8 36.8760 47.8571   1
  33 -17   8-46.8189 42.0686   1
  17 -33   5 354.582 58.0381   1
  33 -17   5 490.098 61.6100   1
  17 -33   2 71.1235 40.1747   1
  33 -17   2 93.1471 36.6529   1
  33 -16   1 1328.10 76.4429   1
  17 -33  -1 1147.12 96.8631   1
  16 -33   1 1330.79 98.4878   1
  33 -17  -1 1166.03 67.5136   1
  33 -16   4 1176.18 85.0061   1
  16 -33   4 1306.45 101.904   1
  33 -16   7 8.54580 38.3623   1
  16 -33   7-22.9454 43.7523   1
  18 -33   6 210.286 50.8025   1
  33 -18   6 132.101 46.1837   1
  33 -18   3 1320.25 85.9487   1
  18 -33   3 1527.97 105.028   1
  33 -18   0-15.5090 26.0960   1
  15 -33   0 14.6652 34.1669   1
  18 -33   0 73.9241 38.7390   1
  33 -15   0 11.6696 25.8965   1
  15 -33   3-42.1249 36.7848   1
  33 -15   3 48.0269 33.3810   1
  33 -15   6 201.332 52.9653   1
  15 -33   6 87.3284 42.9885   1
  33 -19   7 3505.04 159.664   1
  19 -33   7 3844.87 174.138   1
  33 -19   4 7899.23 212.220   1
  19 -33   4 8187.27 243.190   1
  14 -33  -1 4743.22 182.445   1
  19 -33   1 4988.86 180.893   1
  33 -19   1 4792.00 148.942   1
  19 -33  -2 2402.37 134.424   1
  14 -33   2 2583.87 132.078   1
  33 -14   2 2251.30 101.685   1
  33 -19  -2 2521.23 100.749   1
  33 -14   5 57.1748 38.2908   1
  14 -33   5-47.3015 45.0997   1
  14 -33   8-27.2094 43.7538   1
  33 -14   8 23.6559 37.2634   1
  33 -20   8 1213.87 103.803   1
  33 -20   5 3415.14 150.288   1
  20 -33   5 3617.31 163.389   1
  20 -33   2 3429.84 154.016   1
  33 -20   2 3516.32 134.330   1
  20 -33  -1 1071.56 90.9781   1
  13 -33   1 1088.74 91.4529   1
  33 -13   1 1186.45 70.5243   1
  33 -20  -1 1176.81 73.6183   1
  33 -13   4 64.3827 29.3674   1
  13 -33   4 72.7851 43.1320   1
  33 -13   7 13.7988 36.1333   1
  13 -33   7-32.5800 47.9246   1
  33 -21   6 376.436 58.1228   1
  21 -33   6 405.122 66.6314   1
  21 -33   3 1529.26 112.254   1
  33 -21   3 1596.11 99.4781   1
  12 -33   0 2284.97 127.568   1
  21 -33   0 2486.35 131.969   1
  33 -21   0 2244.35 105.504   1
  12 -33   3 3868.54 165.058   1
  33 -21  -3 4110.90 130.706   1
  33 -12   3 3912.64 138.259   1
  12 -33   6 2990.62 149.955   1
  33 -12   6 2529.80 131.786   1
  22 -33   7 374.731 67.0808   1
  33 -22   7 447.073 67.7718   1
  33 -22   4 718.609 73.8984   1
  22 -33   4 604.539 72.1330   1
  22 -33   1 2154.13 125.579   1
  33 -22   1 2227.04 107.413   1
  22 -33  -2 3138.60 151.404   1
  11 -33   2 3003.06 142.199   1
  33 -22  -2 3089.18 117.171   1
  33 -11   2 2822.20 109.828   1
  11 -33   5 4256.20 176.231   1
  33 -11   5 4160.09 154.592   1
  11 -33   8 926.923 92.8028   1
  33 -11   8 821.405 88.0231   1
  33 -23   5 365.139 60.3302   1
  23 -33   5 298.722 61.9922   1
  33 -23   2 81.2552 36.9980   1
  23 -33   2 58.0854 41.5552   1
  10 -33   1 593.651 71.1385   1
  23 -33  -1 563.148 66.4347   1
  33 -23  -1 622.063 61.8925   1
  33 -10   4 1842.47 102.276   1
  10 -33   4 1727.38 114.989   1
  33 -10   7 619.372 74.7277   1
  10 -33   7 716.292 82.7368   1
  33 -24   6-63.8446 46.1424   1
  24 -33   6-2.19870 42.1946   1
  33 -24   3 871.719 76.1234   1
  24 -33   3 870.372 87.1501   1
   9 -33   0 358.412 58.9728   1
  24 -33   0 217.572 52.2452   1
  33 -24   0 324.745 50.5207   1
  24 -33  -3 1622.72 110.609   1
   9 -33   3 1643.07 109.765   1
  33 -24  -3 1760.42 95.1253   1
  33  -9   6-13.9815 33.5547   1
   9 -33   6-42.9365 39.4621   1
   9 -33   9 65.2128 42.3624   1
  33 -25   7 135.801 48.2737   1
  25 -33   4 1937.02 124.837   1
  33 -25   4 1835.30 112.970   1
  25 -33   1 610.864 73.7039   1
  33 -25   1 597.543 63.7776   1
  -8 -25   2 2392.17 109.010   1
  25 -33  -2 2359.99 132.777   1
   8 -33   2 2368.27 130.467   1
  33 -25  -2 2363.78 112.125   1
   8 -33   5 111.456 43.5877   1
  33  -8   5 132.546 44.3363   1
   8 -33   8 68.5945 47.7544   1
  33 -26   5 217.330 51.9703   1
  26 -33   5 201.833 52.3552   1
  26 -33   2-22.6857 39.5285   1
  33 -26   2-17.6657 35.3217   1
  -7 -26   1 17.4236 29.3797   1
   7 -33   1 17.2844 36.3013   1
  26 -33  -1-14.7217 39.3369   1
  33 -26  -1 23.6119 33.5891   1
  26 -33  -4 58.6593 45.8467   1
  33 -26  -4 39.4534 29.1340   1
   7 -33   4 151.689 45.8357   1
  33  -7   7 419.476 62.2187   1
   7 -33   7 453.544 69.0155   1
  33 -27   6 2661.16 143.160   1
  27 -33   6 2604.66 151.227   1
  27 -33   3 3133.46 156.930   1
  33 -27   3 3365.04 147.179   1
   6 -33   0 1718.45 114.133   1
  27 -33   0 1689.91 110.173   1
  33 -27   0 1502.67 96.1387   1
  27 -33  -3 197.277 53.1829   1
  -6 -27   3 154.937 37.0009   1
   6 -33   3 250.492 54.5402   1
  33 -27  -3 193.592 47.0483   1
  33  -6   6 20.9266 36.9077   1
   6 -33   6 67.6398 44.5561   1
  28 -33   4 4993.62 193.715   1
  33 -28   4 4907.03 184.242   1
  28 -33   1 2867.02 145.610   1
  33 -28   1 2655.55 132.605   1
  -5 -28   2 856.682 73.0091   1
   5 -33   2 905.810 83.7296   1
  28 -33  -2 879.553 86.3098   1
  33 -28  -2 812.227 74.4922   1
  28 -33  -5 122.008 47.5536   1
  33 -28  -5 63.6640 38.4918   1
   5 -33   8 109.179 49.1767   1
  33  -5   8 23.9392 38.7935   1
  33 -29   5 351.341 61.3426   1
  29 -33   5 339.154 66.2114   1
  29 -33   2 1056.11 95.3453   1
  33 -29   2 1080.69 86.6536   1
  -4 -29   1 433.189 54.8208   1
   4 -33   1 442.863 63.3714   1
  29 -33  -1 387.439 64.7887   1
  33 -29  -1 395.370 59.2430   1
  29 -33  -4 344.251 59.2408   1
  33 -29  -4 371.398 58.8726   1
   4 -33   4 407.033 63.3467   1
   4 -33   7 89.5599 44.1302   1
  30 -33   3 809.309 84.9266   1
  33 -30   3 811.504 84.8527   1
   3 -33   0 2062.06 126.817   1
  30 -33   0 2374.47 130.566   1
  33 -30   0 2054.98 116.982   1
  30 -33  -3 4928.99 189.998   1
  -3 -30   3 5346.51 177.959   1
   3 -33   3 4973.92 186.923   1
  33 -30  -3 4789.22 178.290   1
  30 -33  -6 4796.73 197.556   1
  33 -30  -6 4899.48 185.719   1
  33 -31   4 55.6634 43.6136   1
  31 -33   4 95.3153 49.3595   1
  31 -33   1 194.014 56.7122   1
  33 -31   1 193.110 51.7117   1
  -2 -31   2 1511.72 100.346   1
   2 -33   2 1616.40 108.596   1
  31 -33  -2 1612.80 112.272   1
  33 -31  -2 1375.23 98.0183   1
  31 -33  -5 2170.13 133.887   1
  33 -31  -5 2149.52 124.478   1
   2 -33   5 1918.69 120.476   1
  32 -33   2 29.0709 42.2084   1
  33 -32   2 92.3900 43.7592   1
  -1 -32   1 46.4037 33.5241   1
   1 -33   1 20.1097 37.9322   1
  32 -33  -1 21.4441 37.7330   1
  33 -32  -1 18.9834 36.7415   1
  32 -33  -4-76.4644 47.9259   1
  33 -32  -4 52.1755 40.6542   1
   1 -33   4 7.15559 37.0968   1
  -1 -32   4 25.9626 31.9694   1
  32 -33  -7 222.508 56.4312   1
  33 -33   3 599.223 78.0759   1
   0 -33   0 2224.94 131.291   1
  33 -33   0 2174.77 132.382   1
  33 -33  -3 207.674 53.6521   1
   0 -33   3 253.590 53.4962   1
  33 -33  -6 9.86331 40.7588   1
  17 -34   0 140.633 46.2750   1
  34 -17   0 106.766 29.5017   1
  17 -34   3 151.134 45.1954   1
  34 -17   3 73.0055 34.8647   1
  34 -17   6 63.7713 44.2004   1
  17 -34   6-38.0850 45.4054   1
  34 -18   7 364.606 59.1258   1
  18 -34   7 348.173 65.2043   1
  18 -34   4 82.6566 40.5570   1
  34 -18   4 79.7934 40.2456   1
  16 -34  -1 157.187 48.6560   1
  34 -18   1 91.7237 33.3853   1
  18 -34   1 150.300 47.8411   1
  18 -34  -2 585.528 91.1077   1
  16 -34   2 1072.54 92.2372   1
  34 -16   2 1008.29 74.2708   1
  34 -16   5 465.022 62.0338   1
  16 -34   5 542.004 72.1537   1
  34 -16   8 123.700 46.3447   1
  19 -34   5 588.982 76.5737   1
  34 -19   5 641.518 70.7862   1
  34 -19   2 497.748 56.2611   1
  19 -34   2 490.929 67.0322   1
  34 -19  -1 5.44047 26.9881   1
  19 -34  -1 60.0435 45.1491   1
  15 -34   1-2.20056 40.0201   1
  34 -15   1-6.72866 25.4344   1
  34 -15   4 42.0016 36.2465   1
  15 -34   4 27.2529 42.5336   1
  34 -15   7 207.119 54.1851   1
  15 -34   7 214.404 58.0445   1
  34 -20   6 515.116 66.7743   1
  20 -34   6 612.121 82.8258   1
  34 -20   3 251.364 49.3363   1
  20 -34   3 308.815 60.0347   1
  34 -20   0 109.779 36.9591   1
  14 -34   0 64.2336 41.1742   1
  20 -34   0 110.022 51.5658   1
  14 -34   3 958.262 87.3828   1
  34 -14   3 838.486 69.3545   1
  14 -34   6 1551.31 112.599   1
  34 -14   6 1206.29 92.5749   1
  34 -21   7 84.9400 39.3928   1
  34 -21   4 206.508 49.7171   1
  21 -34   4 48.3428 44.2161   1
  34 -21   1 113.927 35.7148   1
  13 -34  -1 133.020 48.2573   1
  21 -34   1 103.248 46.6065   1
  34 -13   2 83.0212 33.7715   1
  21 -34  -2 72.2368 47.4026   1
  13 -34   2 31.2359 37.8755   1
  34 -21  -2 63.3419 29.0458   1
  34 -13   5 73.7245 38.3876   1
  13 -34   5 54.9500 41.2417   1
  34 -13   8 74.5681 42.7033   1
  13 -34   8 61.5539 49.6472   1
  34 -22   5 14.3481 36.7311   1
  22 -34   5 58.7734 48.0049   1
  22 -34   2 835.170 81.7253   1
  34 -22   2 879.554 75.3906   1
  22 -34  -1 1502.49 109.399   1
  12 -34   1 1481.27 104.989   1
  34 -22  -1 1555.12 87.8200   1
  12 -34   4 3663.77 163.205   1
  34 -12   4 3665.53 141.256   1
  34 -12   7 532.848 70.5647   1
  12 -34   7 687.041 80.9385   1
  34 -23   6 170.273 55.7168   1
  23 -34   6 31.7246 45.5642   1
  34 -23   3 385.524 57.4381   1
  23 -34   3 337.978 64.2623   1
  11 -34   0-47.4126 40.4250   1
  23 -34   0 42.7249 39.0096   1
  34 -23   0 49.5141 32.8754   1
  23 -34  -3 2021.30 126.583   1
  11 -34   3 2055.53 121.382   1
  34 -11   6 74.2827 37.8449   1
  11 -34   6 47.8803 40.1227   1
  34 -24   7-13.3889 48.3690   1
  34 -24   4-25.8188 40.5359   1
  24 -34   4 74.8627 49.2666   1
  24 -34   1 258.704 61.8242   1
  34 -24   1 290.992 49.8010   1
  24 -34  -2 381.167 63.3309   1
  10 -34   2 392.491 61.8525   1
  34 -24  -2 412.704 50.9118   1
  34 -10   5 111.033 40.1586   1
  10 -34   5 54.0702 40.2491   1
  10 -34   8 135.054 50.8656   1
  34 -10   8 175.321 49.0772   1
  34 -25   5 3269.77 151.824   1
  25 -34   5 3878.19 174.137   1
  25 -34   2 2942.26 150.647   1
  34 -25   2 2935.30 133.677   1
  -9 -25   1 6658.61 184.637   1
   9 -34   1 6669.48 218.178   1
  25 -34  -1 6746.94 218.952   1
  34 -25  -1 6480.40 184.811   1
  25 -34  -4 4872.99 195.735   1
   9 -34   4 4666.60 182.658   1
  34  -9   7 1110.73 94.6094   1
   9 -34   7 1274.86 105.604   1
  34 -26   6-17.1058 46.1252   1
  34 -26   3 347.295 54.8633   1
  26 -34   3 472.770 73.2474   1
   8 -34   0 15.0293 42.9952   1
  26 -34   0 36.4023 37.0956   1
  34 -26   0 78.1726 38.1000   1
  26 -34  -3 122.024 45.4398   1
   8 -34   3 199.201 49.8675   1
  34 -26  -3 139.691 41.0262   1
  34  -8   6 159.056 46.1546   1
   8 -34   6 39.0333 41.2889   1
  34 -27   4 492.482 65.7653   1
  27 -34   4 577.717 81.2720   1
  27 -34   1 117.720 47.3610   1
  34 -27   1 133.975 43.6006   1
  -7 -27   2 343.097 49.9192   1
  27 -34  -2 315.111 62.4888   1
   7 -34   2 357.750 60.7051   1
  34 -27  -2 383.780 53.7508   1
  27 -34  -5 3.35633 39.2102   1
   7 -34   5-28.4593 43.1717   1
  34  -7   8 148.587 50.9445   1
  28 -34   5 3098.98 161.833   1
  34 -28   5 2676.84 143.780   1
  28 -34   2 1749.18 126.351   1
  34 -28   2 1876.12 112.578   1
  -6 -28   1 1266.80 87.8890   1
   6 -34   1 1261.23 101.939   1
  28 -34  -1 1156.63 100.765   1
  34 -28  -1 1198.55 88.8177   1
  28 -34  -4 24.3848 37.9960   1
   6 -34   4 10.4877 39.9739   1
   6 -34   7 100.753 50.5915   1
  34 -29   3-13.0250 41.2895   1
  29 -34   3 6.71304 45.0972   1
   5 -34   0 423.348 64.9643   1
  29 -34   0 567.785 73.6999   1
  34 -29   0 522.208 69.0452   1
  29 -34  -3 722.767 80.7360   1
   5 -34   3 734.808 78.1472   1
  34 -29  -3 725.842 73.1528   1
  29 -34  -6 1266.80 109.251   1
   5 -34   6 1261.51 101.054   1
  34 -30   4 504.363 71.7361   1
  30 -34   4 498.361 77.7111   1
  30 -34   1 17.5753 40.1903   1
  34 -30   1-43.1023 45.2196   1
  -4 -30   2 3.68303 28.8697   1
   4 -34   2-29.2842 42.9702   1
  30 -34  -2 47.8262 42.8756   1
  34 -30  -2 33.1393 35.1280   1
  30 -34  -5 48.1058 44.6465   1
  34 -30  -5 20.0774 37.1103   1
   4 -34   5 55.7607 47.1812   1
  34 -31   5-3.42914 44.5145   1
  31 -34   2 68.0574 48.1958   1
  34 -31   2 2.78856 39.2784   1
  -3 -31   1 762.856 75.4046   1
   3 -34   1 748.861 80.1505   1
  31 -34  -1 684.602 80.1155   1
  34 -31  -1 634.254 72.3135   1
  31 -34  -4 535.054 70.0415   1
  34 -31  -4 588.589 71.1483   1
   3 -34   4 533.167 70.4446   1
  31 -34  -7 893.616 94.2978   1
  32 -34   3 76.3731 43.1428   1
  34 -32   3 103.536 49.6787   1
  -2 -32   0 431.793 61.5012   1
   2 -34   0 438.392 67.0312   1
  32 -34   0 371.907 62.6723   1
  34 -32   0 430.448 63.6897   1
  32 -34  -3 0.68610 37.2924   1
  -2 -32   3 35.8212 34.6976   1
   2 -34   3 95.5055 41.1756   1
  34 -32  -3 14.3699 42.0757   1
  33 -34   1 192.175 55.3386   1
  34 -33   1 204.109 54.1036   1
  -1 -33   2 115.939 41.8257   1
   1 -34   2 71.7052 42.1614   1
  33 -34  -2 138.071 48.4036   1
  34 -33  -2 134.235 48.0856   1
  33 -34  -5 44.0254 45.1389   1
  34 -33  -5 74.6194 43.9890   1
  34 -34   2 1958.88 126.909   1
   0 -34   1 2990.63 149.956   1
  34 -34  -1 3285.53 161.069   1
  34 -34  -4 1050.17 93.8390   1
  35 -18   8 97.5488 51.0090   1
  18 -35   5 251.956 57.9953   1
  35 -18   5 319.384 57.8858   1
  17 -35  -2 341.126 67.7398   1
  18 -35   2 404.631 63.7802   1
  35 -18   2 382.877 53.1085   1
  18 -35  -1 2050.84 130.323   1
  35 -17   1 2095.04 99.4500   1
  17 -35   1 2112.35 130.015   1
  17 -35   4 1106.10 97.0674   1
  35 -17   4 997.366 83.3169   1
  35 -17   7 1033.51 93.3190   1
  19 -35   6 324.074 63.5142   1
  35 -19   6 217.947 51.1810   1
  19 -35   3 42.6793 40.6982   1
  35 -19   3-11.6993 35.9289   1
  35 -19   0 272.045 43.0566   1
  16 -35   0 245.081 53.2303   1
  19 -35   0 184.720 52.0630   1
  16 -35   3 578.982 72.0791   1
  35 -16   3 557.282 63.2344   1
  35 -16   6 440.899 64.1884   1
  16 -35   6 495.255 71.5456   1
  35 -20   7 353.858 63.8265   1
  35 -20   4 793.016 76.0514   1
  20 -35   4 786.676 86.7340   1
  15 -35  -1 2001.28 125.553   1
  20 -35   1 1950.94 122.548   1
  35 -20   1 1830.31 97.0967   1
  20 -35  -2 1047.13 100.204   1
  15 -35   2 1145.33 99.7044   1
  35 -15   5 491.013 64.1624   1
  15 -35   5 585.740 74.3761   1
  35 -15   8 70.6993 45.4015   1
  35 -21   5 827.864 82.6353   1
  21 -35   5 732.277 83.8912   1
  21 -35   2 1816.75 120.867   1
  35 -21   2 1764.75 101.384   1
  21 -35  -1 2058.04 129.913   1
  14 -35   1 2392.48 134.803   1
  35 -21  -1 2216.78 101.717   1
  14 -35   4 1785.45 120.578   1
  35 -14   4 1690.21 100.371   1
  14 -35   7 219.192 60.9702   1
  35 -22   6 77.3672 49.9868   1
  22 -35   6 139.579 54.4211   1
  35 -22   3 272.138 51.8835   1
  22 -35   3 195.618 55.8812   1
  35 -22   0 73.1825 32.4526   1
  13 -35   0 23.0814 37.4248   1
  22 -35   0 16.4128 38.2411   1
  22 -35  -3 238.252 64.6937   1
  13 -35   3 151.698 48.7398   1
  35 -13   6 38.0820 35.9144   1
  13 -35   6 9.52446 40.0948   1
  35 -23   7 194.203 55.1234   1
  35 -23   4 379.144 57.7059   1
  23 -35   4 373.585 68.0012   1
  35 -23   1 74.3612 35.2983   1
  12 -35  -1 113.075 47.9179   1
  23 -35   1 78.9371 39.6985   1
  23 -35  -2 1271.67 107.536   1
  12 -35   2 1428.65 105.369   1
  12 -35   5 486.595 68.1924   1
  35 -12   5 552.953 66.8037   1
  35 -12   8 596.948 78.4714   1
  35 -24   5 529.868 68.7384   1
  24 -35   5 469.710 71.9996   1
  35 -24   2 383.359 56.0394   1
  24 -35   2 323.496 60.6634   1
  11 -35   1 298.858 57.3715   1
  24 -35  -1 254.661 56.6087   1
  35 -24  -1 194.534 44.3272   1
  24 -35  -4 55.5098 52.0156   1
  11 -35   4-8.02441 42.5186   1
  35 -11   7 67.4748 41.9402   1
  11 -35   7 183.256 58.2923   1
  35 -25   6 44.4038 40.8956   1
  25 -35   3 28.2724 44.2590   1
  10 -35   0 996.538 94.0906   1
  25 -35   0 855.044 92.0979   1
  35 -25   0 846.807 71.7865   1
  25 -35  -3 1004.26 93.9225   1
  10 -35   3 986.012 91.0372   1
  35 -10   6 982.550 85.9206   1
  10 -35   6 1094.77 97.9872   1
  35 -26   4 317.422 55.8380   1
  26 -35   4 404.456 74.8944   1
  26 -35   1 149.705 50.9296   1
  35 -26   1 244.193 49.8555   1
  26 -35  -2 145.327 48.0395   1
   9 -35   2 97.0674 44.4993   1
  35 -26  -2 109.123 38.6872   1
   9 -35   5 2.48623 43.3422   1
  35  -9   8 22.3692 42.3044   1
  35 -27   5-24.9375 45.5160   1
  35 -27   2 261.573 50.0283   1
  27 -35   2 264.545 61.7623   1
  -8 -27   1 2658.85 122.407   1
   8 -35   1 2784.11 146.018   1
  27 -35  -1 2591.07 142.453   1
  35 -27  -1 2580.36 123.923   1
  27 -35  -4 1945.83 128.418   1
   8 -35   4 1959.06 124.968   1
   8 -35   7 983.863 96.3593   1
  35 -28   3 499.179 65.8483   1
  28 -35   3 441.789 72.1174   1
   7 -35   0 1301.41 106.380   1
  28 -35   0 1154.85 98.0968   1
  35 -28   0 1093.55 87.4136   1
  28 -35  -3 2933.05 157.596   1
   7 -35   3 2947.87 148.595   1
  35 -28  -3 3138.74 135.880   1
   7 -35   6 1263.08 102.450   1
  35 -29   4 285.691 62.0710   1
  29 -35   4 240.833 59.2050   1
  29 -35   1 248.183 59.9409   1
  35 -29   1 309.223 55.2261   1
   6 -35   2 655.312 79.0076   1
  29 -35  -2 589.914 77.3764   1
  35 -29  -2 699.750 72.0075   1
  29 -35  -5 512.583 75.9541   1
   6 -35   5 349.177 63.8411   1
  30 -35   2 2679.22 149.501   1
  35 -30   2 2539.84 138.485   1
  -5 -30   1 4207.17 165.599   1
   5 -35   1 4333.67 182.148   1
  30 -35  -1 4393.50 184.947   1
  35 -30  -1 4115.17 164.888   1
  30 -35  -4 1202.38 106.050   1
   5 -35   4 1031.04 93.7434   1
  35 -31   3 858.720 87.8082   1
   4 -35   0 862.692 89.2245   1
  31 -35   0 935.153 91.9341   1
  35 -31   0 895.459 83.4409   1
  31 -35  -3 241.743 59.8169   1
   4 -35   3 254.352 56.3713   1
  35 -31  -3 312.193 60.3782   1
  31 -35  -6 168.803 58.2736   1
   4 -35   6 92.3959 44.5032   1
  35 -32   4 914.748 91.2055   1
  32 -35   1 1601.34 119.911   1
  35 -32   1 1477.55 107.983   1
  -3 -32   2 769.791 77.9940   1
   3 -35   2 693.016 80.2332   1
  32 -35  -2 775.735 81.5018   1
  35 -32  -2 732.291 80.5178   1
  32 -35  -5 217.283 58.2713   1
  35 -32  -5 66.6288 40.4852   1
   3 -35   5 152.096 53.8644   1
  33 -35   2 1111.49 100.910   1
  35 -33   2 1338.63 107.506   1
  -2 -33   1 1036.49 90.1462   1
   2 -35   1 992.792 91.2035   1
  35 -33  -1 1134.35 94.8565   1
  33 -35  -1 1009.44 94.1252   1
  33 -35  -4 544.980 73.5980   1
  35 -33  -4 448.029 65.8802   1
   2 -35   4 448.268 68.1337   1
  -1 -34   0 8.68707 40.6769   1
   1 -35   0 99.7822 46.2035   1
  34 -35   0 69.3386 45.5395   1
  35 -34   0 38.6928 50.7870   1
  34 -35  -3 7.89235 43.6042   1
   1 -35   3 127.657 48.1934   1
  35 -34  -3 74.8750 47.8326   1
  35 -35   1 262.503 59.9957   1
   0 -35   2 91.8057 43.4292   1
  35 -35  -2 57.8317 43.4798   1
  18 -36   0 502.604 74.9736   1
  18 -36   3 162.015 52.4021   1
  36 -18   3 119.042 41.1077   1
  36 -18   6 99.9094 48.2149   1
  18 -36   6 9.36869 47.0086   1
  36 -19   7 399.337 65.1950   1
  19 -36   4 31.5167 42.8152   1
  36 -19   4 45.5937 41.1383   1
  17 -36  -1 166.620 56.8050   1
  19 -36   1 290.191 57.9914   1
  19 -36  -2 2431.54 153.956   1
  17 -36   2 2901.20 148.762   1
  17 -36   5 2214.77 136.118   1
  36 -17   5 2081.91 118.290   1
  36 -20   5 3136.74 147.012   1
  20 -36   5 3742.02 175.359   1
  16 -36  -2 2769.29 157.926   1
  36 -20   2 2679.97 119.997   1
  20 -36   2 3063.83 152.279   1
  20 -36  -1 706.310 89.0431   1
  16 -36   1 809.078 87.0567   1
  36 -16   4 409.180 57.5233   1
  16 -36   4 588.773 76.0241   1
  36 -16   7 273.825 62.4058   1
  36 -21   6 2342.02 133.942   1
  36 -21   3 4940.74 171.534   1
  21 -36   3 5442.38 206.264   1
  15 -36   0 5718.88 209.406   1
  21 -36   0 5571.13 209.625   1
  21 -36  -3 3536.44 184.204   1
  15 -36   3 3962.71 177.779   1
  15 -36   6 1691.81 122.072   1
  36 -15   6 1274.01 99.0311   1
  36 -22   7 827.347 87.2325   1
  36 -22   4 2932.99 139.383   1
  22 -36   4 3123.42 162.563   1
  14 -36  -1 3933.35 176.828   1
  22 -36   1 3497.74 171.061   1
  36 -22   1 3479.80 135.751   1
  22 -36  -2 5776.68 221.771   1
  14 -36   2 5991.12 218.763   1
  14 -36   5 3157.94 157.334   1
  36 -14   5 2725.02 132.177   1
  36 -14   8 50.6060 47.0236   1
  36 -23   5 401.566 64.2573   1
  23 -36   5 332.842 65.8499   1
  36 -23   2 611.275 66.5493   1
  23 -36   2 608.589 75.1927   1
  23 -36  -1 425.453 69.5423   1
  13 -36   1 508.002 76.0478   1
  13 -36   4 450.483 67.6762   1
  36 -24   6 697.763 81.6911   1
  36 -24   3 53.1204 41.3047   1
  24 -36   3 46.5503 44.3135   1
  36 -24   0 326.454 50.7436   1
  12 -36   0 349.518 59.9778   1
  24 -36   0 320.261 60.2653   1
  24 -36  -3-23.2141 51.0270   1
  12 -36   3-61.1839 46.6688   1
  36 -12   6 7.23845 37.6503   1
  12 -36   6-87.1904 51.5960   1
  36 -25   4 27.8446 42.2956   1
  25 -36   4-43.5614 48.1608   1
  36 -25   1 101.236 41.9414   1
  11 -36  -1 87.3848 47.7197   1
  25 -36   1 138.408 48.9313   1
  25 -36  -2 1174.74 103.229   1
  11 -36   2 1201.52 100.166   1
  11 -36   5 2841.23 153.656   1
  36 -26   5 67.3016 46.2338   1
  36 -26   2 236.609 49.5764   1
  26 -36   2 144.637 57.4943   1
  10 -36   1 372.601 57.6077   1
  26 -36  -1 531.243 76.8579   1
  36 -26  -1 450.937 56.2217   1
  26 -36  -4 741.283 88.1665   1
  10 -36   4 663.268 79.6629   1
  36 -27   3 217.391 52.6156   1
  27 -36   3 157.452 57.4675   1
   9 -36   0-3.37889 38.5395   1
  27 -36   0 1.21409 39.0628   1
  36 -27   0-5.89729 34.2185   1
  27 -36  -3 108.574 50.7968   1
   9 -36   3-29.7919 44.3388   1
   9 -36   6 160.483 57.0192   1
  36 -28   4 158.876 50.4697   1
   8 -36  -1 1240.65 107.880   1
  28 -36   1 1139.46 101.402   1
  36 -28   1 1209.65 92.7897   1
  28 -36  -2 4279.66 187.480   1
   8 -36   2 3970.77 179.194   1
  36 -28  -2 3944.15 153.348   1
  28 -36  -5 2486.36 147.923   1
   8 -36   5 2231.16 134.672   1
  36 -29   5 533.624 73.0088   1
  29 -36   2 305.776 62.5302   1
  36 -29   2 395.460 63.8381   1
   7 -36   1 501.029 73.9612   1
  29 -36  -1 530.440 75.5275   1
  36 -29  -1 488.406 63.9816   1
  29 -36  -4 125.723 48.6987   1
   7 -36   4 190.931 54.3384   1
   7 -36   7 41.1270 46.2635   1
  36 -30   3 3691.77 164.953   1
   6 -36   0 5462.07 212.257   1
  30 -36   0 5372.56 204.845   1
  36 -30   0 4911.08 184.307   1
  30 -36  -3 3900.85 181.589   1
   6 -36   3 3843.40 174.611   1
  36 -30  -3 4073.38 165.101   1
   6 -36   6 874.232 91.3742   1
  36 -31   4 3419.92 162.953   1
  31 -36   1 8985.18 268.202   1
  36 -31   1 8652.07 249.543   1
   5 -36   2 6636.19 229.974   1
  31 -36  -2 6907.80 236.211   1
  36 -31  -2 6757.28 210.357   1
  31 -36  -5 2581.77 149.455   1
   5 -36   5 2399.28 140.207   1
  36 -32   2 64.4861 42.9047   1
   4 -36   1 535.297 74.9547   1
  32 -36  -1 703.565 82.5714   1
  36 -32  -1 628.095 74.0186   1
  32 -36  -4 744.055 84.6766   1
  36 -32  -4 696.852 76.9551   1
   4 -36   4 750.994 82.5085   1
  36 -33   3 1777.99 123.639   1
  -3 -33   0 1427.02 109.083   1
   3 -36   0 1575.25 118.484   1
  33 -36   0 1545.31 116.481   1
  36 -33   0 1355.75 104.218   1
  33 -36  -3 187.239 57.9380   1
   3 -36   3 184.973 53.4359   1
  36 -33  -3 124.332 51.1114   1
  36 -34   1 167.730 51.4994   1
   2 -36   2 58.0657 43.6170   1
  34 -36  -2 74.0135 46.5603   1
  36 -34  -2 34.3272 39.9213   1
  -1 -35   1-15.6634 37.9476   1
   1 -36   1-9.86349 38.2677   1
  35 -36  -1 38.3582 44.4832   1
  36 -35  -1 17.7298 38.5605   1
   0 -36   0 817.194 86.8343   1
  36 -36  -3 241.671 58.1188   1
  37 -19   5 140.357 48.8413   1
  18 -37  -2 280.273 66.0740   1
  19 -37   2 442.566 69.5428   1
  19 -37  -1 730.135 87.5765   1
  18 -37   1 893.330 90.7297   1
  18 -37   4 2033.08 134.106   1
  37 -18   4 1777.44 109.952   1
  37 -18   7 872.287 91.7375   1
  37 -20   6 84.7411 45.1462   1
  20 -37   3-15.8262 45.1582   1
  37 -20   3-0.54938 35.8478   1
  17 -37   0 198.641 55.8964   1
  20 -37   0 326.115 63.5610   1
  20 -37  -3 1290.72 124.092   1
  17 -37   3 1560.70 115.776   1
  37 -17   6 863.433 86.8847   1
  21 -37   4 146.578 54.6646   1
  37 -21   4 230.272 50.5522   1
  16 -37  -1 145.042 55.3195   1
  21 -37   1 82.6124 48.0165   1
  21 -37  -2 45.3145 48.4868   1
  16 -37   2-15.1643 40.4756   1
  37 -16   5 55.1855 39.1943   1
  16 -37   5-6.18933 42.4124   1
  37 -22   5 7.04623 37.4486   1
  15 -37  -2 146.865 54.3576   1
  37 -22   2 75.6646 37.0572   1
  22 -37   2 120.676 50.2589   1
  22 -37  -1 640.642 82.7769   1
  15 -37   1 706.783 82.9649   1
  15 -37   4 285.202 63.0377   1
  37 -15   7 177.826 57.5524   1
  37 -23   6 132.138 47.2215   1
  37 -23   3-29.7371 35.2150   1
  23 -37   3-87.7784 47.3568   1
  14 -37   0-0.02032 42.3591   1
  23 -37   0 31.4440 40.2999   1
  23 -37  -3 23.2499 46.3223   1
  37 -14   6-12.2431 36.8643   1
  37 -24   4 259.271 57.2164   1
  13 -37  -1 1837.29 126.848   1
  24 -37   1 1740.40 123.880   1
  37 -24   1 1608.73 97.8081   1
  24 -37  -2 1264.79 112.954   1
  13 -37   2 1590.71 118.918   1
  13 -37   5 1877.34 129.798   1
  37 -25   5 519.515 71.1437   1
  37 -25   2 632.181 69.9246   1
  25 -37   2 475.777 82.7017   1
  12 -37   1 755.772 88.5368   1
  25 -37  -1 775.217 91.4954   1
  25 -37  -4 285.363 66.8434   1
  12 -37   4 326.369 62.7989   1
  37 -26   3-46.0344 40.9819   1
  26 -37   3-42.2705 49.4300   1
  11 -37   0-41.7897 43.0669   1
  26 -37   0 19.9742 42.9692   1
  37 -26   0 52.0810 35.4328   1
  26 -37  -3 202.344 56.3384   1
  11 -37   3 60.0955 40.0263   1
  37 -27   4 29.7170 42.0900   1
  37 -27   1 57.3694 39.1662   1
  10 -37  -1 25.1709 38.8569   1
  27 -37   1 6.01046 41.0286   1
  27 -37  -2 30.7138 45.7473   1
  10 -37   2 83.7590 47.6423   1
  10 -37   5-9.31504 43.3529   1
  37 -28   2 491.727 64.4655   1
  28 -37   2 623.468 84.2606   1
   9 -37   1 1899.50 126.805   1
  28 -37  -1 1831.50 123.788   1
  37 -28  -1 1878.95 108.491   1
  28 -37  -4 1611.23 121.668   1
   9 -37   4 1405.20 113.559   1
  37 -29   3 824.917 81.3572   1
   8 -37   0 2112.77 134.620   1
  29 -37   0 2056.72 133.365   1
  37 -29   0 1873.03 113.657   1
  29 -37  -3 1448.97 115.806   1
   8 -37   6 826.891 92.7260   1
  37 -30   4-16.9651 42.1163   1
   7 -37  -1-4.97599 44.4619   1
  30 -37   1-9.88917 45.0227   1
   7 -37   2-48.7657 43.8691   1
  30 -37  -2-9.72461 41.1241   1
  37 -30  -2 9.45473 39.2990   1
   7 -37   5 99.6437 54.1816   1
  37 -31   2 1213.36 100.574   1
  31 -37  -1 607.448 81.6166   1
  37 -31  -1 474.114 67.1610   1
   6 -37   4 424.840 71.8190   1
  37 -32   3-66.3941 47.3118   1
  -5 -32   0 91.3207 40.3591   1
   5 -37   0 109.873 46.3103   1
  32 -37   0 117.137 51.2232   1
  37 -32   0 112.197 43.8508   1
   5 -37   3 57.2855 44.4203   1
  37 -32  -3 8.68744 37.8979   1
   4 -37  -1 1696.88 128.885   1
   4 -37   2 896.442 89.9122   1
  37 -33  -2 912.536 89.6480   1
  37 -34  -1 621.966 81.0108   1
  -2 -35   0 172.642 48.5883   1
   2 -37   0 31.3765 42.4113   1
  37 -35   0 124.300 53.7486   1
   2 -37   3 92.4476 45.9445   1
  37 -35  -3 19.9600 42.7034   1
  19 -38   0 451.958 73.4256   1
  19 -38  -3 125.225 61.1148   1
  19 -38   3 52.5130 46.7845   1
  38 -20   4 428.824 64.6574   1
  18 -38  -1 707.604 89.1273   1
  20 -38   1 653.173 82.2612   1
  20 -38  -2 504.476 85.3611   1
  18 -38   2 596.978 80.1654   1
  38 -18   5 14.8662 37.9653   1
  38 -21   5 369.752 63.8995   1
  17 -38  -2 585.790 89.3648   1
  21 -38   2 643.590 83.5138   1
  21 -38  -1 324.957 69.0715   1
  17 -38   1 543.052 75.9389   1
  38 -22   6 807.906 85.9621   1
  38 -22   3 881.017 82.2596   1
  16 -38   0 249.127 57.1915   1
  22 -38   0 160.745 57.4221   1
  22 -38  -3 45.0216 51.4508   1
  16 -38   3 154.882 50.8424   1
  38 -23   4 514.778 69.2526   1
  15 -38  -1 8.81899 42.7453   1
  23 -38   1 61.5237 46.9283   1
  23 -38  -2 45.8886 41.4445   1
  15 -38   2 151.301 53.7735   1
  38 -24   5-75.2597 44.8038   1
  14 -38  -2 275.232 63.1068   1
  38 -24   2 206.353 47.0791   1
  24 -38   2 447.985 72.6936   1
  24 -38  -1 824.429 91.6445   1
  14 -38   1 822.657 90.4600   1
  14 -38   4 1659.23 125.807   1
  38 -25   3-37.2583 44.8313   1
  25 -38   0 812.287 100.692   1
  13 -38   0 899.750 93.1927   1
  13 -38   3 824.916 89.7816   1
  38 -26   4 14.9217 43.8647   1
  38 -26   1 34.0504 35.7608   1
  12 -38  -1-2.15354 43.2602   1
  26 -38   1 8.57810 40.2313   1
  26 -38  -2-65.3609 46.2132   1
  12 -38   2-29.2785 43.0596   1
  38 -27   5 426.590 70.2526   1
  38 -27   2 728.317 76.0307   1
  11 -38   1 3017.14 160.882   1
  27 -38  -1 2523.90 155.195   1
  38 -28   3 148.632 53.1598   1
  10 -38   0 529.147 76.3368   1
  28 -38   0 413.230 79.7454   1
  38 -28   0 535.786 65.0059   1
  10 -38   3 445.613 73.1919   1
  38 -29   4 18.7382 40.1078   1
   9 -38  -1-32.8095 44.4745   1
  38 -29   1 34.2275 37.3699   1
   8 -38   1 935.746 95.9363   1
  38 -30  -1 634.788 71.8112   1
   8 -38   4 246.169 55.5361   1
  38 -31   3-5.90906 40.4161   1
   7 -38   0-21.4442 44.5727   1
  38 -31   0 140.160 48.8990   1
   7 -38   3-61.2587 46.5628   1
  38 -32   1-34.4279 40.9260   1
   6 -38   2 125.386 51.6829   1
  38 -32  -2 169.332 49.0164   1
  38 -33   2 298.639 64.0527   1
   5 -38   1 426.921 72.7173   1
  38 -33  -1 325.763 60.5804   1
   5 -38   4 792.934 94.1107   1
  38 -34   0-28.8071 45.0682   1
   4 -38   3 24.1218 42.3917   1
  38 -35  -2-31.5332 47.8065   1
  39 -20   5 319.792 60.4795   1
  39 -21   6 6.07060 41.8008   1
  18 -39   0 145.473 50.9539   1
  39 -22   4 3357.00 151.562   1
  39 -23   5 1497.26 108.686   1
  16 -39   1 888.895 94.1018   1
  39 -24   3 129.497 45.4091   1
  15 -39   0 231.407 53.9108   1
  39 -25   4 55.2702 43.5358   1
  39 -26   5 108.154 51.6164   1
  39 -27   3 82.3610 51.8616   1
  39 -28   4 153.505 49.9001   1
  39 -28   1 468.039 65.2168   1
  39 -30   3 312.211 58.3961   1
  39 -30   0 161.393 51.5068   1
  39 -31   1 710.718 80.9765   1
  39 -32   2 324.082 60.5441   1
  39 -32  -1 302.490 58.6521   1
  39 -33   0 956.672 91.8463   1
  40 -24   4 140.407 50.3466   1
  40 -25   5 531.158 75.6906   1
  40 -26   3 68.2351 42.7778   1
  40 -27   4 116.217 51.1349   1
  40 -28   2-75.3577 42.3224   1
  40 -29   3 664.529 78.0663   1
  40 -30   1 33.4887 38.9593   1
  40 -31   2 153.106 52.6101   1
   0   0   0    0.00    0.00   0
 
TITL bu in R-3m
REM R-3m (#166 in standard setting)
CELL 0.71073  31.811626  31.811626  11.609615  90.0000  90.0000 120.0000
ZERR   13.00   0.000876   0.000876   0.000384   0.0000   0.0000   0.0000
LATT  3
SYMM -y, x-y, z
SYMM -x+y,-x, z
SYMM  y, x,-z
SYMM  x-y,-y,-z
SYMM -x,-x+y,-z
SFAC C H N O S Zn
UNIT 260.00 260.00 130.00 130.00 52.00 26.00
TREF
HKLF 4
END
;
_shelx_hkl_checksum              69958
_shelx_fab_file
;
    0    0    3     97.49      0.00
    0    0    6    -29.95      0.00
    0    0    9      0.97      0.00
    0    0   12     -4.37      0.00
    0    1   11     -4.14      0.00
    0    1    8      4.36      0.00
    0    1    5    -25.81      0.00
    0    1    2    224.25      0.00
   -1    1    4    -31.63      0.00
   -1    1    7      1.95      0.00
   -1    1   10      3.62      0.00
   -1    1   13     -1.18      0.00
   -1    2    3    -13.61      0.00
   -1    2    6     10.52      0.00
   -1    2    9      5.88      0.00
   -1    2   12     -1.84      0.00
    0    2   13     -6.38      0.00
    0    2   10    -12.32      0.00
    0    2    7     18.23      0.00
    0    2    4     38.21      0.00
   -2    2    2    -53.36      0.00
   -2    2    5    -22.51      0.00
   -2    2    8     17.16      0.00
   -2    2   11     15.82      0.00
   -2    2   14     -0.70      0.00
   -1    3   14     -2.11      0.00
   -1    3   11     -8.24      0.00
   -1    3    8     -2.74      0.00
   -1    3    5     47.15      0.00
   -1    3    2   -114.52      0.00
   -2    3    4     -4.53      0.00
   -2    3    7      5.63      0.00
   -2    3   10     12.77      0.00
   -2    3   13      4.27      0.00
    0    3   12    -10.79      0.00
    0    3    9    -19.01      0.00
    0    3    6     43.70      0.00
    0    3    3     -2.12      0.00
   -3    3    3    -24.42      0.00
   -3    3    6    -12.04      0.00
   -3    3    9     20.16      0.00
   -3    3   12     16.48      0.00
   -2    4    3     11.86      0.00
   -2    4    6      1.53      0.00
   -2    4    9     -6.64      0.00
   -2    4   12      2.52      0.00
   -2    4   15      3.40      0.00
   -1    4   13      1.00      0.00
   -1    4   10    -14.27      0.00
   -1    4    7     -1.41      0.00
   -1    4    4     45.06      0.00
   -3    4    2     32.84      0.00
   -3    4    5     -5.89      0.00
   -3    4    8     -1.31      0.00
   -3    4   11     11.50      0.00
   -3    4   14      2.99      0.00
    0    4   14      0.77      0.00
    0    4   11     -9.17      0.00
    0    4    8     -7.40      0.00
    0    4    5     25.12      0.00
    0    4    2    -25.22      0.00
   -4    4    1    100.44      0.00
   -4    4    4     30.20      0.00
   -4    4    7     -6.44      0.00
   -4    4   10      6.66      0.00
   -4    4   13      3.45      0.00
   -2    5   14      4.07      0.00
   -2    5   11     -0.09      0.00
   -2    5    8    -14.09      0.00
   -2    5    5      4.23      0.00
   -2    5    2     43.46      0.00
   -3    5    1     99.49      0.00
   -3    5    4     32.87      0.00
   -3    5    7    -19.74      0.00
   -3    5   10     -2.13      0.00
   -3    5   13      2.68      0.00
   -1    5   12      0.80      0.00
   -1    5    9      2.39      0.00
   -1    5    6      1.44      0.00
   -1    5    3    -10.50      0.00
   -1    5    0    146.52      0.00
   -4    5    3     85.68      0.00
   -4    5    6     -4.62      0.00
   -4    5    9     -0.99      0.00
   -4    5   12     -3.21      0.00
   -4    5   15      0.98      0.00
    0    5   13      1.01      0.00
    0    5   10     11.03      0.00
    0    5    7      9.89      0.00
    0    5    4    -37.82      0.00
    0    5    1     97.99      0.00
   -5    5    2    131.97      0.00
   -5    5    5     20.09      0.00
   -5    5    8      9.34      0.00
   -5    5   11    -12.47      0.00
   -5    5   14     -6.49      0.00
   -3    6    0    157.38      0.00
   -3    6    3     36.40      0.00
   -3    6    6    -11.05      0.00
   -3    6    9     -2.83      0.00
   -3    6   12      1.19      0.00
   -2    6   13      2.26      0.00
   -2    6   10      8.96      0.00
   -2    6    7      4.77      0.00
   -2    6    4     -6.76      0.00
   -2    6    1     95.37      0.00
   -4    6    2    100.57      0.00
   -4    6    5     -4.04      0.00
   -4    6    8     -6.07      0.00
   -4    6   11     -4.07      0.00
   -4    6   14     -0.46      0.00
   -1    6   14     -2.02      0.00
   -1    6   11      9.17      0.00
   -1    6    8     20.63      0.00
   -1    6    5    -20.01      0.00
   -1    6    2     23.63      0.00
   -5    6    1     79.29      0.00
   -5    6    4      8.35      0.00
   -5    6    7     18.04      0.00
   -5    6   10     -8.77      0.00
   -5    6   13     -7.58      0.00
    0    6   12      1.95      0.00
    0    6    9     23.15      0.00
    0    6    6     -6.80      0.00
    0    6    3    -23.39      0.00
    0    6    0     24.88      0.00
   -6    6    3    -43.56      0.00
   -6    6    6     40.27      0.00
   -6    6    9      4.82      0.00
   -6    6   12    -10.47      0.00
   -6    6   15     -4.34      0.00
   -3    7   14      0.68      0.00
   -3    7   11      6.05      0.00
   -3    7    8      6.80      0.00
   -3    7    5      4.66      0.00
   -3    7    2     24.80      0.00
   -4    7    1     49.53      0.00
   -4    7    4    -17.29      0.00
   -4    7    7     -4.16      0.00
   -4    7   10      2.07      0.00
   -4    7   13     -1.48      0.00
   -2    7   12      2.34      0.00
   -2    7    9     13.88      0.00
   -2    7    6     22.04      0.00
   -2    7    3     -5.37      0.00
   -2    7    0      4.48      0.00
   -5    7    3    -48.98      0.00
   -5    7    6      0.93      0.00
   -5    7    9      0.38      0.00
   -5    7   12     -3.94      0.00
   -5    7   15     -0.54      0.00
   -1    7   13     -1.29      0.00
   -1    7   10      9.43      0.00
   -1    7    7      8.10      0.00
   -1    7    4     -7.27      0.00
   -1    7    1    -19.01      0.00
   -6    7    2   -109.02      0.00
   -6    7    5     10.03      0.00
   -6    7    8     14.01      0.00
   -6    7   11     -4.63      0.00
   -6    7   14     -1.90      0.00
    0    7   14     -0.02      0.00
    0    7   11      2.91      0.00
    0    7    8     -9.49      0.00
    0    7    5    -24.70      0.00
    0    7    2     27.99      0.00
   -7    7    1   -137.41      0.00
   -7    7    4    -13.29      0.00
   -7    7    7     24.77      0.00
   -7    7   10     -1.15      0.00
   -7    7   13      4.39      0.00
   -4    8    0      8.95      0.00
   -4    8    3    -24.36      0.00
   -4    8    6     -0.69      0.00
   -4    8    9     -2.10      0.00
   -4    8   12     -1.11      0.00
   -3    8   13     -0.33      0.00
   -3    8   10     -2.20      0.00
   -3    8    7     24.47      0.00
   -3    8    4     26.48      0.00
   -3    8    1    -33.44      0.00
   -5    8    2    -60.52      0.00
   -5    8    5    -36.52      0.00
   -5    8    8     -6.00      0.00
   -5    8   11      3.09      0.00
   -5    8   14     -1.62      0.00
   -2    8   14      0.75      0.00
   -2    8   11     -1.76      0.00
   -2    8    8      6.35      0.00
   -2    8    5     32.01      0.00
   -2    8    2    -14.89      0.00
   -6    8    1   -122.12      0.00
   -6    8    4    -38.76      0.00
   -6    8    7     -0.08      0.00
   -6    8   10      3.16      0.00
   -6    8   13      1.79      0.00
   -1    8   12      0.53      0.00
   -1    8    9    -12.82      0.00
   -1    8    6    -20.38      0.00
   -1    8    3     21.54      0.00
   -1    8    0    -74.95      0.00
   -7    8    3    -37.62      0.00
   -7    8    6     14.08      0.00
   -7    8    9      0.31      0.00
   -7    8   12      5.94      0.00
   -7    8   15      3.27      0.00
    0    8   13      1.80      0.00
    0    8   10    -13.02      0.00
    0    8    7    -49.50      0.00
    0    8    4     -5.94      0.00
    0    8    1     27.74      0.00
   -8    8    2     -2.10      0.00
   -8    8    5     20.70      0.00
   -8    8    8     -6.84      0.00
   -8    8   11      2.62      0.00
   -8    8   14      8.46      0.00
   -4    9   14      0.43      0.00
   -4    9   11     -7.85      0.00
   -4    9    8      0.82      0.00
   -4    9    5     13.08      0.00
   -4    9    2     -3.36      0.00
   -5    9    1    -11.70      0.00
   -5    9    4    -36.91      0.00
   -5    9    7    -15.19      0.00
   -5    9   10     -3.05      0.00
   -5    9   13     -1.83      0.00
   -3    9   12     -2.88      0.00
   -3    9    9     -5.66      0.00
   -3    9    6     39.45      0.00
   -3    9    3     17.08      0.00
   -3    9    0    -65.23      0.00
   -6    9    3    -36.10      0.00
   -6    9    6    -25.76      0.00
   -6    9    9     -1.71      0.00
   -6    9   12      3.35      0.00
   -2    9   13      3.25      0.00
   -2    9   10    -10.81      0.00
   -2    9    7      1.31      0.00
   -2    9    4     28.83      0.00
   -2    9    1    -59.13      0.00
   -7    9    2     -8.81      0.00
   -7    9    5      8.57      0.00
   -7    9    8     -6.03      0.00
   -7    9   11      6.14      0.00
   -7    9   14      4.04      0.00
   -1    9   14      1.40      0.00
   -1    9   11     -4.88      0.00
   -1    9    8    -27.59      0.00
   -1    9    5    -22.20      0.00
   -1    9    2     18.24      0.00
   -8    9    1     41.37      0.00
   -8    9    4     42.28      0.00
   -8    9    7     -6.28      0.00
   -8    9   10     -0.67      0.00
   -8    9   13      7.10      0.00
    0    9   12     -4.01      0.00
    0    9    9    -15.68      0.00
    0    9    6    -39.93      0.00
    0    9    3     -1.28      0.00
    0    9    0    108.89      0.00
   -9    9    3     51.06      0.00
   -9    9    6     -5.59      0.00
   -9    9    9     -6.03      0.00
   -9    9   12      1.35      0.00
   -9    9   15      3.76      0.00
   -5   10    0     63.89      0.00
   -5   10    3     -7.64      0.00
   -5   10    6    -15.22      0.00
   -5   10    9     -3.18      0.00
   -5   10   12     -4.48      0.00
   -4   10   13      0.88      0.00
   -4   10   10     -7.58      0.00
   -4   10    7     15.44      0.00
   -4   10    4     22.15      0.00
   -4   10    1      4.84      0.00
   -6   10    2     13.39      0.00
   -6   10    5    -30.93      0.00
   -6   10    8     -6.67      0.00
   -6   10   11      2.21      0.00
   -6   10   14     -0.08      0.00
   -3   10   14      2.67      0.00
   -3   10   11     -2.45      0.00
   -3   10    8      6.57      0.00
   -3   10    5     37.94      0.00
   -3   10    2    -27.30      0.00
   -7   10    1     -6.95      0.00
   -7   10    4     35.16      0.00
   -7   10    7     -6.09      0.00
   -7   10   10      4.75      0.00
   -7   10   13      1.93      0.00
   -2   10   12      3.41      0.00
   -2   10    9     -3.19      0.00
   -2   10    6      4.70      0.00
   -2   10    3    -13.98      0.00
   -2   10    0     -4.35      0.00
   -8   10    3     82.44      0.00
   -8   10    6     15.61      0.00
   -8   10    9     -1.11      0.00
   -8   10   12      2.10      0.00
   -8   10   15      2.91      0.00
   -1   10   13     -4.02      0.00
   -1   10   10     -1.37      0.00
   -1   10    7     -6.35      0.00
   -1   10    4    -18.57      0.00
   -1   10    1     39.77      0.00
   -9   10    2     71.27      0.00
   -9   10    5      3.18      0.00
   -9   10    8     -2.66      0.00
   -9   10   11     -2.87      0.00
   -9   10   14      1.86      0.00
    0   10   11     -4.83      0.00
    0   10    8     11.94      0.00
    0   10    5     -6.01      0.00
    0   10    2     22.34      0.00
  -10   10    1     65.53      0.00
  -10   10    4    -58.31      0.00
  -10   10    7     -1.82      0.00
  -10   10   10      1.30      0.00
  -10   10   13     -1.88      0.00
   -5   11   14      0.92      0.00
   -5   11   11     -4.88      0.00
   -5   11    8      2.64      0.00
   -5   11    5     -8.82      0.00
   -5   11    2     27.04      0.00
   -6   11    1     59.56      0.00
   -6   11    4    -26.21      0.00
   -6   11    7     -9.47      0.00
   -6   11   10      3.46      0.00
   -6   11   13     -1.58      0.00
   -4   11   12      0.33      0.00
   -4   11    9      4.89      0.00
   -4   11    6     20.83      0.00
   -4   11    3      4.74      0.00
   -4   11    0      4.42      0.00
   -7   11    3     32.25      0.00
   -7   11    6     -4.96      0.00
   -7   11    9      6.78      0.00
   -7   11   12      3.48      0.00
   -3   11   13      3.68      0.00
   -3   11   10      6.75      0.00
   -3   11    7     13.18      0.00
   -3   11    4     10.33      0.00
   -3   11    1    -54.23      0.00
   -8   11    2     58.82      0.00
   -8   11    5     49.02      0.00
   -8   11    8      4.13      0.00
   -8   11   11      2.15      0.00
   -8   11   14     -1.37      0.00
   -2   11   14     -4.29      0.00
   -2   11   11      6.78      0.00
   -2   11    8      9.57      0.00
   -2   11    5      0.97      0.00
   -2   11    2    -27.05      0.00
   -9   11    1     22.73      0.00
   -9   11    4     41.87      0.00
   -9   11    7      9.69      0.00
   -9   11   10     -2.84      0.00
   -9   11   13     -3.22      0.00
   -1   11   12     -7.18      0.00
   -1   11    9     17.30      0.00
   -1   11    6     15.75      0.00
   -1   11    3    -11.38      0.00
   -1   11    0     33.88      0.00
  -10   11    3    -62.47      0.00
  -10   11    6    -11.99      0.00
  -10   11    9      6.39      0.00
  -10   11   12     -4.84      0.00
    0   11   13    -10.37      0.00
    0   11   10     10.07      0.00
    0   11    7     32.73      0.00
    0   11    4      3.59      0.00
    0   11    1     26.51      0.00
  -11   11    2    -92.13      0.00
  -11   11    5    -76.38      0.00
  -11   11    8     16.75      0.00
  -11   11   11      2.30      0.00
  -11   11   14     -2.10      0.00
   -6   12    0     68.86      0.00
   -6   12    3    -24.20      0.00
   -6   12    6    -13.18      0.00
   -6   12    9      5.88      0.00
   -6   12   12     -5.61      0.00
   -5   12   13     -3.35      0.00
   -5   12   10      0.20      0.00
   -5   12    7      1.29      0.00
   -5   12    4     -6.19      0.00
   -5   12    1     22.72      0.00
   -7   12    2      6.28      0.00
   -7   12    5    -15.93      0.00
   -7   12    8      6.78      0.00
   -7   12   11      5.18      0.00
   -7   12   14     -2.87      0.00
   -4   12   14     -0.99      0.00
   -4   12   11      4.19      0.00
   -4   12    8     -0.43      0.00
   -4   12    5     11.58      0.00
   -4   12    2     -9.74      0.00
   -8   12    1    -11.46      0.00
   -8   12    4     38.09      0.00
   -8   12    7      7.05      0.00
   -8   12   10      4.11      0.00
   -8   12   13     -0.92      0.00
   -3   12   12      8.05      0.00
   -3   12    9      4.44      0.00
   -3   12    6     -1.61      0.00
   -3   12    3     -3.68      0.00
   -3   12    0    -37.62      0.00
   -9   12    3     43.98      0.00
   -9   12    6     22.85      0.00
   -9   12    9     -5.18      0.00
   -9   12   12     -2.15      0.00
   -2   12   13     -2.03      0.00
   -2   12   10      8.29      0.00
   -2   12    7      4.82      0.00
   -2   12    4     -4.33      0.00
   -2   12    1     -9.26      0.00
  -10   12    2    -25.06      0.00
  -10   12    5      1.57      0.00
  -10   12    8     -1.07      0.00
  -10   12   11     -5.75      0.00
  -10   12   14     -2.96      0.00
   -1   12   11     -2.54      0.00
   -1   12    8     16.42      0.00
   -1   12    5      9.80      0.00
   -1   12    2      4.38      0.00
  -11   12    1    -42.23      0.00
  -11   12    4    -76.07      0.00
  -11   12    7      4.51      0.00
  -11   12   10      6.47      0.00
  -11   12   13     -2.77      0.00
    0   12   12     -9.95      0.00
    0   12    9     10.94      0.00
    0   12    6     17.58      0.00
    0   12    3     -6.31      0.00
    0   12    0    -15.25      0.00
  -12   12    3    -78.68      0.00
  -12   12    6    -13.31      0.00
  -12   12    9     16.13      0.00
  -12   12   12      3.93      0.00
   -6   13   14     -3.86      0.00
   -6   13   11     -7.89      0.00
   -6   13    8     -0.31      0.00
   -6   13    5    -12.03      0.00
   -6   13    2     -5.83      0.00
   -7   13    1      7.21      0.00
   -7   13    4    -34.91      0.00
   -7   13    7      2.82      0.00
   -7   13   10      4.73      0.00
   -7   13   13     -5.32      0.00
   -5   13   12     -4.68      0.00
   -5   13    9     -4.83      0.00
   -5   13    6     -1.72      0.00
   -5   13    3      2.95      0.00
   -5   13    0    -11.95      0.00
   -8   13    3    -17.31      0.00
   -8   13    6      0.31      0.00
   -8   13    9      5.91      0.00
   -8   13   12      4.14      0.00
   -4   13   13      2.57      0.00
   -4   13   10      0.11      0.00
   -4   13    7    -14.46      0.00
   -4   13    4     11.08      0.00
   -4   13    1    -17.84      0.00
   -9   13    2    -11.55      0.00
   -9   13    5     20.24      0.00
   -9   13    8     -6.19      0.00
   -9   13   11      0.92      0.00
   -9   13   14     -1.40      0.00
   -3   13   11      6.74      0.00
   -3   13    8    -14.36      0.00
   -3   13    5    -11.11      0.00
   -3   13    2     14.30      0.00
  -10   13    1    -25.34      0.00
  -10   13    4     21.26      0.00
  -10   13    7     -9.04      0.00
  -10   13   10    -10.55      0.00
  -10   13   13     -0.55      0.00
   -2   13   12      0.06      0.00
   -2   13    9     -3.90      0.00
   -2   13    6    -13.00      0.00
   -2   13    3      5.80      0.00
   -2   13    0     -2.72      0.00
  -11   13    3    -12.78      0.00
  -11   13    6     -3.79      0.00
  -11   13    9     -7.01      0.00
  -11   13   12     -1.15      0.00
   -1   13   13     -0.99      0.00
   -1   13   10     -3.66      0.00
   -1   13    7     -0.49      0.00
   -1   13    4     -6.59      0.00
   -1   13    1     -9.21      0.00
  -12   13    2     -7.02      0.00
  -12   13    5     -3.60      0.00
  -12   13    8      6.18      0.00
  -12   13   11      7.07      0.00
    0   13   11     -6.73      0.00
    0   13    8     -4.28      0.00
    0   13    5     -1.90      0.00
    0   13    2    -30.19      0.00
  -13   13    1     10.46      0.00
  -13   13    4     24.99      0.00
  -13   13    7     11.63      0.00
  -13   13   10     12.24      0.00
  -13   13   13      2.87      0.00
   -7   14    0      3.33      0.00
   -7   14    3    -21.15      0.00
   -7   14    6      2.36      0.00
   -7   14    9      0.90      0.00
   -7   14   12     -6.27      0.00
   -6   14   13     -3.89      0.00
   -6   14   10     -7.81      0.00
   -6   14    7      2.13      0.00
   -6   14    4     -2.28      0.00
   -6   14    1    -10.75      0.00
   -8   14    2    -18.59      0.00
   -8   14    5     -9.05      0.00
   -8   14    8      5.45      0.00
   -8   14   11      4.10      0.00
   -8   14   14     -0.44      0.00
   -5   14   11     -4.16      0.00
   -5   14    8     -7.90      0.00
   -5   14    5      4.26      0.00
   -5   14    2      1.65      0.00
   -9   14    1    -26.30      0.00
   -9   14    4     -9.72      0.00
   -9   14    7     -1.27      0.00
   -9   14   10      3.15      0.00
   -9   14   13      4.68      0.00
   -4   14   12      3.28      0.00
   -4   14    9     -7.24      0.00
   -4   14    6    -15.63      0.00
   -4   14    3     21.27      0.00
   -4   14    0    -11.41      0.00
  -10   14    3     -6.95      0.00
  -10   14    6     -4.58      0.00
  -10   14    9    -11.08      0.00
  -10   14   12      4.48      0.00
   -3   14   13     -0.07      0.00
   -3   14   10     -1.52      0.00
   -3   14    7    -20.80      0.00
   -3   14    4      0.88      0.00
   -3   14    1     23.58      0.00
  -11   14    2      1.19      0.00
  -11   14    5     10.14      0.00
  -11   14    8    -17.55      0.00
  -11   14   11     -3.98      0.00
  -11   14   14      2.70      0.00
   -2   14   11     -0.90      0.00
   -2   14    8    -14.88      0.00
   -2   14    5    -12.69      0.00
   -2   14    2      8.25      0.00
  -12   14    1     20.20      0.00
  -12   14    4     33.19      0.00
  -12   14    7     -5.28      0.00
  -12   14   10     -1.57      0.00
  -12   14   13      2.45      0.00
   -1   14   12      0.60      0.00
   -1   14    9     -9.81      0.00
   -1   14    6     -6.85      0.00
   -1   14    3    -15.96      0.00
   -1   14    0      0.46      0.00
  -13   14    3     58.91      0.00
  -13   14    6     14.40      0.00
  -13   14    9      3.35      0.00
  -13   14   12      5.31      0.00
    0   14   13      4.21      0.00
    0   14   10     -6.37      0.00
    0   14    7     -1.45      0.00
    0   14    4     -5.94      0.00
    0   14    1    -30.88      0.00
  -14   14    2     50.97      0.00
  -14   14    5     27.15      0.00
  -14   14    8      4.54      0.00
  -14   14   11      6.09      0.00
   -7   15   11     -5.45      0.00
   -7   15    8      2.46      0.00
   -7   15    5      8.44      0.00
   -7   15    2     -5.31      0.00
   -8   15    1      6.50      0.00
   -8   15    4      3.84      0.00
   -8   15    7      4.87      0.00
   -8   15   10      0.72      0.00
   -8   15   13     -0.19      0.00
   -6   15   12     -2.37      0.00
   -6   15    9      0.11      0.00
   -6   15    6      8.83      0.00
   -6   15    3     -5.68      0.00
   -6   15    0     -9.66      0.00
   -9   15    3     -1.70      0.00
   -9   15    6      0.03      0.00
   -9   15    9      3.88      0.00
   -9   15   12      4.84      0.00
   -5   15   13     -0.41      0.00
   -5   15   10      1.28      0.00
   -5   15    7      3.99      0.00
   -5   15    4      4.22      0.00
   -5   15    1     -6.31      0.00
  -10   15    2    -16.60      0.00
  -10   15    5     -7.80      0.00
  -10   15    8     -0.10      0.00
  -10   15   11      4.44      0.00
  -10   15   14      3.49      0.00
   -4   15   11      2.24      0.00
   -4   15    8     -2.04      0.00
   -4   15    5     -1.93      0.00
   -4   15    2     22.47      0.00
  -11   15    1     -9.74      0.00
  -11   15    4     -6.39      0.00
  -11   15    7     -4.90      0.00
  -11   15   10     -3.15      0.00
  -11   15   13      4.90      0.00
   -3   15   12     -1.13      0.00
   -3   15    9     -3.28      0.00
   -3   15    6    -10.08      0.00
   -3   15    3     14.81      0.00
   -3   15    0     18.69      0.00
  -12   15    3     16.77      0.00
  -12   15    6      3.37      0.00
  -12   15    9     -7.22      0.00
  -12   15   12      1.66      0.00
   -2   15   13     -0.62      0.00
   -2   15   10     -2.89      0.00
   -2   15    7     -5.51      0.00
   -2   15    4      0.15      0.00
   -2   15    1      4.05      0.00
  -13   15    2     36.78      0.00
  -13   15    5     22.81      0.00
  -13   15    8     -5.05      0.00
  -13   15   11      0.93      0.00
  -13   15   14      2.07      0.00
   -1   15   11      2.17      0.00
   -1   15    8     -1.06      0.00
   -1   15    5      4.96      0.00
   -1   15    2    -13.73      0.00
  -14   15    1     13.85      0.00
  -14   15    4     22.20      0.00
  -14   15    7     -0.88      0.00
  -14   15   10      2.39      0.00
  -14   15   13      1.46      0.00
    0   15   12      6.95      0.00
    0   15    9      2.92      0.00
    0   15    6      7.40      0.00
    0   15    3      1.53      0.00
    0   15    0    -12.51      0.00
  -15   15    3     -3.60      0.00
  -15   15    6     -9.35      0.00
  -15   15    9     -0.02      0.00
  -15   15   12      0.44      0.00
   -8   16    0     14.74      0.00
   -8   16    3     24.08      0.00
   -8   16    6      4.02      0.00
   -8   16    9     -4.65      0.00
   -8   16   12     -1.02      0.00
   -7   16   13      0.74      0.00
   -7   16   10     -0.97      0.00
   -7   16    7      8.94      0.00
   -7   16    4      4.66      0.00
   -7   16    1     -7.92      0.00
   -9   16    2     36.40      0.00
   -9   16    5      6.56      0.00
   -9   16    8     -4.09      0.00
   -9   16   11      0.83      0.00
   -9   16   14      1.96      0.00
   -6   16   11      0.62      0.00
   -6   16    8     12.87      0.00
   -6   16    5      4.83      0.00
   -6   16    2    -21.52      0.00
  -10   16    1     10.88      0.00
  -10   16    4     -2.19      0.00
  -10   16    7      2.37      0.00
  -10   16   10      6.24      0.00
   -5   16   12     -3.91      0.00
   -5   16    9     11.08      0.00
   -5   16    6      7.56      0.00
   -5   16    3     -4.71      0.00
   -5   16    0     -3.23      0.00
  -11   16    3    -19.86      0.00
  -11   16    6      2.07      0.00
  -11   16    9      8.05      0.00
  -11   16   12      3.12      0.00
   -4   16   13     -7.73      0.00
   -4   16   10      5.11      0.00
   -4   16    7      6.60      0.00
   -4   16    4      4.03      0.00
   -4   16    1     13.97      0.00
  -12   16    2    -17.19      0.00
  -12   16    5      0.35      0.00
  -12   16    8      5.99      0.00
  -12   16   11     -0.32      0.00
  -12   16   14      0.95      0.00
   -3   16   11      0.63      0.00
   -3   16    8      3.23      0.00
   -3   16    5      5.49      0.00
   -3   16    2     12.02      0.00
  -13   16    1      5.78      0.00
  -13   16    4      3.65      0.00
  -13   16    7      1.10      0.00
  -13   16   10     -0.47      0.00
  -13   16   13      0.12      0.00
   -2   16   12      1.94      0.00
   -2   16    9      3.39      0.00
   -2   16    6      4.87      0.00
   -2   16    3      7.06      0.00
   -2   16    0      4.48      0.00
  -14   16    3     -0.44      0.00
  -14   16    6     -4.36      0.00
  -14   16    9     -2.06      0.00
  -14   16   12     -0.37      0.00
   -1   16   10      3.37      0.00
   -1   16    7      7.59      0.00
   -1   16    4      8.17      0.00
   -1   16    1      0.76      0.00
  -15   16    2    -21.84      0.00
  -15   16    5    -20.97      0.00
  -15   16    8     -3.80      0.00
  -15   16   11     -1.95      0.00
    0   16   11      1.82      0.00
    0   16    8      6.02      0.00
    0   16    5      4.59      0.00
    0   16    2     10.92      0.00
  -16   16    1    -25.51      0.00
  -16   16    4    -38.14      0.00
  -16   16    7     -7.90      0.00
  -16   16   10     -4.03      0.00
   -8   17   11      0.73      0.00
   -8   17    8     -6.45      0.00
   -8   17    5      6.54      0.00
   -8   17    2      6.98      0.00
   -9   17    1     28.87      0.00
   -9   17    4     18.81      0.00
   -9   17    7    -12.41      0.00
   -9   17   10     -3.12      0.00
   -9   17   13     -2.72      0.00
   -7   17   12      3.14      0.00
   -7   17    9      2.60      0.00
   -7   17    6      4.78      0.00
   -7   17    3    -12.78      0.00
   -7   17    0     10.66      0.00
  -10   17    3     26.02      0.00
  -10   17    6     -7.47      0.00
  -10   17    9     -0.91      0.00
  -10   17   12     -1.96      0.00
   -6   17   13     -1.73      0.00
   -6   17   10      2.18      0.00
   -6   17    7     10.11      0.00
   -6   17    4    -10.80      0.00
   -6   17    1     -8.83      0.00
  -11   17    2      5.90      0.00
  -11   17    5     -3.51      0.00
  -11   17    8      9.98      0.00
  -11   17   11      2.82      0.00
  -11   17   14      0.39      0.00
   -5   17   11     -3.57      0.00
   -5   17    8      8.64      0.00
   -5   17    5      0.22      0.00
   -5   17    2     -5.24      0.00
  -12   17    1     -8.62      0.00
  -12   17    4    -12.80      0.00
  -12   17    7     15.19      0.00
  -12   17   10      5.85      0.00
  -12   17   13      0.40      0.00
   -4   17   12     -6.29      0.00
   -4   17    9      6.32      0.00
   -4   17    6      4.09      0.00
   -4   17    3     -0.12      0.00
   -4   17    0      2.48      0.00
  -13   17    3    -17.00      0.00
  -13   17    6      6.31      0.00
  -13   17    9      4.66      0.00
  -13   17   12     -1.20      0.00
   -3   17   10      3.81      0.00
   -3   17    7      5.40      0.00
   -3   17    4      4.65      0.00
   -3   17    1      6.70      0.00
  -14   17    2     -8.91      0.00
  -14   17    5     -6.43      0.00
  -14   17    8     -2.07      0.00
  -14   17   11     -0.47      0.00
  -14   17   14     -0.95      0.00
   -2   17   11      0.86      0.00
   -2   17    8      5.31      0.00
   -2   17    5      5.99      0.00
   -2   17    2      6.77      0.00
  -15   17    1     -5.39      0.00
  -15   17    4    -20.06      0.00
  -15   17    7     -7.50      0.00
  -15   17   10      0.08      0.00
  -15   17   13     -0.93      0.00
   -1   17   12     -1.11      0.00
   -1   17    9      3.12      0.00
   -1   17    6     -1.76      0.00
   -1   17    3      5.78      0.00
   -1   17    0     -1.76      0.00
  -16   17    3    -27.46      0.00
  -16   17    6     -8.93      0.00
  -16   17    9     -2.89      0.00
  -16   17   12      0.19      0.00
    0   17   10     -2.18      0.00
    0   17    7     -6.32      0.00
    0   17    4     -8.11      0.00
    0   17    1      8.46      0.00
  -17   17    2    -20.13      0.00
  -17   17    5     -3.45      0.00
  -17   17    8      1.16      0.00
  -17   17   11     -3.51      0.00
   -9   18    0      1.34      0.00
   -9   18    3      5.37      0.00
   -9   18    6     -7.73      0.00
   -9   18    9     -7.90      0.00
   -9   18   12     -2.00      0.00
   -8   18   13     -0.06      0.00
   -8   18   10      0.61      0.00
   -8   18    7     -1.45      0.00
   -8   18    4      0.32      0.00
   -8   18    1     -5.16      0.00
  -10   18    2     15.52      0.00
  -10   18    5     -7.31      0.00
  -10   18    8    -13.54      0.00
  -10   18   11     -1.05      0.00
   -7   18   11      1.44      0.00
   -7   18    8      0.28      0.00
   -7   18    5     -1.40      0.00
   -7   18    2    -10.16      0.00
  -11   18    1     13.16      0.00
  -11   18    4     -0.36      0.00
  -11   18    7     -5.11      0.00
  -11   18   10      3.92      0.00
  -11   18   13     -0.25      0.00
   -6   18   12     -0.18      0.00
   -6   18    9     -3.37      0.00
   -6   18    6     -5.82      0.00
   -6   18    3    -10.01      0.00
   -6   18    0      2.47      0.00
  -12   18    3     -0.33      0.00
  -12   18    6      4.97      0.00
  -12   18    9      9.28      0.00
  -12   18   12      0.07      0.00
   -5   18   10     -3.25      0.00
   -5   18    7     -4.05      0.00
   -5   18    4    -10.19      0.00
   -5   18    1     -1.26      0.00
  -13   18    2     -7.86      0.00
  -13   18    5      2.93      0.00
  -13   18    8      9.27      0.00
  -13   18   11     -2.79      0.00
  -13   18   14      1.72      0.00
   -4   18   11     -0.77      0.00
   -4   18    8     -0.20      0.00
   -4   18    5      0.79      0.00
   -4   18    2     -6.64      0.00
  -14   18    1     -1.09      0.00
  -14   18    4     -7.92      0.00
  -14   18    7     -0.89      0.00
  -14   18   10     -0.18      0.00
  -14   18   13     -0.79      0.00
   -3   18   12     -0.76      0.00
   -3   18    9      5.06      0.00
   -3   18    6      3.53      0.00
   -3   18    3     -0.95      0.00
   -3   18    0      2.51      0.00
  -15   18    3     -4.54      0.00
  -15   18    6     -6.02      0.00
  -15   18    9     -1.43      0.00
  -15   18   12      1.48      0.00
   -2   18   10      0.98      0.00
   -2   18    7     -0.14      0.00
   -2   18    4     -1.13      0.00
   -2   18    1      3.15      0.00
  -16   18    2      0.49      0.00
  -16   18    5      2.65      0.00
  -16   18    8     -0.36      0.00
  -16   18   11      2.05      0.00
   -1   18   11     -3.98      0.00
   -1   18    8     -6.14      0.00
   -1   18    5    -10.80      0.00
   -1   18    2      1.34      0.00
  -17   18    1      0.28      0.00
  -17   18    4     10.87      0.00
  -17   18    7      6.99      0.00
  -17   18   10     -1.07      0.00
    0   18   12     -5.92      0.00
    0   18    9     -4.03      0.00
    0   18    6    -15.69      0.00
    0   18    3     -6.66      0.00
    0   18    0      2.55      0.00
  -18   18    3     10.46      0.00
  -18   18    6     12.57      0.00
  -18   18    9     -0.02      0.00
  -18   18   12     -0.97      0.00
   -9   19   11      0.94      0.00
   -9   19    8      1.03      0.00
   -9   19    5      1.06      0.00
   -9   19    2    -15.72      0.00
  -10   19    1    -17.43      0.00
  -10   19    4    -13.55      0.00
  -10   19    7     -8.89      0.00
  -10   19   10      0.23      0.00
  -10   19   13     -2.11      0.00
   -8   19   12      1.24      0.00
   -8   19    9      3.09      0.00
   -8   19    6      3.12      0.00
   -8   19    3      2.40      0.00
   -8   19    0     -7.32      0.00
  -11   19    3     -6.99      0.00
  -11   19    6    -12.29      0.00
  -11   19    9     -3.08      0.00
  -11   19   12      2.32      0.00
   -7   19   10     -3.62      0.00
   -7   19    7     -6.47      0.00
   -7   19    4      2.08      0.00
   -7   19    1      4.02      0.00
  -12   19    2      2.34      0.00
  -12   19    5      2.11      0.00
  -12   19    8      1.45      0.00
  -12   19   11      2.17      0.00
   -6   19   11     -2.26      0.00
   -6   19    8    -12.69      0.00
   -6   19    5     -8.88      0.00
   -6   19    2     -0.86      0.00
  -13   19    1      0.43      0.00
  -13   19    4      9.73      0.00
  -13   19    7      4.54      0.00
  -13   19   10      0.73      0.00
  -13   19   13      1.34      0.00
   -5   19   12      0.93      0.00
   -5   19    9     -5.12      0.00
   -5   19    6     -6.47      0.00
   -5   19    3    -10.73      0.00
   -5   19    0     -4.70      0.00
  -14   19    3      2.06      0.00
  -14   19    6     -2.44      0.00
  -14   19    9     -1.35      0.00
  -14   19   12     -2.07      0.00
   -4   19   10      4.82      0.00
   -4   19    7      2.02      0.00
   -4   19    4     -3.35      0.00
   -4   19    1     -7.83      0.00
  -15   19    2      2.23      0.00
  -15   19    5     -6.34      0.00
  -15   19    8     -4.85      0.00
  -15   19   11      0.11      0.00
   -3   19   11      2.86      0.00
   -3   19    8      3.21      0.00
   -3   19    5      5.00      0.00
   -3   19    2     -3.63      0.00
  -16   19    1      5.36      0.00
  -16   19    4      9.67      0.00
  -16   19    7      0.44      0.00
  -16   19   10      2.55      0.00
  -16   19   13      1.40      0.00
   -2   19   12     -0.90      0.00
   -2   19    9     -0.10      0.00
   -2   19    6     -3.79      0.00
   -2   19    3      0.94      0.00
   -2   19    0      0.10      0.00
  -17   19    3     22.97      0.00
  -17   19    6     15.58      0.00
  -17   19    9      1.53      0.00
  -17   19   12      2.40      0.00
   -1   19   10      0.74      0.00
   -1   19    7     -7.35      0.00
   -1   19    4     -6.59      0.00
   -1   19    1     -0.05      0.00
  -18   19    2      9.70      0.00
  -18   19    5     16.51      0.00
  -18   19    8      3.18      0.00
  -18   19   11      0.50      0.00
    0   19   11      4.03      0.00
    0   19    8     -1.19      0.00
    0   19    5     -5.88      0.00
    0   19    2     -1.09      0.00
  -19   19    1      0.73      0.00
  -19   19    4     -2.45      0.00
  -19   19    7     -2.23      0.00
  -19   19   10      1.03      0.00
  -10   20    0    -20.19      0.00
  -10   20    3    -21.50      0.00
  -10   20    6      0.06      0.00
  -10   20    9      8.72      0.00
  -10   20   12     -0.22      0.00
   -9   20   10      8.70      0.00
   -9   20    7     11.19      0.00
   -9   20    4      3.01      0.00
   -9   20    1     -7.91      0.00
  -11   20    2    -24.08      0.00
  -11   20    5    -11.37      0.00
  -11   20    8     -0.46      0.00
  -11   20   11      2.50      0.00
   -8   20   11      0.18      0.00
   -8   20    8      4.74      0.00
   -8   20    5     10.66      0.00
   -8   20    2     14.04      0.00
  -12   20    1    -10.08      0.00
  -12   20    4      2.33      0.00
  -12   20    7     -1.11      0.00
  -12   20   10      0.18      0.00
  -12   20   13      4.47      0.00
   -7   20   12      1.20      0.00
   -7   20    9     -6.06      0.00
   -7   20    6     -6.38      0.00
   -7   20    3     15.14      0.00
   -7   20    0     -2.31      0.00
  -13   20    3     15.62      0.00
  -13   20    6      8.20      0.00
  -13   20    9     -0.72      0.00
  -13   20   12      4.36      0.00
   -6   20   10     -3.43      0.00
   -6   20    7     -9.47      0.00
   -6   20    4     -4.94      0.00
   -6   20    1     -2.44      0.00
  -14   20    2      4.18      0.00
  -14   20    5      6.74      0.00
  -14   20    8     -2.55      0.00
  -14   20   11      1.36      0.00
   -5   20   11      3.37      0.00
   -5   20    8     -1.15      0.00
   -5   20    5     -1.94      0.00
   -5   20    2     -8.04      0.00
  -15   20    1     -3.61      0.00
  -15   20    4     -7.58      0.00
  -15   20    7     -9.87      0.00
  -15   20   10     -0.13      0.00
  -15   20   13      1.22      0.00
   -4   20   12      1.85      0.00
   -4   20    9      6.32      0.00
   -4   20    6      7.61      0.00
   -4   20    3      1.32      0.00
   -4   20    0     -6.83      0.00
  -16   20    3      0.83      0.00
  -16   20    6     -6.48      0.00
  -16   20    9     -1.63      0.00
  -16   20   12      2.69      0.00
   -3   20   10      2.57      0.00
   -3   20    7      5.19      0.00
   -3   20    4      8.13      0.00
   -3   20    1     -4.00      0.00
  -17   20    2     11.70      0.00
  -17   20    5     15.99      0.00
  -17   20    8      3.29      0.00
  -17   20   11      2.25      0.00
   -2   20   11      1.65      0.00
   -2   20    8     -0.68      0.00
   -2   20    5      1.75      0.00
   -2   20    2      0.92      0.00
  -18   20    1      4.48      0.00
  -18   20    4     21.57      0.00
  -18   20    7      7.00      0.00
  -18   20   10      2.33      0.00
   -1   20    9      3.90      0.00
   -1   20    6      0.38      0.00
   -1   20    3      1.65      0.00
   -1   20    0      0.06      0.00
  -19   20    3     -5.91      0.00
  -19   20    6     -6.65      0.00
  -19   20    9     -1.80      0.00
    0   20   10      9.10      0.00
    0   20    7      9.26      0.00
    0   20    4      2.93      0.00
    0   20    1      1.66      0.00
  -20   20    2    -18.47      0.00
  -20   20    5    -31.31      0.00
  -20   20    8     -7.90      0.00
  -20   20   11     -0.79      0.00
  -10   21   11      1.38      0.00
  -10   21    8     15.09      0.00
  -10   21    5     -1.04      0.00
  -10   21    2     -5.30      0.00
  -11   21    1     -4.47      0.00
  -11   21    4    -16.86      0.00
  -11   21    7      2.70      0.00
  -11   21   10      2.44      0.00
   -9   21   12     -4.50      0.00
   -9   21    9     14.48      0.00
   -9   21    6     11.08      0.00
   -9   21    3     12.26      0.00
   -9   21    0      0.05      0.00
  -12   21    3     -2.62      0.00
  -12   21    6     -0.15      0.00
  -12   21    9     -2.49      0.00
  -12   21   12      6.55      0.00
   -8   21   10      3.41      0.00
   -8   21    7      2.41      0.00
   -8   21    4     16.49      0.00
   -8   21    1      8.70      0.00
  -13   21    2      6.08      0.00
  -13   21    5     18.46      0.00
  -13   21    8      0.55      0.00
  -13   21   11      5.50      0.00
   -7   21   11     -0.42      0.00
   -7   21    8     -5.46      0.00
   -7   21    5     -1.06      0.00
   -7   21    2      9.35      0.00
  -14   21    1      1.40      0.00
  -14   21    4     17.54      0.00
  -14   21    7      4.46      0.00
  -14   21   10      6.04      0.00
  -14   21   13      1.35      0.00
   -6   21   12     -0.60      0.00
   -6   21    9     -0.95      0.00
   -6   21    6     -4.48      0.00
   -6   21    3     -1.26      0.00
   -6   21    0     -1.06      0.00
  -15   21    3     -5.67      0.00
  -15   21    6     -6.85      0.00
  -15   21    9      0.14      0.00
  -15   21   12      5.85      0.00
   -5   21   10      4.56      0.00
   -5   21    7      7.14      0.00
   -5   21    4     -1.30      0.00
   -5   21    1     -1.21      0.00
  -16   21    2    -10.25      0.00
  -16   21    5    -18.62      0.00
  -16   21    8     -5.07      0.00
  -16   21   11      1.74      0.00
   -4   21   11      1.55      0.00
   -4   21    8      6.69      0.00
   -4   21    5      7.80      0.00
   -4   21    2      2.67      0.00
  -17   21    1     -2.73      0.00
  -17   21    4     -0.63      0.00
  -17   21    7     -1.64      0.00
  -17   21   10     -0.24      0.00
  -17   21   13      3.43      0.00
   -3   21    9     -1.85      0.00
   -3   21    6      2.13      0.00
   -3   21    3      8.07      0.00
   -3   21    0     -1.84      0.00
  -18   21    3     17.19      0.00
  -18   21    6     11.47      0.00
  -18   21    9      0.76      0.00
  -18   21   12      0.67      0.00
   -2   21   10     -2.79      0.00
   -2   21    7     -0.26      0.00
   -2   21    4      3.67      0.00
   -2   21    1      0.98      0.00
  -19   21    2      3.00      0.00
  -19   21    5      5.80      0.00
  -19   21    8     -1.96      0.00
  -19   21   11      0.94      0.00
   -1   21   11      3.98      0.00
   -1   21    8      6.02      0.00
   -1   21    5      5.66      0.00
   -1   21    2      0.54      0.00
  -20   21    1     -6.26      0.00
  -20   21    4    -25.30      0.00
  -20   21    7    -11.93      0.00
  -20   21   10     -1.53      0.00
    0   21    9      9.21      0.00
    0   21    6     12.54      0.00
    0   21    3      0.04      0.00
    0   21    0     -3.15      0.00
  -21   21    3    -30.23      0.00
  -21   21    6    -23.02      0.00
  -21   21    9     -2.66      0.00
  -11   22    0     21.56      0.00
  -11   22    3    -10.62      0.00
  -11   22    6     -5.30      0.00
  -11   22    9      3.59      0.00
  -11   22   12      2.78      0.00
  -10   22   10      5.85      0.00
  -10   22    7      8.25      0.00
  -10   22    4     -4.70      0.00
  -10   22    1     13.95      0.00
  -12   22    2      3.67      0.00
  -12   22    5     -6.51      0.00
  -12   22    8     -2.19      0.00
  -12   22   11     -0.89      0.00
   -9   22   11      0.25      0.00
   -9   22    8      6.82      0.00
   -9   22    5      8.67      0.00
   -9   22    2      9.12      0.00
  -13   22    1      5.78      0.00
  -13   22    4     14.85      0.00
  -13   22    7      2.47      0.00
  -13   22   10     -0.58      0.00
   -8   22   12     -2.27      0.00
   -8   22    9      0.67      0.00
   -8   22    6     -0.90      0.00
   -8   22    3     11.30      0.00
   -8   22    0     -0.48      0.00
  -14   22    3     16.36      0.00
  -14   22    6     15.30      0.00
  -14   22    9      3.60      0.00
  -14   22   12      6.14      0.00
   -7   22   10     -0.49      0.00
   -7   22    7     -3.72      0.00
   -7   22    4     -2.39      0.00
   -7   22    1      3.05      0.00
  -15   22    2     -1.29      0.00
  -15   22    5      2.65      0.00
  -15   22    8      4.17      0.00
  -15   22   11     13.20      0.00
   -6   22   11     -0.49      0.00
   -6   22    8      5.44      0.00
   -6   22    5     -5.86      0.00
   -6   22    2     -1.03      0.00
  -16   22    1      1.30      0.00
  -16   22    4    -23.64      0.00
  -16   22    7     -6.88      0.00
  -16   22   10      6.23      0.00
  -16   22   13      4.52      0.00
   -5   22    9      7.50      0.00
   -5   22    6      2.65      0.00
   -5   22    3     -1.09      0.00
   -5   22    0      4.76      0.00
  -17   22    3    -15.19      0.00
  -17   22    6    -13.23      0.00
  -17   22    9     -0.37      0.00
  -17   22   12     -0.94      0.00
   -4   22   10     -1.71      0.00
   -4   22    7      0.31      0.00
   -4   22    4      3.55      0.00
   -4   22    1      3.72      0.00
  -18   22    2      2.64      0.00
  -18   22    5      5.53      0.00
  -18   22    8      0.48      0.00
  -18   22   11     -4.37      0.00
   -3   22   11     -4.96      0.00
   -3   22    8     -7.81      0.00
   -3   22    5     -0.60      0.00
   -3   22    2      3.34      0.00
  -19   22    1      1.48      0.00
  -19   22    4     18.81      0.00
  -19   22    7      3.09      0.00
  -19   22   10      0.45      0.00
   -2   22    9     -5.17      0.00
   -2   22    6     -3.78      0.00
   -2   22    3     -0.78      0.00
   -2   22    0     -0.72      0.00
  -20   22    3      2.01      0.00
  -20   22    6      0.13      0.00
  -20   22    9     -2.19      0.00
   -1   22   10      2.19      0.00
   -1   22    7      5.89      0.00
   -1   22    4     -0.91      0.00
   -1   22    1     -3.27      0.00
  -21   22    2     -6.13      0.00
  -21   22    5    -13.85      0.00
  -21   22    8     -0.06      0.00
  -21   22   11     -0.59      0.00
    0   22    8      9.58      0.00
    0   22    5      4.73      0.00
    0   22    2     -4.94      0.00
  -22   22    1      2.28      0.00
  -22   22    4    -11.63      0.00
  -22   22    7      2.03      0.00
  -22   22   10      0.64      0.00
  -11   23   11     -0.04      0.00
  -11   23    8     -0.13      0.00
  -11   23    5     -9.63      0.00
  -11   23    2      0.22      0.00
  -12   23    1     14.97      0.00
  -12   23    4    -12.34      0.00
  -12   23    7     -8.18      0.00
  -12   23   10     -3.52      0.00
  -10   23   12     -0.37      0.00
  -10   23    9      1.76      0.00
  -10   23    6      3.85      0.00
  -10   23    3     -3.39      0.00
  -10   23    0      5.43      0.00
  -13   23    3      7.05      0.00
  -13   23    6     -4.14      0.00
  -13   23    9     -3.54      0.00
  -13   23   12     -2.51      0.00
   -9   23   10      1.55      0.00
   -9   23    7      0.40      0.00
   -9   23    4      3.46      0.00
   -9   23    1     -5.09      0.00
  -14   23    2      5.74      0.00
  -14   23    5     13.15      0.00
  -14   23    8      2.83      0.00
  -14   23   11      2.99      0.00
   -8   23   11     -0.48      0.00
   -8   23    8     -3.61      0.00
   -8   23    5     -2.95      0.00
   -8   23    2     -3.08      0.00
  -15   23    1     -2.16      0.00
  -15   23    4      5.01      0.00
  -15   23    7      9.73      0.00
  -15   23   10     11.74      0.00
   -7   23    9      1.87      0.00
   -7   23    6     -6.62      0.00
   -7   23    3     -5.82      0.00
   -7   23    0      5.82      0.00
  -16   23    3    -14.13      0.00
  -16   23    6     -2.57      0.00
  -16   23    9      7.76      0.00
  -16   23   12      7.98      0.00
   -6   23   10      3.65      0.00
   -6   23    7      4.38      0.00
   -6   23    4     -7.68      0.00
   -6   23    1      6.71      0.00
  -17   23    2     -6.65      0.00
  -17   23    5    -18.91      0.00
  -17   23    8      0.69      0.00
  -17   23   11     -0.20      0.00
   -5   23   11     -0.48      0.00
   -5   23    8      5.40      0.00
   -5   23    5     -0.12      0.00
   -5   23    2      1.02      0.00
  -18   23    1      2.99      0.00
  -18   23    4     -6.85      0.00
  -18   23    7     -3.39      0.00
  -18   23   10     -2.12      0.00
   -4   23    9     -3.44      0.00
   -4   23    6     -4.89      0.00
   -4   23    3      1.93      0.00
   -4   23    0     -0.83      0.00
  -19   23    3      9.53      0.00
  -19   23    6      7.47      0.00
  -19   23    9     -0.31      0.00
  -19   23   12     -3.86      0.00
   -3   23   10     -7.39      0.00
   -3   23    7    -13.18      0.00
   -3   23    4     -2.78      0.00
   -3   23    1     -0.60      0.00
  -20   23    2      3.68      0.00
  -20   23    5     15.10      0.00
  -20   23    8     -0.35      0.00
  -20   23   11      1.48      0.00
   -2   23    8     -6.22      0.00
   -2   23    5     -7.54      0.00
   -2   23    2     -3.50      0.00
  -21   23    1      1.41      0.00
  -21   23    4      6.36      0.00
  -21   23    7      2.34      0.00
  -21   23   10      1.65      0.00
   -1   23    9      4.83      0.00
   -1   23    6      1.24      0.00
   -1   23    3     -5.04      0.00
   -1   23    0      3.29      0.00
  -22   23    3      4.48      0.00
  -22   23    6      5.05      0.00
  -22   23    9      4.64      0.00
    0   23   10      5.01      0.00
    0   23    7      8.77      0.00
    0   23    4     -0.48      0.00
    0   23    1      0.44      0.00
  -23   23    2     12.19      0.00
  -23   23    5      8.56      0.00
  -23   23    8     10.36      0.00
  -12   24    0      0.49      0.00
  -12   24    3     -5.97      0.00
  -12   24    6     -7.42      0.00
  -12   24    9     -3.60      0.00
  -12   24   12      0.20      0.00
  -11   24   10     -1.07      0.00
  -11   24    7      2.57      0.00
  -11   24    4     -4.01      0.00
  -11   24    1     -5.79      0.00
  -13   24    2      1.98      0.00
  -13   24    5     -8.79      0.00
  -13   24    8     -6.60      0.00
  -13   24   11     -2.92      0.00
  -10   24   11      1.50      0.00
  -10   24    8     -0.42      0.00
  -10   24    5      5.44      0.00
  -10   24    2     -9.54      0.00
  -14   24    1     -3.62      0.00
  -14   24    4      2.96      0.00
  -14   24    7     -3.77      0.00
  -14   24   10      2.84      0.00
   -9   24    9     -4.51      0.00
   -9   24    6     -0.31      0.00
   -9   24    3     -2.86      0.00
   -9   24    0    -11.31      0.00
  -15   24    3      0.57      0.00
  -15   24    6      6.56      0.00
  -15   24    9      6.75      0.00
  -15   24   12      0.87      0.00
   -8   24   10     -3.00      0.00
   -8   24    7     -4.48      0.00
   -8   24    4     -4.45      0.00
   -8   24    1     -3.29      0.00
  -16   24    2     -8.18      0.00
  -16   24    5      1.09      0.00
  -16   24    8      9.69      0.00
  -16   24   11      5.76      0.00
   -7   24   11     -1.72      0.00
   -7   24    8      3.75      0.00
   -7   24    5     -4.20      0.00
   -7   24    2     -2.23      0.00
  -17   24    1      2.67      0.00
  -17   24    4    -10.21      0.00
  -17   24    7      2.75      0.00
  -17   24   10      2.55      0.00
   -6   24    9      7.19      0.00
   -6   24    6      4.10      0.00
   -6   24    3     -3.92      0.00
   -6   24    0      5.81      0.00
  -18   24    3     -3.48      0.00
  -18   24    6     -4.25      0.00
  -18   24    9      0.49      0.00
  -18   24   12     -2.33      0.00
   -5   24   10      2.51      0.00
   -5   24    7      3.26      0.00
   -5   24    4      1.17      0.00
   -5   24    1     -0.08      0.00
  -19   24    2      0.52      0.00
  -19   24    5      1.65      0.00
  -19   24    8      0.30      0.00
  -19   24   11     -2.64      0.00
   -4   24    8     -6.15      0.00
   -4   24    5     -1.95      0.00
   -4   24    2      1.93      0.00
  -20   24    1     -7.40      0.00
  -20   24    4      6.29      0.00
  -20   24    7      3.75      0.00
  -20   24   10      1.33      0.00
   -3   24    9     -5.22      0.00
   -3   24    6    -12.53      0.00
   -3   24    3     -1.20      0.00
   -3   24    0     -3.49      0.00
  -21   24    3      0.11      0.00
  -21   24    6      8.26      0.00
  -21   24    9     -0.79      0.00
   -2   24   10     -1.12      0.00
   -2   24    7     -6.70      0.00
   -2   24    4     -6.01      0.00
   -2   24    1     -0.62      0.00
  -22   24    2      2.29      0.00
  -22   24    5      7.98      0.00
  -22   24    8      1.91      0.00
   -1   24    8      3.97      0.00
   -1   24    5      0.51      0.00
   -1   24    2     -0.17      0.00
  -23   24    1      7.04      0.00
  -23   24    4     11.54      0.00
  -23   24    7      4.97      0.00
  -23   24   10      0.54      0.00
    0   24    9      3.23      0.00
    0   24    6      9.18      0.00
    0   24    3      1.53      0.00
    0   24    0      4.60      0.00
  -24   24    3     13.15      0.00
  -24   24    6      4.71      0.00
  -24   24    9      2.41      0.00
  -12   25   11      1.46      0.00
  -12   25    8      1.95      0.00
  -12   25    5      2.69      0.00
  -12   25    2     -6.20      0.00
  -13   25    1     -5.91      0.00
  -13   25    4     -2.38      0.00
  -13   25    7     -5.20      0.00
  -13   25   10      1.52      0.00
  -11   25    9     -1.23      0.00
  -11   25    6      7.90      0.00
  -11   25    3     -0.31      0.00
  -11   25    0     -8.53      0.00
  -14   25    3      0.65      0.00
  -14   25    6     -7.70      0.00
  -14   25    9      0.44      0.00
  -10   25   10     -3.15      0.00
  -10   25    7      1.68      0.00
  -10   25    4      4.00      0.00
  -10   25    1     -7.34      0.00
  -15   25    2     -4.38      0.00
  -15   25    5     -1.50      0.00
  -15   25    8      0.92      0.00
  -15   25   11     -0.92      0.00
   -9   25   11     -2.92      0.00
   -9   25    8     -5.36      0.00
   -9   25    5      0.48      0.00
   -9   25    2     -1.65      0.00
  -16   25    1     -9.98      0.00
  -16   25    4     -0.21      0.00
  -16   25    7      6.12      0.00
  -16   25   10      0.39      0.00
   -8   25    9     -2.79      0.00
   -8   25    6     -1.48      0.00
   -8   25    3     -0.85      0.00
   -8   25    0     -2.88      0.00
  -17   25    3     -1.27      0.00
  -17   25    6      5.64      0.00
  -17   25    9      1.35      0.00
  -17   25   12      2.76      0.00
   -7   25   10     -0.32      0.00
   -7   25    7      4.58      0.00
   -7   25    4     -0.86      0.00
   -7   25    1      0.84      0.00
  -18   25    2      5.17      0.00
  -18   25    5      2.88      0.00
  -18   25    8      1.49      0.00
  -18   25   11     -0.00      0.00
   -6   25    8      5.71      0.00
   -6   25    5      6.18      0.00
   -6   25    2     -0.47      0.00
  -19   25    1      3.29      0.00
  -19   25    4      2.53      0.00
  -19   25    7     -1.33      0.00
  -19   25   10      1.55      0.00
   -5   25    9      1.25      0.00
   -5   25    6      6.96      0.00
   -5   25    3      3.47      0.00
   -5   25    0     -5.82      0.00
  -20   25    3     -3.53      0.00
  -20   25    6      1.40      0.00
  -20   25    9      0.56      0.00
  -20   25   12      0.13      0.00
   -4   25   10      0.31      0.00
   -4   25    7     -1.94      0.00
   -4   25    4      1.80      0.00
   -4   25    1     -3.35      0.00
  -21   25    2    -11.58      0.00
  -21   25    5     -0.01      0.00
  -21   25    8      0.70      0.00
  -21   25   11      1.12      0.00
   -3   25    8     -2.84      0.00
   -3   25    5     -7.06      0.00
   -3   25    2     -0.99      0.00
  -22   25    1     -6.19      0.00
  -22   25    4     -3.03      0.00
  -22   25    7      0.29      0.00
  -22   25   10     -0.86      0.00
   -2   25    9     -0.05      0.00
   -2   25    6     -3.18      0.00
   -2   25    3     -3.42      0.00
   -2   25    0      1.85      0.00
  -23   25    3     -0.20      0.00
  -23   25    6     -0.45      0.00
  -23   25    9     -3.06      0.00
   -1   25    7      4.17      0.00
   -1   25    4      2.47      0.00
   -1   25    1      1.67      0.00
  -24   25    2      2.84      0.00
  -24   25    5      2.36      0.00
  -24   25    8     -1.83      0.00
    0   25    8     -0.30      0.00
    0   25    5      7.06      0.00
    0   25    2      4.62      0.00
  -25   25    1     -3.57      0.00
  -25   25    4      6.08      0.00
  -25   25    7     -4.42      0.00
  -25   25   10      1.49      0.00
  -13   26    0     -6.75      0.00
  -13   26    3      3.99      0.00
  -13   26    6      3.32      0.00
  -13   26    9      2.61      0.00
  -12   26   10      1.71      0.00
  -12   26    7      6.06      0.00
  -12   26    4      6.56      0.00
  -12   26    1     -4.22      0.00
  -14   26    2      4.12      0.00
  -14   26    5     -1.44      0.00
  -14   26    8     -2.69      0.00
  -14   26   11      0.59      0.00
  -11   26   11      0.52      0.00
  -11   26    8      1.46      0.00
  -11   26    5      5.58      0.00
  -11   26    2      0.71      0.00
  -15   26    1      3.42      0.00
  -15   26    4     -3.14      0.00
  -15   26    7     -5.52      0.00
  -15   26   10      0.78      0.00
  -10   26    9     -3.82      0.00
  -10   26    6      0.18      0.00
  -10   26    3      4.03      0.00
  -10   26    0      0.46      0.00
  -16   26    3     -4.01      0.00
  -16   26    6     -0.97      0.00
  -16   26    9     -1.14      0.00
   -9   26   10     -2.37      0.00
   -9   26    7     -3.53      0.00
   -9   26    4      1.13      0.00
   -9   26    1      1.38      0.00
  -17   26    2     -4.64      0.00
  -17   26    5      4.43      0.00
  -17   26    8      2.64      0.00
  -17   26   11     -4.04      0.00
   -8   26    8     -2.46      0.00
   -8   26    5     -0.15      0.00
   -8   26    2      1.33      0.00
  -18   26    1      1.38      0.00
  -18   26    4      9.47      0.00
  -18   26    7      1.05      0.00
  -18   26   10     -2.79      0.00
   -7   26    9     -1.61      0.00
   -7   26    6      4.10      0.00
   -7   26    3      0.26      0.00
   -7   26    0      3.20      0.00
  -19   26    3     10.40      0.00
  -19   26    6     -0.39      0.00
  -19   26    9     -0.55      0.00
  -19   26   12      2.82      0.00
   -6   26   10      0.08      0.00
   -6   26    7      7.21      0.00
   -6   26    4      4.08      0.00
   -6   26    1     -1.28      0.00
  -20   26    2      3.81      0.00
  -20   26    5     -1.66      0.00
  -20   26    8     -1.09      0.00
   -5   26    8      4.81      0.00
   -5   26    5      4.25      0.00
   -5   26    2      0.22      0.00
  -21   26    1     -4.83      0.00
  -21   26    4     -6.55      0.00
  -21   26    7      0.31      0.00
  -21   26   10      1.55      0.00
   -4   26    9      3.04      0.00
   -4   26    6     -0.06      0.00
   -4   26    3     -0.64      0.00
   -4   26    0     -2.26      0.00
  -22   26    3    -10.51      0.00
  -22   26    6     -0.67      0.00
  -22   26    9     -2.68      0.00
   -3   26    7      0.39      0.00
   -3   26    4     -3.02      0.00
   -3   26    1     -0.85      0.00
  -23   26    2     -7.13      0.00
  -23   26    5     -5.48      0.00
  -23   26    8     -4.89      0.00
   -2   26    8      1.28      0.00
   -2   26    5     -0.17      0.00
   -2   26    2     -0.71      0.00
  -24   26    1     -5.42      0.00
  -24   26    4     -3.31      0.00
  -24   26    7     -8.09      0.00
  -24   26   10     -2.47      0.00
   -1   26    9     -1.25      0.00
   -1   26    6      3.47      0.00
   -1   26    3      1.13      0.00
   -1   26    0     -4.81      0.00
  -25   26    3      0.11      0.00
  -25   26    6     -5.18      0.00
  -25   26    9      0.72      0.00
    0   26    7     -1.13      0.00
    0   26    4      2.92      0.00
    0   26    1     -3.30      0.00
  -26   26    2      0.65      0.00
  -26   26    5      0.53      0.00
  -26   26    8     -0.07      0.00
  -13   27    8      3.52      0.00
  -13   27    5      6.20      0.00
  -13   27    2      0.09      0.00
  -14   27    1      5.27      0.00
  -14   27    4      6.39      0.00
  -14   27    7      0.04      0.00
  -14   27   10      3.38      0.00
  -12   27    9      1.75      0.00
  -12   27    6      1.03      0.00
  -12   27    3     -1.43      0.00
  -12   27    0      8.52      0.00
  -15   27    3      4.97      0.00
  -15   27    6     -2.98      0.00
  -15   27    9     -0.18      0.00
  -11   27   10     -0.01      0.00
  -11   27    7     -1.87      0.00
  -11   27    4     -1.09      0.00
  -11   27    1      9.04      0.00
  -16   27    2      1.86      0.00
  -16   27    5     -5.31      0.00
  -16   27    8     -0.70      0.00
  -16   27   11     -1.96      0.00
  -10   27    8     -0.46      0.00
  -10   27    5     -2.55      0.00
  -10   27    2      7.93      0.00
  -17   27    1     -0.98      0.00
  -17   27    4     -3.07      0.00
  -17   27    7      1.67      0.00
  -17   27   10     -4.17      0.00
   -9   27    9      1.32      0.00
   -9   27    6     -3.56      0.00
   -9   27    3      3.60      0.00
   -9   27    0     -0.99      0.00
  -18   27    3      1.54      0.00
  -18   27    6      3.13      0.00
  -18   27    9     -3.51      0.00
   -8   27   10     -0.53      0.00
   -8   27    7     -5.60      0.00
   -8   27    4     -0.05      0.00
   -8   27    1     -0.83      0.00
  -19   27    2      6.61      0.00
  -19   27    5      4.63      0.00
  -19   27    8     -3.77      0.00
  -19   27   11      0.68      0.00
   -7   27    8     -3.64      0.00
   -7   27    5      0.00      0.00
   -7   27    2     -1.25      0.00
  -20   27    1      7.10      0.00
  -20   27    4      4.42      0.00
  -20   27    7     -7.07      0.00
  -20   27   10      3.67      0.00
   -6   27    9      0.91      0.00
   -6   27    6      2.58      0.00
   -6   27    3     -1.03      0.00
   -6   27    0      4.38      0.00
  -21   27    3      1.48      0.00
  -21   27    6     -4.09      0.00
  -21   27    9      1.97      0.00
   -5   27    7      5.23      0.00
   -5   27    4     -0.93      0.00
   -5   27    1      1.37      0.00
  -22   27    2      0.46      0.00
  -22   27    5     -3.03      0.00
  -22   27    8      2.40      0.00
  -22   27   11     -0.85      0.00
   -4   27    8      5.75      0.00
   -4   27    5     -2.54      0.00
   -4   27    2      0.43      0.00
  -23   27    1     -0.26      0.00
  -23   27    4     -4.07      0.00
  -23   27    7      1.00      0.00
  -23   27   10     -4.58      0.00
   -3   27    9      2.74      0.00
   -3   27    6      0.50      0.00
   -3   27    3     -2.47      0.00
   -3   27    0     -1.06      0.00
  -24   27    3     -5.25      0.00
  -24   27    6     -5.41      0.00
  -24   27    9     -6.49      0.00
   -2   27    7      1.04      0.00
   -2   27    4      0.20      0.00
   -2   27    1     -4.31      0.00
  -25   27    2     -3.78      0.00
  -25   27    5     -6.01      0.00
  -25   27    8     -4.95      0.00
   -1   27    8     -0.21      0.00
   -1   27    5     -0.92      0.00
   -1   27    2     -0.13      0.00
  -26   27    1     -2.08      0.00
  -26   27    4     -0.83      0.00
  -26   27    7     -1.93      0.00
  -26   27   10      6.06      0.00
    0   27    6     -2.77      0.00
    0   27    3      1.56      0.00
    0   27    0      1.51      0.00
  -27   27    3      0.07      0.00
  -27   27    6      4.45      0.00
  -14   28    0      2.26      0.00
  -14   28    3      1.70      0.00
  -14   28    6      4.58      0.00
  -14   28    9      2.94      0.00
  -13   28   10      2.58      0.00
  -13   28    7     -0.74      0.00
  -13   28    4     -5.50      0.00
  -13   28    1     -0.17      0.00
  -15   28    2      8.43      0.00
  -15   28    5      3.64      0.00
  -15   28    8      0.97      0.00
  -12   28    8     -0.51      0.00
  -12   28    5     -8.69      0.00
  -12   28    2     -1.75      0.00
  -16   28    1      7.41      0.00
  -16   28    4     -1.85      0.00
  -16   28    7     -0.91      0.00
  -16   28   10      1.13      0.00
  -11   28    9      2.94      0.00
  -11   28    6     -4.80      0.00
  -11   28    3      1.71      0.00
  -11   28    0      5.28      0.00
  -17   28    3     -6.48      0.00
  -17   28    6     -0.98      0.00
  -17   28    9     -0.65      0.00
  -10   28   10      4.74      0.00
  -10   28    7      0.50      0.00
  -10   28    4      1.89      0.00
  -10   28    1      3.10      0.00
  -18   28    2     -6.02      0.00
  -18   28    5     -0.03      0.00
  -18   28    8      0.58      0.00
   -9   28    8     -1.21      0.00
   -9   28    5     -1.75      0.00
   -9   28    2      0.36      0.00
  -19   28    1     -2.58      0.00
  -19   28    4      1.77      0.00
  -19   28    7     -1.84      0.00
  -19   28   10     -1.54      0.00
   -8   28    9     -3.47      0.00
   -8   28    6     -6.71      0.00
   -8   28    3     -2.43      0.00
   -8   28    0     -0.06      0.00
  -20   28    3      2.45      0.00
  -20   28    6     -4.12      0.00
  -20   28    9     -0.36      0.00
   -7   28    7     -6.30      0.00
   -7   28    4     -1.45      0.00
   -7   28    1      0.67      0.00
  -21   28    2      3.59      0.00
  -21   28    5     -2.81      0.00
  -21   28    8     -0.54      0.00
  -21   28   11      0.30      0.00
   -6   28    8      0.96      0.00
   -6   28    5     -2.17      0.00
   -6   28    2      1.23      0.00
  -22   28    1      4.92      0.00
  -22   28    4      1.99      0.00
  -22   28    7      2.52      0.00
  -22   28   10      1.32      0.00
   -5   28    9      3.31      0.00
   -5   28    6      0.42      0.00
   -5   28    3     -1.05      0.00
   -5   28    0      6.78      0.00
  -23   28    3      4.29      0.00
  -23   28    6      4.71      0.00
  -23   28    9     -0.44      0.00
   -4   28    7      2.01      0.00
   -4   28    4     -0.73      0.00
   -4   28    1      3.71      0.00
  -24   28    2      2.46      0.00
  -24   28    5     -0.79      0.00
  -24   28    8      0.52      0.00
   -3   28    8      1.83      0.00
   -3   28    5     -0.59      0.00
   -3   28    2      1.87      0.00
  -25   28    1     -2.43      0.00
  -25   28    4     -3.39      0.00
  -25   28    7     -2.36      0.00
   -2   28    6     -1.20      0.00
   -2   28    3      0.35      0.00
   -2   28    0     -1.75      0.00
  -26   28    3     -2.67      0.00
  -26   28    6     -1.45      0.00
  -26   28    9      0.76      0.00
   -1   28    7     -0.91      0.00
   -1   28    4      2.93      0.00
   -1   28    1      0.54      0.00
  -27   28    2      1.70      0.00
  -27   28    5      1.09      0.00
  -27   28    8      1.79      0.00
    0   28    8      2.08      0.00
    0   28    5      1.55      0.00
    0   28    2      7.09      0.00
  -28   28    1      3.58      0.00
  -28   28    4     -2.61      0.00
  -28   28    7      4.49      0.00
  -14   29    8      0.40      0.00
  -14   29    5     -1.65      0.00
  -14   29    2     -6.18      0.00
  -15   29    1      0.32      0.00
  -15   29    4      3.66      0.00
  -15   29    7      2.72      0.00
  -15   29   10      1.73      0.00
  -13   29    9     -1.65      0.00
  -13   29    6     -6.81      0.00
  -13   29    3    -11.88      0.00
  -13   29    0     -1.43      0.00
  -16   29    3      3.71      0.00
  -16   29    6      0.79      0.00
  -16   29    9      1.24      0.00
  -12   29    7     -2.63      0.00
  -12   29    4     -6.72      0.00
  -12   29    1     -0.95      0.00
  -17   29    2     -3.49      0.00
  -17   29    5     -4.41      0.00
  -17   29    8      0.37      0.00
  -11   29    8      4.47      0.00
  -11   29    5      0.21      0.00
  -11   29    2      3.61      0.00
  -18   29    1     -4.89      0.00
  -18   29    4     -5.59      0.00
  -18   29    7      0.82      0.00
  -18   29   10     -0.67      0.00
  -10   29    9      2.82      0.00
  -10   29    6      4.07      0.00
  -10   29    3      2.22      0.00
  -10   29    0     -1.79      0.00
  -19   29    3     -4.66      0.00
  -19   29    6      1.73      0.00
  -19   29    9     -1.72      0.00
   -9   29    7     -2.18      0.00
   -9   29    4     -0.74      0.00
   -9   29    1     -3.15      0.00
  -20   29    2     -2.76      0.00
  -20   29    5     -1.09      0.00
  -20   29    8      0.43      0.00
   -8   29    8     -4.23      0.00
   -8   29    5     -3.50      0.00
   -8   29    2     -1.81      0.00
  -21   29    1     -5.29      0.00
  -21   29    4     -2.57      0.00
  -21   29    7     -0.53      0.00
  -21   29   10     -0.25      0.00
   -7   29    9     -1.22      0.00
   -7   29    6     -3.86      0.00
   -7   29    3     -1.10      0.00
   -7   29    0     -1.32      0.00
  -22   29    3     -0.69      0.00
  -22   29    6      2.41      0.00
  -22   29    9      1.28      0.00
   -6   29    7     -1.61      0.00
   -6   29    4     -0.21      0.00
   -6   29    1      3.99      0.00
  -23   29    2      3.77      0.00
  -23   29    5      5.13      0.00
  -23   29    8      4.09      0.00
   -5   29    8     -2.57      0.00
   -5   29    5     -0.31      0.00
   -5   29    2      7.05      0.00
  -24   29    1      5.09      0.00
  -24   29    4      5.21      0.00
  -24   29    7      4.82      0.00
  -24   29   10     -0.47      0.00
   -4   29    6      0.31      0.00
   -4   29    3      4.00      0.00
   -4   29    0      3.77      0.00
  -25   29    3      1.75      0.00
  -25   29    6      0.59      0.00
  -25   29    9      0.89      0.00
   -3   29    7     -2.02      0.00
   -3   29    4      3.25      0.00
   -3   29    1     -1.11      0.00
  -26   29    2      0.25      0.00
  -26   29    5     -1.44      0.00
  -26   29    8      1.95      0.00
   -2   29    8     -0.00      0.00
   -2   29    5      1.26      0.00
   -2   29    2      1.66      0.00
  -27   29    1     -0.38      0.00
  -27   29    4     -1.35      0.00
  -27   29    7      1.85      0.00
   -1   29    6      2.83      0.00
   -1   29    3      4.68      0.00
   -1   29    0      5.82      0.00
  -28   29    3     -4.64      0.00
  -28   29    6      2.14      0.00
    0   29    7      4.52      0.00
    0   29    4      6.01      0.00
    0   29    1      9.27      0.00
  -29   29    2     -4.41      0.00
  -29   29    5     -2.55      0.00
  -15   30    0     -1.22      0.00
  -15   30    3     -1.85      0.00
  -15   30    6      2.13      0.00
  -15   30    9     -1.17      0.00
  -14   30    7     -2.37      0.00
  -14   30    4     -7.83      0.00
  -14   30    1     -5.25      0.00
  -16   30    2      1.95      0.00
  -16   30    5      1.56      0.00
  -16   30    8      1.19      0.00
  -13   30    8     -1.89      0.00
  -13   30    5     -8.36      0.00
  -13   30    2     -5.58      0.00
  -17   30    1     -4.94      0.00
  -17   30    4     -1.36      0.00
  -17   30    7     -1.21      0.00
  -17   30   10      0.07      0.00
  -12   30    9     -1.27      0.00
  -12   30    6     -0.74      0.00
  -12   30    3      1.64      0.00
  -12   30    0     -3.17      0.00
  -18   30    3     -5.67      0.00
  -18   30    6     -2.23      0.00
  -18   30    9     -4.66      0.00
  -11   30    7      4.61      0.00
  -11   30    4      5.79      0.00
  -11   30    1      2.03      0.00
  -19   30    2     -3.31      0.00
  -19   30    5     -0.27      0.00
  -19   30    8     -2.44      0.00
  -10   30    8      1.21      0.00
  -10   30    5      4.31      0.00
  -10   30    2      0.27      0.00
  -20   30    1      0.99      0.00
  -20   30    4     -0.11      0.00
  -20   30    7      1.20      0.00
  -20   30   10     -1.60      0.00
   -9   30    9     -1.11      0.00
   -9   30    6      0.43      0.00
   -9   30    3     -3.37      0.00
   -9   30    0     -4.01      0.00
  -21   30    3     -2.60      0.00
  -21   30    6      2.50      0.00
  -21   30    9      0.29      0.00
   -8   30    7     -1.08      0.00
   -8   30    4     -1.52      0.00
   -8   30    1     -4.98      0.00
  -22   30    2     -6.87      0.00
  -22   30    5      1.25      0.00
  -22   30    8      0.18      0.00
   -7   30    8     -0.71      0.00
   -7   30    5     -0.02      0.00
   -7   30    2      1.37      0.00
  -23   30    1     -6.21      0.00
  -23   30    4      1.70      0.00
  -23   30    7      1.20      0.00
  -23   30   10     -0.49      0.00
   -6   30    6      1.96      0.00
   -6   30    3      1.68      0.00
   -6   30    0      3.48      0.00
  -24   30    3      1.91      0.00
  -24   30    6      2.11      0.00
  -24   30    9      1.32      0.00
   -5   30    7     -2.13      0.00
   -5   30    4      1.66      0.00
   -5   30    1      3.74      0.00
  -25   30    2      4.27      0.00
  -25   30    5      1.29      0.00
  -25   30    8      2.85      0.00
   -4   30    8     -5.15      0.00
   -4   30    5     -0.28      0.00
   -4   30    2      2.47      0.00
  -26   30    1      1.49      0.00
  -26   30    4      1.61      0.00
  -26   30    7      0.51      0.00
   -3   30    6     -0.33      0.00
   -3   30    3      0.12      0.00
   -3   30    0     -1.20      0.00
  -27   30    3     -0.23      0.00
  -27   30    6     -0.07      0.00
  -27   30    9      2.28      0.00
   -2   30    7      1.23      0.00
   -2   30    4      2.71      0.00
   -2   30    1     -0.38      0.00
  -28   30    2     -2.32      0.00
  -28   30    5     -1.62      0.00
  -28   30    8      1.15      0.00
   -1   30    5      2.46      0.00
   -1   30    2      5.01      0.00
  -29   30    1     -2.17      0.00
  -29   30    4     -3.87      0.00
  -29   30    7     -0.52      0.00
    0   30    6      4.09      0.00
    0   30    3     -0.42      0.00
    0   30    0      3.31      0.00
  -30   30    3     -4.20      0.00
  -30   30    6     -1.92      0.00
  -15   31    8     -0.97      0.00
  -15   31    5     -0.92      0.00
  -15   31    2      0.75      0.00
  -16   31    1      4.34      0.00
  -16   31    4      2.23      0.00
  -16   31    7      0.22      0.00
  -14   31    9     -2.70      0.00
  -14   31    6     -4.44      0.00
  -14   31    3     -2.61      0.00
  -14   31    0     -1.40      0.00
  -17   31    3      2.25      0.00
  -17   31    6     -0.80      0.00
  -17   31    9     -2.41      0.00
  -13   31    7     -3.16      0.00
  -13   31    4      1.18      0.00
  -13   31    1     -2.70      0.00
  -18   31    2     -3.48      0.00
  -18   31    5     -3.11      0.00
  -18   31    8     -5.48      0.00
  -12   31    8     -2.90      0.00
  -12   31    5      4.07      0.00
  -12   31    2      2.34      0.00
  -19   31    1      0.09      0.00
  -19   31    4     -0.58      0.00
  -19   31    7     -4.91      0.00
  -11   31    6      5.38      0.00
  -11   31    3      0.34      0.00
  -11   31    0      9.33      0.00
  -20   31    3      2.16      0.00
  -20   31    6      0.39      0.00
  -20   31    9     -1.73      0.00
  -10   31    7      2.77      0.00
  -10   31    4     -2.67      0.00
  -10   31    1      3.19      0.00
  -21   31    2      5.81      0.00
  -21   31    5      2.19      0.00
  -21   31    8      0.96      0.00
   -9   31    8      4.46      0.00
   -9   31    5     -4.31      0.00
   -9   31    2     -0.75      0.00
  -22   31    1     -3.95      0.00
  -22   31    4      0.15      0.00
  -22   31    7      0.67      0.00
  -22   31   10     -1.32      0.00
   -8   31    6     -1.10      0.00
   -8   31    3     -0.52      0.00
   -8   31    0     -7.52      0.00
  -23   31    3     -4.41      0.00
  -23   31    6      2.20      0.00
  -23   31    9     -5.14      0.00
   -7   31    7      0.33      0.00
   -7   31    4      1.66      0.00
   -7   31    1     -2.46      0.00
  -24   31    2     -4.18      0.00
  -24   31    5      0.78      0.00
  -24   31    8     -4.56      0.00
   -6   31    8     -2.87      0.00
   -6   31    5      0.93      0.00
   -6   31    2     -0.52      0.00
  -25   31    1      2.40      0.00
  -25   31    4     -0.49      0.00
  -25   31    7     -4.10      0.00
   -5   31    6      0.43      0.00
   -5   31    3     -2.84      0.00
   -5   31    0      2.01      0.00
  -26   31    3      0.13      0.00
  -26   31    6     -2.30      0.00
  -26   31    9      3.32      0.00
   -4   31    7     -1.52      0.00
   -4   31    4     -0.71      0.00
   -4   31    1     -5.60      0.00
  -27   31    2      1.05      0.00
  -27   31    5      0.46      0.00
  -27   31    8      1.59      0.00
   -3   31    5     -0.42      0.00
   -3   31    2     -3.92      0.00
  -28   31    1     -2.82      0.00
  -28   31    4      0.05      0.00
  -28   31    7     -0.51      0.00
   -2   31    6      1.74      0.00
   -2   31    3     -4.49      0.00
   -2   31    0     -0.37      0.00
  -29   31    3     -2.28      0.00
  -29   31    6     -2.67      0.00
   -1   31    4     -3.51      0.00
   -1   31    1     -1.99      0.00
  -30   31    2     -0.77      0.00
  -30   31    5     -1.68      0.00
    0   31    5     -2.92      0.00
    0   31    2     -5.52      0.00
  -31   31    1     -0.67      0.00
  -31   31    4      1.95      0.00
  -31   31    7     -1.97      0.00
  -16   32    0     11.11      0.00
  -16   32    3      2.26      0.00
  -16   32    6      1.01      0.00
  -16   32    9     -0.41      0.00
  -15   32    7     -1.91      0.00
  -15   32    4      0.43      0.00
  -15   32    1      5.21      0.00
  -17   32    2      5.18      0.00
  -17   32    5      1.07      0.00
  -17   32    8     -1.13      0.00
  -14   32    8     -0.06      0.00
  -14   32    5     -1.39      0.00
  -14   32    2      1.00      0.00
  -18   32    1     -2.07      0.00
  -18   32    4      0.61      0.00
  -18   32    7     -3.03      0.00
  -13   32    6     -1.33      0.00
  -13   32    3      1.75      0.00
  -13   32    0     -2.21      0.00
  -19   32    3     -0.85      0.00
  -19   32    6     -3.35      0.00
  -19   32    9     -4.71      0.00
  -12   32    7     -3.76      0.00
  -12   32    4      1.14      0.00
  -12   32    1      2.92      0.00
  -20   32    2      3.34      0.00
  -20   32    5      0.20      0.00
  -20   32    8     -1.81      0.00
  -11   32    8     -2.99      0.00
  -11   32    5     -0.88      0.00
  -11   32    2      1.24      0.00
  -21   32    1     12.26      0.00
  -21   32    4      2.45      0.00
  -21   32    7     -0.63      0.00
  -10   32    6     -1.06      0.00
  -10   32    3     -2.79      0.00
  -10   32    0      6.27      0.00
  -22   32    3      2.95      0.00
  -22   32    6      1.39      0.00
  -22   32    9     -0.58      0.00
   -9   32    7      0.99      0.00
   -9   32    4     -1.51      0.00
   -9   32    1     -2.23      0.00
  -23   32    2     -2.54      0.00
  -23   32    5      1.93      0.00
  -23   32    8     -5.49      0.00
   -8   32    5     -1.48      0.00
   -8   32    2     -1.10      0.00
  -24   32    1     -7.22      0.00
  -24   32    4      0.21      0.00
  -24   32    7     -4.29      0.00
   -7   32    6     -0.04      0.00
   -7   32    3     -3.07      0.00
   -7   32    0     -0.35      0.00
  -25   32    3     -2.61      0.00
  -25   32    6     -3.72      0.00
  -25   32    9     -1.91      0.00
   -6   32    7      0.63      0.00
   -6   32    4     -2.17      0.00
   -6   32    1     -3.29      0.00
  -26   32    2      2.05      0.00
  -26   32    5     -4.28      0.00
  -26   32    8     -0.00      0.00
   -5   32    5     -0.75      0.00
   -5   32    2     -5.01      0.00
  -27   32    1      1.29      0.00
  -27   32    4     -2.05      0.00
  -27   32    7     -0.53      0.00
   -4   32    6      0.91      0.00
   -4   32    3     -4.08      0.00
   -4   32    0     -1.48      0.00
  -28   32    3     -1.66      0.00
  -28   32    6      0.42      0.00
   -3   32    4     -2.02      0.00
   -3   32    1     -2.37      0.00
  -29   32    2     -1.25      0.00
  -29   32    5     -0.41      0.00
  -29   32    8     -0.57      0.00
   -2   32    5     -3.48      0.00
   -2   32    2     -2.64      0.00
  -30   32    1     -1.29      0.00
  -30   32    4      0.63      0.00
   -1   32    3     -6.48      0.00
   -1   32    0     -2.31      0.00
  -31   32    3      3.40      0.00
  -31   32    6     -1.52      0.00
    0   32    4     -1.43      0.00
    0   32    1     -7.43      0.00
  -32   32    2      3.80      0.00
  -32   32    5      0.94      0.00
  -16   33    8      0.71      0.00
  -16   33    5      1.00      0.00
  -16   33    2      3.16      0.00
  -17   33    1      6.65      0.00
  -17   33    4      0.82      0.00
  -17   33    7     -0.11      0.00
  -15   33    6     -0.31      0.00
  -15   33    3     -0.85      0.00
  -15   33    0      0.90      0.00
  -18   33    3      1.67      0.00
  -18   33    6      0.16      0.00
  -14   33    7     -0.56      0.00
  -14   33    4     -0.35      0.00
  -14   33    1     -4.15      0.00
  -19   33    2     -2.35      0.00
  -19   33    5     -1.63      0.00
  -19   33    8     -1.14      0.00
  -13   33    8     -3.46      0.00
  -13   33    5     -1.36      0.00
  -13   33    2     -2.65      0.00
  -20   33    1     -3.51      0.00
  -20   33    4      0.15      0.00
  -20   33    7     -0.92      0.00
  -12   33    6     -0.71      0.00
  -12   33    3     -4.17      0.00
  -12   33    0      3.80      0.00
  -21   33    3      0.43      0.00
  -21   33    6     -0.31      0.00
  -11   33    7     -0.53      0.00
  -11   33    4     -3.55      0.00
  -11   33    1      3.11      0.00
  -22   33    2      6.10      0.00
  -22   33    5     -1.15      0.00
  -22   33    8      1.74      0.00
  -10   33    5     -2.55      0.00
  -10   33    2      1.77      0.00
  -23   33    1      2.25      0.00
  -23   33    4      0.63      0.00
  -23   33    7     -1.91      0.00
   -9   33    6     -3.33      0.00
   -9   33    3      1.92      0.00
   -9   33    0     -2.65      0.00
  -24   33    3     -0.09      0.00
  -24   33    6      0.00      0.00
  -24   33    9     -4.67      0.00
   -8   33    7     -4.30      0.00
   -8   33    4      1.29      0.00
   -8   33    1     -2.51      0.00
  -25   33    2     -2.95      0.00
  -25   33    5     -0.63      0.00
  -25   33    8     -0.70      0.00
   -7   33    5     -1.80      0.00
   -7   33    2     -2.54      0.00
  -26   33    1     -0.15      0.00
  -26   33    4     -2.77      0.00
  -26   33    7      1.43      0.00
   -6   33    6      1.59      0.00
   -6   33    3     -5.06      0.00
   -6   33    0      2.47      0.00
  -27   33    3     -1.47      0.00
  -27   33    6     -0.51      0.00
   -5   33    4      0.38      0.00
   -5   33    1      0.27      0.00
  -28   33    2      0.31      0.00
  -28   33    5      0.39      0.00
  -28   33    8      0.75      0.00
   -4   33    5      0.55      0.00
   -4   33    2      3.81      0.00
  -29   33    1     -0.76      0.00
  -29   33    4      1.11      0.00
  -29   33    7     -0.25      0.00
   -3   33    3      1.16      0.00
   -3   33    0      1.43      0.00
  -30   33    3      0.97      0.00
  -30   33    6     -0.73      0.00
   -2   33    4     -0.86      0.00
   -2   33    1     -0.90      0.00
  -31   33    2      1.77      0.00
  -31   33    5     -0.60      0.00
   -1   33    2     -1.19      0.00
  -32   33    1     -0.02      0.00
  -32   33    4      1.42      0.00
  -32   33    7      0.16      0.00
    0   33    3      1.30      0.00
    0   33    0      2.04      0.00
  -33   33    3      0.55      0.00
  -33   33    6     -0.92      0.00
  -17   34    0      1.57      0.00
  -17   34    3     -2.07      0.00
  -17   34    6      1.51      0.00
  -16   34    7      0.80      0.00
  -16   34    4     -2.17      0.00
  -16   34    1     -0.39      0.00
  -18   34    2      1.57      0.00
  -18   34    5     -0.43      0.00
  -18   34    8     -0.34      0.00
  -15   34    5     -1.08      0.00
  -15   34    2     -2.33      0.00
  -19   34    1     -1.95      0.00
  -19   34    4     -0.48      0.00
  -19   34    7     -1.03      0.00
  -14   34    6      0.03      0.00
  -14   34    3     -2.49      0.00
  -14   34    0     -5.58      0.00
  -20   34    3     -1.89      0.00
  -20   34    6     -1.43      0.00
  -13   34    7     -1.55      0.00
  -13   34    4     -3.36      0.00
  -13   34    1     -5.72      0.00
  -21   34    2     -3.63      0.00
  -21   34    5     -0.81      0.00
  -21   34    8      4.45      0.00
  -12   34    5     -2.08      0.00
  -12   34    2     -2.76      0.00
  -22   34    1      0.43      0.00
  -22   34    4     -2.42      0.00
  -22   34    7      2.06      0.00
  -11   34    6      2.02      0.00
  -11   34    3     -1.72      0.00
  -11   34    0      3.21      0.00
  -23   34    3     -0.34      0.00
  -23   34    6     -2.12      0.00
  -10   34    7     -0.12      0.00
  -10   34    4      1.79      0.00
  -10   34    1      1.14      0.00
  -24   34    2      0.62      0.00
  -24   34    5     -0.83      0.00
  -24   34    8     -1.43      0.00
   -9   34    5     -3.25      0.00
   -9   34    2      2.55      0.00
  -25   34    1     -3.96      0.00
  -25   34    4      2.90      0.00
  -25   34    7      2.06      0.00
   -8   34    6     -6.51      0.00
   -8   34    3      0.23      0.00
   -8   34    0     -1.16      0.00
  -26   34    3      0.75      0.00
  -26   34    6      2.84      0.00
   -7   34    4     -2.14      0.00
   -7   34    1      1.55      0.00
  -27   34    2      0.60      0.00
  -27   34    5     -1.15      0.00
  -27   34    8      4.93      0.00
   -6   34    5      1.18      0.00
   -6   34    2      1.24      0.00
  -28   34    1      2.04      0.00
  -28   34    4     -0.32      0.00
  -28   34    7      1.86      0.00
   -5   34    3      1.20      0.00
   -5   34    0      4.76      0.00
  -29   34    3      0.72      0.00
  -29   34    6      1.50      0.00
   -4   34    4      2.71      0.00
   -4   34    1      5.84      0.00
  -30   34    2      0.90      0.00
  -30   34    5      2.32      0.00
   -3   34    5     -1.88      0.00
   -3   34    2      8.25      0.00
  -31   34    1     -2.09      0.00
  -31   34    4      0.85      0.00
  -31   34    7      0.24      0.00
   -2   34    3      3.00      0.00
   -2   34    0      0.12      0.00
  -32   34    3     -0.15      0.00
   -1   34    1      2.33      0.00
  -33   34    2      0.16      0.00
  -33   34    5     -1.77      0.00
    0   34    2      4.41      0.00
  -34   34    1      4.57      0.00
  -34   34    4     -2.90      0.00
  -17   35    8      0.17      0.00
  -17   35    5     -1.18      0.00
  -17   35    2     -2.77      0.00
  -18   35    1     -1.37      0.00
  -18   35    4     -1.80      0.00
  -18   35    7     -0.45      0.00
  -16   35    6      0.94      0.00
  -16   35    3     -2.94      0.00
  -16   35    0      2.63      0.00
  -19   35    3      0.17      0.00
  -19   35    6     -1.22      0.00
  -15   35    7      2.32      0.00
  -15   35    4     -0.16      0.00
  -15   35    1      2.37      0.00
  -20   35    2     -0.33      0.00
  -20   35    5     -1.52      0.00
  -20   35    8     -1.71      0.00
  -14   35    5     -2.49      0.00
  -14   35    2      0.25      0.00
  -21   35    1     -3.32      0.00
  -21   35    4     -0.37      0.00
  -21   35    7     -0.29      0.00
  -13   35    6     -2.41      0.00
  -13   35    3     -1.78      0.00
  -13   35    0     -4.43      0.00
  -22   35    3     -2.85      0.00
  -22   35    6      1.10      0.00
  -12   35    7      0.14      0.00
  -12   35    4     -1.49      0.00
  -12   35    1     -1.82      0.00
  -23   35    2     -0.14      0.00
  -23   35    5     -2.46      0.00
  -23   35    8      0.92      0.00
  -11   35    5      1.59      0.00
  -11   35    2      0.42      0.00
  -24   35    1      2.06      0.00
  -24   35    4     -0.95      0.00
  -24   35    7     -2.58      0.00
  -10   35    6     -1.21      0.00
  -10   35    3      0.28      0.00
  -10   35    0      0.62      0.00
  -25   35    3      2.62      0.00
  -25   35    6      0.26      0.00
   -9   35    4     -2.40      0.00
   -9   35    1     -0.52      0.00
  -26   35    2      0.89      0.00
  -26   35    5      3.87      0.00
  -26   35    8      2.81      0.00
   -8   35    5     -7.07      0.00
   -8   35    2      2.68      0.00
  -27   35    1     -0.59      0.00
  -27   35    4      1.84      0.00
  -27   35    7      4.73      0.00
   -7   35    3     -2.59      0.00
   -7   35    0      4.25      0.00
  -28   35    3     -0.70      0.00
  -28   35    6      1.30      0.00
   -6   35    4     -0.82      0.00
   -6   35    1      2.05      0.00
  -29   35    2      0.87      0.00
  -29   35    5      1.53      0.00
   -5   35    2      3.07      0.00
  -30   35    1      0.78      0.00
  -30   35    4      2.35      0.00
   -4   35    3      4.37      0.00
   -4   35    0     -0.67      0.00
  -31   35    3      1.57      0.00
  -31   35    6      0.82      0.00
   -3   35    4      1.78      0.00
   -3   35    1      1.33      0.00
  -32   35    2     -1.05      0.00
  -32   35    5     -1.50      0.00
   -2   35    2      2.88      0.00
  -33   35    1     -0.61      0.00
  -33   35    4     -3.16      0.00
   -1   35    0      5.01      0.00
  -34   35    3     -2.76      0.00
    0   35    1      1.41      0.00
  -35   35    2      2.50      0.00
  -18   36    0     -3.71      0.00
  -18   36    3     -1.21      0.00
  -18   36    6      0.02      0.00
  -17   36    7      0.66      0.00
  -17   36    4     -1.15      0.00
  -17   36    1      0.71      0.00
  -19   36    2      1.62      0.00
  -19   36    5     -0.69      0.00
  -16   36    5      0.87      0.00
  -16   36    2      3.98      0.00
  -20   36    1      5.94      0.00
  -20   36    4      0.86      0.00
  -20   36    7     -3.63      0.00
  -15   36    6     -0.59      0.00
  -15   36    3      3.85      0.00
  -15   36    0      7.32      0.00
  -21   36    3     -0.32      0.00
  -21   36    6     -1.22      0.00
  -14   36    7     -2.74      0.00
  -14   36    4      1.22      0.00
  -14   36    1      0.10      0.00
  -22   36    2     -1.15      0.00
  -22   36    5      1.05      0.00
  -22   36    8     -1.08      0.00
  -13   36    5     -2.38      0.00
  -13   36    2     -1.78      0.00
  -23   36    1     -1.09      0.00
  -23   36    4     -1.00      0.00
  -12   36    6      1.11      0.00
  -12   36    3     -3.82      0.00
  -12   36    0      1.24      0.00
  -24   36    3     -0.38      0.00
  -24   36    6     -1.87      0.00
  -11   36    4     -2.66      0.00
  -11   36    1      0.38      0.00
  -25   36    2      2.55      0.00
  -25   36    5     -0.65      0.00
  -10   36    5     -5.00      0.00
  -10   36    2     -0.29      0.00
  -26   36    1      1.15      0.00
  -26   36    4      3.07      0.00
   -9   36    3     -0.63      0.00
   -9   36    0      0.40      0.00
  -27   36    3      1.37      0.00
  -27   36    6      4.84      0.00
   -8   36    4     -1.98      0.00
   -8   36    1      0.55      0.00
  -28   36    2     -0.79      0.00
  -28   36    5      2.90      0.00
   -7   36    5     -0.13      0.00
   -7   36    2     -2.54      0.00
  -29   36    1      0.37      0.00
  -29   36    4      0.62      0.00
  -29   36    7     -0.99      0.00
   -6   36    3     -3.56      0.00
   -6   36    0     -1.07      0.00
  -30   36    3      0.97      0.00
  -30   36    6      0.06      0.00
   -5   36    4      0.49      0.00
   -5   36    1     -4.43      0.00
  -31   36    2      2.47      0.00
  -31   36    5      0.56      0.00
   -4   36    2      0.63      0.00
  -32   36    1     -1.75      0.00
  -32   36    4     -0.99      0.00
   -3   36    3     -1.29      0.00
   -3   36    0     -0.01      0.00
  -33   36    3     -1.73      0.00
   -2   36    1     -0.09      0.00
  -34   36    2     -0.28      0.00
  -35   36    1      2.44      0.00
    0   36    0     -1.07      0.00
  -36   36    3      1.08      0.00
  -18   37    5      0.36      0.00
  -18   37    2     -1.09      0.00
  -19   37    1     -2.30      0.00
  -19   37    4      1.71      0.00
  -19   37    7     -0.50      0.00
  -17   37    6      2.74      0.00
  -17   37    3     -0.27      0.00
  -17   37    0      4.69      0.00
  -20   37    3      2.81      0.00
  -20   37    6     -0.12      0.00
  -16   37    4      1.85      0.00
  -16   37    1      8.60      0.00
  -21   37    2      1.20      0.00
  -21   37    5      0.67      0.00
  -15   37    5     -0.96      0.00
  -15   37    2      3.65      0.00
  -22   37    1      1.64      0.00
  -22   37    4     -0.05      0.00
  -22   37    7     -0.23      0.00
  -14   37    6     -4.78      0.00
  -14   37    3      0.39      0.00
  -14   37    0     -1.39      0.00
  -23   37    3     -0.66      0.00
  -23   37    6      2.56      0.00
  -13   37    4     -0.70      0.00
  -13   37    1     -3.47      0.00
  -24   37    2      0.81      0.00
  -24   37    5      0.00      0.00
  -12   37    5     -0.03      0.00
  -12   37    2     -3.42      0.00
  -25   37    1     -0.57      0.00
  -25   37    4     -1.16      0.00
  -11   37    3     -6.53      0.00
  -11   37    0     -0.44      0.00
  -26   37    3     -0.06      0.00
  -10   37    4     -4.24      0.00
  -10   37    1     -1.88      0.00
  -27   37    2      1.29      0.00
  -27   37    5      3.29      0.00
   -9   37    2     -0.92      0.00
  -28   37    1      1.47      0.00
  -28   37    4      1.66      0.00
   -8   37    3     -1.40      0.00
   -8   37    0     -0.01      0.00
  -29   37    3     -1.30      0.00
  -29   37    6      0.35      0.00
   -7   37    4      0.31      0.00
   -7   37    1     -5.83      0.00
  -30   37    2     -0.67      0.00
  -30   37    5      0.40      0.00
   -6   37    2     -4.40      0.00
  -31   37    1     -1.22      0.00
  -31   37    4      0.54      0.00
   -5   37    3     -0.67      0.00
   -5   37    0     -2.31      0.00
  -32   37    3      1.56      0.00
   -4   37    1     -1.45      0.00
  -33   37    2      0.45      0.00
  -34   37    1      0.57      0.00
   -2   37    0      0.79      0.00
  -35   37    3      0.55      0.00
  -19   38    0     -5.10      0.00
  -19   38    3      1.03      0.00
  -18   38    4     -0.32      0.00
  -18   38    1     -1.57      0.00
  -20   38    2      0.78      0.00
  -20   38    5      1.80      0.00
  -17   38    5      1.36      0.00
  -17   38    2      0.70      0.00
  -21   38    1     -0.68      0.00
  -16   38    6      1.40      0.00
  -16   38    3     -1.46      0.00
  -16   38    0      1.62      0.00
  -22   38    3     -2.23      0.00
  -15   38    4     -0.95      0.00
  -15   38    1     -1.89      0.00
  -23   38    2     -1.31      0.00
  -14   38    5     -1.35      0.00
  -14   38    2     -2.65      0.00
  -24   38    1     -0.43      0.00
  -24   38    4     -0.32      0.00
  -13   38    3     -1.66      0.00
  -13   38    0     -3.87      0.00
  -25   38    3     -0.99      0.00
  -12   38    4     -3.64      0.00
  -12   38    1     -2.82      0.00
  -26   38    2     -4.34      0.00
  -11   38    5     -2.26      0.00
  -11   38    2     -4.11      0.00
  -27   38    1     -2.70      0.00
  -10   38    3     -4.62      0.00
  -10   38    0      1.93      0.00
  -28   38    3     -0.44      0.00
   -9   38    4      1.46      0.00
   -9   38    1     -1.01      0.00
  -30   38    1     -2.56      0.00
  -30   38    4      0.21      0.00
   -7   38    3     -0.35      0.00
   -7   38    0     -4.86      0.00
  -31   38    3      0.96      0.00
   -6   38    1     -3.68      0.00
  -32   38    2      1.33      0.00
   -5   38    2     -1.36      0.00
  -33   38    1      1.56      0.00
  -33   38    4      0.96      0.00
   -4   38    0      3.78      0.00
  -34   38    3      0.69      0.00
  -35   38    2     -0.81      0.00
  -19   39    5      0.79      0.00
  -18   39    6      1.94      0.00
  -18   39    0     -2.63      0.00
  -17   39    4     -3.39      0.00
  -16   39    5     -1.76      0.00
  -23   39    1     -1.50      0.00
  -15   39    3     -1.37      0.00
  -15   39    0      0.27      0.00
  -14   39    4      2.62      0.00
  -13   39    5     -0.63      0.00
  -12   39    3     -3.40      0.00
  -11   39    4     -3.98      0.00
  -11   39    1      0.74      0.00
   -9   39    3      0.55      0.00
   -9   39    0      0.19      0.00
   -8   39    1     -0.85      0.00
   -7   39    2      1.67      0.00
  -32   39    1     -2.23      0.00
   -6   39    0      0.94      0.00
  -16   40    4     -2.18      0.00
  -15   40    5      0.93      0.00
  -14   40    3      5.86      0.00
  -13   40    4      1.24      0.00
  -12   40    2      0.43      0.00
  -11   40    3     -2.01      0.00
  -10   40    1      2.35      0.00
   -9   40    2      3.65      0.00
   -1    2    0     45.44      0.00
    0    3    0   -217.56      0.00
   -2    4    0   -151.44      0.00
  -12   39    0     -3.29      0.00
  -20   40    0      1.54      0.00
  -17   40    0     -0.59      0.00
  -14   40    0     -0.69      0.00
  -11   40    0      3.50      0.00
  -19   41    0      0.43      0.00
  -16   41    0      4.09      0.00
   -1    1    1    406.15      0.00
    0    2    1    -90.56      0.00
   -2    3    1   -204.41      0.00
   -1    4    1   -115.08      0.00
  -29   39    1      2.40      0.00
  -26   39    1     -6.33      0.00
  -20   39    1     -1.46      0.00
  -17   39    1     -1.77      0.00
  -14   39    1     -1.77      0.00
  -28   40    1     -2.63      0.00
  -25   40    1      3.75      0.00
  -22   40    1     -1.64      0.00
  -19   40    1      0.41      0.00
  -16   40    1     -0.23      0.00
  -13   40    1      0.56      0.00
  -24   41    1      2.27      0.00
  -21   41    1      2.46      0.00
  -18   41    1     -0.99      0.00
  -15   41    1      2.42      0.00
   -1   36    2     -0.33      0.00
   -3   37    2     -1.99      0.00
  -29   38    2      0.31      0.00
   -8   38    2     -1.07      0.00
  -31   39    2     -0.57      0.00
  -28   39    2     -2.24      0.00
  -25   39    2      0.13      0.00
  -22   39    2     -3.60      0.00
  -19   39    2     -0.41      0.00
  -16   39    2     -3.71      0.00
  -13   39    2      1.29      0.00
  -10   39    2     -0.93      0.00
  -27   40    2     -4.13      0.00
  -24   40    2      0.10      0.00
  -21   40    2      1.23      0.00
  -18   40    2     -1.78      0.00
  -15   40    2      1.76      0.00
  -23   41    2     -0.72      0.00
  -20   41    2      2.08      0.00
  -17   41    2     -2.56      0.00
   -1   35    3      1.14      0.00
  -27   39    3     -3.39      0.00
  -24   39    3     -0.99      0.00
  -21   39    3      1.31      0.00
  -18   39    3     -2.19      0.00
  -26   40    3      0.60      0.00
  -23   40    3     -2.97      0.00
  -20   40    3      1.36      0.00
  -17   40    3     -4.64      0.00
   -1   34    4      3.91      0.00
  -27   38    4     -0.82      0.00
  -21   38    4      1.95      0.00
  -26   39    4     -0.72      0.00
  -23   39    4     -1.97      0.00
  -20   39    4      2.14      0.00
  -22   40    4     -0.76      0.00
  -19   40    4      0.13      0.00
   -1   33    5      0.55      0.00
    0   34    5      3.17      0.00
   -5   35    5     -0.33      0.00
   -9   37    5     -1.24      0.00
  -26   38    5     -1.21      0.00
  -23   38    5      0.84      0.00
  -22   39    5     -0.22      0.00
   -1   32    6     -0.38      0.00
   -3   33    6     -1.69      0.00
    0   33    6      2.39      0.00
  -32   34    6     -1.14      0.00
   -5   34    6      2.64      0.00
   -2   34    6     -0.39      0.00
   -7   35    6     -0.54      0.00
   -9   36    6     -5.64      0.00
  -26   37    6      0.50      0.00
  -11   37    6      0.61      0.00
  -22   38    6      1.65      0.00
  -19   38    6      1.14      0.00
   -1   31    7      2.80      0.00
  -30   32    7     -2.06      0.00
   -3   32    7      1.06      0.00
   -5   33    7      2.71      0.00
   -7   34    7     -1.65      0.00
   -9   35    7     -5.05      0.00
  -23   36    7      0.19      0.00
  -29   29    8     -0.49      0.00
   -1   30    8      2.27      0.00
  -30   31    8     -1.20      0.00
   -3   31    8      0.04      0.00
   -8   32    8      1.04      0.00
   -5   32    8      1.16      0.00
  -10   33    8      2.11      0.00
   -7   33    8     -0.75      0.00
  -15   34    8      3.14      0.00
  -12   34    8     -1.88      0.00
   -9   34    8     -3.38      0.00
  -14   35    8      1.16      0.00
  -27   27    9      4.75      0.00
    0   27    9      1.70      0.00
   -2   28    9      2.34      0.00
  -28   29    9     -1.40      0.00
   -4   29    9     -2.12      0.00
   -1   29    9      1.05      0.00
   -6   30    9     -3.80      0.00
   -3   30    9     -1.87      0.00
  -11   31    9     -3.59      0.00
   -8   31    9      2.54      0.00
   -5   31    9     -3.27      0.00
  -13   32    9     -1.44      0.00
  -10   32    9      2.32      0.00
  -21   33    9      3.41      0.00
  -18   33    9     -1.12      0.00
  -15   33    9      2.23      0.00
  -12   33    9     -3.19      0.00
   -1   25   10     -0.56      0.00
   -3   26   10     -0.75      0.00
    0   26   10      0.24      0.00
   -5   27   10      3.20      0.00
   -2   27   10     -0.30      0.00
  -25   28   10     -2.02      0.00
   -7   28   10     -2.45      0.00
   -4   28   10      0.78      0.00
  -12   29   10     -0.61      0.00
   -9   29   10     -1.41      0.00
   -6   29   10     -0.61      0.00
  -14   30   10     -3.56      0.00
  -11   30   10     -0.87      0.00
   -8   30   10     -1.65      0.00
  -19   31   10     -3.23      0.00
  -16   31   10     -0.97      0.00
  -13   31   10     -1.88      0.00
    0   22   11      2.60      0.00
  -23   23   11     -1.04      0.00
   -2   23   11     -3.27      0.00
  -22   24   11      1.43      0.00
   -4   24   11     -1.22      0.00
   -1   24   11      0.50      0.00
  -24   25   11     -1.63      0.00
   -6   25   11      1.54      0.00
   -3   25   11     -0.75      0.00
  -23   26   11     -1.78      0.00
  -20   26   11      3.52      0.00
   -8   26   11     -1.72      0.00
   -5   26   11      2.52      0.00
  -13   27   11      2.82      0.00
  -10   27   11     -0.35      0.00
   -7   27   11     -0.98      0.00
  -18   28   11     -1.74      0.00
  -15   28   11      0.89      0.00
  -12   28   11      0.23      0.00
   -9   28   11      1.14      0.00
  -19   20   12      0.02      0.00
   -1   20   12      1.88      0.00
  -21   21   12      0.37      0.00
   -3   21   12      1.03      0.00
    0   21   12      2.44      0.00
  -20   22   12      1.50      0.00
   -5   22   12     -2.73      0.00
   -2   22   12     -0.78      0.00
   -7   23   12     -1.48      0.00
   -4   23   12     -2.80      0.00
   -9   24   12      0.40      0.00
   -6   24   12     -0.92      0.00
  -14   25   12     -3.45      0.00
  -11   25   12      2.80      0.00
  -16   16   13      0.82      0.00
  -10   16   13      1.74      0.00
   -1   16   13      3.71      0.00
   -3   17   13     -2.60      0.00
    0   17   13     -1.61      0.00
  -17   18   13      0.33      0.00
   -5   18   13     -1.62      0.00
   -2   18   13     -0.30      0.00
   -7   19   13      2.86      0.00
   -4   19   13      0.49      0.00
   -1   19   13     -2.87      0.00
   -9   20   13     -3.00      0.00
   -6   20   13      1.48      0.00
  -11   21   13      4.27      0.00
   -8   21   13     -2.86      0.00
    0    1   14     -1.30      0.00
    0   10   14     -6.29      0.00
   -1   12   14     -1.42      0.00
  -12   13   14      0.05      0.00
   -3   13   14     -0.90      0.00
    0   13   14      3.01      0.00
   -5   14   14      0.79      0.00
   -2   14   14     -0.09      0.00
   -7   15   14      0.23      0.00
   -4   15   14     -2.22      0.00
    0    0   15      2.06      0.00
   -1    2   15     -0.77      0.00
   -3    3   15      1.83      0.00
    0    3   15     -1.01      0.00
   -1    5   15      0.75      0.00
   -3    6   15      4.51      0.00
    0    0    0      0.00      0.00
# SQUEEZE RESULTS (Version = 300118)
# Note: Data are Listed for all Voids in the P1 Unit Cell
# i.e. Centre of Gravity, Solvent Accessible Volume,
# Recovered number of Electrons in the Void and
# Details about the Squeezed Material
loop_
  _platon_squeeze_void_nr
  _platon_squeeze_void_average_x
  _platon_squeeze_void_average_y
  _platon_squeeze_void_average_z
  _platon_squeeze_void_volume
  _platon_squeeze_void_count_electrons
  _platon_squeeze_void_content
   1 -0.000 -0.000 -0.000      1047       277 ' '
   2 -0.000 -0.000  0.500        10         2 ' '
   3  0.333  0.667  0.667      1043       277 ' '
   4  0.333  0.667  0.167        11         2 ' '
   5  0.667  0.333  0.333      1044       277 ' '
   6  0.667  0.333  0.833        10         2 ' '
# Missing Reflections Below sin(th)/lambda = 0.25
loop_
  _platon_missing_refln_index_h
  _platon_missing_refln_index_k
  _platon_missing_refln_index_l
  _platon_missing_refln_theta
   -1    2    0     1.280
    0    3    0     2.218
   -2    4    0     2.561
   -1    1    1     1.904
    0    2    1     2.294
   -2    3    1     2.628
   -1    4    1     3.192
_platon_squeeze_void_probe_radius                  1.20
_platon_squeeze_details
)
TITL bu in R-3m
CELL   31.8116   31.8116   11.6096     90.00     90.00    120.00
SPGR R-3m
# Solvent Accessible Volume =      3165
# Electrons Found in S.A.V. =       827
# Note: Atoms in Void are Labelled as Cxxx and Qxxx for all Others
C101 0.783 0.219 0.386 !       3.83 eA-3
C102 0.569 0.429 0.456 !       3.42 eA-3
C103 0.495 0.367 0.360 !       3.03 eA-3
C104 0.485 0.326 0.222 !       2.32 eA-3
C105 0.688 0.563 0.390 !       2.30 eA-3
C106 0.749 0.203 0.309 !       2.24 eA-3
Q107 0.656 0.867 0.239 !       1.15 eA-3
Q108 0.860 0.140 0.718 !       1.12 eA-3
Q109 0.391 0.869 0.095 !       0.83 eA-3
C110 0.987 0.991-0.001 !       0.78 eA-3
Q111 0.981 0.492 0.127 !       0.75 eA-3
Q112 0.836 0.945 0.373 !       0.71 eA-3
Q113 0.033 0.516 0.079 !       0.69 eA-3
Q114 0.602 0.975 0.440 !       0.65 eA-3
Q115 0.429 0.695 0.436 !       0.61 eA-3
C116 0.695 0.302 0.328 !       0.60 eA-3
Q117 0.189 0.296 0.344 !       0.56 eA-3
Q118 0.429 0.115 0.939 !       0.56 eA-3
)
;
_shelx_fab_checksum              13028
loop_
_space_group_symop_operation_xyz
'x, y, z'
'-y, x-y, z'
'-x+y, -x, z'
'y, x, -z'
'x-y, -y, -z'
'-x, -x+y, -z'
'x+2/3, y+1/3, z+1/3'
'-y+2/3, x-y+1/3, z+1/3'
'-x+y+2/3, -x+1/3, z+1/3'
'y+2/3, x+1/3, -z+1/3'
'x-y+2/3, -y+1/3, -z+1/3'
'-x+2/3, -x+y+1/3, -z+1/3'
'x+1/3, y+2/3, z+2/3'
'-y+1/3, x-y+2/3, z+2/3'
'-x+y+1/3, -x+2/3, z+2/3'
'y+1/3, x+2/3, -z+2/3'
'x-y+1/3, -y+2/3, -z+2/3'
'-x+1/3, -x+y+2/3, -z+2/3'
'-x, -y, -z'
'y, -x+y, -z'
'x-y, x, -z'
'-y, -x, z'
'-x+y, y, z'
'x, x-y, z'
'-x+2/3, -y+1/3, -z+1/3'
'y+2/3, -x+y+1/3, -z+1/3'
'x-y+2/3, x+1/3, -z+1/3'
'-y+2/3, -x+1/3, z+1/3'
'-x+y+2/3, y+1/3, z+1/3'
'x+2/3, x-y+1/3, z+1/3'
'-x+1/3, -y+2/3, -z+2/3'
'y+1/3, -x+y+2/3, -z+2/3'
'x-y+1/3, x+2/3, -z+2/3'
'-y+1/3, -x+2/3, z+2/3'
'-x+y+1/3, y+2/3, z+2/3'
'x+1/3, x-y+2/3, z+2/3'
loop_
_atom_site_label
_atom_site_type_symbol
_atom_site_fract_x
_atom_site_fract_y
_atom_site_fract_z
_atom_site_U_iso_or_equiv
_atom_site_adp_type
_atom_site_occupancy
_atom_site_site_symmetry_order
_atom_site_calc_flag
_atom_site_refinement_flags_posn
_atom_site_refinement_flags_adp
_atom_site_refinement_flags_occupancy
_atom_site_disorder_assembly
_atom_site_disorder_group
Zn1 Zn 0.57468(2) 0.78734(2) 0.14027(3) 0.03138(12) Uani 1 2 d S T P A .
Zn2 Zn 0.52997(2) 0.666667 0.166667 0.04409(14) Uani 1 2 d S T P A .
N1 N 0.63208(9) 0.81604(5) 0.2583(2) 0.0371(6) Uani 1 2 d S TU P . .
C1 C 0.6730(2) 0.8089(3) 0.2181(5) 0.0621(14) Uani 0.5 1 d D U P . .
H1A H 0.682860 0.822066 0.139270 0.075 Uiso 0.5 1 calc R U P . .
H1B H 0.662272 0.773885 0.216345 0.075 Uiso 0.5 1 calc R U P . .
C2 C 0.6168(2) 0.7857(2) 0.3650(5) 0.0762(19) Uani 0.5 1 d D U P . .
H2A H 0.604050 0.751259 0.344308 0.091 Uiso 0.5 1 calc R U P . .
H2B H 0.590486 0.788460 0.403500 0.091 Uiso 0.5 1 calc R U P . .
C3 C 0.6483(2) 0.8632(2) 0.2826(6) 0.0652(14) Uani 0.5 1 d D U P . .
H3A H 0.620431 0.867447 0.302496 0.078 Uiso 0.5 1 calc R U P . .
H3B H 0.664194 0.883048 0.213430 0.078 Uiso 0.5 1 calc R U P . .
O11 O 0.56424(7) 0.65396(7) 0.28958(17) 0.0575(5) Uani 1 1 d . . . . .
O12 O 0.50902(7) 0.57605(6) 0.31124(15) 0.0491(4) Uani 1 1 d . . . . .
C11 C 0.54800(8) 0.61312(8) 0.3341(2) 0.0392(5) Uani 1 1 d . . . . .
C12 C 0.57859(8) 0.60878(8) 0.42380(19) 0.0379(5) Uani 1 1 d . . . . .
C13 C 0.62432(9) 0.64190(9) 0.4569(2) 0.0502(6) Uani 1 1 d . . . . .
H13 H 0.642318 0.673529 0.424796 0.060 Uiso 1 1 calc R U . . .
S1 S 0.55614(2) 0.55614(2) 0.500000 0.03835(19) Uani 1 2 d S T P . .
O1S O 0.52684(6) 0.72303(6) 0.20317(17) 0.0508(4) Uani 1 1 d . U . . .
C1S C 0.4834(3) 0.7226(4) 0.2513(9) 0.0574(17) Uani 0.5 1 d D U P A -1
C2S C 0.4952(3) 0.7731(3) 0.2761(10) 0.0584(19) Uani 0.5 1 d D U P A -1
C3S C 0.4549(5) 0.7704(6) 0.3286(15) 0.060(3) Uani 0.25 1 d D U P A -1
H3S1 H 0.446036 0.789894 0.278014 0.072 Uiso 0.25 1 calc R U P A -1
H3S2 H 0.467850 0.789789 0.399839 0.072 Uiso 0.25 1 calc R U P A -1
C4S C 0.4068(5) 0.7282(6) 0.3646(16) 0.081(3) Uani 0.25 1 d D U P A -1
H4S1 H 0.386889 0.740324 0.399729 0.122 Uiso 0.25 1 calc R U P A -1
H4S2 H 0.390072 0.708477 0.297019 0.122 Uiso 0.25 1 calc R U P A -1
H4S3 H 0.412221 0.708371 0.420713 0.122 Uiso 0.25 1 calc R U P A -1
C2S' C 0.4674(5) 0.6922(7) 0.3536(13) 0.061(3) Uani 0.25 1 d D U P A -1
H2S1 H 0.494338 0.705481 0.409967 0.073 Uiso 0.25 1 calc R U P A -1
H2S2 H 0.460797 0.659320 0.332019 0.073 Uiso 0.25 1 calc R U P A -1
C3S' C 0.4226(5) 0.6873(6) 0.4126(14) 0.081(3) Uani 0.25 1 d D U P A -1
H3S3 H 0.414851 0.666161 0.480160 0.122 Uiso 0.25 1 calc R U P A -1
H3S4 H 0.428816 0.719366 0.437012 0.122 Uiso 0.25 1 calc R U P A -1
H3S5 H 0.395182 0.673077 0.358849 0.122 Uiso 0.25 1 calc R U P A -1
loop_
_atom_site_aniso_label
_atom_site_aniso_U_11
_atom_site_aniso_U_22
_atom_site_aniso_U_33
_atom_site_aniso_U_23
_atom_site_aniso_U_13
_atom_site_aniso_U_12
Zn1 0.0314(2) 0.03151(16) 0.0312(2) 0.00071(7) 0.00142(13) 0.01569(10)
Zn2 0.04215(19) 0.0346(2) 0.0530(3) 0.01432(17) 0.00716(8) 0.01730(11)
N1 0.0350(13) 0.0405(10) 0.0339(13) -0.0007(5) -0.0014(10) 0.0175(6)
C1 0.045(3) 0.106(4) 0.047(3) -0.025(3) -0.013(2) 0.047(2)
C2 0.057(3) 0.072(3) 0.038(2) 0.014(2) -0.017(2) -0.014(2)
C3 0.058(3) 0.042(2) 0.096(4) -0.016(3) -0.039(3) 0.026(2)
O11 0.0524(11) 0.0445(10) 0.0638(12) 0.0203(9) -0.0054(9) 0.0153(9)
O12 0.0509(10) 0.0421(9) 0.0442(10) 0.0041(8) -0.0142(8) 0.0157(8)
C11 0.0408(12) 0.0379(12) 0.0364(11) 0.0026(10) 0.0057(10) 0.0179(10)
C12 0.0399(12) 0.0370(11) 0.0335(11) 0.0045(9) 0.0030(9) 0.0168(10)
C13 0.0445(14) 0.0354(12) 0.0538(15) 0.0076(11) -0.0027(12) 0.0074(11)
S1 0.0344(3) 0.0344(3) 0.0351(4) 0.00382(17) -0.00382(17) 0.0090(3)
O1S 0.0447(10) 0.0370(9) 0.0691(12) 0.0144(8) 0.0211(9) 0.0192(8)
C1S 0.043(3) 0.047(3) 0.081(3) 0.008(2) 0.032(3) 0.021(2)
C2S 0.047(4) 0.044(3) 0.088(4) 0.012(3) 0.028(3) 0.025(3)
C3S 0.045(5) 0.053(4) 0.094(5) 0.014(4) 0.025(4) 0.033(4)
C4S 0.053(6) 0.076(5) 0.104(7) 0.018(5) 0.022(5) 0.023(5)
C2S' 0.046(5) 0.049(4) 0.086(5) 0.020(4) 0.030(4) 0.023(4)
C3S' 0.057(6) 0.071(5) 0.098(7) 0.022(5) 0.027(5) 0.018(5)
loop_
_atom_type_symbol
_atom_type_description
_atom_type_scat_dispersion_real
_atom_type_scat_dispersion_imag
_atom_type_scat_source
C C 0.0033 0.0016 'International Tables Vol C Tables 4.2.6.8 and 6.1.1.4'
H H 0.0000 0.0000 'International Tables Vol C Tables 4.2.6.8 and 6.1.1.4'
N N 0.0061 0.0033 'International Tables Vol C Tables 4.2.6.8 and 6.1.1.4'
O O 0.0106 0.0060 'International Tables Vol C Tables 4.2.6.8 and 6.1.1.4'
S S 0.1246 0.1234 'International Tables Vol C Tables 4.2.6.8 and 6.1.1.4'
Zn Zn 0.2839 1.4301 'International Tables Vol C Tables 4.2.6.8 and 6.1.1.4'
loop_
_geom_angle_atom_site_label_1
_geom_angle_atom_site_label_2
_geom_angle_atom_site_label_3
_geom_angle
_geom_angle_site_symmetry_1
_geom_angle_site_symmetry_3
O12 Zn1 N1 100.67(8) 27 .
O12 Zn1 N1 100.67(8) 11_565 .
O12 Zn1 O12 82.81(10) 11_565 27
O1S Zn1 N1 105.16(8) . .
O1S Zn1 N1 105.16(8) 24_565 .
O1S Zn1 O12 92.40(7) . 11_565
O1S Zn1 O12 92.40(7) 24_565 27
O1S Zn1 O12 154.17(8) . 27
O1S Zn1 O12 154.17(8) 24_565 11_565
O1S Zn1 O1S 80.91(10) . 24_565
O11 Zn2 O11 97.34(12) 11_565 .
O1S Zn2 O11 111.35(7) . 11_565
O1S Zn2 O11 109.33(9) . .
O1S Zn2 O11 109.34(9) 11_565 11_565
O1S Zn2 O11 111.35(7) 11_565 .
O1S Zn2 O1S 116.49(11) 11_565 .
C1 N1 Zn1 111.3(2) . .
C1 N1 Zn1 111.3(2) 24_565 .
C1 N1 C1 71.4(6) . 24_565
C2 N1 Zn1 109.3(2) . .
C2 N1 Zn1 109.3(2) 24_565 .
C2 N1 C1 138.7(3) . 24_565
C2 N1 C1 138.7(3) 24_565 .
C2 N1 C1 100.8(4) . .
C2 N1 C1 100.8(4) 24_565 24_565
C2 N1 C2 57.7(6) . 24_565
C3 N1 Zn1 112.8(2) . .
C3 N1 Zn1 112.8(2) 24_565 .
C3 N1 C1 43.9(4) . 24_565
C3 N1 C1 43.9(4) 24_565 .
C3 N1 C1 110.7(5) . .
C3 N1 C1 110.7(5) 24_565 24_565
C3 N1 C2 58.4(4) . 24_565
C3 N1 C2 58.4(4) 24_565 .
C3 N1 C2 111.3(5) . .
C3 N1 C2 111.3(5) 24_565 24_565
C3 N1 C3 133.8(5) 24_565 .
N1 C1 H1A 109.9 . .
N1 C1 H1B 109.9 . .
N1 C1 C2 109.1(4) . 18_655
N1 C1 C3 86.1(4) . 31_665
N1 C1 H3B 110.1(7) . 24_565
H1A C1 H1B 108.3 . .
H1A C1 H3B 105.7 . 24_565
H1B C1 H3B 2.9 . 24_565
C2 C1 H1A 109.9 18_655 .
C2 C1 H1B 109.9 18_655 .
C2 C1 C3 44.3(3) 18_655 31_665
C2 C1 H3B 112.2(7) 18_655 24_565
C3 C1 H1A 154.0 31_665 .
C3 C1 H1B 84.0 31_665 .
C3 C1 H3B 86.8(7) 31_665 24_565
N1 C2 C1 110.4(4) . 18_655
N1 C2 H2A 109.6 . .
N1 C2 H2B 109.6 . .
N1 C2 C3 87.2(4) . 31_665
C1 C2 H2A 109.6 18_655 .
C1 C2 H2B 109.6 18_655 .
C1 C2 C3 33.1(3) 18_655 31_665
H2A C2 H2B 108.1 . .
C3 C2 H2A 97.3 31_665 .
C3 C2 H2B 141.7 31_665 .
N1 C3 C1 95.1(4) . 31_665
N1 C3 C2 95.6(4) . 31_665
N1 C3 C3 112.0(3) . 18_655
N1 C3 H3A 109.2 . .
N1 C3 H3B 109.2 . .
C1 C3 H3A 90.6 31_665 .
C1 C3 H3B 141.6 31_665 .
C2 C3 C1 71.5(3) 31_665 31_665
C2 C3 H3A 150.8 31_665 .
C2 C3 H3B 76.8 31_665 .
C3 C3 C1 32.5(4) 18_655 31_665
C3 C3 C2 44.8(4) 18_655 31_665
C3 C3 H3A 109.2 18_655 .
C3 C3 H3B 109.2 18_655 .
H3A C3 H3B 107.9 . .
C11 O11 Zn2 122.35(17) . .
C11 O12 Zn1 143.45(16) . 26_455
O11 C11 C12 116.2(2) . .
O12 C11 O11 126.8(2) . .
O12 C11 C12 117.0(2) . .
C11 C12 S1 119.05(17) . .
C13 C12 C11 128.8(2) . .
C13 C12 S1 112.12(18) . .
C12 C13 C13 112.41(14) . 4_556
C12 C13 H13 123.8 . .
C13 C13 H13 123.8 4_556 .
C12 S1 C12 90.94(16) . 4_556
Zn2 O1S Zn1 121.25(9) . .
C1S O1S Zn1 112.3(4) . .
C1S O1S Zn2 124.4(4) . .
C2S C1S O1S 109.5(9) . .
C2S' C1S O1S 109.1(8) . .
C2S' C1S C2S 112.2(14) . .
O1S C2S C1S 111.5(9) 24_565 .
O1S C2S C3S 132.7(12) 24_565 .
C3S C2S C1S 107.1(12) . .
C2S C3S H3S1 104.1 . .
C2S C3S H3S2 104.1 . .
C2S C3S C4S 132.4(14) . .
H3S1 C3S H3S2 105.5 . .
C4S C3S H3S1 104.1 . .
C4S C3S H3S2 104.1 . .
C3S C4S H4S1 109.5 . .
C3S C4S H4S2 109.5 . .
C3S C4S H4S3 109.5 . .
H4S1 C4S H4S2 109.5 . .
H4S1 C4S H4S3 109.5 . .
H4S2 C4S H4S3 109.5 . .
C1S C2S' H2S1 108.3 . .
C1S C2S' H2S2 108.3 . .
C1S C2S' C3S' 115.8(13) . .
H2S1 C2S' H2S2 107.4 . .
C3S' C2S' H2S1 108.3 . .
C3S' C2S' H2S2 108.3 . .
C2S' C3S' H3S3 109.5 . .
C2S' C3S' H3S4 109.5 . .
C2S' C3S' H3S5 109.5 . .
H3S3 C3S' H3S4 109.5 . .
H3S3 C3S' H3S5 109.5 . .
H3S4 C3S' H3S5 109.5 . .
loop_
_geom_bond_atom_site_label_1
_geom_bond_atom_site_label_2
_geom_bond_distance
_geom_bond_site_symmetry_2
_geom_bond_publ_flag
Zn1 N1 2.092(3) . yes
Zn1 O12 2.0460(17) 11_565 ?
Zn1 O12 2.0461(17) 27 yes
Zn1 O1S 1.9801(16) . yes
Zn1 O1S 1.9801(16) 24_565 ?
Zn2 O11 1.9565(18) 11_565 ?
Zn2 O11 1.9566(18) . yes
Zn2 O1S 1.8929(17) 11_565 ?
Zn2 O1S 1.8930(17) . yes
N1 C1 1.502(5) . ?
N1 C1 1.502(6) 24_565 ?
N1 C2 1.494(6) . ?
N1 C2 1.494(6) 24_565 ?
N1 C3 1.350(5) . ?
N1 C3 1.350(5) 24_565 ?
C1 H1A 0.9900 . ?
C1 H1B 0.9900 . ?
C1 C2 1.551(7) 18_655 ?
C1 C3 1.988(9) 31_665 ?
C1 H3B 0.785(9) 24_565 ?
C2 H2A 0.9900 . ?
C2 H2B 0.9900 . ?
C2 C3 1.962(9) 31_665 ?
C3 C3 1.551(11) 18_655 ?
C3 H3A 0.9900 . ?
C3 H3B 0.9900 . ?
O11 C11 1.245(3) . ?
O12 C11 1.239(3) . ?
C11 C12 1.478(3) . ?
C12 C13 1.357(3) . ?
C12 S1 1.703(2) . ?
C13 C13 1.394(5) 4_556 ?
C13 H13 0.9500 . ?
O1S C1S 1.485(8) . ?
C1S C2S 1.484(8) . ?
C1S C2S' 1.455(15) . ?
C2S C3S 1.383(13) . ?
C3S H3S1 0.9900 . ?
C3S H3S2 0.9900 . ?
C3S C4S 1.504(14) . ?
C4S H4S1 0.9800 . ?
C4S H4S2 0.9800 . ?
C4S H4S3 0.9800 . ?
C2S' H2S1 0.9900 . ?
C2S' H2S2 0.9900 . ?
C2S' C3S' 1.516(14) . ?
C3S' H3S3 0.9800 . ?
C3S' H3S4 0.9800 . ?
C3S' H3S5 0.9800 . ?
