#------------------------------------------------------------------------------
#$Date: 2019-11-03 17:18:28 +0200 (Sun, 03 Nov 2019) $
#$Revision: 221943 $
#$URL: file:///home/coder/svn-repositories/cod/cif/4/12/89/4128907.cif $
#------------------------------------------------------------------------------
#
# This file is available in the Crystallography Open Database (COD),
# http://www.crystallography.net/
#
# All data on this site have been placed in the public domain by the
# contributors.
#
data_4128907
loop_
_publ_author_name
'Wang, Xiao-Ning'
'Zhang, Peng'
'Kirchon, Angelo'
'Li, Jia-Luo'
'Chen, Wen-Miao'
'Zhao, Yu-Meng'
'Li, Bao'
'Zhou, Hong-Cai'
_publ_section_title
;
 Crystallographic Visualization of Postsynthetic Nickel Clusters into
 Metal-Organic Framework.
;
_journal_issue                   34
_journal_name_full               'Journal of the American Chemical Society'
_journal_page_first              13654
_journal_page_last               13663
_journal_paper_doi               10.1021/jacs.9b06711
_journal_volume                  141
_journal_year                    2019
_chemical_formula_moiety         'C32 H16 N8 O16 Zr3'
_chemical_formula_sum            'C32 H16 N8 O16 Zr3'
_chemical_formula_weight         1042.19
_space_group_crystal_system      orthorhombic
_space_group_IT_number           58
_space_group_name_Hall           '-P 2 2n'
_space_group_name_H-M_alt        'P n n m'
_atom_sites_solution_hydrogens   geom
_audit_creation_date             2019-07-18
_audit_creation_method
;
Olex2 1.2
(compiled 2018.05.29 svn.r3508 for OlexSys, GUI svn.r5506)
;
_cell_angle_alpha                90
_cell_angle_beta                 90
_cell_angle_gamma                90
_cell_formula_units_Z            4
_cell_length_a                   30.977(9)
_cell_length_b                   20.520(6)
_cell_length_c                   22.213(6)
_cell_measurement_reflns_used    4867
_cell_measurement_temperature    100(2)
_cell_measurement_theta_max      50.637
_cell_measurement_theta_min      2.579
_cell_volume                     14120(7)
_computing_cell_refinement       'SAINT v8.37A (Bruker, 2015)'
_computing_data_reduction        'SAINT v8.37A (Bruker, 2015)'
_computing_molecular_graphics    'Olex2 (Dolomanov et al., 2009)'
_computing_publication_material  'Olex2 (Dolomanov et al., 2009)'
_computing_structure_refinement  'ShelXL (Sheldrick, 2015)'
_diffrn_ambient_temperature      100.21
_diffrn_measured_fraction_theta_full 0.982
_diffrn_measured_fraction_theta_max 0.982
_diffrn_measurement_device_type  'Bruker APEX-II CCD'
_diffrn_measurement_method       '\f and \w scans'
_diffrn_radiation_type           CuK\a
_diffrn_radiation_wavelength     1.54184
_diffrn_reflns_av_R_equivalents  0.2246
_diffrn_reflns_av_unetI/netI     0.1262
_diffrn_reflns_Laue_measured_fraction_full 0.982
_diffrn_reflns_Laue_measured_fraction_max 0.982
_diffrn_reflns_limit_h_max       23
_diffrn_reflns_limit_h_min       -23
_diffrn_reflns_limit_k_max       15
_diffrn_reflns_limit_k_min       -15
_diffrn_reflns_limit_l_max       11
_diffrn_reflns_limit_l_min       -17
_diffrn_reflns_number            25218
_diffrn_reflns_point_group_measured_fraction_full 0.982
_diffrn_reflns_point_group_measured_fraction_max 0.982
_diffrn_reflns_theta_full        36.828
_diffrn_reflns_theta_max         36.828
_diffrn_reflns_theta_min         2.448
_exptl_absorpt_coefficient_mu    1.984
_exptl_absorpt_correction_type   none
_exptl_crystal_colour            GREEN
_exptl_crystal_density_diffrn    0.490
_exptl_crystal_description       BLOCK
_exptl_crystal_F_000             2048
_exptl_crystal_size_max          0.1
_exptl_crystal_size_mid          0.1
_exptl_crystal_size_min          0.1
_refine_diff_density_max         0.985
_refine_diff_density_min         -1.329
_refine_diff_density_rms         0.193
_refine_ls_extinction_method     none
_refine_ls_goodness_of_fit_ref   1.947
_refine_ls_hydrogen_treatment    constr
_refine_ls_matrix_type           full
_refine_ls_number_parameters     271
_refine_ls_number_reflns         3557
_refine_ls_number_restraints     322
_refine_ls_restrained_S_all      2.161
_refine_ls_R_factor_all          0.2950
_refine_ls_R_factor_gt           0.2062
_refine_ls_shift/su_max          0.002
_refine_ls_shift/su_mean         0.000
_refine_ls_structure_factor_coef Fsqd
_refine_ls_weighting_details
'w=1/[\s^2^(Fo^2^)+(0.2000P)^2^] where P=(Fo^2^+2Fc^2^)/3'
_refine_ls_weighting_scheme      calc
_refine_ls_wR_factor_gt          0.5000
_refine_ls_wR_factor_ref         0.5454
_reflns_Friedel_coverage         0.000
_reflns_number_gt                1841
_reflns_number_total             3557
_reflns_threshold_expression     'I > 2\s(I)'
_cod_data_source_file            ja9b06711_si_005.cif
_cod_data_source_block           HUST-4
_cod_depositor_comments
;
The following automatic conversions were performed:

data item '_exptl_absorpt_correction_type' value 'NONE' was changed
to 'none' in accordance with the
/home/data/users/saulius/crontab/automatic-downloads/current/ACS/lib/dictionaries/cif_core.dic
dictionary named 'cif_core.dic' version 2.4.2 last updated on
2011-04-26.

Automatic conversion script
Id: cif_fix_values 6909 2019-04-08 15:41:33Z antanas 
;
_cod_original_cell_volume        14119(7)
_cod_database_code               4128907
_shelx_shelxl_version_number     2014/7
_shelx_space_group_comment
;
The symmetry employed for this shelxl refinement is uniquely defined
by the following loop, which should always be used as a source of
symmetry information in preference to the above space-group names.
They are only intended as comments.
;
_olex2_refinement_description
;
1. Fixed Uiso
 At 1.2 times of:
  All C(H) groups
2. Restrained distances
 C1-C2 = C2-C3 = C3-C4 = C4-C5 = C5-C6 = C6-C7 = C7-C2
 1.45 with sigma of 0.01
 C2-C4 = C3-C5 = C4-C6 = C5-C7 = C6-C2 = C7-C3
 2.45 with sigma of 0.01
 C1-C3 = C1-C7
 2.45 with sigma of 0.02
 C1-O1 = C1-O2
 1.25 with sigma of 0.02
 O1-O2
 2.24 with sigma of 0.02
 C2-O1 = C2-O2
 2.45 with sigma of 0.02
 C8-C9 = C9-C10 = C10-C11 = C11-C12 = C12-C13 = C13-C14 = C14-C9
 1.45 with sigma of 0.01
 C9-C11 = C10-C12 = C11-C13 = C12-C14 = C13-C9 = C14-C10
 2.45 with sigma of 0.01
 C8-C10 = C8-C14
 2.45 with sigma of 0.02
 C8-O3 = C8-O4
 1.25 with sigma of 0.02
 O3-O4
 2.24 with sigma of 0.02
 C9-O3 = C9-O4
 2.45 with sigma of 0.02
 C15-C5
 1.45 with sigma of 0.02
 C11-C16
 2.45 with sigma of 0.02
 C13-C16
 2.45 with sigma of 0.02
 C12-C16
 1.45 with sigma of 0.02
 N2-C15 = C15-N3 = N3-N4 = N4-C16 = C16-N2
 1.25 with sigma of 0.01
 N2-N3 = C15-N4 = N3-C16 = N4-N2 = C16-C15
 2.25 with sigma of 0.01
 C5-N2 = C5-N3
 2.25 with sigma of 0.02
 C12-N2 = C12-N4
 2.25 with sigma of 0.02
3. Restrained planarity
 C1, C2, C3, C7
 with sigma of 0.01
 C2, C3, C4, C5, C6, C7
 with sigma of 0.01
 O1, O2, C1, C2
 with sigma of 0.01
 C8, C9, C10, C14
 with sigma of 0.01
 C9, C10, C11, C12, C13, C14
 with sigma of 0.01
 O3, O4, C8, C9
 with sigma of 0.01
 C15, C6, C5, C4
 with sigma of 0.05
 N2, N3, N4, C15, C16
 with sigma of 0.075
 C12, C16, N2, N4
 with sigma of 0.05
 N1, N2, C16, N4, N3, C15
 with sigma of 0.05
4. Rigid bond restraints
 C1, C2, C3, C4, C5, C6, C7
 with sigma for 1-2 distances of 0.01 and sigma for 1-3 distances of 0.01
 C8, C9, C10, C11, C12, C13, C14
 with sigma for 1-2 distances of 0.01 and sigma for 1-3 distances of 0.01
 N1, N2, C16, N4, N3, C15
 with sigma for 1-2 distances of 0.01 and sigma for 1-3 distances of 0.01
 O6, Zr1
 with sigma for 1-2 distances of 0.01 and sigma for 1-3 distances of 0.01
 O5, Zr1
 with sigma for 1-2 distances of 0.01 and sigma for 1-3 distances of 0.01
 O2, Zr1
 with sigma for 1-2 distances of 0.01 and sigma for 1-3 distances of 0.01
 C1, O1
 with sigma for 1-2 distances of 0.01 and sigma for 1-3 distances of 0.01
 O4, C8
 with sigma for 1-2 distances of 0.01 and sigma for 1-3 distances of 0.01
 Zr2, O7
 with sigma for 1-2 distances of 0.01 and sigma for 1-3 distances of 0.01
5. Uiso/Uaniso restraints and constraints
C1 \\sim C2 \\sim C3 \\sim C4 \\sim C5 \\sim C6 \\sim C7: within 2A with sigma
of 0.04 and sigma for terminal atoms of 0.08
C8 \\sim C9 \\sim C10 \\sim C11 \\sim C12 \\sim C13 \\sim C14: within 2A with
sigma of 0.04 and sigma for terminal atoms of 0.08
N1 \\sim N2 \\sim C16 \\sim N4 \\sim N3 \\sim C15: within 2A with sigma of 0.04
and sigma for terminal atoms of 0.08
O4 \\sim C8: within 2A with sigma of 0.04 and sigma for terminal atoms of 0.08
Zr2 \\sim O7: within 2A with sigma of 0.04 and sigma for terminal atoms of 0.08
Uanis(O5) \\sim Ueq, Uanis(O6) \\sim Ueq, Uanis(C9) \\sim Ueq, Uanis(C8) \\sim
Ueq, Uanis(N1) \\sim Ueq, Uanis(N2) \\sim Ueq, Uanis(C1) \\sim Ueq, Uanis(C3)
\\sim Ueq, Uanis(C4) \\sim Ueq, Uanis(C15) \\sim Ueq, Uanis(C16) \\sim Ueq,
Uanis(O3) \\sim Ueq: with sigma of 0.01 and sigma for terminal atoms of 0.02
6.a Aromatic/amide H refined with riding coordinates:
 C7(H7), C6(H6), C14(H14), C4(H4), C10(H10), C11(H11), C13(H13), C3(H3)
;
_shelx_res_file
;
    p.res created by SHELXL-2014/7

TITL 1810261_0m_a.res in Pnnm
REM Old TITL 1810261_0m_a.res in Pnnm
REM SHELXT solution in Pnnm
REM R1 0.391, Rweak 0.032, Alpha 0.103, Orientation as input
REM Formula found by SHELXT: C71 O22 N35 I3
CELL 1.54184 30.9769 20.5203 22.2125 90 90 90
ZERR 1 0.0085 0.0059 0.0062 0 0 0
LATT 1
SYMM -X,-Y,+Z
SYMM 0.5-X,0.5+Y,0.5-Z
SYMM 0.5+X,0.5-Y,0.5-Z
SFAC C H O N Zr I Co
UNIT 1 1 1 1 1 0 1
DFIX 1.45 0.01 C1 C2 C2 C3 C3 C4 C4 C5 C5 C6 C6 C7 C7 C2
DFIX 2.45 0.01 C2 C4 C3 C5 C4 C6 C5 C7 C6 C2 C7 C3
DFIX 2.45 C1 C3 C1 C7
DFIX 1.25 C1 O1 C1 O2
DFIX 2.24 O1 O2
DFIX 2.45 C2 O1 C2 O2
DFIX 1.45 0.01 C8 C9 C9 C10 C10 C11 C11 C12 C12 C13 C13 C14 C14 C9
DFIX 2.45 0.01 C9 C11 C10 C12 C11 C13 C12 C14 C13 C9 C14 C10
DFIX 2.45 C8 C10 C8 C14
DFIX 1.25 C8 O3 C8 O4
DFIX 2.24 O3 O4
DFIX 2.45 C9 O3 C9 O4
DFIX 1.45 C15 C5
DFIX 2.45 C11 C16
DFIX 2.45 C13 C16
DFIX 1.45 C12 C16
DFIX 1.25 0.01 N2 C15 C15 N3 N3 N4 N4 C16 C16 N2
DFIX 2.25 0.01 N2 N3 C15 N4 N3 C16 N4 N2 C16 C15
DFIX 2.25 C5 N2 C5 N3
DFIX 2.25 C12 N2 C12 N4
FLAT 0.01 C1 C2 C3 C7
FLAT 0.01 C2 C3 C4 C5 C6 C7
FLAT 0.01 O1 O2 C1 C2
FLAT 0.01 C8 C9 C10 C14
FLAT 0.01 C9 C10 C11 C12 C13 C14
FLAT 0.01 O3 O4 C8 C9
FLAT 0.05 C15 C6 C5 C4
FLAT 0.075 N2 N3 N4 C15 C16
FLAT 0.05 C12 C16 N2 N4
FLAT 0.05 N1 N2 C16 N4 N3 C15
DELU C1 C2 C3 C4 C5 C6 C7
DELU C8 C9 C10 C11 C12 C13 C14
DELU N1 N2 C16 N4 N3 C15
DELU O6 Zr1
DELU O5 Zr1
DELU O2 Zr1
DELU C1 O1
DELU O4 C8
DELU Zr2 O7
SIMU C1 C2 C3 C4 C5 C6 C7
SIMU C8 C9 C10 C11 C12 C13 C14
SIMU N1 N2 C16 N4 N3 C15
SIMU O4 C8
SIMU Zr2 O7
ISOR 0.01 0.02 O5 O6 C9 C8 N1 N2 C1 C3 C4 C15 C16 O3

L.S. 4 0 0
PLAN  90
TEMP -172.94
BOND $H
list 4
fmap 2 53
acta
OMIT 2 3 6
OMIT 6 4 2
OMIT 14 1 2
OMIT 2 3 1
OMIT 0 6 6
OMIT 6 6 8
OMIT 1 2 5
OMIT 1 5 4
OMIT 16 0 0
OMIT 5 7 5
OMIT 1 1 1
OMIT 9 1 3
OMIT 13 5 4
OMIT 15 0 1
OMIT 2 4 7
OMIT 15 6 4
OMIT 0 0 2
OMIT 1 3 2
OMIT 0 10 2
OMIT 7 0 1
OMIT 3 3 2
OMIT 5 3 2
OMIT 4 2 1
REM <olex2.extras>
REM <HklSrc "%.\\P.hkl">
REM </olex2.extras>

WGHT    0.200000
FVAR       0.12929
ZR1   5    0.425431    0.459299    0.500000    10.50000    0.04338    0.20881 =
         0.05147    0.00000    0.00000   -0.00008
ZR2   5    0.519495    0.418903    0.578768    11.00000    0.05715    0.19681 =
         0.09123    0.06028   -0.00771   -0.01520
O4    3    0.124357   -0.000473    0.939887    11.00000    0.06768    0.11937 =
         0.09887    0.02292    0.00662   -0.02077
O3    3    0.087955    0.074710    0.888483    11.00000    0.13006    0.15188 =
         0.14485   -0.00216    0.00732    0.01345
O5    3    0.467466    0.492957    0.576280    11.00000    0.11938    0.12576 =
         0.11305   -0.00555   -0.03382    0.00859
O2    3    0.407299    0.377849    0.561492    11.00000    0.09179    0.24059 =
         0.09100    0.01452    0.03638   -0.02858
O7    3    0.556174    0.426360    0.500000    10.50000    0.20228    0.13144 =
         0.05454    0.00000    0.00000   -0.11542
O8    3    0.541825    0.318812    0.565248    11.00000    0.13684    0.14486 =
         0.36204   -0.04659    0.12166   -0.08780
O6    3    0.484762    0.401865    0.500000    10.50000    0.10028    0.09564 =
         0.10337    0.00000    0.00000   -0.00339
O9    3    0.515573    0.441191    0.676078    11.00000    0.08192    0.54355 =
         0.06487    0.03153   -0.01584   -0.06696
C8    1    0.124203    0.045557    0.899316    11.00000    0.11758    0.12008 =
         0.11726    0.01781   -0.00400   -0.00063
O1    3    0.467811    0.350979    0.611301    11.00000    0.12427    0.51750 =
         0.16022    0.19645    0.04493    0.11591
C1    1    0.426361    0.342042    0.602717    11.00000    0.19148    0.20369 =
         0.20201    0.00224    0.00210   -0.00393
C9    1    0.163671    0.062740    0.867958    11.00000    0.13171    0.14834 =
         0.14770    0.01701    0.01523   -0.00245
N2    4    0.288385    0.164837    0.751083    11.00000    0.38915    0.39148 =
         0.39213    0.00392    0.00570   -0.00396
C2    1    0.401418    0.294756    0.636684    11.00000    0.20411    0.24472 =
         0.22108    0.03456    0.00916   -0.00760
C7    1    0.355822    0.295874    0.630988    11.00000    0.20415    0.26425 =
         0.22690    0.07879    0.03064   -0.00125
AFIX  43
H7    2    0.342311    0.327021    0.605568    11.00000   -1.20000
AFIX   0
C6    1    0.330357    0.249989    0.663626    11.00000    0.22157    0.26094 =
         0.24465    0.09790    0.03849    0.00286
AFIX  43
H6    2    0.299804    0.250376    0.659948    11.00000   -1.20000
AFIX   0
C14   1    0.202711    0.032080    0.885792    11.00000    0.12514    0.17839 =
         0.23366    0.08567    0.04954    0.00324
AFIX  43
H14   2    0.202660    0.000982    0.917475    11.00000   -1.20000
AFIX   0
C4    1    0.396557    0.202742    0.707298    11.00000    0.22309    0.22110 =
         0.22625    0.01726    0.00402   -0.00336
AFIX  43
H4    2    0.410138    0.171698    0.732752    11.00000   -1.20000
AFIX   0
C5    1    0.350882    0.203619    0.701724    11.00000    0.22091    0.23900 =
         0.26080    0.07795    0.01914    0.00938
C10   1    0.163197    0.109003    0.820774    11.00000    0.13255    0.21456 =
         0.21653    0.08611    0.04306    0.01215
AFIX  43
H10   2    0.136870    0.129171    0.809198    11.00000   -1.20000
AFIX   0
C11   1    0.202358    0.125245    0.790668    11.00000    0.13944    0.24930 =
         0.28204    0.10912    0.05848   -0.00434
AFIX  43
H11   2    0.202141    0.156304    0.758954    11.00000   -1.20000
AFIX   0
C13   1    0.241929    0.048212    0.855920    11.00000    0.13043    0.22548 =
         0.26448    0.09504    0.05853   -0.01658
AFIX  43
H13   2    0.268154    0.027927    0.867768    11.00000   -1.20000
AFIX   0
C3    1    0.422069    0.248791    0.674437    11.00000    0.21604    0.21963 =
         0.22187    0.01451    0.00178   -0.00088
AFIX  43
H3    2    0.452632    0.248484    0.677955    11.00000   -1.20000
AFIX   0
C15   1    0.329823    0.160392    0.732912    11.00000    0.39250    0.39343 =
         0.39728    0.00782    0.00782    0.00358
C12   1    0.241946    0.094927    0.808070    11.00000    0.12947    0.24677 =
         0.29282    0.12091    0.06249   -0.01886
N4    4    0.313602    0.070590    0.780603    11.00000    0.40065    0.41555 =
         0.43012    0.03605    0.05079    0.02096
C16   1    0.279144    0.109804    0.780785    11.00000    0.38763    0.39006 =
         0.39378    0.00579    0.00505    0.00353
N3    4    0.345859    0.102805    0.750437    11.00000    0.41597    0.41365 =
         0.43312    0.04542    0.05761    0.02269
N1    4    0.265652    0.204457    0.744354    11.00000    0.37033    0.37568 =
         0.37645    0.00984    0.02490   -0.02293
HKLF 4

REM  1810261_0m_a.res in Pnnm
REM R1 =  0.2062 for    1841 Fo > 4sig(Fo)  and  0.2950 for all    3557 data
REM    271 parameters refined using    322 restraints

END

WGHT      0.2000      0.0000

REM Highest difference peak  0.985,  deepest hole -1.329,  1-sigma level  0.193
Q1    1   0.5199  0.4366  0.5999  11.00000  0.05    0.95
Q2    1   0.6381  0.3520  0.5000  10.50000  0.05    0.93
Q3    1   0.5808  0.5341  0.6997  11.00000  0.05    0.91
Q4    1   0.5170  0.3429  0.5000  10.50000  0.05    0.86
Q5    1   0.2155 -0.1187  1.0000  10.50000  0.05    0.83
Q6    1   0.4860  0.4978  0.5000  10.50000  0.05    0.75
Q7    1   0.4009  0.1965  0.5000  10.50000  0.05    0.73
Q8    1   0.5037  0.4632  1.0000  10.50000  0.05    0.69
Q9    1   0.4811  0.4407  0.7083  11.00000  0.05    0.67
Q10   1   0.3612  0.4124  0.7637  11.00000  0.05    0.62
Q11   1   0.4448  0.2667  0.5000  10.50000  0.05    0.59
Q12   1   0.5006  0.4718  0.7813  11.00000  0.05    0.55
Q13   1   0.5147  0.5068  0.6575  11.00000  0.05    0.55
Q14   1   0.5234  0.2629  0.5786  11.00000  0.05    0.54
Q15   1   0.4891  0.4173  0.5748  11.00000  0.05    0.54
Q16   1   0.5171  0.4056  0.7807  11.00000  0.05    0.53
Q17   1   0.2154  0.2008  0.6428  11.00000  0.05    0.53
Q18   1   0.5618  0.2403  0.7004  11.00000  0.05    0.52
Q19   1   0.2025  0.1966  1.0000  10.50000  0.05    0.49
Q20   1   0.5444  0.3105  0.5892  11.00000  0.05    0.48
Q21   1   0.2600  0.2369  0.5000  10.50000  0.05    0.48
Q22   1   0.5374  0.3276  0.5914  11.00000  0.05    0.48
Q23   1   0.2415  0.3639  0.5948  11.00000  0.05    0.44
Q24   1   0.1418  0.2991  0.8140  11.00000  0.05    0.44
Q25   1   0.5180  0.2051  0.5832  11.00000  0.05    0.43
Q26   1   0.5415  0.4536  0.7062  11.00000  0.05    0.43
Q27   1   0.0792  0.0205  0.9158  11.00000  0.05    0.41
Q28   1   0.2530  0.3269  0.5000  10.50000  0.05    0.40
Q29   1   0.0775  0.2346  0.7364  11.00000  0.05    0.40
Q30   1   0.3368 -0.0905  0.8191  11.00000  0.05    0.40
Q31   1   0.3594 -0.0422  0.8727  11.00000  0.05    0.40
Q32   1   0.1407  0.2018  0.7002  11.00000  0.05    0.39
Q33   1   0.0742  0.1646  0.7955  11.00000  0.05    0.39
Q34   1   0.3428 -0.0462  0.8432  11.00000  0.05    0.38
Q35   1   0.2574 -0.0986  0.8220  11.00000  0.05    0.38
Q36   1   0.3638 -0.1825  1.0000  10.50000  0.05    0.37
Q37   1   0.3770  0.3828  1.0000  10.50000  0.05    0.36
Q38   1   0.4246 -0.1011  0.8211  11.00000  0.05    0.35
Q39   1   0.2743 -0.1022  0.7022  11.00000  0.05    0.34
Q40   1   0.3244  0.1269  1.0000  10.50000  0.05    0.34
Q41   1   0.3142  0.1309  1.0000  10.50000  0.05    0.34
Q42   1   0.2783 -0.0168  0.6385  11.00000  0.05    0.33
Q43   1   0.3162  0.1309  0.5000  10.50000  0.05    0.33
Q44   1   0.1773  0.0953  0.5000  10.50000  0.05    0.33
Q45   1   0.2385  0.3446  0.7541  11.00000  0.05    0.32
Q46   1   0.0813  0.0881  0.8573  11.00000  0.05    0.32
Q47   1   0.1841  0.2859  0.8986  11.00000  0.05    0.32
Q48   1   0.4748 -0.0091  0.6641  11.00000  0.05    0.32
Q49   1   0.5243  0.1759  0.7175  11.00000  0.05    0.32
Q50   1   0.2457  0.0941  0.5407  11.00000  0.05    0.32
Q51   1   0.4815  0.3370  0.6010  11.00000  0.05    0.31
Q52   1   0.4418  0.0639  0.8018  11.00000  0.05    0.31
Q53   1   0.4782  0.3342  0.6506  11.00000  0.05    0.31
Q54   1   0.4208 -0.0257  0.6873  11.00000  0.05    0.30
Q55   1   0.2034  0.3060  0.6005  11.00000  0.05    0.30
Q56   1   0.3012  0.0240  0.7330  11.00000  0.05    0.30
Q57   1   0.4987  0.0715  0.6884  11.00000  0.05    0.30
Q58   1   0.6236  0.2405  0.5975  11.00000  0.05    0.29
Q59   1   0.3276  0.2662  1.0000  10.50000  0.05    0.29
Q60   1   0.2589  0.1308  0.5552  11.00000  0.05    0.29
Q61   1   0.3384  0.2446  0.8797  11.00000  0.05    0.29
Q62   1   0.4449  0.0029  0.6270  11.00000  0.05    0.29
Q63   1   0.3422  0.2083  0.8368  11.00000  0.05    0.28
Q64   1   0.2991  0.0013  1.0000  10.50000  0.05    0.28
Q65   1   0.2719  0.3779  0.6969  11.00000  0.05    0.28
Q66   1   0.3398  0.2448  1.0000  10.50000  0.05    0.28
Q67   1   0.4256  0.4105  1.0000  10.50000  0.05    0.28
Q68   1   0.3269  0.1042  0.6900  11.00000  0.05    0.27
Q69   1   0.2370  0.2801  0.8929  11.00000  0.05    0.27
Q70   1   0.7088  0.1309  0.5000  10.50000  0.05    0.26
Q71   1   0.1219  0.0399  1.0000  10.50000  0.05    0.26
Q72   1   0.2634  0.1360  1.0000  10.50000  0.05    0.26
Q73   1   0.2808  0.2175  0.7900  11.00000  0.05    0.25
Q74   1   0.2007  0.0482  0.5946  11.00000  0.05    0.25
Q75   1   0.5587  0.1079  0.6895  11.00000  0.05    0.24
Q76   1   0.3255 -0.0359  0.5938  11.00000  0.05    0.24
Q77   1   0.4937  0.1432  0.7783  11.00000  0.05    0.24
Q78   1   0.1760 -0.0808  0.9209  11.00000  0.05    0.24
Q79   1   0.3809 -0.0171  0.5938  11.00000  0.05    0.24
Q80   1   0.3573 -0.1782  0.9486  11.00000  0.05    0.23
Q81   1   0.3245  0.3352  1.0000  10.50000  0.05    0.23
Q82   1   0.5664  0.1455  0.7573  11.00000  0.05    0.23
Q83   1   0.1780  0.2863  0.5631  11.00000  0.05    0.23
Q84   1   0.4882  0.1720  0.8096  11.00000  0.05    0.23
Q85   1   0.4430  0.0788  1.0000  10.50000  0.05    0.22
Q86   1   0.5601  0.0148  0.5000  10.50000  0.05    0.22
Q87   1   0.4253  0.0243  0.7575  11.00000  0.05    0.22
Q88   1   0.4997  0.1341  1.0000  10.50000  0.05    0.22
Q89   1   0.3250  0.2827  0.8154  11.00000  0.05    0.21
Q90   1   0.2260  0.3455  0.8650  11.00000  0.05    0.21
;
_shelx_res_checksum              8858
_shelx_hkl_file
;
   0   2   0 1872.79  106.00
   0  -2   0 2102.25  106.11
   0  -3   0   -3.17    4.98
   0   3   0    2.32    3.15
   0  -3   0   -5.14    4.24
   0   4   0  111.62   10.04
   0  -4   0  135.15   17.64
   0  -4   0  117.49   13.95
   0  -5   0  -16.63   12.72
   0  -5   0    4.10    9.53
   0   5   0  -15.71    7.79
   0  -6   0  830.41   49.79
   0   6   0  861.84   47.51
   0  -6   0  889.04   50.26
   0   7   0   -8.28    8.04
   0  -7   0  -22.28   21.94
   0  -8   0  232.47   25.59
   0  -8   0  222.51   27.16
   0   8   0  195.68   17.17
   0   9   0  -23.18   12.28
   0 -10   0  102.94   28.30
   0  10   0  121.27   18.49
   0  11   0    3.26   15.73
   0 -11   0    6.20   28.08
   0 -11   0  -35.60   20.24
   0  12   0  224.60   24.86
   0 -13   0  -43.58   33.93
   0  13   0  -10.20   20.13
   0 -14   0  134.66   33.07
   0  14   0   58.43   23.98
   0  15   0   -8.50   25.48
   0   1   1 5973.97  341.42
   0  -1  -1 6864.08  341.69
   0   2   1   -3.69    3.40
   0  -2  -1   -4.69    3.66
   0  -2  -1   -8.71    4.24
   0  -3  -1  122.22   11.75
   0   3   1  116.82    8.16
   0  -3   1   95.50    8.77
   0  -3  -1  101.61    9.84
   0  -3   1  109.36    9.50
   0   4   1    6.45    6.46
   0  -4  -1    5.43    9.24
   0  -4   1    8.48    6.40
   0  -4   1   -0.56    7.99
   0  -4  -1   11.57    7.88
   0  -5  -1  208.77   27.62
   0  -5   1  217.41   19.55
   0   5  -1  192.03   15.64
   0   5   1  251.99   16.85
   0  -5   1  242.29   20.83
   0   6   1   24.64    8.63
   0  -6  -1   21.06   10.46
   0  -6   1   21.35    9.12
   0   6  -1   24.21    7.30
   0  -6  -1    1.18   13.27
   0  -7   1  314.24   25.86
   0   7   1  302.53   21.09
   0   7  -1  312.60   20.04
   0  -7  -1  318.52   27.04
   0  -7   1  303.92   25.64
   0  -7  -1  298.85   26.43
   0   8   1  -18.75   10.74
   0  -8  -1  -32.45   17.18
   0   8  -1  -12.08    9.06
   0  -8   1  -35.12   17.75
   0  -9  -1  150.40   27.57
   0   9   1   88.77   14.57
   0   9  -1   88.71   14.90
   0  10   1   -1.27   14.96
   0 -10  -1  -15.07   27.94
   0  10  -1    4.21   13.27
   0 -10   1  -14.29   23.33
   0  11   1  262.45   23.70
   0  11  -1  194.87   22.42
   0 -11  -1  218.40   36.83
   0  12   1    8.59   18.90
   0 -12  -1  -25.16   34.87
   0  12  -1  -17.35   17.78
   0 -12  -1  -38.08   23.86
   0 -13  -1  114.45   30.49
   0  13   1  148.55   25.66
   0  13  -1  163.14   23.62
   0 -14  -1  -30.66   31.10
   0  14   1   -5.60   24.49
   0  14  -1  -16.41   21.49
   0  15   1   21.81   25.87
   0 -15  -1   11.86   39.08
   0  15  -1   -5.25   25.92
   0   0  -2 2636.49  132.51
   0   0   2 2610.88  132.53
   0   0  -2 2205.12  132.29
   0  -1  -2  -10.35    5.58
   0   2   2  812.56   50.00
   0  -2  -2  936.10   49.89
   0  -2  -2 1012.93   50.49
   0   3   2    6.82    4.93
   0  -3  -2   -1.47    6.75
   0  -3  -2    1.76    6.93
   0  -4  -2   16.75    9.50
   0  -4  -2   22.08   11.73
   0   4   2   26.65    8.34
   0  -5  -2  107.65   19.99
   0   5   2   75.04   13.26
   0   6   2   23.08    9.26
   0  -6  -2   23.18   10.51
   0  -6  -2   18.81   12.70
   0   7  -2  -13.65    7.76
   0  -7  -2   -9.07   15.23
   0   7   2    1.72   10.04
   0  -7  -2  -11.77   11.15
   0   8   2   15.87   11.75
   0  -8  -2  -10.43   13.12
   0   8  -2    2.09    8.63
   0  -8  -2   32.06   17.96
   0  -9  -2  -27.66   21.43
   0   9   2   -7.08   13.70
   0  10   2  236.78   25.13
   0 -10  -2  173.85   33.03
   0 -10  -2  228.19   33.34
   0  10  -2  206.21   19.19
   0  11   2   33.99   17.75
   0 -11  -2   23.99   32.73
   0  11  -2    2.49   14.39
   0 -11  -2  -29.46   20.17
   0  12  -2  133.83   20.72
   0  12   2  109.69   22.23
   0  13  -2   -1.21   19.01
   0 -13  -2  -20.61   28.31
   0 -13  -2    4.97   41.41
   0  13   2  -10.11   22.55
   0  14  -2   15.96   21.15
   0 -14  -2    0.29   31.51
   0  14   2   29.84   23.99
   0  15   2  -18.87   26.06
   0  15  -2  -23.81   24.29
   0 -15  -2   -2.67   36.03
   0   0  -3   -1.78    3.89
   0   0  -3    2.42    4.09
   0  -1  -3  101.05    8.56
   0  -1  -3  108.21   12.45
   0   1   3  111.59    7.77
   0   2   3    1.43    5.22
   0  -2  -3    3.98    5.74
   0  -2  -3    1.97    6.31
   0  -3  -3  207.74   20.91
   0   3   3  237.72   15.92
   0  -3  -3  204.53   17.19
   0  -4  -3  113.76   18.23
   0   5   3  212.76   17.92
   0   6   3    6.98    9.58
   0  -6  -3  -10.51   12.49
   0  -6  -3   -3.11   11.87
   0  -7  -3    8.58   14.76
   0  -7  -3   -5.43   11.78
   0   7   3   -1.41   10.78
   0  -8  -3   -6.40   17.55
   0  -8  -3   -9.29   13.14
   0   8   3    7.64   12.73
   0   9  -3   66.31   11.54
   0  -9  -3   46.94   16.79
   0  -9  -3   99.88   23.55
   0   9   3  113.04   18.86
   0 -10  -3  -15.18   25.76
   0  10   3    7.44   16.64
   0  10  -3  -11.86   11.80
   0 -11  -3   72.69   32.22
   0  11  -3  100.19   16.73
   0  11   3  104.47   20.17
   0 -12  -3  -26.74   24.18
   0  12  -3    1.51   16.42
   0  12   3   21.44   20.98
   0 -12  -3   -8.36   28.00
   0 -13  -3   -6.40   28.43
   0  13  -3   52.41   18.64
   0  13   3   25.08   22.51
   0 -13  -3   24.21   37.93
   0  15  -3   -4.73   23.66
   0 -15  -3  -18.50   35.78
   0  15   3   -1.10   26.33
   0   0  -4   28.82    6.69
   0   0  -4   37.15    6.00
   0  -1  -4    4.85    6.86
   0  -1  -4    6.58    7.68
   0   2   4   58.68    9.88
   0  -2  -4   59.16   10.41
   0  -2  -4   40.43    9.70
   0  -4  -4  250.22   21.86
   0   4   4  274.13   19.64
   0  -4  -4  246.03   25.10
   0  -5  -4   37.03   10.92
   0  -5  -4   50.10   12.79
   0   5   4   41.35   10.31
   0  -6  -4   25.27   12.19
   0   6   4   21.77   11.20
   0  -6  -4   30.85   13.33
   0  -7  -4   -9.99   11.93
   0   7   4    6.40   12.23
   0  -7  -4    1.07   15.07
   0  -8  -4   -4.06   18.88
   0  -8  -4  -11.41   13.83
   0   8   4   50.37   14.32
   0  -9  -4  -34.10   22.28
   0  -9  -4  -26.05   16.16
   0   9   4   24.62   15.81
   0  10  -4    4.92   11.38
   0 -10  -4   -3.57   25.49
   0 -10  -4  -19.28   18.38
   0  10   4   42.56   17.30
   0  11   4   34.59   19.03
   0  11  -4   11.12   13.60
   0 -11  -4    2.99   30.75
   0 -12  -4   23.74   24.84
   0  12   4   52.68   22.14
   0  12  -4   43.23   16.02
   0 -12  -4   77.05   39.32
   0  13   4   20.28   23.46
   0  13  -4   24.58   18.12
   0 -13  -4  -60.81   33.61
   0 -13  -4  -15.03   28.21
   0 -14  -4  -39.22   30.40
   0  14   4   11.62   25.50
   0 -14  -4  -58.01   51.73
   0  14  -4   26.84   20.89
   0  15  -4    4.39   23.85
   0  15   4   -8.84   28.43
   0 -15  -4   -8.51   33.84
   0   0  -5   23.54   15.28
   0  -1  -5  419.45   27.18
   0  -1  -5  451.25   29.88
   0   1  -5  418.64   25.36
   0  -2  -5   31.77   11.56
   0   2   5   11.49    8.22
   0   3   5  305.48   20.72
   0  -3  -5  312.60   23.15
   0  -3  -5  303.54   26.16
   0   4   5   14.43   10.98
   0  -4  -5   22.95   10.52
   0  -4  -5   49.56   12.12
   0  -5  -5   51.25   11.85
   0   5   5   52.18   11.00
   0  -6  -5    3.19   12.13
   0   6   5  -10.35   10.67
   0  -6  -5    8.20   14.18
   0   7   5  103.76   17.33
   0  -7  -5  140.58   25.49
   0  -7  -5   74.56   16.97
   0  -8  -5  -10.26   18.52
   0   8   5   24.81   14.92
   0  -8  -5   -4.10   14.50
   0  -9  -5  -15.84   21.69
   0   9   5   19.38   16.49
   0 -10  -5    1.39   25.29
   0 -10  -5  -18.48   19.53
   0  10   5   37.68   17.86
   0  11  -5   60.98   14.57
   0  11   5   74.03   20.33
   0 -11  -5   51.91   32.52
   0 -11  -5   36.01   22.06
   0 -12  -5   86.19   38.61
   0  12  -5   22.02   14.87
   0 -12  -5   -7.09   24.88
   0  12   5   17.39   22.70
   0  13   5   53.40   25.64
   0 -13  -5   45.25   28.40
   0  13  -5   60.24   18.36
   0  14   5  -20.33   27.30
   0 -14  -5   15.82   31.60
   0  14  -5   12.58   20.20
   0 -14  -5    1.88   47.67
   0  15  -5   18.94   24.06
   0  15   5  -12.01   30.93
   0 -15  -5  -15.37   34.40
   0   0  -6  486.73   37.27
   0   0  -6  438.53   27.86
   0  -1  -6    0.10    9.36
   0   1  -6   -1.11    8.23
   0   1  -6    5.36    8.57
   0  -1  -6   26.73   10.56
   0  -2  -6   39.43   10.39
   0   3   6   -5.97   17.14
   0  -3  -6   14.65   11.84
   0  -3  -6    4.65   10.41
   0  -4  -6  250.10   25.66
   0  -4  -6  254.32   21.28
   0   4   6  226.32   19.29
   0  -5  -6    5.36   12.65
   0  -5  -6   25.03   13.37
   0   5   6   -5.44   10.68
   0  -6  -6  222.50   22.93
   0  -6  -6  235.35   27.91
   0   6   6  207.93   20.20
   0  -7  -6   18.03   14.84
   0  -7  -6   -4.33   17.22
   0   7   6   20.68   13.81
   0  -8  -6    8.93   19.61
   0  -8  -6   13.29   17.19
   0   8   6   44.02   15.91
   0  -9  -6  -33.37   21.84
   0   9   6  -13.87   17.06
   0 -10  -6   58.42   26.55
   0 -10  -6   51.73   26.87
   0  10   6   60.10   19.31
   0 -11  -6    2.22   30.73
   0  11   6  -23.53   21.18
   0 -11  -6  -31.13   22.38
   0  12   6  129.31   26.62
   0 -12  -6   92.73   53.14
   0 -12  -6   68.55   26.58
   0 -13  -6  -17.76   28.92
   0 -13  -6    6.95   49.26
   0  13   6   34.57   27.55
   0  13  -6   16.62   17.49
   0 -14  -6    3.18   31.89
   0  14   6   31.56   30.08
   0  14  -6   17.53   20.62
   0 -14  -6   33.32   46.09
   0   0  -7   -6.74    9.68
   0   0  -7    5.52    9.82
   0  -1  -7  199.09   28.46
   0   1  -7  249.93   17.33
   0  -1  -7  226.37   19.29
   0   1  -7  211.28   21.78
   0  -2  -7   11.11   11.37
   0  -2  -7   -4.97   10.77
   0  -3  -7   21.92   12.55
   0  -3  -7   -2.10   11.28
   0   3   7  -20.79   10.42
   0  -4  -7    2.15   12.23
   0  -4  -7    9.88   12.79
   0   5   7  205.43   20.65
   0  -5  -7  230.35   23.15
   0  -5  -7  244.76   28.90
   0   6   7    5.66   13.18
   0  -6  -7  -10.51   14.87
   0  -6  -7    8.61   15.70
   0   7   7   66.28   16.15
   0  -7  -7   80.98   20.02
   0  -7  -7   43.82   17.76
   0  -8  -7  -26.67   18.21
   0   8   7  -35.31   16.52
   0  -8  -7  -16.22   20.44
   0   9   7   72.58   19.24
   0  -9  -7    3.76   18.63
   0  -9  -7   39.54   24.58
   0 -10  -7  -13.68   25.99
   0 -10  -7  -31.30   20.81
   0  10   7   -9.92   20.01
   0 -11  -7  176.47   37.36
   0  11   7  192.57   28.58
   0 -11  -7  204.02   39.67
   0  12   7    7.97   27.37
   0 -12  -7  -28.79   26.43
   0 -12  -7   57.12   40.79
   0 -13  -7   33.27   30.77
   0 -13  -7  138.69   50.87
   0  13  -7   73.78   18.45
   0  13   7   25.30   30.67
   0 -14  -7    3.74   31.53
   0  14  -7   18.78   20.97
   0  14   7  -25.95   32.40
   0 -14  -7  -23.08   51.12
   0   0  -8   37.55   11.55
   0   0  -8    6.43   11.22
   0  -1  -8   -7.13   11.74
   0   1  -8   -4.72    9.71
   0  -1  -8  -10.34   11.49
   0  -2  -8   11.73   12.65
   0   2  -8   -4.01    9.02
   0  -2  -8   -3.56   12.31
   0  -3  -8   -0.66   13.52
   0  -3  -8  -12.55   12.68
   0  -4  -8   98.52   16.31
   0  -4  -8   60.87   15.24
   0   4   8   76.62   26.56
   0  -5  -8   -8.84   14.51
   0  -5  -8   17.05   17.23
   0   6   8   55.79   16.42
   0  -6  -8   28.00   16.47
   0  -6  -8   54.46   19.35
   0  -7  -8  -36.64   24.43
   0   7   8  -23.48   16.72
   0  -8  -8   47.07   22.05
   0   8   8   27.53   18.67
   0  -8  -8   14.46   18.37
   0  -9  -8  -20.64   32.06
   0   9   8  -16.58   19.46
   0  -9  -8   20.73   23.86
   0 -10  -8  253.52   39.41
   0  10   8  208.48   28.50
   0 -10  -8  260.08   36.30
   0  11   8  -11.12   24.67
   0 -11  -8   38.99   34.03
   0 -11  -8  -22.40   25.76
   0  12   8   19.24   28.44
   0 -12  -8   15.59   25.93
   0 -12  -8   92.78   41.70
   0 -13  -8    0.10   30.34
   0  13   8  -26.65   27.71
   0  13  -8   -2.34   17.42
   0 -13  -8  -11.57   48.33
   0  14  -8   14.32   21.60
   0   0  -9  -14.81   12.60
   0   0  -9  -26.47   15.55
   0  -1  -9   31.52   14.07
   0  -1  -9   55.65   14.81
   0   1  -9   57.70   12.57
   0   2  -9    3.39   10.80
   0  -2  -9  -20.51   14.24
   0  -2  -9  -16.64   13.97
   0  -3  -9   34.69   16.20
   0  -3  -9   24.93   15.31
   0  -4  -9   -0.13   15.80
   0  -4  -9    8.75   16.70
   0  -5  -9   23.22   19.05
   0  -5  -9   -1.27   16.67
   0  -6  -9  -19.40   17.28
   0  -6  -9  -15.88   19.12
   0  -7  -9   54.51   21.42
   0  -7  -9   19.77   20.54
   0  -8  -9  -14.44   19.88
   0  -8  -9   26.60   24.73
   0  -9  -9  216.61   40.76
   0  -9  -9  191.93   34.15
   0 -10  -9  -30.24   22.48
   0 -10  -9   10.18   28.99
   0 -11  -9   33.64   28.52
   0 -11  -9   99.30   34.52
   0 -12  -9  -10.44   27.98
   0 -12  -9   33.41   39.41
   0 -13  -9  -16.57   31.56
   0 -13  -9    2.77   46.71
   0   0 -10  993.47   56.07
   0   0 -10  924.23   59.40
   0   1 -10  -27.73   14.61
   0  -1 -10  -24.25   16.68
   0   1 -10   -2.77   13.86
   0  -2 -10  403.90   31.31
   0   2 -10  378.12   27.45
   0  -2 -10  398.08   39.11
   0  -3 -10    8.13   18.17
   0  -4 -10    7.20   18.47
   0  -4 -10   11.15   19.37
   0  -5 -10   -8.47   18.85
   0  -5 -10   12.37   20.91
   0  -6 -10   94.67   22.54
   0  -6 -10   69.54   20.63
   0  -7 -10   -6.77   21.29
   0  -8 -10  248.16   34.10
   0  -8 -10  150.19   40.29
   0  -9 -10   -2.68   24.22
   0  -9 -10    0.28   28.70
   0 -10 -10   20.47   27.51
   0 -10 -10   70.34   30.39
   0 -11 -10  -30.04   27.87
   0 -11 -10   34.18   33.41
   0 -12 -10    5.13   31.14
   0 -12 -10   41.38   40.29
   0   0 -11  -20.82   17.52
   0   0 -11  -35.89   17.85
   0   1 -11 1134.59   62.00
   0   1 -11  974.04   65.85
   0  -1 -11 1112.79   63.52
   0  -1 -11 1043.53   69.16
   0  -2 -11  -28.34   19.38
   0   2 -11   19.89   16.81
   0   2 -11  -28.07   13.85
   0  -3 -11   63.69   21.27
   0   3 -11   67.55   14.48
   0  -3 -11   99.10   21.88
   0  -4 -11    6.73   21.26
   0  -4 -11   -8.07   20.19
   0  -5 -11  111.97   25.42
   0  -5 -11   96.61   23.54
   0  -6 -11    2.49   25.70
   0  -6 -11  -18.19   22.75
   0  -7 -11  119.33   34.21
   0  -8 -11   30.04   26.98
   0  -8 -11    2.97   25.33
   0  -9 -11   45.33   27.53
   0  -9 -11   84.24   29.78
   0 -10 -11   -8.83   27.54
   0 -10 -11   -1.88   31.07
   0 -11 -11   61.25   36.82
   0 -11 -11  -41.19   28.21
   0 -12 -11  -31.90   32.45
   0   0 -12 1067.93   68.35
   0   0 -12 1029.80   62.49
   0   1 -12  -24.46   17.67
   0   1 -12   26.94   18.56
   0  -1 -12  -24.59   21.27
   0  -1 -12  -11.29   20.78
   0  -2 -12  392.31   34.31
   0  -2 -12  392.86   49.29
   0   2 -12  314.60   28.77
   0   3 -12  -11.52   15.39
   0  -3 -12  -12.12   22.36
   0  -3 -12   24.56   23.43
   0  -4 -12   12.88   23.43
   0  -5 -12   13.45   24.69
   0  -5 -12    3.55   25.66
   0  -6 -12   93.82   28.64
   0  -6 -12  142.60   28.37
   0  -7 -12   24.14   28.05
   0  -7 -12   38.62   30.35
   0  -8 -12   51.91   30.06
   0  -8 -12  101.11   30.08
   0  -9 -12   -0.30   30.05
   0  -9 -12   -1.44   31.40
   0 -10 -12   30.99   31.10
   0 -10 -12   31.39   33.75
   0 -11 -12   45.37   37.03
   0 -11 -12  -25.50   32.45
   0   0 -13   25.70   22.20
   0   1 -13  586.94   43.09
   0  -1 -13  586.44   44.99
   0  -1 -13  699.30   56.43
   0   2 -13  -28.67   19.76
   0  -2 -13   -2.89   26.64
   0  -3 -13   40.13   29.93
   0   3 -13   23.25   19.40
   0  -3 -13   71.72   27.23
   0  -4 -13   17.09   26.67
   0  -4 -13   13.81   30.21
   0  -5 -13   48.46   32.52
   0  -5 -13   64.74   29.73
   0  -6 -13   15.10   29.83
   0  -6 -13   24.48   33.90
   0  -7 -13  106.08   33.29
   0  -7 -13   65.56   34.88
   0  -8 -13  -16.95   34.78
   0  -8 -13   -0.96   30.70
   0  -9 -13   -7.20   33.82
   0  -9 -13   16.62   33.97
   0 -10 -13   -0.71   35.12
   0 -10 -13   35.80   38.02
   0   0 -14  477.67   47.21
   0  -1 -14   61.30   29.83
   0  -1 -14  -40.51   25.30
   0   1 -14  -22.14   29.39
   0  -2 -14  224.83   34.94
   0   2 -14  165.72   30.16
   0  -3 -14    7.95   28.28
   0   3 -14  -11.59   33.82
   0  -3 -14   19.57   34.27
   0  -4 -14   -8.60   28.84
   0  -4 -14   -0.18   36.07
   0  -5 -14   -2.31   30.05
   0  -5 -14  -14.08   41.24
   0  -6 -14   59.63   38.89
   0  -6 -14   23.72   31.60
   0  -7 -14   42.55   40.03
   0  -7 -14    3.42   32.28
   0  -8 -14   14.56   33.18
   0  -8 -14    9.11   38.67
   0  -9 -14  -38.80   40.10
   0   0 -15    2.57   29.05
   0   1 -15  202.98   31.71
   0  -1 -15  220.99   38.32
   0  -2 -15   41.39   40.78
   0   2 -15    4.61   29.55
   0  -2 -15   13.41   30.26
   0   3 -15    9.71   31.59
   0  -3 -15   51.00   31.01
   0  -3 -15  113.97   44.81
   0  -4 -15   15.56   31.62
   0  -4 -15   59.93   53.26
   0  -5 -15   28.09   32.90
   0  -5 -15   91.97   45.56
   0  -6 -15   40.62   35.04
   0  -6 -15   -5.20   45.33
   0  -7 -15   41.39   37.51
   0  -7 -15    7.13   44.16
   0   0 -16  130.33   34.24
   0  -1 -16   -5.76   33.48
   0   1 -16  -21.71   32.92
   0   2 -16   35.93   32.75
   0  -2 -16  116.22   36.61
   0  -3 -16   22.67   35.95
   0   3 -16   14.36   31.73
   0  -3 -16  131.30   62.90
   0  -4 -16   53.54   51.50
   0  -4 -16   41.20   35.95
   0  -5 -16   53.79   53.66
   0  -5 -16   -1.01   36.21
   0   0 -17  -13.76   39.35
   0  -1 -17   -6.64   36.70
   0   1 -17  -20.26   38.17
   1  -1   0 9999.00  500.36
  -1  -1   0 8812.95  500.34
   1  -2   0  320.96   20.18
  -1  -2   0  285.02   16.56
   1  -2   0  275.90   16.49
   1   3   0  300.04   16.68
  -1  -3   0  303.43   18.14
   1  -3   0  295.53   18.39
   1  -3   0  257.16   17.71
  -1  -3   0  274.70   17.68
  -1   3   0  344.25   16.93
   1   4   0   27.67    5.84
  -1  -4   0   27.80   11.33
  -1   4   0   17.72    6.00
  -1  -4   0   21.00    7.72
   1  -4   0   19.59    8.24
   1  -5   0  728.15   43.47
  -1  -5   0  695.77   42.08
  -1   5   0  751.90   40.04
  -1  -5   0  687.77   42.27
   1   5   0  727.41   39.85
   1  -5   0  685.76   42.20
  -1   6   0   61.08    8.82
   1  -6   0   43.34   10.68
   1   6   0   55.80    8.48
  -1  -6   0   50.28   13.99
   1  -6   0   77.45   13.77
   1  -7   0  342.33   26.98
  -1  -7   0  267.80   26.09
   1  -7   0  298.47   31.86
  -1   7   0  298.11   20.05
   1   7   0  284.50   19.99
  -1  -7   0  308.43   28.64
   1  -8   0   -3.54   17.99
   1   8   0   16.69   10.44
   1  -8   0    8.61   12.57
  -1   8   0   12.51    9.70
  -1  -8   0    9.29   25.83
   1  -9   0   74.19   22.59
   1  -9   0   38.63   15.59
  -1  -9   0   72.67   24.44
  -1   9   0   56.49   12.71
   1   9   0   45.01   12.92
  -1 -10   0   11.18   25.28
  -1  10   0   28.36   14.38
   1 -10   0  -11.90   17.12
   1  10   0   41.41   14.68
   1 -10   0   19.45   26.61
  -1  11   0  195.54   22.99
   1  11   0  228.21   22.70
   1 -11   0  255.95   36.34
  -1 -12   0  -21.98   23.07
   1  12   0    7.70   18.75
  -1  12   0    2.24   18.44
   1 -12   0  -22.91   22.95
   1  13   0  151.14   24.39
  -1  13   0  144.00   25.19
   1 -13   0  186.56   32.31
  -1 -14   0  -38.47   32.42
   1  14   0  -16.47   22.83
   1 -14   0  -18.43   30.92
  -1  14   0   -9.35   22.56
  -1  15   0  -11.27   25.54
   1  15   0   24.67   24.34
  -1   0  -1 9528.28  506.73
  -1  -1  -1    9.10    2.17
  -1  -1  -1   10.64    2.79
  -1   1   1    8.42    1.94
   1  -1   1    8.68    1.98
   1  -1   1    9.40    2.50
  -1   1  -1    9.90    2.12
  -1   1  -1   12.28    2.28
   1  -1  -1   13.30    2.77
   1   1   1    7.57    1.96
   1  -1  -1    8.43    2.89
   1  -2   1 1505.57   92.63
  -1  -2  -1 1933.65   93.22
   1  -2   1 1693.96   92.87
  -1   2   1 1573.65   92.86
   1  -2   1 1875.84   93.14
  -1   2  -1 1620.80   92.83
   1  -2  -1 1927.56   93.26
   1   2   1 1864.76   92.78
  -1   2  -1 1629.84   92.76
  -1  -3  -1   17.66    5.55
  -1   3   1   26.13    4.32
   1  -3   1   23.23    5.24
   1  -3   1   19.59    4.44
  -1  -3  -1   20.24    6.65
   1  -3  -1   21.68    5.96
   1  -3  -1   20.76    5.46
   1   3   1   28.39    4.40
  -1  -3   1   29.55    5.60
  -1  -3   1   15.32    3.88
  -1  -4  -1   -0.54    7.99
  -1  -4  -1   -1.55    9.78
  -1   4   1   -2.20    6.51
   1  -4   1    8.88    9.20
   1  -4   1   -5.42    8.46
   1  -4  -1   20.37    9.31
  -1  -4   1    9.02    7.99
  -1  -4   1   -8.28    6.00
   1   4   1   11.57    6.95
   1  -4  -1   -3.12    8.40
  -1  -5  -1   13.56   14.46
  -1  -5  -1   10.47    9.63
   1  -5   1   30.88    9.17
   1  -5   1   34.19   13.35
  -1   5   1   31.21    8.64
   1  -5  -1   71.94   21.34
   1  -5  -1   25.35   10.66
  -1  -5   1   11.86    8.35
  -1  -5   1   35.35   11.56
   1   5   1   39.04    8.95
   1  -6   1  258.29   22.11
   1  -6   1  290.57   22.90
  -1  -6  -1  210.97   22.95
  -1  -6  -1  235.05   22.65
   1   6  -1  235.47   16.68
  -1   6   1  257.57   17.73
   1   6   1  261.94   18.16
   1  -6  -1  264.34   22.03
  -1   6  -1  275.20   17.36
  -1  -6   1  242.40   21.86
  -1  -6   1  269.19   24.99
   1  -6  -1  257.61   24.59
  -1  -7  -1  -25.94   14.99
   1   7  -1   -5.90    7.72
   1  -7   1  -26.77   14.81
  -1   7   1   -9.43    8.95
   1  -7   1    1.45   10.72
   1  -7  -1  -11.21   11.43
   1  -7  -1   -2.33   14.72
  -1  -7   1  -28.93   20.12
  -1  -7   1  -15.85   10.33
   1   7   1  -14.24    9.40
  -1   7  -1   -4.81    8.11
   1   8  -1  125.57   13.70
   1  -8   1  134.14   23.12
  -1  -8  -1  123.65   20.62
   1  -8   1  134.61   23.50
  -1   8   1  129.03   15.26
   1   8   1  115.23   15.85
  -1   8  -1  130.82   14.19
   1  -8  -1  132.60   23.17
   1  -8  -1  160.23   25.20
  -1  -8   1  115.69   21.42
  -1  -9  -1   31.07   23.77
   1  -9   1   -9.06   14.45
  -1   9   1   21.86   13.35
   1  -9   1   18.24   23.09
   1   9  -1   11.78   11.66
   1   9   1   19.27   13.37
  -1  -9   1  -27.20   14.67
  -1   9  -1    3.18   11.44
   1  -9  -1  -16.06   21.50
  -1  -9   1  -24.65   23.46
   1  -9  -1   14.57   15.32
  -1 -10  -1  235.82   34.64
   1  10  -1  181.48   20.37
  -1 -10  -1  203.51   34.58
  -1  10   1  252.20   22.07
   1 -10  -1  263.50   33.31
   1 -10  -1  209.22   33.85
  -1  10  -1  178.11   20.01
   1  10   1  191.02   21.51
  -1 -11  -1  -23.80   25.39
   1  11  -1   14.91   15.27
  -1  11   1   28.68   16.81
  -1 -11  -1  -16.45   20.91
  -1  11  -1  -17.87   14.62
   1 -11  -1  -23.13   19.36
   1  11   1   38.61   17.36
   1 -11  -1  -15.88   24.44
  -1 -12  -1  151.82   27.16
  -1  12   1  202.70   24.55
   1  12  -1  193.29   22.91
   1  12   1  198.85   24.94
   1 -12  -1  131.48   27.59
  -1  12  -1  178.91   23.19
  -1 -13  -1  -50.74   27.59
  -1  13   1  -32.63   21.22
   1 -13   1  -33.55   24.97
   1  13  -1   -7.37   19.71
   1 -13  -1  -20.84   27.48
  -1  13  -1  -16.68   19.23
   1  13   1    2.62   21.89
   1  14  -1   49.20   22.62
  -1 -14  -1   36.67   32.09
  -1  14   1   38.58   23.95
   1  14   1   34.63   23.93
   1 -14  -1   38.87   32.17
  -1  14  -1   27.14   22.11
  -1 -15  -1  -30.67   38.44
  -1  15   1  -13.97   26.51
   1  15  -1   -6.31   25.85
  -1  15  -1   10.61   25.85
   1 -15  -1   -5.78   35.00
   1  15   1  -13.57   25.09
  -1   0  -2   -0.69    2.27
  -1   0   2    1.46    2.80
  -1  -1  -2 2567.42  130.86
  -1  -1  -2 2455.36  130.94
  -1   1   2 2393.11  130.49
  -1   1  -2 2285.10  130.44
   1  -1  -2 2504.43  130.95
   1   1   2 2485.06  130.51
  -1   2   2  152.30   13.10
  -1  -2  -2  189.89   13.27
  -1  -2  -2  192.24   12.07
   1   2   2  189.81   11.21
  -1   2  -2  178.75   10.83
  -1   2  -2  158.23   10.77
   1  -2  -2  183.25   11.98
   1  -2  -2  191.14   13.12
  -1   3   2   92.87    9.20
  -1  -3  -2  105.00   11.05
   1  -3  -2  104.54   11.15
   1  -3  -2   82.93   14.64
   1   3   2  102.12    9.74
  -1   4   2   45.02    8.92
  -1  -4  -2   19.11   12.62
   1  -4  -2   19.24   10.72
  -1  -5  -2   17.60   13.10
  -1  -5  -2   23.22    9.96
  -1   5   2   41.40    9.45
   1  -5  -2   27.15   11.39
   1  -5  -2   44.10   12.66
  -1  -6  -2   -4.47   10.18
  -1   6   2   23.54    9.19
   1  -6   2    9.88   11.85
  -1  -6  -2  -11.68   12.88
   1   6   2   12.37    9.05
  -1   6  -2   -5.96    6.36
   1  -6  -2   11.19   11.40
   1  -6  -2    9.56   12.59
  -1   7   2   96.92   14.01
   1  -7   2   92.17   18.23
  -1  -7  -2   68.66   16.50
   1   7   2   79.43   11.62
   1  -7  -2   83.61   16.16
  -1   7  -2   83.98   10.98
   1  -7  -2   60.75   13.09
  -1  -8  -2  -12.82   17.90
  -1   8   2    5.39   11.60
   1  -8   2  -33.95   17.96
   1   8  -2   -1.67    8.62
   1  -8  -2    7.60   17.58
   1  -8  -2    3.42   13.90
  -1   8  -2   -4.79    9.14
   1   8   2   -6.97   11.58
  -1   9   2  133.16   18.46
   1   9  -2   77.48   14.25
  -1  -9  -2   66.97   17.41
  -1  -9  -2  110.30   24.33
   1  -9  -2  136.28   23.46
   1  -9  -2  111.74   17.65
   1   9   2  135.85   18.86
   1  10  -2   12.64   12.47
  -1 -10  -2   27.73   27.49
  -1 -10  -2  -30.55   17.92
  -1  10  -2   -9.64   12.99
   1  10   2   31.70   18.07
   1 -10  -2  -20.03   25.00
   1 -10  -2   -0.56   17.62
  -1 -11  -2  111.23   23.26
  -1 -11  -2  103.09   33.46
   1  11  -2  163.09   18.76
   1 -11  -2   96.99   32.61
   1 -11  -2  105.63   22.19
  -1  11  -2  140.81   18.55
  -1  12   2   -2.87   20.45
   1  12  -2    2.27   16.67
  -1 -12  -2  -46.11   32.29
  -1  12  -2   -9.45   16.97
   1 -12  -2  -31.24   29.92
   1 -12  -2  -38.62   25.47
   1  12   2   20.67   20.77
  -1 -13  -2   41.20   42.95
   1  13  -2   50.42   19.30
  -1  13   2   43.78   23.18
  -1 -13  -2   -0.43   27.87
   1 -13  -2   31.13   27.65
   1  13   2   54.00   21.90
  -1  13  -2   55.20   19.41
   1 -13  -2  -38.68   39.11
   1  14  -2   -9.69   21.94
  -1  14   2   17.45   25.07
  -1 -14  -2   -4.62   30.81
  -1  14  -2  -23.29   20.92
   1 -14  -2   -9.87   30.15
   1  14   2   21.91   23.70
  -1  15   2   -2.72   26.24
  -1 -15  -2   -9.45   38.59
   1  15  -2  -17.03   25.40
   1  15   2  -17.01   25.34
  -1  15  -2   -8.08   24.29
   1 -15  -2  -23.06   35.40
  -1   0  -3  179.30   12.33
   1   0  -3  222.77   13.48
   1   0  -3  201.41   12.06
  -1   0  -3  198.06   11.92
  -1   0  -3  201.79   13.42
  -1  -1  -3    2.04    4.95
  -1   1   3    2.23    3.43
  -1  -1  -3   10.64    8.63
   1  -1  -3    2.02    4.57
   1   1   3    4.10    3.52
   1  -1  -3    6.75    4.87
  -1   1  -3    5.25    6.24
  -1  -2  -3  209.23   16.39
  -1  -2  -3  186.19   14.36
  -1   2   3  222.65   13.77
   1  -2  -3  184.85   14.20
   1  -2  -3  209.89   15.89
   1   2   3  220.20   14.31
  -1  -3  -3  923.69   52.33
  -1  -3  -3  902.94   51.17
  -1   3   3  972.14   50.52
   1  -3  -3  908.13   52.41
   1   3   3  940.55   50.38
   1  -3  -3  853.22   51.09
  -1   4   3  162.11   17.23
  -1  -4  -3  193.37   20.01
   1  -4  -3  240.10   20.16
   1  -5  -3  151.39   22.51
   1  -5  -3  140.72   19.04
  -1   6   3   15.92    9.73
  -1  -6  -3    4.81   13.28
  -1  -6  -3   -0.36   11.04
   1  -6  -3   14.94   13.16
   1   6   3   17.37   10.50
   1  -6  -3    0.55   12.28
  -1  -7  -3  -13.61   11.37
  -1   7   3   18.68   10.84
  -1  -7  -3  -10.37   15.29
   1  -7  -3   16.41   15.09
   1   7   3   -2.37   11.40
   1  -7  -3    1.75   11.90
  -1  -8  -3  -21.44   13.02
  -1  -8  -3  -34.04   17.75
  -1   8   3   11.19   12.38
   1  -8  -3   -8.37   14.13
   1   8   3   22.37   13.20
  -1   8  -3  -16.54    8.59
   1  -8  -3   -4.30   17.23
  -1  -9  -3  -27.17   15.20
  -1  -9  -3  -29.97   22.42
   1   9  -3    1.85   10.31
  -1   9   3   22.36   14.71
  -1   9  -3  -21.39   10.96
   1  -9  -3    0.66   15.90
   1   9   3   30.70   15.44
   1  -9  -3   -5.53   21.54
  -1  10   3  146.23   20.71
   1  10  -3  108.71   14.85
  -1 -10  -3   42.95   20.43
  -1 -10  -3   94.59   27.95
   1 -10  -3   71.94   26.35
   1 -10  -3   62.85   19.01
  -1  10  -3   93.07   14.18
   1  10   3  133.87   19.77
   1  11  -3   -3.62   13.58
  -1 -11  -3   32.59   32.39
  -1  11   3   19.65   18.50
  -1  11  -3    1.16   14.07
   1 -11  -3  -16.66   20.26
   1 -11  -3   16.88   30.40
   1  11   3   51.13   18.21
   1  12  -3   49.88   16.47
  -1 -12  -3  -38.97   28.84
  -1 -12  -3  -12.13   25.51
  -1  12   3   15.90   21.40
   1 -12  -3   72.64   29.84
   1 -12  -3   -3.94   23.76
   1  12   3   48.33   21.21
  -1  13   3   10.62   23.88
  -1 -13  -3   -1.30   38.97
   1  13  -3    4.38   18.46
  -1 -13  -3    2.80   28.24
   1 -13  -3    0.42   36.98
   1  13   3   29.65   22.49
  -1  13  -3   -8.28   18.53
  -1  14   3   -6.96   24.61
  -1 -14  -3    1.88   32.03
   1  14  -3   19.95   21.23
  -1  14  -3    6.54   21.02
   1  14   3  -12.73   23.71
   1 -14  -3  -36.97   29.92
  -1  15   3    0.51   27.17
   1  15  -3    0.03   24.14
  -1 -15  -3  -27.80   36.86
   1 -15  -3  -22.10   35.17
  -1  15  -3  -10.97   23.27
   1  15   3    0.05   26.82
   1   0  -4    0.76    5.56
   1   0  -4   -5.16    5.38
  -1   0  -4   -4.60    5.48
  -1   0  -4   -0.28    6.09
  -1   0  -4   -1.48    4.49
  -1  -1  -4   12.14    6.83
   1   1   4   12.09    5.18
  -1   1  -4   17.99    5.88
   1  -1  -4    9.10    6.38
   1  -1  -4    7.48    8.01
  -1   1  -4    5.91    5.15
  -1   2   4   86.66   10.53
  -1  -2  -4   76.09   13.22
  -1  -2  -4   69.54   10.38
   1  -2  -4   77.07   13.50
   1   2   4   65.42   10.69
   1  -2  -4   52.00    9.44
  -1   3   4  430.50   24.88
  -1  -3  -4  442.72   29.30
  -1  -3  -4  331.92   25.88
   1   3   4  368.03   24.04
   1  -3  -4  401.61   26.21
   1  -3  -4  306.04   28.03
  -1  -4  -4  954.61   53.33
  -1   4   4  911.00   52.38
   1  -4  -4  936.85   53.10
   1  -4  -4  895.08   55.20
   1   4   4  978.20   52.03
  -1   5   4  168.33   17.62
  -1  -5  -4  221.58   19.95
  -1  -5  -4  252.63   23.32
   1  -5  -4  185.00   24.18
   1  -5  -4  202.71   20.07
   1   5   4  214.49   17.19
  -1  -6  -4  114.05   21.63
  -1  -6  -4   84.97   14.95
  -1   6   4   85.49   12.49
   1   6   4   88.50   15.02
   1  -6  -4  122.98   18.24
  -1   7   4   17.18   12.09
  -1  -7  -4   19.06   12.26
  -1  -7  -4   11.19   16.02
   1  -7  -4   20.20   12.85
   1  -7  -4   30.94   15.13
   1   7   4   20.27   12.02
  -1  -8  -4    8.16   18.47
  -1   8   4   36.00   14.01
   1   8   4   47.32   14.07
   1  -8  -4   24.91   15.51
   1  -8  -4   36.60   18.33
  -1  -9  -4   -9.53   16.07
  -1  -9  -4   -2.55   22.09
  -1   9   4   47.58   16.35
   1   9   4   56.74   15.91
   1  -9  -4   22.95   17.63
   1  -9  -4   35.28   22.46
  -1 -10  -4    2.44   26.15
  -1  10   4    8.99   17.42
  -1 -10  -4  -33.91   18.46
   1  10  -4   -8.56   11.14
   1  10   4   15.08   16.80
   1 -10  -4    6.43   25.19
  -1  10  -4  -21.79   11.71
   1 -10  -4  -13.58   17.89
  -1  11   4   65.52   20.38
  -1 -11  -4   14.26   31.79
   1  11  -4   51.78   14.00
   1 -11  -4    6.89   30.31
   1  11   4   48.08   19.21
  -1  11  -4   38.82   14.42
  -1 -12  -4  -20.35   25.19
   1  12  -4    6.60   15.96
  -1 -12  -4   14.81   37.56
  -1  12   4   12.07   21.97
   1 -12  -4  -39.00   36.34
   1 -12  -4   -2.07   24.06
  -1  12  -4   11.42   15.31
   1  12   4   35.06   21.29
   1  13  -4   48.04   18.25
  -1  13   4   45.80   24.26
  -1 -13  -4   32.30   28.53
  -1  13  -4   36.29   17.96
   1 -13  -4  -32.29   33.85
   1 -13  -4   17.98   27.08
   1  13   4   34.21   23.46
  -1  14   4   15.61   26.21
   1  14  -4   -1.18   20.79
  -1 -14  -4   47.31   51.16
  -1 -14  -4  -15.27   30.78
   1 -14  -4    3.10   31.13
   1 -14  -4   -9.14   61.07
  -1  14  -4   -6.53   20.40
   1  14   4    8.40   25.71
  -1  15   4  -29.04   28.46
   1  15  -4   -3.60   24.80
  -1 -15  -4    9.54   35.30
  -1  15  -4    2.82   23.56
   1  15   4   -0.42   29.28
   1 -15  -4  -23.99   33.92
   1   0  -5  832.80   47.89
  -1   0  -5  825.49   46.76
  -1   0  -5  846.99   50.52
  -1  -1  -5   42.42   11.02
  -1  -1  -5   32.32    9.93
  -1   1  -5   36.15    8.88
   1  -1  -5   50.36   10.69
  -1   1  -5   18.11    7.65
   1  -1  -5   14.37    9.18
  -1   2   5   95.49   12.73
  -1  -2  -5  119.83   23.23
  -1  -2  -5   95.27   15.90
   1   2   5   90.80   12.52
  -1  -3  -5   84.06   16.33
  -1  -3  -5  107.24   20.03
   1  -3  -5  132.42   16.23
  -1  -4  -5  478.23   31.40
  -1  -4  -5  419.08   28.41
   1  -4  -5  401.56   31.80
   1  -4  -5  418.88   28.66
   1   4   5  425.29   26.80
  -1   5   5  473.62   30.55
  -1  -5  -5  503.08   31.88
  -1  -5  -5  511.03   34.43
   1   5   5  495.70   30.04
   1  -5  -5  471.08   35.36
   1  -5  -5  466.99   31.89
  -1   6   5  128.04   16.93
  -1  -6  -5  146.26   20.03
  -1  -6  -5  119.29   23.51
   1   6   5  131.26   16.67
   1  -6  -5  160.19   19.43
  -1  -7  -5   52.41   14.35
  -1   7   5   86.80   14.10
  -1  -7  -5   76.62   17.33
   1  -7  -5   68.74   14.66
   1  -7  -5   75.04   17.41
   1   7   5  119.70   16.58
  -1   8   5   51.48   15.27
  -1  -8  -5   -3.35   15.54
  -1  -8  -5   17.41   20.29
   1  -8  -5   14.24   18.87
   1   8   5   42.95   14.74
   1  -8  -5   22.70   16.16
  -1  -9  -5  -22.27   21.60
  -1   9   5   13.64   16.56
   1  -9  -5  -18.64   16.48
   1   9   5   10.90   15.98
   1  -9  -5   -0.72   21.27
  -1  10   5   46.47   18.10
  -1 -10  -5   -5.23   18.60
  -1 -10  -5    8.83   25.65
   1 -10  -5   12.55   18.70
   1 -10  -5    3.88   26.51
   1  10   5   40.46   17.79
  -1  11   5   -4.05   20.11
  -1 -11  -5  -31.13   22.31
  -1 -11  -5   11.96   31.72
   1 -11  -5   -8.59   30.07
   1  11   5   18.34   19.69
   1 -11  -5  -33.79   21.25
  -1  11  -5   -2.73   15.45
  -1 -12  -5   53.54   26.21
  -1  12   5  108.78   24.30
   1  12  -5  107.78   17.65
  -1 -12  -5  124.90   40.46
   1 -12  -5  133.24   39.12
   1 -12  -5   38.29   24.47
  -1  12  -5   69.04   16.56
   1  12   5   95.74   24.00
  -1 -13  -5  -27.92   27.95
  -1  13   5   14.50   24.65
   1  13  -5   14.00   17.70
   1 -13  -5  -44.20   50.05
  -1  13  -5   15.40   18.00
   1 -13  -5   -0.14   27.36
   1  13   5   42.87   25.74
   1  14  -5   18.08   20.79
  -1 -14  -5   -9.99   31.36
  -1 -14  -5    1.10   49.66
  -1  14   5   12.23   27.58
   1  14   5   46.83   27.67
  -1  14  -5   22.12   20.77
   1 -14  -5   10.13   32.09
   1 -14  -5  -20.40   46.34
  -1  15   5   -1.94   30.95
   1  15  -5    7.24   24.01
  -1 -15  -5   25.18   35.14
   1  15   5   -7.18   30.52
   1 -15  -5   -0.67   34.24
  -1  15  -5   10.55   24.15
   1 -15  -5   27.35   72.02
  -1   0  -6    0.90    9.53
   1   0  -6   -9.43   17.22
  -1   0  -6   -0.38    8.51
  -1  -1  -6  232.35   18.49
   1   1  -6  214.53   16.18
  -1  -1  -6  235.82   22.52
   1   1  -6  225.85   20.29
   1  -1  -6  224.58   22.40
  -1   1  -6  210.02   17.02
   1  -1  -6  231.36   18.25
  -1   1  -6  227.20   19.62
  -1  -2  -6   55.19   11.53
  -1  -2  -6   43.71   10.83
   1  -2  -6   78.24   14.23
   1  -2  -6   25.37   10.67
  -1   2  -6   43.24    8.07
   1   2   6   39.42    8.79
  -1  -3  -6   64.31   11.59
  -1   3   6   32.51   11.94
  -1  -3  -6   84.28   13.14
   1   3   6   50.86   10.59
   1  -3  -6   45.85   11.29
   1  -3  -6   79.86   12.23
  -1   4   6  107.26   16.16
  -1  -4  -6  173.82   23.05
  -1  -4  -6  148.10   18.30
   1  -4  -6  146.87   23.10
   1  -4  -6  157.24   18.27
   1   4   6  140.26   21.56
  -1   5   6  181.77   18.82
  -1  -5  -6  237.23   25.39
  -1  -5  -6  206.05   21.20
   1  -5  -6  189.77   21.05
   1  -5  -6  217.80   26.09
   1   5   6  206.69   18.24
  -1  -6  -6  129.50   20.80
  -1   6   6  130.33   18.07
   1  -6  -6  104.04   16.58
   1   6   6  108.72   17.34
   1  -6  -6  148.38   20.23
  -1  -7  -6   76.48   18.02
  -1   7   6   78.53   14.95
   1  -7  -6   54.86   15.78
   1   7   6   85.82   14.80
   1  -7  -6   94.60   17.73
  -1  -8  -6  -11.01   20.59
  -1   8   6    1.35   15.24
   1  -8  -6  -12.91   18.90
   1   8   6  -15.70   15.22
   1  -8  -6  -11.56   17.77
  -1   9   6    5.36   16.94
  -1  -9  -6    6.50   22.55
   1  -9  -6   21.74   18.50
   1  -9  -6  -18.22   22.15
   1   9   6  -13.25   16.75
  -1 -10  -6   -5.56   26.70
  -1  10   6    5.10   18.44
   1 -10  -6   17.70   27.35
   1  10   6   -0.48   18.48
   1 -10  -6   -7.34   33.25
  -1  11   6  133.60   23.10
  -1 -11  -6  145.76   34.47
   1 -11  -6  127.87   32.82
   1  11   6   96.73   22.92
   1  12  -6   19.52   15.34
  -1 -12  -6   -5.95   27.03
  -1  12   6   -2.04   25.16
  -1 -12  -6   60.04   55.65
   1 -12  -6   25.73   24.41
  -1  12  -6    8.69   15.79
   1  12   6   37.40   25.05
   1 -12  -6   24.36   42.25
   1  13  -6   65.26   18.58
  -1  13   6   53.02   27.72
  -1 -13  -6   23.80   29.13
  -1 -13  -6   53.00   49.84
   1  13   6   68.17   27.85
   1 -13  -6   84.36   49.05
   1 -13  -6   43.66   29.41
  -1  13  -6   57.39   17.64
  -1 -14  -6  -10.19   31.38
   1  14  -6  -11.63   21.87
  -1 -14  -6  -55.82   47.05
  -1  14   6  -13.10   30.01
   1 -14  -6  -25.11   44.93
   1  14   6  -22.61   29.38
  -1  14  -6   -0.42   20.34
   1 -14  -6    0.40   31.50
  -1   0  -7  569.52   34.46
   1   0  -7  531.89   33.96
  -1   0  -7  619.52   36.68
   1   0  -7  602.70   37.12
  -1  -1  -7   55.42   11.86
  -1  -1  -7   20.49   17.53
   1   1  -7   25.78   10.04
   1   1  -7   46.64    8.96
  -1   1  -7   28.75    9.59
  -1   1  -7   34.61    9.95
   1  -1  -7   34.03   11.34
  -1  -2  -7  107.23   13.40
  -1  -2  -7   95.97   16.20
  -1   2  -7   74.80   11.63
   1  -2  -7   69.82   12.55
   1  -2  -7   90.91   16.09
  -1  -3  -7   13.63   12.58
  -1  -3  -7    0.20   11.30
  -1   3   7  -10.57   10.80
   1   3   7  -13.69   10.33
   1  -3  -7   -2.96   11.09
   1  -3  -7   15.47   12.57
  -1   4   7  145.25   15.03
  -1  -4  -7  130.85   19.00
  -1  -4  -7  144.49   24.34
   1   4   7  101.06   16.73
   1  -4  -7  153.04   18.99
   1  -4  -7  137.66   25.21
  -1  -5  -7   74.05   15.70
  -1  -5  -7   48.75   13.98
  -1   5   7   58.38   13.54
   1   5   7   61.86   13.27
   1  -5  -7   49.66   14.17
   1  -5  -7   68.85   14.68
  -1  -6  -7   53.41   15.06
  -1  -6  -7   92.60   18.28
  -1   6   7   83.09   14.76
   1  -6  -7   65.61   16.10
   1   6   7   83.85   14.52
  -1   7   7   -5.41   15.51
  -1  -7  -7  -16.71   19.28
  -1  -7  -7  -27.40   16.14
   1   7   7  -13.16   14.74
   1  -7  -7  -12.19   17.61
   1  -7  -7    7.56   18.01
  -1  -8  -7  -29.16   17.64
  -1   8   7    3.96   16.97
  -1  -8  -7   -8.65   20.51
   1  -8  -7   -1.37   19.98
   1   8   7   -8.22   16.43
   1  -8  -7   -9.48   17.06
  -1   9   7    7.67   18.77
  -1  -9  -7    8.31   22.38
  -1  -9  -7  -31.45   18.76
   1   9   7   -7.54   18.20
   1  -9  -7  -16.97   18.67
   1  -9  -7   10.91   22.48
  -1 -10  -7  110.51   28.37
  -1  10   7   99.44   21.69
  -1 -10  -7   45.70   23.43
   1  10   7   86.91   21.08
   1 -10  -7  117.66   28.11
   1 -10  -7   59.65   22.06
  -1 -11  -7  -24.41   23.54
  -1 -11  -7    6.27   37.57
  -1  11   7  -15.29   23.12
   1  11   7  -15.16   22.87
   1 -11  -7   21.70   32.83
   1 -11  -7    2.68   23.43
  -1 -12  -7   56.80   28.31
  -1 -12  -7  124.75   43.29
  -1  12   7  114.44   28.76
   1  12   7   99.05   27.76
   1 -12  -7   93.70   41.35
   1 -12  -7   70.17   26.13
  -1 -13  -7   15.28   29.28
  -1 -13  -7   17.92   50.39
  -1  13   7  -13.13   30.06
   1  13  -7   23.38   18.17
   1 -13  -7  -10.22   28.32
   1 -13  -7   38.92   47.97
   1  13   7   10.85   29.18
  -1  13  -7   16.47   18.02
   1  14  -7   31.21   21.95
  -1 -14  -7  -31.12   47.10
  -1  14   7   -1.45   33.45
  -1 -14  -7  -19.75   31.27
   1  14   7   11.78   32.67
   1 -14  -7  -39.41   51.19
  -1  14  -7   29.33   20.39
   1 -14  -7   -0.74   32.64
  -1   0  -8   -9.50    9.76
   1   0  -8    6.96   10.87
  -1   0  -8  -23.36   11.59
   1   0  -8  -10.97   10.61
  -1  -1  -8   33.63   12.95
   1   1  -8   23.41   12.89
  -1  -1  -8   13.35   11.30
  -1   1  -8   47.33   11.11
  -1   1  -8   33.49   11.15
   1  -1  -8   25.02   12.34
   1  -1  -8   53.71   12.22
  -1  -2  -8   -8.18   13.13
  -1  -2  -8  -19.14   12.39
  -1   2  -8   -9.81    8.90
   1  -2  -8    9.81   12.65
   1  -2  -8  -10.01   11.88
  -1  -3  -8   16.84   14.34
  -1  -3  -8    2.90   12.89
   1  -3  -8    2.89   12.60
   1  -3  -8   21.86   13.85
  -1  -4  -8   16.29   15.06
  -1  -4  -8   -1.15   13.91
  -1   4   8  -14.84   16.65
   1   4   8   -6.18   18.04
   1  -4  -8   28.61   14.91
   1  -4  -8    7.71   13.57
  -1   5   8   53.47   18.18
  -1  -5  -8   81.71   17.76
  -1  -5  -8   46.47   16.94
   1  -5  -8   79.99   17.34
   1  -5  -8   74.02   16.75
  -1   6   8  -28.29   15.93
  -1  -6  -8  -11.27   18.76
   1  -6  -8   -2.93   17.34
   1  -6  -8   -6.88   16.39
  -1  -7  -8  -30.83   16.63
  -1   7   8  -26.06   16.85
  -1  -7  -8   -4.63   25.65
   1   7   8  -29.80   17.01
   1  -7  -8   11.10   20.73
   1  -7  -8   -8.51   16.97
  -1  -8  -8   -1.42   22.55
  -1  -8  -8  -16.23   18.63
  -1   8   8   -7.26   18.37
   1  -8  -8   10.33   18.03
   1  -8  -8   16.75   20.53
   1   8   8  -27.30   17.86
  -1  -9  -8   90.17   25.89
  -1   9   8   48.50   20.89
   1  -9  -8   94.07   25.01
   1   9   8   49.00   20.35
   1  -9  -8   73.12   30.02
  -1  10   8  -14.30   22.16
  -1 -10  -8   16.61   28.55
  -1 -10  -8  -21.08   22.51
   1 -10  -8  -19.10   29.04
   1 -10  -8    0.39   21.47
   1  10   8  -22.29   21.77
  -1  11   8   60.16   24.97
  -1 -11  -8  124.43   34.40
  -1 -11  -8   36.72   26.78
   1 -11  -8   83.85   26.76
   1 -11  -8  132.86   34.74
   1  11   8   96.02   25.90
  -1 -12  -8   -6.72   28.10
  -1 -12  -8   -4.70   41.42
   1 -12  -8   17.90   39.38
   1 -12  -8   -2.02   26.29
   1  12   8  -29.44   28.88
   1  13  -8   27.51   18.30
  -1 -13  -8   46.71   50.10
  -1 -13  -8    9.26   30.23
  -1  13  -8   46.29   18.52
   1 -13  -8   23.51   47.75
   1  13   8  -57.01   29.20
   1 -13  -8    8.61   28.54
  -1 -14  -8  -24.43   33.37
   1  14  -8   22.84   22.97
  -1  14  -8   -1.09   20.82
   1   0  -9   -1.55   14.27
   1   0  -9   38.86   13.09
  -1   0  -9   25.32   13.67
  -1   0  -9   18.51   20.49
   1   1  -9   15.71   11.37
  -1  -1  -9    0.89   12.40
  -1  -1  -9  -24.05   14.54
   1   1  -9  -13.63   12.28
   1  -1  -9   -0.94   13.51
  -1   1  -9    9.09   13.41
   1  -1  -9  -22.99   13.32
  -1   1  -9  -15.75   11.80
  -1  -2  -9    7.22   15.82
  -1  -2  -9    0.65   13.82
   1   2  -9   15.32   10.44
  -1   2  -9   26.19   11.40
  -1   2  -9   19.82   10.89
   1  -2  -9    2.09   14.21
   1  -2  -9   28.04   15.02
  -1  -3  -9  -11.89   14.79
  -1  -3  -9   -6.61   16.30
   1  -3  -9  -14.87   14.72
  -1   3  -9   -1.81   10.13
   1  -3  -9    5.48   15.13
  -1  -4  -9   41.48   18.00
  -1  -4  -9   12.63   16.03
   1  -4  -9   19.91   16.88
   1  -4  -9   41.08   17.29
  -1  -5  -9   11.34   19.41
  -1  -5  -9  -24.06   16.36
   1  -5  -9   14.43   17.82
   1  -5  -9   -8.94   17.03
  -1  -6  -9   10.40   20.16
  -1  -6  -9   -8.68   17.35
   1  -6  -9    2.99   19.00
   1  -6  -9  -27.84   17.53
  -1  -7  -9   -6.48   18.20
  -1  -7  -9   21.17   22.58
   1  -7  -9   22.69   18.26
   1  -7  -9   35.88   20.36
  -1  -8  -9   59.21   26.01
  -1  -8  -9   31.33   21.71
   1  -8  -9   40.46   20.53
   1  -8  -9   91.38   26.71
  -1  -9  -9  -19.86   22.69
  -1  -9  -9   -1.85   28.31
   1  -9  -9   -5.71   22.01
   1  -9  -9  -10.15   26.35
  -1 -10  -9  115.34   30.08
  -1 -10  -9   68.87   25.25
   1 -10  -9  124.31   30.93
   1 -10  -9   71.59   24.70
  -1 -11  -9   49.46   34.04
  -1 -11  -9   -5.98   26.55
   1 -11  -9  -14.70   33.91
   1 -11  -9   -9.19   24.59
  -1 -12  -9   38.10   39.77
  -1 -12  -9  -13.67   29.04
   1 -12  -9   24.09   40.40
   1 -12  -9    6.17   27.96
  -1 -13  -9    1.84   30.51
  -1 -13  -9  -20.75   47.99
   1 -13  -9    4.71   48.78
   1 -13  -9  -20.05   30.16
   1   0 -10   -5.10   15.16
   1   0 -10  -30.79   17.59
  -1   0 -10  -21.09   15.97
  -1  -1 -10  637.50   47.07
   1   1 -10  584.38   43.35
   1   1 -10  621.14   38.33
  -1  -1 -10  644.29   41.07
   1  -1 -10  615.55   46.71
  -1   1 -10  601.34   39.06
  -1   1 -10  624.46   42.18
   1  -1 -10  629.01   40.14
  -1  -2 -10  -26.34   16.11
  -1   2 -10   43.60   18.05
  -1   2 -10  -12.89   13.71
   1  -2 -10  -16.35   16.52
   1  -2 -10    0.18   17.14
  -1  -3 -10  144.17   21.80
  -1  -3 -10   86.19   18.63
  -1   3 -10   90.11   16.63
   1  -3 -10   91.46   19.34
  -1  -4 -10  -11.33   17.98
  -1  -4 -10  -13.73   19.77
   1  -4 -10  -14.60   18.32
   1  -4 -10   28.90   18.53
  -1  -5 -10   33.67   22.01
  -1  -5 -10   -0.34   18.34
   1  -5 -10    5.50   18.91
   1  -5 -10   20.39   20.62
  -1  -6 -10   22.29   23.12
  -1  -6 -10   -7.62   19.40
   1  -6 -10   16.38   21.54
   1  -6 -10   32.13   20.77
  -1  -7 -10   48.36   21.12
  -1   7  10  -27.83   28.18
   1  -7 -10   59.85   21.20
  -1  -8 -10  -17.91   25.88
  -1  -8 -10   19.01   26.18
   1  -8 -10   44.42   25.37
   1  -8 -10  -18.98   37.35
  -1  -9 -10  140.39   30.95
  -1  -9 -10   68.09   26.71
   1  -9 -10   86.99   26.34
  -1 -10 -10  -38.22   26.97
  -1 -10 -10   18.32   30.12
   1 -10 -10    6.40   29.65
   1 -10 -10  -12.94   24.87
  -1 -11 -10   69.31   34.53
  -1 -11 -10    5.44   30.04
   1 -11 -10  -12.64   26.89
   1 -11 -10   27.86   35.28
  -1 -12 -10    8.51   40.97
  -1 -12 -10  -27.07   30.70
   1 -12 -10   38.93   40.10
   1 -12 -10  -23.02   30.78
   1   0 -11 1349.06   80.95
  -1   0 -11 1371.32   80.21
   1   0 -11 1326.59   76.89
  -1   0 -11 1373.21   77.51
  -1  -1 -11  -27.27   28.46
  -1  -1 -11  -31.80   19.03
   1   1 -11  -21.67   16.44
   1   1 -11  -16.72   14.44
  -1   1 -11  -24.50   16.45
   1  -1 -11  -27.03   18.46
  -1   1 -11   24.99   24.16
  -1  -2 -11  423.21   44.61
   1   2 -11  359.45   29.29
  -1  -2 -11  408.53   34.30
  -1   2 -11  482.21   34.79
   1  -2 -11  394.14   43.28
  -1   2 -11  406.40   30.03
   1  -2 -11  404.24   33.49
  -1  -3 -11  -12.84   20.28
  -1  -3 -11  -10.38   21.21
   1  -3 -11   -7.29   20.19
   1  -3 -11   40.20   20.08
  -1   3 -11   -9.78   14.14
  -1  -4 -11   25.98   21.72
  -1  -4 -11   15.58   21.98
   1  -4 -11   -1.82   20.53
   1  -4 -11   24.55   20.90
  -1  -5 -11   26.29   24.45
  -1  -5 -11   22.23   22.69
   1  -5 -11   49.40   22.39
   1  -5 -11   -4.40   21.12
  -1  -6 -11  137.82   28.33
  -1  -6 -11   92.65   24.72
   1  -6 -11  123.38   26.58
   1  -6 -11   66.50   24.04
  -1  -7 -11    2.01   33.59
  -1  -7 -11   22.35   27.00
   1  -7 -11   20.59   30.05
   1  -7 -11   19.92   25.53
  -1  -8 -11  192.27   34.62
  -1  -8 -11   95.76   28.74
   1  -8 -11  155.82   29.68
   1  -8 -11  118.81   27.75
  -1  -9 -11  -16.33   26.63
  -1  -9 -11   19.83   28.93
   1  -9 -11  -21.38   27.94
   1  -9 -11   -3.61   28.36
  -1 -10 -11   66.52   32.01
  -1 -10 -11   19.72   28.44
   1 -10 -11    8.85   31.98
   1 -10 -11   26.93   28.83
  -1 -11 -11  -53.63   29.99
  -1 -11 -11   19.76   34.86
   1 -11 -11  -16.48   31.22
   1 -11 -11  -15.67   33.83
  -1 -12 -11  -17.67   31.58
  -1 -12 -11    5.78   41.74
  -1   0 -12  -24.01   18.86
   1   0 -12  -10.77   19.59
  -1   0 -12  -36.59   19.22
  -1  -1 -12  715.42   54.42
  -1  -1 -12  682.04   46.87
   1   1 -12  617.78   44.23
   1  -1 -12  686.33   46.12
  -1   1 -12  771.94   51.38
  -1   1 -12  685.83   45.29
   1  -1 -12  716.64   53.56
   1   2 -12  -31.80   16.34
  -1  -2 -12    3.38   32.02
  -1  -2 -12  -32.62   22.52
   1  -2 -12  -32.65   22.00
   1  -2 -12    2.76   21.20
  -1  -3 -12  100.51   24.99
   1   3 -12   68.54   16.92
  -1  -3 -12   98.48   26.01
   1  -3 -12  113.56   23.64
  -1   3 -12   58.39   17.42
   1  -3 -12   25.54   23.88
  -1  -4 -12   14.91   25.89
   1  -4 -12   22.40   23.82
  -1  -5 -12   80.60   28.15
  -1  -5 -12   82.05   28.08
   1  -5 -12   68.86   25.90
   1  -5 -12  107.43   27.44
  -1  -6 -12   19.40   28.27
  -1  -6 -12    1.45   29.25
   1  -6 -12   24.87   26.48
   1  -6 -12   17.19   28.97
  -1  -7 -12  195.71   35.78
   1  -7 -12  177.25   30.83
   1  -7 -12  115.69   31.96
  -1  -8 -12  -18.38   29.63
  -1  -8 -12    3.22   29.09
   1  -8 -12   17.71   29.10
   1  -8 -12    3.23   28.18
  -1  -9 -12   54.82   33.38
  -1  -9 -12   94.86   34.16
   1  -9 -12   59.59   31.17
   1  -9 -12   23.95   31.92
  -1 -10 -12   29.82   35.30
  -1 -10 -12  -16.22   33.93
   1 -10 -12  -45.19   31.12
   1 -10 -12    4.90   32.23
  -1 -11 -12   35.56   38.78
  -1 -11 -12    4.48   32.87
   1 -11 -12    5.67   37.05
   1 -11 -12  -26.20   31.64
   1   0 -13  674.75   50.28
   1   0 -13  878.77   58.66
  -1   0 -13  710.17   51.16
  -1   0 -13  834.68   58.94
   1   1 -13  -34.96   20.27
  -1  -1 -13  -14.24   24.64
  -1  -1 -13  -18.60   23.44
   1  -1 -13  -28.23   25.68
   1   2 -13  191.17   26.73
  -1  -2 -13  315.80   50.73
  -1   2 -13  203.86   27.90
   1  -2 -13  302.06   47.02
   1   3 -13  -43.89   27.27
  -1  -3 -13  -11.82   37.53
  -1  -3 -13   41.08   26.94
   1  -3 -13  -38.23   26.08
  -1   3 -13  -27.35   18.69
   1  -3 -13    6.75   26.02
  -1  -4 -13   39.41   31.13
  -1  -4 -13   12.87   27.47
   1  -4 -13    7.34   30.75
   1  -4 -13   29.99   26.98
  -1  -5 -13   27.02   32.84
  -1  -5 -13   14.56   28.11
   1  -5 -13   -2.03   28.99
   1  -5 -13   11.99   27.91
  -1  -6 -13  137.60   35.88
  -1  -6 -13  145.41   33.03
   1  -6 -13  114.72   30.31
   1  -6 -13   75.56   32.77
  -1  -7 -13   12.35   31.49
  -1  -7 -13   36.00   35.23
   1  -7 -13   -2.85   32.57
   1  -7 -13   12.40   31.30
  -1  -8 -13   74.70   34.66
  -1  -8 -13   83.42   32.29
   1  -8 -13   66.29   30.85
   1  -8 -13   48.02   33.53
  -1  -9 -13   -1.75   37.33
  -1  -9 -13   14.44   33.64
   1  -9 -13   25.54   32.64
   1  -9 -13   -7.23   34.50
  -1 -10 -13  -21.27   35.82
  -1 -10 -13   39.89   36.06
   1 -10 -13  -17.09   34.79
   1 -10 -13   29.80   34.87
   1   1 -14  326.98   35.32
  -1  -1 -14  395.70   39.69
   1  -1 -14  346.49   38.30
  -1  -2 -14   40.86   32.68
   1   2 -14  -34.97   23.01
  -1  -2 -14   -6.04   28.58
   1  -2 -14   70.37   33.85
   1  -2 -14   -5.25   27.63
  -1  -3 -14   61.00   29.67
  -1  -3 -14   86.90   35.21
   1   3 -14   21.71   23.37
  -1   3 -14   12.73   30.30
   1  -3 -14  128.14   35.38
   1  -3 -14   52.78   28.75
  -1  -4 -14   10.39   38.75
  -1  -4 -14   19.15   30.14
   1  -4 -14   16.65   29.44
   1  -4 -14   41.91   37.18
  -1  -5 -14   99.48   32.79
  -1  -5 -14   12.66   40.08
   1  -5 -14   29.82   41.29
   1  -5 -14   43.62   29.72
  -1  -6 -14   26.21   31.72
  -1  -6 -14  -41.55   38.79
   1  -6 -14    6.13   30.67
   1  -6 -14   29.63   38.23
  -1  -7 -14   63.94   34.49
  -1  -7 -14    5.66   38.89
   1  -7 -14   24.10   37.69
   1  -7 -14   72.36   32.67
  -1  -8 -14   12.40   40.89
  -1  -8 -14   27.93   34.85
   1  -8 -14   27.80   36.94
   1  -8 -14   35.74   34.90
  -1  -9 -14   62.19   42.52
   1  -9 -14   37.32   39.65
   1   0 -15  248.14   37.49
  -1   0 -15  232.19   37.15
   1   1 -15  -40.43   27.96
  -1  -1 -15   -9.79   30.13
  -1   1 -15  -35.15   28.28
   1  -1 -15   -0.31   28.95
   1   2 -15   50.02   28.11
  -1  -2 -15  108.67   45.08
  -1  -2 -15   44.68   31.57
   1  -2 -15  100.82   31.20
  -1   2 -15   93.55   29.01
   1  -2 -15  146.11   40.50
  -1  -3 -15   54.57   46.22
  -1  -3 -15   16.21   31.75
  -1   3 -15  -31.69   26.77
   1  -3 -15    7.69   30.69
   1  -3 -15   79.06   44.24
  -1  -4 -15   -3.97   32.49
  -1  -4 -15   54.17   48.93
   1  -4 -15   42.91   60.52
   1  -4 -15   27.52   31.78
  -1  -5 -15   40.06   34.13
  -1  -5 -15   -4.97   44.52
   1  -5 -15   80.90   44.21
   1  -5 -15   40.01   32.59
  -1  -6 -15   -8.44   35.73
  -1  -6 -15   19.88   44.21
   1  -6 -15   72.66   44.33
   1  -6 -15   28.32   33.29
  -1  -7 -15   60.36   36.06
  -1  -7 -15   35.51   46.68
   1  -7 -15   31.17   43.74
   1  -7 -15   16.58   34.41
   1   0 -16  -17.77   32.21
  -1   0 -16  -16.46   32.42
  -1  -1 -16   63.62   32.99
   1   1 -16   13.67   32.64
   1  -1 -16   68.11   34.84
  -1   1 -16    6.62   33.16
  -1  -2 -16  -40.51   32.44
   1   2 -16  -56.77   33.50
   1  -2 -16  -12.55   34.07
  -1   2 -16  -25.75   31.57
  -1  -3 -16   37.30   35.45
   1   3 -16   17.19   32.45
   1  -3 -16   34.86   34.35
  -1   3 -16    0.40   31.25
  -1  -4 -16   67.45   56.31
  -1  -4 -16   -6.86   34.87
   1  -4 -16   22.81   34.56
   1  -4 -16   36.72   54.54
  -1  -5 -16   30.77   55.97
  -1  -5 -16   53.61   36.59
   1  -5 -16   92.18   53.37
   1  -5 -16   73.11   36.57
  -1   0 -17  -21.99   38.52
   1   0 -17  -19.17   37.22
   1   1 -17  -18.04   40.15
  -1  -1 -17  -19.47   37.86
   1  -1 -17  -35.31   37.33
  -1   1 -17   18.99   37.90
   2   1   0   30.99    3.37
  -2   1   0   46.33    3.92
  -2  -1   0   37.40    5.84
  -2   1   0   34.62    5.03
  -2  -1   0   38.12    4.80
  -2   1   0   38.40    5.58
   2   2   0 2414.61  126.18
  -2   2   0 2291.77  126.51
  -2   2   0 2493.38  126.31
  -2  -2   0 2565.08  126.70
  -2  -2   0 2143.07  126.45
  -2   2   0 2255.22  126.46
   2  -2   0 2407.37  126.46
   2   3   0   93.56    7.49
   2  -3   0   90.97    9.43
  -2  -3   0   80.06   10.25
  -2  -3   0   87.30    9.48
  -2   3   0  103.34    8.14
   2  -3   0  110.81   11.98
  -2   4   0   -1.90    6.32
   2   4   0   10.96    6.50
   2  -4   0    5.16    7.73
   2  -4   0    6.67    9.99
  -2  -4   0   -8.37    7.11
  -2  -4   0   16.35   10.26
   2  -5   0   28.86   10.06
  -2  -5   0   46.80   12.69
  -2   5   0   43.88    8.58
  -2  -5   0   26.63    9.42
   2   5   0   65.54   11.10
   2   6   0  301.64   19.79
  -2  -6   0  303.45   24.41
  -2  -6   0  314.58   24.67
   2  -6   0  294.00   26.26
   2  -6   0  259.73   32.09
  -2   6   0  314.15   19.88
  -2   7   0   56.76    9.46
   2  -7   0   39.62   12.55
   2  -7   0   56.17   15.52
  -2  -7   0   31.50   16.76
   2   7   0   41.31    9.84
   2  -8   0  144.43   23.27
  -2  -8   0  124.11   33.39
  -2   8   0  137.38   15.45
   2   8   0  126.97   15.50
   2  -8   0  171.09   25.65
  -2   9   0  111.29   16.39
   2  -9   0   80.93   23.36
   2  -9   0  144.75   27.95
   2   9   0   77.76   14.09
  -2  -9   0   36.18   26.01
  -2  10   0   42.31   14.54
   2  10   0   51.47   15.06
  -2 -10   0  -10.11   24.53
   2 -10   0   34.83   17.90
   2 -10   0  101.86   27.46
  -2 -10   0   20.62   18.72
  -2 -11   0  -31.86   30.89
  -2  11   0   15.61   16.21
  -2 -11   0  -31.17   20.42
   2 -11   0  -16.46   19.73
   2  11   0   40.70   16.56
   2 -11   0  -10.36   27.02
   2  12   0  206.50   25.07
   2 -12   0  226.86   40.72
  -2  12   0  207.09   25.48
  -2 -12   0  282.94   42.39
  -2  13   0  -14.38   20.56
   2  13   0  -10.53   20.89
   2 -13   0   -7.25   27.65
   2  14   0   30.35   22.03
  -2 -14   0   24.37   34.18
  -2  14   0   21.61   22.81
   2 -14   0   25.69   31.32
   2  15   0   16.23   24.09
  -2  15   0    7.70   25.98
   2 -15   0   32.99   34.10
  -2   0   1    2.82    1.53
   2   0   1    5.39    2.23
  -2   0  -1    7.25    2.86
  -2   0   1    1.47    2.83
  -2   0   1    6.68    2.15
  -2   0  -1    2.82    3.13
   2   0  -1    4.49    1.72
  -2   1   1 3588.29  187.60
   2   1  -1 3372.56  187.74
  -2  -1  -1 3591.63  187.84
   2  -1  -1 3857.45  188.14
   2  -1  -1 3823.76  187.78
  -2   1  -1 3208.63  187.70
  -2  -1   1 3423.74  187.62
  -2   1  -1 3549.39  187.86
   2   1   1 3288.16  187.55
   2  -2   1   16.24    4.07
   2  -2   1   16.98    4.49
  -2  -2  -1    8.58    4.88
  -2   2   1   27.39    4.58
  -2  -2  -1   10.99    3.64
   2  -2  -1   16.83    4.26
  -2   2  -1   19.75    3.97
  -2   2  -1   25.46    3.72
   2  -2  -1   18.15    4.72
  -2   2  -1   22.38    5.15
   2   2   1   27.68    4.62
  -2  -3  -1  150.95   13.18
  -2  -3  -1  154.71   12.55
   2  -3   1  160.68   13.66
  -2   3   1  157.71   10.88
   2  -3   1  142.61   11.73
  -2  -3   1  137.58   11.53
  -2   3  -1  170.37   10.42
  -2   3  -1  154.41   12.36
   2  -3  -1  160.97   12.45
  -2  -3   1  168.07   12.53
   2  -3  -1  168.31   14.19
   2   3   1  170.60   11.24
  -2   3  -1  166.67   12.88
  -2   4   1   22.74    7.59
   2  -4   1   16.56    8.16
   2  -4   1   47.12   10.97
  -2  -4  -1    7.60    8.17
  -2  -4  -1   27.05   10.67
  -2   4  -1    7.37    6.76
   2  -4  -1   50.27   11.41
  -2  -4   1   14.48    7.25
   2  -4  -1   28.69    8.93
  -2  -4   1   40.39    9.40
   2  -5   1  288.85   22.23
   2   5  -1  242.95   16.41
   2  -5   1  236.98   22.22
  -2  -5  -1  194.78   22.28
  -2  -5  -1  228.70   26.21
  -2   5   1  249.65   18.02
   2  -5  -1  295.43   21.47
  -2   5  -1  290.96   17.58
  -2  -5   1  259.97   21.01
   2   5   1  273.71   18.35
   2  -5  -1  205.25   23.60
  -2  -5   1  245.60   21.30
   2   6  -1    7.66    6.75
  -2   6   1   -2.58    8.29
   2  -6   1   29.01   12.75
   2  -6   1   -3.22   10.10
  -2  -6  -1  -16.65   13.39
  -2   6  -1   -5.30    7.24
  -2  -6   1   22.20   14.47
   2  -6  -1   -4.27   10.99
  -2  -6   1   -4.56    8.75
   2  -6  -1    3.86   13.19
   2   6   1   -6.19    8.65
   2  -7   1  277.42   24.43
  -2  -7  -1  259.30   25.54
   2  -7   1  303.72   25.78
  -2   7   1  279.79   19.33
  -2  -7  -1  220.89   25.89
   2   7  -1  243.14   18.17
   2   7   1  240.80   19.81
  -2  -7   1  288.96   37.42
  -2  -7   1  255.80   24.37
   2  -7  -1  308.92   27.38
  -2   7  -1  286.34   18.92
   2  -7  -1  293.81   24.49
  -2  -8  -1   67.81   20.02
   2  -8   1   68.30   14.13
   2  -8   1   64.29   19.36
  -2   8   1   81.13   13.96
   2   8  -1   72.31   12.75
  -2   8  -1   64.10   10.73
   2  -8  -1  106.37   18.77
  -2  -8   1   50.70   22.86
  -2  -8   1   35.38   12.71
   2   8   1   49.94   12.14
  -2   9   1   81.09   13.81
   2   9  -1   54.56   12.35
  -2  -9  -1   25.34   16.76
   2  -9   1   29.85   27.69
  -2  -9   1   58.70   28.94
   2  -9  -1   77.73   22.18
   2   9   1   67.41   14.29
  -2   9  -1   35.19   12.58
   2 -10   1   47.93   18.27
  -2 -10  -1   66.11   30.18
   2 -10   1   10.21   38.87
   2  10  -1  119.78   17.12
  -2 -10  -1   56.64   19.89
   2  10   1   93.24   16.80
  -2 -10   1   37.02   18.28
  -2 -10   1   51.77   34.83
  -2  10  -1   76.65   14.64
   2 -10  -1   74.35   18.50
   2 -10  -1   82.08   27.16
   2 -11   1  219.50   34.66
  -2 -11  -1  184.45   37.22
  -2  11   1  191.12   22.54
   2  11  -1  160.02   20.73
   2  11   1  222.69   22.70
  -2  11  -1  130.65   21.05
   2 -11  -1  201.29   35.12
   2 -12   1  -21.16   22.30
   2  12  -1   10.18   18.19
  -2 -12  -1   66.90   36.73
  -2 -12  -1  -41.30   25.05
  -2  12   1   -8.07   19.63
   2  12   1   24.90   20.11
   2 -12  -1   28.12   32.68
  -2  12  -1    2.43   17.90
   2 -12  -1  -49.56   37.81
  -2 -13  -1   69.34   29.78
   2  13  -1   76.82   21.45
  -2  13   1   65.97   21.99
   2 -13  -1   12.85   27.12
  -2  13  -1   71.49   20.43
   2  13   1   73.64   21.54
  -2 -14  -1  -16.71   33.47
   2  14  -1    5.31   23.19
  -2  14   1  -21.91   24.11
  -2  14  -1  -14.74   21.89
   2  14   1   -7.79   23.02
   2 -14  -1   23.15   30.69
  -2  15   1  -37.74   27.06
  -2 -15  -1   16.87   39.52
   2  15  -1   -3.27   23.40
  -2  15  -1    7.03   24.53
   2  15   1  -17.59   24.31
   2 -15  -1  -16.73   34.40
  -2   0  -2 3975.96  215.01
   2   0   2 4166.70  214.62
  -2   0  -2 3948.90  215.02
  -2   1   2   90.45    6.81
  -2  -1  -2   85.72    7.96
  -2  -1  -2  109.44    9.80
  -2   1  -2  110.44    9.02
   2  -1  -2   91.20    9.84
   2  -1  -2   92.78    7.62
   2   1   2   89.95    7.04
  -2   2   2  313.16   17.24
  -2  -2  -2  275.55   18.38
  -2  -2  -2  280.22   17.63
   2  -2   2  292.23   17.61
   2  -2   2  263.20   16.72
  -2   2  -2  283.16   16.99
   2  -2  -2  289.33   17.32
   2   2   2  281.00   16.69
  -2   2  -2  309.60   17.72
   2  -2  -2  307.10   19.07
   2  -3   2   45.01    6.67
  -2   3   2   49.53    8.07
  -2  -3  -2   35.13    8.20
   2   3  -2   51.43    6.78
   2  -3   2   33.13    6.12
  -2  -3  -2   50.73    8.32
  -2   3  -2   38.85    7.17
  -2   3  -2   30.72    8.52
   2  -3  -2   45.22    9.36
   2  -4   2  156.35   15.12
  -2  -4  -2  153.93   18.25
  -2   4   2  147.75   14.36
   2  -4   2  107.27   16.88
  -2  -4  -2  136.57   19.50
   2  -4  -2  138.60   18.65
  -2   4  -2  162.16   20.30
  -2   4  -2  182.89   16.71
   2  -5   2   -1.97    8.72
  -2  -5  -2  -16.80   12.80
   2  -5   2   17.38   11.40
   2  -5  -2   -8.03   10.71
  -2  -6  -2   62.18   11.85
  -2  -6  -2   97.55   18.16
   2  -6   2   70.03   10.98
   2  -6   2  105.63   13.93
  -2   6   2   98.03   12.71
  -2   6  -2   94.40   10.94
   2   6   2  119.11   14.23
   2  -6  -2  112.13   17.67
   2  -6  -2   73.61   12.76
  -2  -7  -2  -25.07   15.38
  -2   7   2    6.76    9.93
   2  -7   2    3.45   15.25
   2  -7   2   -6.61   10.52
  -2   7  -2    8.27    8.19
   2  -7  -2   24.71   15.18
   2   7   2   -4.43   10.67
   2  -7  -2   16.29   13.27
   2   8  -2   43.24    9.30
  -2   8   2   65.72   12.59
   2  -8   2   44.07   12.67
  -2  -8  -2   31.93   19.47
   2  -8   2   62.59   22.93
   2   8   2   66.55   13.10
   2  -8  -2   43.26   15.15
   2  -8  -2   81.60   18.60
  -2   8  -2   46.07   10.38
  -2  -9  -2   47.54   24.25
   2  -9   2   45.84   15.17
   2   9  -2   65.68   11.84
  -2  -9  -2   18.60   16.85
   2  -9   2    9.02   26.73
   2  -9  -2   80.98   22.34
   2   9   2   96.32   15.89
  -2   9  -2   55.36   12.59
  -2 -10  -2  128.92   22.71
   2 -10   2  179.10   30.18
  -2 -10  -2  176.38   30.32
   2  10  -2  153.26   18.00
  -2  10   2  176.59   21.10
   2  10   2  202.85   22.43
   2 -10  -2  154.91   28.51
   2 -10  -2  176.75   32.13
   2  11  -2   27.94   14.73
  -2  11   2   35.47   17.76
  -2 -11  -2  -19.16   20.97
  -2 -11  -2  -19.23   29.45
   2 -11  -2    5.08   19.85
  -2  11  -2   -8.09   14.46
   2 -11  -2  -20.33   29.41
   2  11   2   52.17   17.79
  -2  12   2   76.59   21.18
   2  12  -2   78.81   17.81
  -2  12  -2   86.07   17.88
   2 -12  -2   44.80   24.81
   2 -12  -2    1.84   29.96
   2  12   2  101.70   20.65
   2  13  -2   -5.46   19.43
  -2 -13  -2   40.35   56.59
  -2  13   2  -16.09   22.77
  -2 -13  -2   -9.82   28.28
   2  13   2   16.81   21.39
  -2  13  -2  -16.33   19.31
   2 -13  -2  -19.20   26.34
   2 -13  -2  -10.36   38.05
   2  14  -2  -24.49   21.80
  -2 -14  -2   16.56   32.94
  -2  14   2  -12.98   25.05
   2 -14  -2    4.62   32.14
   2  14   2  -17.95   22.86
  -2  14  -2   -3.35   20.87
  -2 -15  -2   -8.18   39.20
   2  15  -2   -3.00   23.19
  -2  15   2    1.60   28.17
  -2  15  -2    5.16   24.80
   2 -15  -2   19.04   34.86
   2  15   2    4.85   25.77
   2   0  -3   -2.84    4.67
  -2   0  -3   -2.32    3.88
   2   0  -3   -1.18    3.90
  -2   0  -3    2.09    4.75
  -2   1   3  218.78   14.25
  -2  -1  -3  226.79   16.27
  -2  -1  -3  223.81   15.31
  -2   1  -3  241.34   14.95
   2  -1  -3  233.02   14.91
   2   1   3  264.54   14.51
  -2   1  -3  266.23   16.22
  -2  -2  -3   42.89    6.64
  -2   2   3   55.42    7.85
  -2   2  -3   52.71    8.18
   2  -2  -3   49.89    7.40
  -2   2  -3   53.14   10.10
   2   2   3   50.76    7.85
  -2  -3  -3  142.54   17.33
  -2  -3  -3  146.39   15.83
   2  -3  -3   96.15   15.45
  -2   3  -3  124.22   12.40
  -2   3  -3  105.88   15.12
   2  -3  -3  110.39   17.77
  -2  -4  -3 1165.96   63.52
  -2   4   3 1158.51   61.54
  -2  -4  -3 1186.55   62.81
  -2   4  -3  974.71   62.22
   2   4   3 1233.91   61.41
   2  -4  -3  988.64   63.50
   2  -4  -3 1100.28   62.68
  -2   5   3   99.38   13.67
  -2   5  -3   73.70   13.89
  -2   6   3   25.33   10.07
  -2  -6  -3    6.08   10.41
  -2  -6  -3   16.43   13.80
   2   6   3   35.48   10.62
   2  -6  -3   34.30   13.49
   2  -6  -3    9.62   11.72
  -2   7   3    6.13   10.75
  -2  -7  -3  -21.54   11.53
  -2  -7  -3   -5.73   15.29
   2   7   3    3.50   11.24
   2  -7  -3    8.57   13.10
  -2   7  -3   -5.91    7.39
   2  -7  -3   10.19   14.87
  -2   8   3   44.27   13.15
  -2  -8  -3   46.05   19.57
   2  -8  -3   32.46   15.63
  -2   8  -3   25.87    9.70
   2   8   3   56.16   13.33
   2  -8  -3   65.88   18.41
  -2  -9  -3   16.97   23.54
   2   9  -3   25.43   10.23
  -2   9   3   46.48   15.38
   2  -9  -3   46.35   21.91
  -2   9  -3   14.13   11.76
   2  -9  -3   58.40   18.00
   2  10  -3   22.27   11.97
  -2 -10  -3  -21.88   18.67
  -2  10   3   29.90   16.45
  -2 -10  -3   34.70   27.71
  -2  10  -3  -11.42   13.19
   2 -10  -3   15.55   25.53
   2 -10  -3   23.61   17.83
   2  10   3   27.07   16.66
  -2 -11  -3   37.61   34.15
   2  11  -3   69.74   14.44
  -2  11   3   70.14   19.06
   2 -11  -3   41.37   21.18
  -2  11  -3   69.73   15.43
   2 -11  -3  -41.56   30.51
   2  11   3   76.32   18.68
   2  12  -3    1.67   16.81
  -2 -12  -3  -26.19   25.46
  -2  12   3    8.39   21.44
  -2 -12  -3  -18.07   30.32
  -2  12  -3    8.06   16.02
   2 -12  -3  -28.05   23.62
   2  12   3    6.22   20.16
   2 -12  -3   19.98   29.38
  -2  13   3    2.84   23.56
  -2 -13  -3  -44.99   40.27
   2  13  -3    6.84   18.77
  -2 -13  -3  -19.53   27.58
   2 -13  -3   -4.14   26.50
  -2  13  -3   16.73   18.76
   2 -13  -3  -14.33   36.14
   2  13   3    6.35   21.99
  -2 -14  -3  -19.24   31.68
   2  14  -3   -0.50   21.19
  -2  14   3  -23.84   26.04
   2 -14  -3   65.15   47.71
   2 -14  -3   -3.32   29.81
   2  14   3   -3.81   24.05
  -2  14  -3    5.63   21.51
   2  15  -3   -8.90   24.60
  -2 -15  -3  -40.41   37.41
  -2  15   3   -9.25   27.62
   2  15   3    4.98   27.79
  -2  15  -3    5.84   23.80
   2 -15  -3   28.32   35.73
  -2   0  -4   76.02   10.19
   2   0  -4   73.89   12.95
   2   0  -4   67.35    9.65
  -2  -1  -4   70.70   11.94
  -2  -1  -4   66.89    8.95
   2  -1  -4   75.36    8.78
   2   1   4   78.15    9.63
   2  -1  -4   82.98   12.69
  -2   1  -4   72.79    9.89
  -2   1  -4   63.41    7.49
  -2  -2  -4  109.04   15.09
   2  -2  -4   64.61   10.27
  -2   2  -4   73.97    9.26
   2   2   4  110.72   14.02
   2  -2  -4   74.68   11.05
  -2  -3  -4 1395.33   76.37
  -2  -3  -4 1431.57   77.13
  -2   3   4 1512.81   75.40
   2  -3  -4 1373.33   77.04
  -2   3  -4 1269.31   74.77
   2  -3  -4 1295.06   75.94
   2   3   4 1385.33   75.07
  -2  -4  -4  571.17   32.88
  -2   4   4  540.39   31.32
  -2  -4  -4  570.85   34.44
   2  -4  -4  427.78   32.56
  -2   4  -4  422.51   32.18
   2   4   4  547.42   30.61
  -2  -5  -4  731.40   41.91
  -2   5   4  668.64   40.32
  -2  -5  -4  725.26   43.21
   2  -5  -4  639.80   44.36
   2  -5  -4  707.50   41.69
   2   5   4  725.53   40.18
  -2   6   4   29.56   10.68
  -2  -6  -4   39.60   13.83
  -2  -6  -4   16.92   10.90
   2  -6  -4   19.89   12.35
   2   6   4   45.85   10.62
   2  -6  -4   50.78   14.27
  -2   7   4   94.62   16.03
  -2  -7  -4   55.46   16.49
   2   7   4   83.75   12.83
   2  -7  -4   67.62   15.82
   2  -7  -4   79.06   17.00
  -2  -8  -4  -11.04   18.94
  -2  -8  -4  -21.78   14.06
  -2   8   4    7.72   13.75
   2  -8  -4   -0.34   15.38
   2   8   4   31.80   13.38
   2  -8  -4   34.55   18.34
  -2  -9  -4  -42.76   23.12
  -2   9   4    5.19   15.98
   2   9   4   25.42   14.97
   2  -9  -4    0.83   18.57
  -2   9  -4  -17.03   10.81
   2  -9  -4   17.90   21.61
  -2 -10  -4   23.11   26.93
  -2  10   4   30.96   17.73
   2  10  -4   25.05   11.32
  -2 -10  -4  -11.99   18.97
   2 -10  -4   30.37   25.18
  -2  10  -4   11.05   12.75
   2  10   4   57.50   16.72
   2 -10  -4    7.25   17.86
  -2 -11  -4    0.23   31.73
   2  11  -4    7.61   13.78
  -2  11   4   28.06   19.95
   2  11   4   35.08   19.01
   2 -11  -4  -12.93   37.95
   2 -11  -4  -29.89   29.38
  -2  11  -4  -15.00   15.05
   2  12  -4   36.88   16.06
  -2  12   4   63.78   23.69
  -2 -12  -4    6.53   25.76
  -2 -12  -4    0.63   36.91
  -2  12  -4   25.40   16.71
   2 -12  -4   43.42   24.45
   2  12   4   76.48   21.95
   2 -12  -4   47.20   37.17
  -2  13   4    2.67   23.82
   2  13  -4   15.68   18.31
  -2 -13  -4  -32.78   27.68
  -2  13  -4   -3.42   17.75
   2 -13  -4   51.33   33.66
   2  13   4   17.92   23.09
   2 -13  -4   -9.11   25.92
   2  14  -4   -6.73   21.25
  -2 -14  -4  -38.18   31.19
  -2 -14  -4   65.80   53.81
  -2  14   4   -5.03   26.43
  -2  14  -4  -16.84   20.39
   2 -14  -4  -26.93   29.27
   2 -14  -4    4.28   66.11
   2  14   4   15.98   25.91
   2  15  -4  -12.16   24.26
  -2  15   4  -21.96   29.07
  -2 -15  -4   -5.84   35.64
   2 -15  -4  -62.28   33.33
  -2  15  -4   -5.49   22.94
   2  15   4  -17.51   28.64
  -2   0  -5    0.08    8.44
   2   0  -5    0.82    8.44
  -2   0  -5    5.04   10.13
   2   0  -5   -9.05    8.30
  -2  -1  -5  703.65   41.90
   2   1  -5  708.36   40.04
  -2  -1  -5  725.89   43.42
   2  -1  -5  665.19   41.23
  -2   1  -5  753.87   42.20
  -2   1  -5  731.19   40.88
   2  -1  -5  753.61   43.08
  -2   2   5   27.12    8.24
  -2  -2  -5   26.97   11.92
  -2  -2  -5   15.00    9.33
   2  -2  -5   25.98   10.63
  -2   2  -5   17.55    8.25
   2   2   5   27.62    8.26
  -2   3   5  311.09   21.92
  -2  -3  -5  338.57   26.15
  -2  -3  -5  302.25   23.91
   2  -3  -5  358.14   23.86
   2   3   5  307.72   21.27
   2  -3  -5  295.99   26.03
  -2   4   5  976.72   61.94
  -2  -4  -5 1104.96   59.77
  -2  -4  -5 1028.07   58.48
   2  -4  -5 1041.06   59.76
   2   4   5 1051.80   57.08
   2  -4  -5  983.28   58.17
  -2   5   5  350.75   24.38
  -2  -5  -5  371.15   28.74
  -2  -5  -5  357.73   26.12
   2  -5  -5  329.26   25.76
   2  -5  -5  330.05   30.16
  -2   5  -5  341.67   23.29
   2   5   5  349.08   23.40
  -2  -6  -5  250.42   26.35
  -2   6   5  233.22   20.83
  -2  -6  -5  259.47   23.48
   2   6   5  258.66   20.26
   2  -6  -5  264.24   28.48
   2  -6  -5  283.86   23.00
  -2   6  -5  202.71   19.68
  -2   7   5   65.72   14.17
  -2  -7  -5   35.90   16.80
   2  -7  -5   22.26   16.22
   2   7   5   51.99   13.04
   2  -7  -5   55.02   16.43
  -2  -8  -5   20.13   19.40
  -2   8   5   32.98   15.92
   2  -8  -5    9.64   16.19
   2  -8  -5   31.89   18.88
   2   8   5   29.40   14.89
  -2   9   5   24.98   17.34
  -2  -9  -5  -13.52   22.74
   2  -9  -5   11.59   18.15
   2   9   5    3.90   16.13
   2  -9  -5    4.23   21.28
  -2  10   5   39.52   18.98
  -2 -10  -5  -31.78   26.53
   2 -10  -5   14.25   18.65
   2  10   5   28.69   18.14
   2 -10  -5   21.20   25.34
  -2 -11  -5   17.08   24.46
  -2 -11  -5   69.69   33.39
  -2  11   5   61.19   21.11
   2 -11  -5   61.19   31.38
   2  11   5   79.24   20.88
   2 -11  -5   29.79   22.42
  -2  12   5    6.23   23.49
  -2 -12  -5  -17.81   25.84
  -2 -12  -5    8.92   38.98
   2  12  -5   20.93   15.72
  -2  12  -5   -5.89   16.24
   2  12   5   35.04   23.21
   2 -12  -5   34.76   38.45
   2 -12  -5    0.29   24.54
  -2 -13  -5   -0.98   55.07
   2  13  -5   52.18   18.66
  -2 -13  -5   -5.87   28.60
  -2  13   5   53.20   25.87
   2  13   5   30.11   25.32
  -2  13  -5   32.21   18.08
   2 -13  -5   24.55   26.43
   2 -13  -5   69.93   44.69
  -2  14   5    9.80   27.37
   2  14  -5  -12.79   21.17
  -2 -14  -5   -2.15   31.22
  -2 -14  -5   -7.59   56.03
   2 -14  -5  -24.58   46.33
   2  14   5    9.60   28.43
  -2  14  -5    4.50   20.19
   2 -14  -5   -8.02   29.42
  -2 -15  -5  -15.24   35.71
   2  15  -5  -36.83   24.52
  -2  15   5  -46.88   30.63
   2 -15  -5  -13.99   35.01
  -2  15  -5  -22.72   23.41
   2  15   5   -4.86   31.11
  -2   0  -6  333.57   22.28
  -2   0  -6  347.49   24.89
   2   0  -6  334.73   21.41
   2   0  -6  353.24   36.32
   2   0  -6  275.65   20.44
   2   1  -6   47.47    8.89
   2   1  -6   66.45    8.41
  -2  -1  -6   76.28   11.90
  -2  -1  -6   30.91   12.38
  -2   1  -6   61.69    9.84
   2  -1  -6   44.97    9.70
  -2   1  -6   39.58   10.01
  -2  -2  -6   20.08   11.69
  -2  -2  -6   10.82    9.22
  -2   2  -6   11.98    8.28
   2   2   6    3.86    8.28
  -2   2  -6    1.24    8.25
   2  -2  -6   17.91    9.56
   2  -2  -6   38.29   10.77
  -2   3   6   19.44    9.76
  -2  -3  -6   48.06   12.65
  -2  -3  -6   24.42   10.12
   2   3   6   29.23    9.39
  -2   3  -6    6.17    8.17
   2  -3  -6   36.38   10.34
   2  -3  -6   51.32   12.17
  -2  -4  -6  207.98   21.23
  -2   4   6  199.50   18.90
  -2  -4  -6  234.69   24.74
   2  -4  -6  236.40   20.68
   2  -4  -6  221.16   25.84
   2   4   6  256.24   23.57
  -2   5   6  324.65   23.98
  -2  -5  -6  346.97   29.12
  -2  -5  -6  340.24   26.27
   2   5   6  358.58   23.78
   2  -5  -6  326.64   26.02
   2  -5  -6  310.21   30.29
  -2  -6  -6  124.85   20.84
  -2   6   6  124.26   18.22
   2  -6  -6  129.56   20.41
   2   6   6  135.49   16.96
   2  -6  -6   86.07   15.74
  -2  -7  -6   48.75   18.47
  -2   7   6   81.66   15.79
   2  -7  -6   80.87   17.51
   2   7   6   84.61   14.62
  -2   8   6   39.63   16.86
  -2  -8  -6   -4.80   20.49
  -2  -8  -6  -25.93   15.61
   2  -8  -6   23.79   17.15
   2  -8  -6   23.34   19.83
   2   8   6   10.14   15.85
  -2  -9  -6  -16.09   22.80
  -2   9   6   13.70   17.92
   2  -9  -6   11.79   22.38
   2   9   6   17.38   17.13
   2  -9  -6   14.52   19.33
  -2  10   6   45.30   19.78
  -2 -10  -6   -2.84   28.03
   2  10   6   30.34   19.25
   2 -10  -6   58.39   25.69
  -2  11   6    0.42   21.39
  -2 -11  -6  -17.92   23.74
  -2 -11  -6    4.08   32.31
   2 -11  -6   19.83   31.57
   2 -11  -6  -20.11   21.77
   2  11   6    6.01   21.78
  -2  12   6   40.30   25.26
  -2 -12  -6   25.78   26.67
   2  12  -6   70.28   16.03
  -2 -12  -6   58.36   54.80
   2 -12  -6   85.69   41.52
  -2  12  -6   48.38   16.67
   2  12   6   51.62   25.97
   2 -12  -6   48.13   25.47
  -2  13   6  -11.52   27.10
  -2 -13  -6   29.48   52.09
   2  13  -6   -7.52   17.63
  -2 -13  -6    7.09   29.45
   2 -13  -6   -7.88   26.36
   2 -13  -6   53.83   47.24
  -2  13  -6   -8.57   17.66
   2  13   6    1.66   27.38
   2  14  -6   -4.51   21.09
  -2  14   6  -41.12   29.72
  -2 -14  -6  -17.41   49.31
  -2 -14  -6  -20.14   30.53
   2 -14  -6    3.44   30.58
   2 -14  -6  -61.33   45.41
  -2  14  -6   16.23   20.62
   2  14   6    5.85   29.77
  -2   0  -7   12.65    9.98
  -2   0  -7   21.15   10.99
   2   0  -7   32.96    9.38
   2   0  -7   -2.72    9.37
  -2  -1  -7  472.61   31.85
   2   1  -7  422.91   26.43
  -2  -1  -7  434.07   28.90
   2  -1  -7  414.58   28.10
  -2   1  -7  431.55   29.82
   2  -1  -7  447.83   31.83
  -2   1  -7  451.93   27.26
  -2  -2  -7   92.97   12.96
  -2  -2  -7  121.19   17.97
  -2   2  -7  107.73   13.58
   2  -2  -7  104.34   13.34
   2  -2  -7  150.85   16.63
  -2   2  -7  120.80   18.58
  -2  -3  -7  -11.81   10.93
  -2  -3  -7    1.16   13.16
   2  -3  -7   30.00   12.06
   2   3   7  -29.10   13.51
   2  -3  -7    9.15   11.42
  -2   4   7   57.28   12.69
  -2  -4  -7   65.28   13.74
  -2  -4  -7   77.24   15.27
   2   4   7   36.83   11.77
   2  -4  -7   41.96   13.37
   2  -4  -7   85.83   14.38
  -2  -5  -7   49.06   14.01
  -2   5   7   65.03   15.53
  -2  -5  -7   77.12   16.26
   2  -5  -7   77.39   15.98
   2  -5  -7   98.48   16.46
   2   5   7   74.06   13.28
  -2  -6  -7   56.02   15.90
  -2  -6  -7   76.25   18.38
   2  -6  -7   62.49   16.25
   2   6   7  110.79   18.33
  -2   7   7   66.34   16.70
  -2  -7  -7   46.23   19.39
   2  -7  -7   93.33   19.59
   2  -7  -7   22.46   18.14
   2   7   7   45.53   15.54
  -2  -8  -7  -24.95   17.30
  -2   8   7   -6.06   17.21
  -2  -8  -7  -12.72   20.53
   2  -8  -7   12.83   18.48
   2   8   7  -20.80   16.33
   2  -8  -7    3.49   20.82
  -2   9   7    7.11   18.82
  -2  -9  -7  -16.43   23.05
   2  -9  -7   -6.12   19.91
   2   9   7   -0.73   17.97
   2  -9  -7    1.34   23.05
  -2  10   7   11.67   20.78
  -2 -10  -7  -26.08   21.25
  -2 -10  -7   32.50   27.96
   2  10   7   -1.19   19.92
   2 -10  -7  -27.17   26.40
   2 -10  -7  -25.19   20.70
  -2 -11  -7   41.84   24.77
  -2  11   7   51.91   23.94
  -2 -11  -7   46.10   37.14
   2 -11  -7   54.22   33.02
   2  11   7   45.91   23.47
   2 -11  -7   36.78   23.53
  -2 -12  -7   -0.61   26.88
  -2  12   7  -51.31   27.56
  -2 -12  -7   57.00   42.99
   2  12  -7    1.00   15.70
   2 -12  -7   44.56   40.22
   2  12   7  -21.11   26.91
   2 -12  -7    0.23   25.02
   2  13  -7   42.91   18.43
  -2  13   7    7.19   30.26
  -2 -13  -7   16.69   29.06
  -2 -13  -7    5.58   51.20
   2 -13  -7   53.85   46.76
  -2  13  -7   42.33   18.86
   2  13   7   -3.82   29.55
   2 -13  -7   11.50   28.18
  -2 -14  -7   -5.39   47.84
  -2  14   7  -52.89   33.27
   2  14  -7   -3.57   21.75
  -2 -14  -7  -20.36   31.47
  -2  14  -7   -7.81   19.82
   2 -14  -7  -33.80   31.24
   2 -14  -7  -16.80   53.70
   2  14   7  -53.98   33.26
  -2   0  -8  355.82   25.86
   2   0  -8  351.14   24.40
  -2   0  -8  368.02   40.31
   2   0  -8  372.74   29.09
   2   1  -8   70.39   13.06
  -2  -1  -8   52.35   12.80
  -2  -1  -8   49.40   13.91
   2  -1  -8   60.22   13.27
  -2   1  -8   49.56   10.45
  -2   1  -8   52.51   11.76
   2  -1  -8   85.35   15.35
  -2  -2  -8    4.70   13.98
  -2  -2  -8   -5.22   12.63
   2  -2  -8   16.94   12.30
  -2   2  -8    5.68    9.70
   2  -2  -8  -12.56   11.84
  -2  -3  -8   21.38   14.65
  -2  -3  -8    6.53   12.55
   2  -3  -8   20.27   13.36
   2   3   8    1.15   12.31
   2  -3  -8   28.19   13.59
  -2   3  -8   19.45    9.95
  -2  -4  -8    3.91   13.50
  -2   4   8  -20.41   15.15
  -2  -4  -8    3.16   15.58
   2   4   8   -5.87   13.15
   2  -4  -8   38.24   14.72
   2  -4  -8    7.93   13.89
  -2  -5  -8    6.30   14.41
  -2  -5  -8   13.48   17.29
  -2   5   8   25.84   15.99
   2  -5  -8   21.34   15.52
   2   5   8   10.22   16.17
  -2   6   8   54.97   17.31
  -2  -6  -8   66.98   19.51
  -2  -6  -8   29.11   16.77
   2   6   8   43.94   16.13
   2  -6  -8   42.22   17.09
   2  -6  -8   56.44   17.81
  -2  -7  -8   -1.16   21.26
  -2   7   8    9.90   17.89
  -2  -7  -8  -27.15   17.44
   2   7   8   -2.07   17.04
   2  -7  -8   19.47   19.95
   2  -7  -8   48.02   19.57
  -2  -8  -8  -22.76   18.18
  -2   8   8   -8.10   18.97
  -2  -8  -8   22.67   21.47
   2  -8  -8   24.71   21.35
   2  -8  -8   28.84   19.58
   2   8   8   -7.02   18.25
  -2  -9  -8   20.57   24.05
  -2   9   8  -30.71   20.52
   2  -9  -8   16.40   35.22
   2  -9  -8   11.35   25.25
   2   9   8  -31.36   20.07
  -2 -10  -8  124.63   32.20
  -2 -10  -8    9.22   24.89
   2  10   8   27.32   22.63
   2 -10  -8   45.42   22.17
   2 -10  -8   61.43   29.36
  -2 -11  -8   28.56   34.56
   2 -11  -8   15.09   32.90
   2  11   8  -11.57   25.46
   2 -11  -8   -7.67   23.90
  -2 -12  -8   46.76   42.02
  -2 -12  -8   33.33   28.49
   2 -12  -8   36.90   26.91
   2  12   8   51.53   30.04
   2 -12  -8   68.69   38.91
  -2 -13  -8  -34.27   30.71
  -2 -13  -8   -4.40   51.11
   2  13  -8    7.71   18.67
   2  13   8  -14.53   31.21
   2 -13  -8   21.76   48.37
  -2  13  -8   -1.40   18.54
   2 -13  -8  -35.19   27.62
   2  14  -8  -10.12   21.78
  -2  14  -8    3.99   20.35
   2  14   8  -65.67   32.42
   2   0  -9   12.53   12.23
  -2   0  -9  -10.75   11.90
   2   0  -9   -7.65   17.54
  -2   0  -9  -17.40   13.18
   2   1  -9   26.72   11.40
  -2  -1  -9   -7.56   14.83
  -2  -1  -9    7.66   13.87
   2   1  -9   -4.50   13.50
   2  -1  -9   21.52   13.64
  -2   1  -9  -13.33   12.31
   2  -1  -9    3.44   13.24
  -2  -2  -9    5.47   14.77
  -2  -2  -9  -17.48   15.83
  -2   2  -9   15.81   11.93
   2  -2  -9   10.57   14.36
  -2   2  -9   -0.69   11.61
   2  -2  -9   34.01   14.64
  -2  -3  -9   -7.76   17.50
  -2  -3  -9  -27.24   15.46
  -2   3  -9    0.80   11.00
   2  -3  -9   20.09   15.43
   2  -3  -9  -14.92   14.72
  -2  -4  -9    5.78   18.83
  -2  -4  -9  -19.13   17.43
   2  -4  -9   -7.40   16.00
   2  -4  -9   35.60   17.01
  -2  -5  -9   16.30   19.42
  -2  -5  -9   21.90   19.13
   2  -5  -9   63.74   17.90
   2   5   9   -4.42   14.39
   2  -5  -9   24.77   17.26
  -2  -6  -9   35.78   20.33
  -2  -6  -9    3.16   18.16
   2  -6  -9   48.07   20.43
   2  -6  -9   72.21   19.69
  -2  -7  -9    9.50   22.27
  -2  -7  -9    1.20   19.15
   2  -7  -9   18.74   21.28
   2  -7  -9   40.63   20.80
  -2  -8  -9   -2.12   21.14
  -2  -8  -9   24.84   24.95
   2  -8  -9   27.90   21.57
   2  -8  -9   50.68   29.50
  -2  -9  -9   57.83   26.89
   2  -9  -9   44.45   25.99
   2  -9  -9   39.11   22.28
  -2 -10  -9   15.68   29.78
  -2 -10  -9  -31.65   25.02
   2 -10  -9   31.45   29.08
   2 -10  -9   -8.09   24.53
  -2 -11  -9   14.53   27.23
  -2 -11  -9   65.43   34.51
   2 -11  -9   75.89   33.91
   2 -11  -9   31.97   25.57
  -2 -12  -9   28.89   40.16
  -2 -12  -9   12.87   30.41
   2 -12  -9  -37.28   37.72
   2 -12  -9    0.91   26.30
  -2 -13  -9    1.88   32.43
  -2 -13  -9  -45.46   49.49
   2 -13  -9  -19.20   30.48
  -2  13  -9   -4.49   18.63
   2 -13  -9   21.85   45.74
   2   0 -10  514.58   34.99
  -2   0 -10  547.72   36.33
   2   0 -10  510.15   53.13
   2   1 -10   26.06   14.55
  -2  -1 -10   -6.26   16.53
   2   1 -10  -15.40   14.26
  -2  -1 -10   -5.87   17.11
  -2   1 -10   17.46   23.56
   2  -1 -10  -11.08   15.73
   2  -1 -10   -8.10   18.41
  -2   1 -10   -2.04   15.44
  -2  -2 -10  139.75   25.24
   2   2 -10  158.28   18.26
  -2  -2 -10  150.62   21.25
  -2   2 -10  167.54   20.04
   2  -2 -10  132.32   20.12
  -2   2 -10  207.15   27.07
   2  -2 -10  165.77   23.54
  -2  -3 -10   -7.65   18.65
  -2  -3 -10  -25.55   18.89
   2  -3 -10   22.90   18.07
  -2   3 -10  -10.92   12.97
   2  -3 -10  -12.74   17.40
  -2  -4 -10   18.99   20.04
  -2  -4 -10    7.98   20.01
   2  -4 -10   33.30   18.40
  -2   4 -10   16.42   11.83
   2  -4 -10    5.99   18.57
  -2  -5 -10   19.44   21.50
  -2  -5 -10    0.90   20.16
   2  -5 -10   16.37   20.92
   2  -5 -10   55.93   20.22
  -2  -6 -10  -11.49   22.39
  -2  -6 -10   -8.79   22.99
   2  -6 -10   32.27   21.97
   2  -6 -10   14.94   20.24
  -2  -7 -10    0.78   22.67
   2  -7 -10   29.81   21.68
  -2  -8 -10   58.53   26.13
  -2  -8 -10   20.01   26.12
   2  -8 -10   38.54   29.38
   2  -8 -10   49.49   25.10
  -2   9  10  -20.47   26.83
  -2  -9 -10   30.13   27.80
  -2  -9 -10  -12.75   24.56
   2  -9 -10   26.66   28.69
   2  -9 -10  -10.63   23.76
  -2 -10 -10   18.48   28.53
  -2 -10 -10   89.83   31.67
  -2  10  10  -20.49   27.99
   2 -10 -10   26.22   24.72
   2 -10 -10   46.82   29.91
  -2 -11 -10    3.50   27.88
  -2  11  10  -19.25   36.84
  -2 -11 -10   21.82   34.51
   2 -11 -10  -13.81   33.01
   2 -11 -10    9.74   28.61
  -2 -12 -10   17.30   31.01
  -2 -12 -10   -6.97   40.07
   2 -12 -10  -41.78   38.22
   2 -12 -10    5.38   28.86
  -2   0 -11   15.94   18.42
  -2   0 -11   -0.28   16.07
   2   0 -11   17.87   17.31
  -2  -1 -11  768.78   47.46
   2   1 -11  636.41   49.60
   2   1 -11  727.29   44.51
   2  -1 -11  732.88   46.06
  -2   1 -11  752.82   45.65
   2  -1 -11  687.90   53.08
  -2   1 -11  756.74   51.24
  -2  -2 -11   -1.79   20.73
  -2  -2 -11  -11.96   19.99
   2   2 -11  -12.94   14.06
   2  -2 -11   -8.65   21.85
  -2   2 -11  -24.27   15.67
   2  -2 -11   23.08   19.09
  -2  -3 -11   73.02   22.47
  -2  -3 -11   63.37   22.12
   2  -3 -11   82.23   20.23
  -2   3 -11   59.15   15.52
   2  -3 -11   53.47   21.07
  -2  -4 -11   22.87   22.21
  -2  -4 -11    0.54   21.73
   2  -4 -11   36.23   20.62
   2  -4 -11    9.91   21.53
  -2   4 -11   17.56   13.41
  -2  -5 -11    7.29   23.00
  -2  -5 -11   19.86   24.20
   2  -5 -11   19.54   22.00
   2  -5 -11   52.81   22.07
  -2  -6 -11   16.74   25.11
  -2  -6 -11   31.71   25.78
   2  -6 -11   65.06   24.44
   2  -6 -11   18.54   23.39
  -2  -7 -11   82.69   27.08
   2  -7 -11  120.65   26.54
   2  -7 -11   98.69   31.83
  -2  -8 -11   35.51   28.79
  -2  -8 -11   53.31   28.02
   2  -8 -11   50.45   27.22
   2  -8 -11   31.24   25.42
  -2  -9 -11   23.86   28.06
  -2  -9 -11   71.89   30.76
   2  -9 -11   66.22   30.04
   2  -9 -11   28.58   26.38
  -2 -10 -11   -3.71   29.37
  -2 -10 -11   66.62   32.75
   2 -10 -11   32.95   31.83
   2 -10 -11  -28.28   26.99
  -2 -11 -11   42.25   34.92
  -2 -11 -11   -4.38   31.71
   2 -11 -11   22.02   35.00
   2 -11 -11  -15.13   27.25
  -2 -12 -11   -3.93   34.04
   2 -12 -11  -23.12   33.46
   2   0 -12  609.34   52.07
  -2   0 -12  795.13   54.06
   2   0 -12  634.22   44.46
  -2   0 -12  686.61   45.77
   2   1 -12  -22.62   17.04
  -2  -1 -12  -33.85   21.28
  -2  -1 -12   -4.46   21.50
  -2   1 -12  -14.87   18.32
  -2   1 -12    1.88   18.46
   2  -1 -12  -36.57   20.17
   2   2 -12  233.13   25.40
  -2  -2 -12  326.40   32.64
  -2   2 -12  270.43   27.20
   2  -2 -12  328.34   30.21
   2  -2 -12  216.94   43.31
  -2  -3 -12   27.47   24.04
  -2  -3 -12   16.52   24.44
   2  -3 -12  -29.39   25.87
   2  -3 -12   40.51   22.41
  -2   3 -12   -6.75   16.56
  -2  -4 -12   -4.86   26.15
  -2  -4 -12   -8.46   39.08
   2  -4 -12   -1.75   23.93
  -2   4 -12   13.78   15.70
  -2  -5 -12   57.73   26.58
  -2  -5 -12   19.71   27.24
   2  -5 -12   38.55   24.60
   2  -5 -12    5.99   25.11
  -2  -6 -12  142.32   38.14
  -2  -6 -12  143.96   29.41
   2  -6 -12  158.04   28.97
   2  -6 -12  108.74   29.36
  -2  -7 -12   43.95   30.08
  -2  -7 -12   68.13   29.35
   2  -7 -12   23.51   26.65
   2  -7 -12   36.59   28.96
  -2  -8 -12  103.83   31.51
  -2  -8 -12   46.03   31.36
   2  -8 -12   85.24   29.36
   2  -8 -12   38.61   28.94
  -2  -9 -12   33.85   31.32
  -2  -9 -12   34.12   33.34
   2  -9 -12   19.48   30.47
   2  -9 -12   13.84   28.91
  -2 -10 -12    6.52   32.08
  -2 -10 -12   -2.46   31.70
   2 -10 -12  -37.26   28.93
   2 -10 -12   36.14   35.05
  -2 -11 -12    3.20   35.09
  -2 -11 -12  -22.82   34.45
   2 -11 -12  -24.69   34.99
   2 -11 -12  -22.52   30.18
  -2   0 -13   19.54   23.60
   2   0 -13  -30.50   21.75
   2   0 -13   73.70   24.38
   2   1 -13  380.57   34.58
  -2  -1 -13  524.49   53.99
  -2  -1 -13  507.27   41.46
  -2   1 -13  400.31   36.87
   2  -1 -13  427.15   37.66
   2  -1 -13  493.52   49.42
  -2  -2 -13  -17.70   27.31
   2   2 -13  -34.58   18.60
  -2  -2 -13   11.57   31.56
   2  -2 -13   -5.05   24.78
  -2   2 -13  -26.74   20.25
  -2  -3 -13   24.08   27.67
   2  -3 -13   -0.64   24.47
   2  -3 -13   -8.47   26.99
  -2   3 -13   13.92   19.10
  -2  -4 -13   10.60   30.41
  -2  -4 -13   42.40   29.57
   2  -4 -13   40.21   25.59
   2  -4 -13    3.65   40.11
  -2  -5 -13  103.89   32.14
  -2  -5 -13   45.40   36.09
   2  -5 -13   83.90   27.56
   2  -5 -13  103.50   31.84
  -2  -6 -13   21.90   35.94
  -2  -6 -13   72.63   31.23
   2  -6 -13   23.86   31.82
   2  -6 -13   59.40   28.66
  -2  -7 -13   65.71   36.74
  -2  -7 -13   83.86   33.98
   2  -7 -13   71.70   32.61
   2  -7 -13   97.49   31.39
  -2  -8 -13   27.07   32.91
  -2  -8 -13   52.58   35.33
   2  -8 -13   50.11   33.36
   2  -8 -13   23.64   32.72
  -2  -9 -13   16.02   35.31
  -2  -9 -13   42.64   32.46
   2  -9 -13   -7.63   32.80
   2  -9 -13    6.30   33.33
  -2 -10 -13   57.79   36.70
  -2 -10 -13   -4.08   35.89
   2 -10 -13  -28.33   34.69
   2 -10 -13   22.32   37.08
  -2   0 -14  282.12   35.38
   2   0 -14  248.02   43.88
   2   1 -14  -34.44   24.36
  -2  -1 -14   83.05   34.42
  -2  -1 -14  -35.69   26.53
   2  -1 -14  -32.15   27.15
   2  -1 -14   47.74   33.50
   2   2 -14   87.98   23.53
  -2  -2 -14  121.60   35.66
  -2  -2 -14  145.70   29.77
   2  -2 -14   77.61   31.55
   2  -2 -14  114.27   28.54
  -2   2 -14   83.37   28.40
  -2  -3 -14   -0.83   35.71
  -2  -3 -14    4.26   29.86
   2  -3 -14   20.59   28.13
   2  -3 -14   38.63   32.59
  -2   3 -14   21.59   22.84
  -2  -4 -14   11.32   30.39
  -2  -4 -14   28.61   44.66
  -2   4 -14  -10.35   21.79
   2  -4 -14   13.83   29.08
   2  -4 -14   17.71   34.16
  -2  -5 -14   55.51   32.21
  -2  -5 -14   55.87   39.86
   2  -5 -14   32.26   38.28
   2  -5 -14   41.43   29.92
  -2  -6 -14   39.64   32.84
  -2  -6 -14   43.88   41.22
   2  -6 -14   85.00   31.48
   2  -6 -14   84.15   35.38
  -2  -7 -14   17.10   38.82
  -2  -7 -14   50.30   34.56
   2  -7 -14   25.98   37.57
   2  -7 -14   41.45   32.89
  -2  -8 -14   32.15   34.36
  -2  -8 -14   26.46   42.34
   2  -8 -14    9.60   36.77
   2  -8 -14    2.24   32.36
   2   0 -15  -27.76   28.01
  -2   0 -15  -34.49   28.77
  -2  -1 -15   68.31   30.07
   2   1 -15   45.11   28.30
  -2   1 -15  112.62   30.42
   2  -1 -15  102.25   30.20
  -2  -2 -15  -28.99   29.44
  -2  -2 -15   69.05   43.71
   2   2 -15  -28.96   28.43
   2  -2 -15    9.67   29.58
  -2   2 -15  -28.31   27.14
   2  -2 -15   98.03   44.98
  -2  -3 -15   70.92   51.78
  -2  -3 -15   -3.84   30.43
   2  -3 -15  -13.66   30.63
   2  -3 -15   77.33   45.25
  -2   3 -15  -22.33   26.11
  -2  -4 -15   14.90   33.21
  -2  -4 -15   62.79   51.16
   2  -4 -15   38.19   32.05
  -2   4 -15   25.77   27.92
   2  -4 -15  172.62   61.77
  -2  -5 -15   -1.98   46.64
  -2  -5 -15   24.79   33.98
   2  -5 -15  -26.27   31.69
   2  -5 -15   67.08   45.79
  -2  -6 -15   32.62   35.95
  -2  -6 -15   85.54   44.57
   2  -6 -15   75.88   44.00
   2  -6 -15   34.68   32.55
  -2  -7 -15   23.28   35.05
  -2  -7 -15   77.92   49.28
   2  -7 -15   16.13   43.41
   2  -7 -15   29.68   33.90
   2   0 -16   32.73   33.45
  -2   0 -16  -14.19   33.20
  -2  -1 -16  -14.21   33.88
   2   1 -16  -23.44   32.96
   2  -1 -16   18.73   31.97
  -2   1 -16   38.88   32.08
  -2  -2 -16   12.32   33.71
   2   2 -16  -14.54   32.46
   2  -2 -16   -0.35   32.65
  -2   2 -16  -30.81   30.50
  -2  -3 -16  107.25   59.20
  -2  -3 -16    3.40   33.41
  -2   3 -16  -11.90   30.07
   2  -3 -16   62.20   33.90
  -2  -4 -16  154.24   60.59
  -2  -4 -16   22.06   34.91
   2  -4 -16  129.22   54.19
   2  -4 -16   -1.00   34.09
  -2  -5 -16  148.84   60.17
   2  -5 -16   24.73   35.81
   2  -5 -16   99.28   51.56
  -2   0 -17   17.09   40.15
   2   0 -17   43.87   39.04
  -3   0   0    1.21    3.42
  -3   0   0    2.25    2.30
   3   0   0    2.49    2.68
  -3  -1   0 3960.76  192.07
   3   1   0 3654.07  191.53
  -3   1   0 3562.65  192.12
  -3  -1   0 3283.91  191.77
  -3   1   0 3520.32  191.95
  -3   2   0   98.50    9.72
  -3  -2   0  108.38   10.63
   3  -2   0  105.11   10.78
   3   2   0   89.63    7.41
   3  -2   0   96.44    8.85
  -3  -2   0  107.74    9.40
  -3   2   0  123.30    8.04
  -3   2   0   96.96   10.52
  -3   3   0   54.93    9.86
   3   3   0   75.52    9.25
  -3  -3   0   92.91   12.51
   3  -3   0   67.33    9.89
   3  -4   0   20.28   10.75
  -3  -4   0    2.80    8.82
  -3  -4   0    9.05   12.08
   3  -4   0   23.78   10.03
  -3  -5   0  478.39   32.93
   3   5   0  529.52   29.50
   3  -5   0  505.68   33.42
   3  -5   0  460.66   33.54
  -3  -5   0  514.61   32.69
  -3   5   0  512.58   29.60
   3  -6   0   50.00   11.37
   3   6   0   68.66   11.98
  -3  -6   0   54.55   10.71
  -3   6   0   81.39   12.13
  -3  -6   0   79.86   15.73
  -3  -7   0  367.72   31.03
   3   7   0  332.29   23.03
   3  -7   0  345.61   27.35
   3  -7   0  361.34   30.37
  -3  -7   0  334.47   28.61
  -3   7   0  372.40   22.92
  -3  -8   0  273.11   40.71
   3   8   0  232.88   19.52
  -3  -8   0  226.52   27.49
   3  -8   0  283.18   29.45
  -3   8   0  237.83   19.41
   3  -8   0  250.69   26.16
  -3   9   0   27.11   13.11
   3  -9   0    6.98   22.65
  -3  -9   0   -9.60   26.45
   3  -9   0   24.29   16.83
  -3  -9   0   -9.94   16.08
  -3 -10   0  198.08   33.87
   3  10   0  201.41   20.94
  -3  10   0  196.29   21.04
   3 -10   0  230.97   33.86
   3 -10   0  150.62   29.38
  -3 -11   0  118.02   24.41
  -3  11   0  158.52   21.72
   3  11   0  174.07   21.35
   3 -11   0  195.67   35.88
   3 -12   0   -1.04   22.45
  -3 -12   0  -19.56   25.30
   3 -12   0   99.17   43.23
   3  12   0    7.45   19.06
  -3  12   0   -5.51   18.70
   3 -13   0   31.53   27.26
  -3  13   0   54.03   21.07
   3  13   0   74.23   20.67
  -3  14   0    8.53   23.46
   3 -14   0   -8.66   29.90
   3  14   0  -14.89   23.00
   3  15   0  -15.68   23.47
   3 -15   0  -12.42   34.67
  -3  15   0  -16.65   25.36
  -3   0  -1 2825.98  173.72
  -3   0  -1 3307.23  174.24
  -3   0   1 3173.03  173.32
   3   0   1 3426.82  173.41
  -3   0   1 2843.68  173.49
   3   0  -1 3618.32  173.37
  -3   0   1 3581.33  173.87
  -3  -1  -1   21.53    4.96
  -3  -1  -1   18.25    4.83
   3   1  -1   22.02    3.13
  -3   1   1   16.84    3.63
  -3   1   1   25.67    3.32
   3   1  -1   18.30    2.69
  -3   1   1   22.15    7.76
  -3  -1   1   14.46    4.04
  -3   1  -1   14.70    4.42
  -3  -1   1   13.99    3.94
   3   1   1   18.57    3.38
  -3   1  -1   16.46    4.11
  -3  -2  -1  276.75   17.70
  -3  -2  -1  255.12   16.84
   3  -2   1  238.48   17.33
  -3   2   1  275.34   15.32
   3   2   1  249.64   15.18
  -3  -2   1  218.57   15.58
  -3   2  -1  264.27   18.48
   3  -2  -1  297.63   18.57
  -3   2  -1  285.29   15.08
   3  -2  -1  283.40   16.27
  -3   2  -1  237.27   16.29
  -3  -2   1  265.23   16.37
  -3  -3  -1   -2.25    7.86
   3  -3   1  -10.72   11.83
   3  -3   1    3.73    6.93
  -3   3   1   -0.47    5.25
   3  -3  -1    4.97    7.04
   3  -3  -1    7.28   12.16
  -3  -3   1    0.40    6.19
  -3  -3   1   -2.22    5.44
  -3   3  -1   11.16    6.30
  -3   3  -1    5.43    7.96
   3   3   1   22.26    8.84
   3   4  -1  204.59   13.22
   3  -4   1  173.05   20.43
  -3  -4  -1  189.24   18.94
  -3   4   1  172.88   15.49
  -3  -4  -1  144.51   19.70
   3  -4   1  135.21   17.17
  -3   4  -1  215.54   17.67
   3  -4  -1  149.17   21.55
  -3   4  -1  158.03   14.35
   3  -4  -1  169.78   17.70
  -3  -4   1  166.38   16.46
  -3  -5  -1  -11.36    9.22
   3  -5   1   10.83    9.31
   3  -5   1   13.79   12.32
   3   5  -1    9.52    6.94
   3  -5  -1   -3.09   10.15
  -3  -5   1  -12.94    8.90
  -3  -5   1    2.66   10.70
  -3   5  -1  -13.64    7.71
   3  -5  -1   -5.59   12.10
   3  -6   1  280.33   24.09
  -3   6   1  302.99   20.50
   3  -6   1  298.18   25.54
  -3  -6  -1  295.39   25.83
  -3  -6  -1  299.34   24.92
   3   6  -1  300.33   19.47
   3   6   1  306.76   21.18
  -3  -6   1  327.97   24.96
   3  -6  -1  298.82   26.41
  -3  -6   1  304.64   25.60
   3  -6  -1  316.50   24.02
  -3   6  -1  324.73   20.37
   3   7  -1  120.03   13.42
   3  -7   1  131.74   21.96
  -3  -7  -1  108.33   22.59
   3  -7   1  125.83   23.23
  -3  -7  -1  117.28   22.47
  -3   7   1  147.74   14.61
   3  -7  -1  142.13   20.65
  -3  -7   1  121.44   21.25
   3  -7  -1  135.55   24.59
  -3   7  -1  146.40   14.40
   3   7   1  131.12   15.45
  -3  -7   1  137.17   27.80
  -3  -8  -1   78.16   20.95
   3  -8   1   77.79   15.25
  -3   8   1  111.44   15.02
   3   8  -1   81.03   13.83
   3  -8  -1  105.42   19.53
   3  -8  -1   87.06   16.37
  -3   8  -1   98.66   14.88
  -3  -8   1   66.45   24.77
   3   8   1   93.59   15.68
  -3  -9  -1  190.55   31.91
  -3   9   1  249.04   21.00
   3  -9   1  174.13   32.07
   3   9  -1  220.85   19.72
  -3  -9  -1  227.12   33.13
   3  -9   1  253.38   32.05
  -3   9  -1  215.90   20.46
   3   9   1  251.60   22.11
   3  -9  -1  288.82   33.38
   3  -9  -1  255.47   29.48
  -3  -9   1  162.23   34.47
  -3  -9   1  253.87   30.68
  -3 -10  -1   93.41   31.16
   3  10  -1  101.29   17.76
   3 -10   1   27.56   26.27
  -3 -10  -1   75.93   20.29
  -3  10   1   91.38   16.39
   3 -10  -1  134.90   27.25
   3 -10  -1   80.28   20.62
   3  10   1  143.68   19.31
  -3 -11  -1   14.44   21.22
  -3  11   1   33.04   17.32
   3 -11   1   25.80   44.26
  -3 -11  -1    9.19   29.04
   3  11  -1   39.48   16.00
   3 -11   1   -5.49   19.36
  -3 -11   1   19.27   19.93
  -3  11  -1   29.06   15.65
   3 -11  -1  -12.86   23.15
   3  11   1   69.13   17.68
   3 -11  -1   -6.48   19.54
  -3  12   1  103.94   20.87
   3 -12   1  118.06   24.02
  -3 -12  -1   80.31   26.54
   3  12  -1  110.25   20.47
  -3  12  -1  111.63   19.49
   3  12   1  158.75   23.04
  -3 -13  -1  -47.21   29.82
   3  13  -1   -5.51   19.84
  -3  13   1    6.06   21.51
   3  13   1   10.91   21.64
   3 -13  -1  -15.85   27.02
  -3  13  -1   -0.38   19.95
  -3  14   1  -24.78   23.61
  -3 -14  -1  -47.74   34.03
   3  14  -1   15.83   21.67
   3 -14  -1   17.00   31.36
   3  14   1   -4.06   22.21
  -3  14  -1  -19.12   22.13
  -3 -15  -1   -9.30   39.74
  -3  15   1   17.22   26.73
   3  15  -1   14.49   23.02
  -3  15  -1    2.29   24.96
   3 -15  -1   -2.57   34.22
   3  15   1    0.64   24.71
   3   0   2    1.63    3.98
   3   0  -2   -0.41    2.62
  -3   0  -2    7.90    5.03
   3   0  -2    7.27    3.75
  -3  -1  -2  285.03   17.52
  -3  -1  -2  254.91   16.39
  -3   1   2  245.36   14.73
   3   1   2  234.39   16.28
  -3   1  -2  256.35   16.73
   3  -1  -2  252.88   15.38
   3  -1  -2  271.78   17.06
  -3   1  -2  254.45   15.85
  -3  -2  -2  148.82   12.36
  -3   2   2  157.30   10.47
  -3  -2  -2  151.63   13.73
   3  -2  -2  154.89   14.91
   3   2   2  147.82   10.66
   3  -2  -2  154.29   12.24
  -3   2  -2  142.60   11.69
  -3   2  -2  150.46   13.17
  -3   3   2  142.96   11.95
   3  -3   2  117.68   12.50
  -3  -3  -2  120.36   16.16
   3  -3   2  168.68   16.73
  -3  -3  -2  170.87   21.25
  -3   3  -2  133.67   15.67
  -3   3  -2  130.78   13.90
   3  -3  -2  122.76   13.63
   3   3   2  151.43   14.50
   3  -3  -2  135.07   17.50
   3  -4   2   80.28   10.63
  -3   4   2   95.60   10.38
  -3  -4  -2   58.74   10.66
   3  -4  -2   58.13   11.90
  -3   4  -2   60.61   10.93
   3  -4  -2   67.90   14.12
  -3   4  -2  109.22   16.42
   3  -5   2  229.78   20.95
  -3  -5  -2  195.78   21.95
  -3  -5  -2  216.20   21.34
  -3   5   2  206.34   16.90
   3  -5   2  209.92   20.13
  -3   5  -2  250.19   15.34
   3   5   2  267.29   17.23
   3  -5  -2  168.13   23.12
   3  -5  -2  177.19   21.38
  -3  -6  -2   55.90   14.56
   3  -6   2   32.17   10.29
  -3   6   2   55.92    9.52
  -3  -6  -2   28.71   11.01
   3  -6  -2   25.09   11.76
  -3   6  -2   44.78    8.31
   3  -7   2   49.25   12.22
  -3  -7  -2   62.04   16.77
  -3   7   2   70.11   11.15
   3  -7   2   39.56   21.78
   3  -7  -2   58.17   13.94
  -3   7  -2   49.84    9.34
   3   7   2   61.30   11.88
   3  -7  -2   71.08   16.39
   3   8  -2  134.80   14.18
  -3  -8  -2  120.69   21.85
   3  -8   2  124.24   25.00
  -3   8   2  155.02   16.85
   3  -8   2  157.39   24.53
   3  -8  -2  178.41   28.19
   3  -8  -2  172.94   24.01
   3   8   2  131.26   17.54
  -3   8  -2  145.50   15.76
   3   9  -2   27.61   11.54
   3  -9   2   18.81   29.43
  -3   9   2   44.72   14.51
  -3  -9  -2  -19.85   24.23
   3  -9   2    8.98   15.13
   3   9   2   38.31   14.72
   3  -9  -2   23.65   17.93
  -3   9  -2    3.00   12.69
   3  -9  -2   49.43   22.28
   3 -10   2    7.13   16.84
  -3 -10  -2   39.59   29.52
   3  10  -2   61.11   13.73
   3 -10  -2   46.19   19.72
   3  10   2   87.21   16.83
  -3  10  -2   41.76   14.50
   3 -10  -2   90.50   26.01
  -3 -11  -2   48.71   21.93
   3 -11  -2   86.85   21.23
   3 -11  -2   49.60   30.00
  -3 -12  -2  -25.97   31.54
  -3 -12  -2   24.01   36.96
  -3  12   2   20.47   20.47
   3  12  -2   12.03   17.39
   3  12   2   14.89   19.53
  -3  12  -2   -2.87   16.38
   3 -12  -2  -10.95   23.59
   3 -12  -2  -40.80   27.22
  -3  13   2  -11.72   22.42
  -3 -13  -2  -43.92   29.10
   3  13  -2    4.10   19.62
  -3  13  -2   -3.09   18.84
   3 -13  -2  -26.22   25.02
   3  13   2  -20.87   21.07
   3 -13  -2   11.83   36.68
  -3 -14  -2   31.25   34.76
  -3  14   2   12.71   25.22
   3  14  -2   -0.63   21.22
  -3  14  -2    2.31   22.10
   3  14   2   13.99   23.53
   3 -14  -2    7.44   30.13
   3  15  -2  -27.41   24.33
  -3 -15  -2  -36.86   40.22
  -3  15   2   -3.10   28.01
   3  15   2   -7.90   26.51
  -3  15  -2  -16.53   23.62
   3 -15  -2    0.44   34.39
  -3   0  -3  157.00   14.55
   3   0  -3  132.15    9.91
   3   0   3  164.44   10.88
   3   0  -3  156.14    9.77
   3   0  -3  153.76   13.03
  -3   0  -3  148.91   12.58
  -3   1   3   64.18    7.48
  -3  -1  -3   81.64    9.70
  -3  -1  -3   59.32   11.99
   3   1   3   69.47    8.18
   3  -1  -3   69.29   13.27
  -3   1  -3   61.40    9.69
   3  -1  -3   64.17    9.01
  -3   1  -3   67.87   11.69
  -3   2   3   55.20   10.74
  -3  -2  -3   65.41    9.48
   3  -2  -3   42.08    8.29
  -3   2  -3   47.13    8.15
   3  -2  -3   53.04    8.22
   3  -3   3  127.08   18.07
   3  -3   3   75.07   12.57
  -3  -3  -3  141.82   17.04
  -3  -3  -3   99.43   11.97
  -3   3  -3   93.08   17.06
   3  -3  -3  107.16   12.26
  -3  -4  -3    3.36    9.27
  -3  -4  -3   24.28   12.33
   3  -4   3  -11.89    9.40
  -3   4   3   -3.07    9.36
  -3   4  -3   -6.11    8.70
  -3   4  -3  -10.55   10.19
  -3  -5  -3  136.53   20.42
  -3   5   3   93.75   14.41
  -3   5  -3  126.22   17.62
   3  -5  -3  139.88   18.96
  -3   5  -3  126.57   15.93
   3   5   3  166.05   14.42
  -3  -6  -3   13.63   14.46
  -3  -6  -3    1.36   10.90
  -3   6   3   36.38   10.37
   3   6   3   30.92   10.22
  -3   6  -3   22.15    6.88
   3  -6  -3   28.47   12.49
   3  -6  -3   31.90   14.20
  -3   7   3   71.72   12.30
  -3  -7  -3   55.55   17.26
   3  -7  -3   40.27   13.93
   3  -7  -3   67.59   16.66
   3   7   3   88.00   14.68
  -3   7  -3   68.48   11.26
  -3  -8  -3    0.14   19.71
  -3   8   3   12.43   13.12
  -3   8  -3  -15.48    9.41
   3  -8  -3   30.47   18.02
   3   8   3   18.57   12.71
   3  -8  -3    5.49   15.58
  -3  -9  -3    1.26   23.82
  -3   9   3   43.01   15.22
   3   9  -3   36.76   10.85
  -3   9  -3   28.71   12.41
   3  -9  -3   28.45   18.71
   3  -9  -3   65.40   22.11
   3   9   3   45.00   14.97
   3  10  -3   55.33   12.61
  -3  10   3   79.94   17.27
  -3 -10  -3   -2.56   19.48
  -3 -10  -3   26.48   28.14
  -3  10  -3   38.69   14.11
   3 -10  -3   40.78   25.52
   3 -10  -3   46.87   20.36
   3  10   3   74.34   16.92
   3  11  -3   11.04   14.26
  -3  11   3   24.43   18.63
  -3 -11  -3   -6.01   35.01
  -3 -11  -3  -39.06   21.92
   3 -11  -3    6.53   21.64
  -3  11  -3  -15.48   15.95
   3 -11  -3   -9.80   30.13
   3  11   3   24.66   18.19
  -3  12   3    7.61   21.57
   3  12  -3   11.55   16.73
  -3 -12  -3  -23.76   32.13
  -3 -12  -3  -27.17   25.31
   3  12   3   11.14   20.46
  -3  12  -3   27.46   17.04
   3 -12  -3  -14.82   23.57
   3 -12  -3  -17.10   29.39
  -3 -13  -3  -26.14   28.36
  -3  13   3   15.66   23.87
  -3 -13  -3  -25.53   42.70
   3  13  -3   -4.29   19.19
   3  13   3   -0.17   22.64
   3 -13  -3   -0.25   26.58
  -3  13  -3    5.88   18.33
   3 -13  -3    8.68   34.25
   3  14  -3  -21.49   22.01
  -3  14   3  -14.93   26.20
  -3 -14  -3  -25.39   35.60
   3  14   3    5.66   24.56
   3 -14  -3  -16.09   29.63
  -3  14  -3    3.62   21.20
   3 -14  -3  -26.44   45.56
  -3 -15  -3   79.24   42.67
   3  15  -3   16.01   23.59
  -3  15   3  -19.04   27.67
  -3  15  -3  -11.24   23.73
   3 -15  -3   29.46   36.50
   3  15   3   -4.79   26.94
  -3   0  -4    5.08    8.57
   3   0  -4   -6.53    6.84
   3   0  -4    2.87    7.88
  -3   0  -4   -2.08    7.27
  -3  -1  -4   17.14    8.53
  -3  -1  -4   26.54   10.12
   3   1   4   32.90    7.16
   3  -1  -4   22.83    8.91
  -3   1  -4   20.23    7.26
   3  -1  -4   25.59    8.50
  -3   1  -4   12.83    9.18
  -3  -2  -4  108.48   16.57
  -3  -2  -4   91.04   18.36
   3  -2  -4   87.46   13.58
   3  -2  -4  111.26   12.21
  -3   2  -4   85.39   17.12
   3   2   4  134.18   13.25
  -3   3   4    9.16    9.15
  -3  -3  -4   15.60   11.89
  -3  -3  -4  -15.83   10.19
  -3   3  -4   -7.11    9.19
   3   3   4   15.28    9.41
   3  -3  -4   -7.45    9.71
  -3  -4  -4  744.07   41.95
  -3  -4  -4  726.60   43.41
  -3   4   4  771.86   40.51
   3  -4  -4  677.66   43.45
  -3   4  -4  667.05   41.48
  -3   4  -4  674.78   40.46
   3   4   4  741.28   40.07
   3  -4  -4  630.07   41.58
  -3   5   4  167.77   16.25
  -3  -5  -4  150.46   21.83
  -3  -5  -4  198.15   19.66
   3   5   4  177.32   15.74
   3  -5  -4  192.57   19.64
   3  -5  -4  122.13   22.47
  -3   5  -4  145.90   19.96
  -3  -6  -4  204.28   21.04
  -3  -6  -4  172.12   23.71
  -3   6   4  147.64   17.29
  -3   6  -4  166.03   17.53
   3  -6  -4  186.70   24.86
   3  -6  -4  219.73   20.39
   3   6   4  175.67   16.97
  -3   7   4    9.75   12.15
  -3  -7  -4  -10.30   16.35
   3  -7  -4   -1.14   13.95
   3   7   4    4.72   11.58
   3  -7  -4    0.38   15.95
  -3  -8  -4   -0.51   19.98
  -3   8   4   25.18   14.24
   3  -8  -4   29.87   18.63
   3   8   4   30.00   13.97
   3  -8  -4   10.92   16.40
  -3   8  -4   -3.87    9.15
  -3  -9  -4   15.64   24.02
  -3   9   4   36.79   16.44
   3   9   4   18.46   15.66
   3  -9  -4    5.87   18.99
   3  -9  -4   47.90   21.83
  -3 -10  -4    2.57   27.34
   3  10  -4    6.24   11.49
  -3  10   4   24.75   17.61
   3 -10  -4    7.86   20.81
   3 -10  -4    4.07   25.50
   3  10   4   20.27   17.01
  -3  10  -4  -21.50   12.96
  -3 -11  -4    3.42   32.93
  -3  11   4   35.58   20.08
   3  11  -4    3.50   13.81
   3  11   4   29.37   19.59
  -3  11  -4   -5.32   28.15
   3 -11  -4  -21.23   25.60
   3 -11  -4   21.11   29.90
   3  12  -4  -15.32   15.74
  -3 -12  -4   -0.95   35.26
  -3  12   4   -3.22   23.22
   3 -12  -4  -22.85   23.65
   3 -12  -4  -21.58   35.74
   3  12   4   12.65   21.62
  -3  12  -4    5.60   16.99
  -3 -13  -4   -7.66   28.09
   3  13  -4   -3.08   18.69
  -3 -13  -4  -28.87   39.01
  -3  13   4   -0.78   25.44
   3  13   4   36.32   23.11
   3 -13  -4    6.57   32.85
  -3  13  -4    4.13   18.35
   3 -13  -4  -28.22   26.33
  -3  14   4   -2.97   27.01
   3  14  -4  -24.16   21.98
  -3 -14  -4  -29.97   32.33
  -3  14  -4    0.62   20.30
   3  14   4  -16.07   26.14
   3 -14  -4   -6.47   30.15
  -3 -15  -4    0.88   37.78
  -3  15   4   -4.47   29.58
   3  15  -4  -16.71   24.68
   3  15   4    6.18   28.77
   3 -15  -4    7.44   34.85
  -3  15  -4  -28.21   23.83
  -3   0  -5  680.62   40.17
   3   0  -5  729.36   41.52
   3   0  -5  661.53   39.34
  -3   0  -5  694.93   41.83
  -3  -1  -5  241.89   19.80
  -3  -1  -5  172.67   25.05
  -3   1  -5  246.76   19.05
   3   1   5  249.98   17.11
   3  -1  -5  214.50   18.30
   3  -1  -5  246.38   22.53
  -3   1  -5  259.79   26.76
  -3   1  -5  193.87   18.60
  -3   2   5   18.97    8.32
  -3  -2  -5   15.48   11.28
  -3  -2  -5    2.87    9.48
  -3   2  -5    4.36    8.49
   3  -2  -5   24.85   10.41
  -3   2  -5   15.93    9.01
   3  -2  -5   12.48   10.84
   3   2   5   28.86   13.35
  -3  -3  -5  348.03   27.10
  -3   3   5  341.04   22.98
  -3  -3  -5  352.12   24.57
  -3   3  -5  291.41   21.85
   3  -3  -5  323.01   24.10
   3   3   5  338.88   22.07
   3  -3  -5  374.73   26.67
  -3  -4  -5  450.90   30.19
  -3   4   5  332.37   31.05
  -3  -4  -5  395.31   27.54
   3  -4  -5  351.47   27.32
  -3   4  -5  401.57   24.81
   3  -4  -5  405.95   29.44
  -3   4  -5  368.39   26.89
   3   4   5  404.89   24.99
  -3   5   5  580.82   35.43
  -3  -5  -5  608.98   39.34
  -3  -5  -5  600.92   36.97
  -3   5  -5  586.12   36.93
   3  -5  -5  567.12   39.26
   3  -5  -5  570.93   36.71
   3   5   5  620.25   34.96
  -3   5  -5  564.05   35.17
  -3   6   5   57.37   12.89
  -3  -6  -5   70.63   16.22
   3  -6  -5   76.81   15.05
  -3   6  -5   65.34   12.77
   3   6   5   54.84   11.79
  -3  -7  -5   47.51   17.35
  -3   7   5   56.11   14.24
  -3  -7  -5   19.68   13.88
   3  -7  -5   63.61   17.17
   3   7   5   60.02   13.29
   3  -7  -5   41.48   16.59
  -3  -8  -5   21.06   21.41
  -3   8   5   45.67   16.05
   3   8   5   39.70   15.09
   3  -8  -5   70.80   19.90
   3  -8  -5   11.08   17.35
  -3   9   5   33.84   17.42
  -3  -9  -5   -4.97   23.71
   3   9   5   17.89   16.29
   3  -9  -5   -1.60   19.11
  -3   9  -5    3.23   10.61
   3  -9  -5   16.60   21.57
  -3 -10  -5  -12.46   27.31
  -3 -10  -5  -36.82   20.12
  -3  10   5    8.36   18.86
   3 -10  -5   14.03   26.13
   3 -10  -5   16.24   21.10
   3  10   5   10.73   18.04
  -3  10  -5  -20.40   12.54
  -3 -11  -5  -32.44   23.07
  -3 -11  -5  -30.65   32.95
   3  11  -5    3.49   15.07
  -3  11   5   -6.68   21.53
  -3  11  -5  -20.33   21.55
   3 -11  -5  -18.40   30.72
   3  11   5    5.91   20.64
   3 -11  -5    5.50   22.86
  -3 -12  -5  -35.71   26.24
  -3 -12  -5    6.59   40.52
  -3  12   5   30.54   24.62
   3  12  -5   -0.62   15.75
   3 -12  -5  -24.00   39.13
   3 -12  -5   16.78   24.34
  -3  12  -5   27.99   16.65
   3  12   5   16.00   23.82
  -3  13   5   11.22   26.26
  -3 -13  -5   16.75   28.75
   3  13  -5  -19.10   18.07
   3 -13  -5  -36.89   26.77
   3 -13  -5   -6.22   44.58
  -3  13  -5   -5.13   18.40
   3  13   5    3.14   25.91
  -3 -14  -5   91.32   56.89
  -3 -14  -5  -34.85   31.98
  -3  14   5   -1.06   28.38
   3  14  -5   41.35   22.00
   3 -14  -5  -15.80   47.22
  -3  14  -5   -7.42   19.59
   3 -14  -5  -38.71   29.22
   3  14   5   15.56   27.43
  -3 -15  -5  -24.14   38.16
  -3  15   5  -10.60   31.11
   3  15  -5  -10.37   24.36
   3 -15  -5   18.61   33.49
  -3  15  -5   -9.73   24.05
   3  15   5    1.98   30.63
   3   0  -6   14.55    8.26
  -3   0  -6    7.89   10.30
   3   0  -6    5.29    9.62
  -3   0  -6   -0.41    8.36
  -3  -1  -6  360.43   27.70
   3   1  -6  363.46   26.43
   3   1  -6  368.73   22.79
  -3  -1  -6  369.45   25.23
  -3   1  -6  379.17   27.32
  -3   1  -6  371.53   24.24
   3  -1  -6  389.82   27.52
   3  -1  -6  356.75   24.05
  -3  -2  -6   75.92   11.99
  -3  -2  -6   87.03   13.03
   3   2   6   82.95   10.16
   3  -2  -6   91.64   12.13
   3  -2  -6   94.91   18.79
  -3   2  -6   83.65   16.69
  -3   2  -6   75.18   13.12
  -3   3   6   99.92   15.98
  -3  -3  -6  123.28   18.07
  -3  -3  -6  111.98   21.83
  -3   3  -6  125.29   13.67
   3   3   6  121.14   14.59
   3  -3  -6  146.30   17.31
   3  -3  -6  139.56   19.96
  -3   3  -6  107.95   16.71
  -3   4   6  401.04   27.03
  -3  -4  -6  464.21   32.43
  -3  -4  -6  399.75   29.03
   3  -4  -6  425.49   31.68
   3  -4  -6  404.23   28.50
  -3   4  -6  401.31   26.05
   3   4   6  407.45   26.57
  -3  -5  -6  114.71   16.48
  -3   5   6  152.57   15.50
  -3  -5  -6  119.41   20.23
   3   5   6  129.00   16.54
   3  -5  -6  177.81   19.71
  -3   5  -6  140.77   16.03
   3  -5  -6  124.21   24.32
  -3  -6  -6  198.05   23.81
  -3   6   6  205.60   20.83
  -3  -6  -6  190.92   27.35
   3  -6  -6  224.29   23.35
   3   6   6  209.78   19.58
   3  -6  -6  185.91   29.26
  -3   6  -6  216.12   20.66
  -3  -7  -6  129.67   24.00
  -3   7   6  159.50   20.56
   3  -7  -6  171.01   31.74
  -3   7  -6  129.48   19.90
   3  -7  -6  159.22   23.71
   3   7   6  149.90   19.42
  -3   8   6   49.02   17.18
  -3  -8  -6    5.36   16.51
  -3  -8  -6   15.17   20.77
   3  -8  -6   80.60   20.55
   3   8   6   40.97   15.90
   3  -8  -6   35.25   18.78
  -3  -9  -6  -15.51   19.45
  -3  -9  -6   23.71   23.95
  -3   9   6   11.45   18.22
   3  -9  -6   33.00   22.19
   3  -9  -6   29.52   20.86
   3   9   6   13.40   16.75
  -3 -10  -6    5.48   26.74
  -3  10   6   -3.38   19.59
   3  10   6    2.02   18.78
   3 -10  -6   13.93   25.94
   3 -10  -6    7.95   38.65
  -3 -11  -6   -3.33   24.66
  -3  11   6   -0.73   22.56
  -3 -11  -6    5.58   33.91
   3 -11  -6    6.04   22.01
   3  11   6   20.56   22.22
   3 -11  -6    9.97   33.55
  -3  11  -6   15.01   15.31
  -3  12   6  -13.29   25.60
   3  12  -6  -14.75   15.65
  -3 -12  -6  -45.01   26.06
  -3 -12  -6  -37.52   54.96
   3 -12  -6   18.15   26.35
   3  12   6    2.55   24.10
  -3  12  -6  -19.04   16.38
   3 -12  -6  -16.72   40.09
  -3 -13  -6   -2.84   28.67
   3  13  -6    9.43   18.91
  -3 -13  -6   49.86   48.46
  -3  13   6   25.91   27.72
   3 -13  -6   38.90   48.07
   3  13   6   21.31   27.25
   3 -13  -6  -14.99   27.30
  -3  13  -6   36.57   18.85
   3  14  -6  -21.96   21.88
  -3 -14  -6  106.51   52.10
  -3  14   6  -20.81   30.29
  -3 -14  -6   -0.83   31.83
   3 -14  -6   13.03   29.67
   3 -14  -6   -7.44   43.56
   3  14   6  -23.43   30.41
  -3  14  -6   -3.90   19.86
  -3   0  -7  623.17   42.72
  -3   0  -7  646.19   38.60
   3   0  -7  673.64   40.13
   3   0  -7  638.73   37.38
   3   1  -7   55.13    8.90
  -3  -1  -7   37.74   11.03
   3   1  -7   31.43    9.79
  -3   1  -7   48.85   10.84
  -3   1  -7   38.51   10.28
   3  -1  -7   42.95   12.86
  -3  -2  -7   35.07   12.25
  -3  -2  -7   49.09   13.39
  -3   2  -7   48.18   17.54
   3  -2  -7   37.49   10.68
  -3   2  -7   60.91   10.84
  -3  -3  -7  116.25   23.57
  -3  -3  -7  106.41   19.11
   3  -3  -7  131.24   22.32
   3  -3  -7  152.28   18.08
   3   3   7  119.93   21.29
  -3   3  -7  130.65   14.23
  -3  -4  -7   19.00   14.30
  -3   4   7   18.61   13.45
  -3  -4  -7    3.13   12.64
  -3   4  -7   28.77    9.78
   3  -4  -7   53.76   14.30
   3   4   7    1.31   15.25
   3  -4  -7   24.69   13.03
  -3  -5  -7  149.89   22.51
  -3   5   7  134.84   24.42
  -3  -5  -7  159.37   27.66
   3   5   7  163.96   18.65
   3  -5  -7  180.12   21.49
  -3   5  -7  161.20   17.10
   3  -5  -7  178.20   28.45
  -3  -6  -7  157.05   24.38
  -3   6   7  183.27   22.09
   3  -6  -7  176.87   31.91
   3  -6  -7  224.19   24.57
   3   6   7  180.82   20.65
  -3   6  -7  189.07   20.76
  -3  -7  -7  134.34   25.91
  -3   7   7  144.52   22.37
   3  -7  -7  189.65   34.56
  -3   7  -7  147.83   21.47
   3  -7  -7  212.22   25.74
   3   7   7  161.24   21.33
  -3  -8  -7  121.56   23.47
  -3   8   7  140.77   22.26
   3  -8  -7  185.39   36.19
   3   8   7  136.59   22.04
  -3  -9  -7   32.71   25.47
  -3   9   7  -14.09   18.31
   3   9   7   -5.39   18.01
   3  -9  -7   10.15   20.74
   3  -9  -7    0.74   22.18
  -3  10   7  -11.64   20.48
  -3 -10  -7   10.72   28.82
   3 -10  -7   18.78   29.97
   3 -10  -7  -13.96   23.32
   3  10   7  -36.93   20.09
  -3 -11  -7    2.22   26.24
  -3 -11  -7   -0.89   34.22
  -3  11   7  -39.57   23.40
   3  11   7  -22.71   23.57
   3 -11  -7   -7.88   22.85
   3 -11  -7    5.75   32.09
  -3  12   7  -23.95   28.21
  -3 -12  -7   -0.52   42.05
   3  12  -7   30.85   16.09
  -3 -12  -7   -8.18   26.33
   3 -12  -7   57.56   39.19
   3  12   7    8.52   27.11
   3 -12  -7    0.57   24.71
  -3  12  -7   24.54   17.25
  -3 -13  -7   -8.88   27.97
   3  13  -7   -8.49   18.54
  -3 -13  -7   50.27   52.68
   3 -13  -7   -5.17   47.32
  -3  13  -7  -13.93   18.57
   3  13   7    6.46   29.41
   3 -13  -7   -6.29   29.57
   3  14  -7   13.16   21.41
  -3 -14  -7   56.65   50.69
  -3 -14  -7  -37.20   32.67
  -3  14   7  -64.28   33.54
  -3  14  -7    0.00   20.84
   3  14   7    7.84   33.31
   3 -14  -7    6.10   56.09
   3 -14  -7   -9.33   31.72
   3   0  -8    6.86   11.14
  -3   0  -8   15.41   10.97
   3   0  -8   15.97   10.62
  -3   0  -8   -6.55   12.42
   3   1  -8  126.90   14.07
  -3  -1  -8  114.94   18.52
  -3  -1  -8   73.58   13.77
  -3   1  -8  103.52   16.40
  -3   1  -8   89.27   13.02
   3  -1  -8  111.70   16.67
   3  -1  -8  137.47   22.34
  -3  -2  -8   99.59   15.70
  -3  -2  -8  114.73   16.56
  -3   2  -8  104.47   16.01
   3  -2  -8  129.59   17.64
  -3   2  -8   83.31   19.08
   3  -2  -8  107.00   14.57
  -3  -3  -8  -14.23   15.04
  -3  -3  -8  -11.74   13.73
  -3   3  -8   -8.49   10.03
  -3   3  -8   14.21    9.78
   3  -3  -8   -3.34   13.30
   3  -3  -8   20.86   13.79
   3   3   8   -8.33   12.31
  -3  -4  -8   27.13   16.63
  -3  -4  -8    7.75   14.99
  -3   4   8  -12.98   16.04
   3  -4  -8   23.92   14.53
   3  -4  -8   57.19   15.56
  -3   4  -8   27.46   10.48
  -3  -5  -8   63.90   19.00
  -3   5   8   55.82   16.45
  -3  -5  -8   27.54   17.34
   3   5   8   59.81   14.79
  -3   5  -8   78.00   12.81
   3  -5  -8   39.89   16.31
  -3  -6  -8  175.00   26.02
  -3   6   8  147.15   24.11
  -3  -6  -8  106.07   19.71
   3   6   8  162.08   21.76
   3  -6  -8  216.09   33.98
  -3  -7  -8  179.97   34.57
  -3   7   8  159.88   25.09
  -3  -7  -8  189.90   28.29
   3  -7  -8  261.25   27.46
  -3   7  -8  240.00   23.64
   3  -7  -8  239.71   38.33
   3   7   8  200.09   23.98
  -3  -8  -8   37.02   23.48
  -3  -8  -8    0.16   19.38
  -3   8   8   21.80   19.28
   3  -8  -8   51.63   22.11
   3   8   8   16.16   18.39
   3  -8  -8   25.18   21.32
  -3  -9  -8  -51.49   33.00
  -3  -9  -8    1.42   25.90
  -3   9   8  -30.85   19.34
   3  -9  -8   19.52   34.24
   3   9   8    6.70   20.68
  -3 -10  -8  -42.05   23.19
  -3 -10  -8    7.71   29.72
   3 -10  -8   -7.10   27.87
   3 -10  -8    4.32   21.37
   3  10   8   -6.80   22.60
  -3 -11  -8   63.53   34.57
  -3 -11  -8  -16.68   25.19
   3 -11  -8   36.83   32.35
   3  11   8    2.33   26.03
   3 -11  -8   -3.81   23.58
   3  12  -8    0.10   15.55
  -3 -12  -8  -13.26   42.16
  -3 -12  -8  -20.78   28.19
   3 -12  -8   -8.57   25.36
   3  12   8  -12.46   30.17
   3 -12  -8  -25.57   39.50
  -3 -13  -8  -49.37   28.56
  -3 -13  -8   49.92   53.42
   3  13  -8  -24.60   18.64
   3  13   8  -21.90   31.80
  -3  13  -8   12.61   19.11
   3 -13  -8   16.89   27.36
   3 -13  -8   23.31   44.84
   3  14   8  -28.79   35.08
  -3   0  -9    7.59   13.94
  -3   0  -9   23.79   15.03
   3   0  -9   36.97   12.88
  -3  -1  -9    6.69   13.80
   3   1  -9   23.85   13.97
  -3  -1  -9   35.53   15.63
   3   1  -9   51.82   11.70
   3  -1  -9   25.63   13.69
  -3   1  -9   17.37   13.36
  -3  -2  -9  -10.10   16.25
   3   2  -9   10.91   10.63
  -3  -2  -9  -11.50   14.36
   3  -2  -9    3.40   14.37
  -3   2  -9    3.11   12.97
  -3   2  -9   12.11   11.76
   3  -2  -9   40.17   14.44
  -3  -3  -9   -5.80   16.05
  -3  -3  -9   18.26   17.72
   3  -3  -9   32.01   15.40
  -3   3  -9   20.18   18.59
  -3   3  -9   14.16   11.99
   3  -3  -9   39.66   15.64
  -3  -4  -9  -24.61   18.70
  -3  -4  -9  -19.43   17.10
   3  -4  -9    2.03   16.49
  -3   4  -9   16.87   11.42
   3   4   9   -2.99   16.95
  -3  -5  -9   88.02   21.65
  -3  -5  -9   46.68   19.58
   3  -5  -9   58.64   18.44
  -3   5  -9   76.71   13.76
  -3  -6  -9   54.17   19.84
  -3  -6  -9   89.54   21.25
   3  -6  -9  115.69   21.25
   3  -6  -9   69.87   19.91
  -3  -7  -9    9.49   21.01
  -3  -7  -9   42.07   21.84
   3  -7  -9   78.11   21.68
   3  -7  -9   54.54   20.20
  -3  -8  -9  -25.91   34.13
  -3  -8  -9  -12.07   23.98
   3  -8  -9   17.28   23.74
  -3  -9  -9  -27.53   22.92
  -3  -9  -9   33.21   27.05
   3   9   9  -20.75   16.71
   3  -9  -9   29.07   25.58
   3  -9  -9  -12.22   22.29
  -3 -10  -9  -38.30   26.57
  -3 -10  -9    8.93   28.40
   3 -10  -9   -0.09   28.14
   3  10   9  -11.79   17.71
   3 -10  -9    5.69   24.02
  -3 -11  -9   11.81   34.23
  -3 -11  -9  -18.77   26.77
   3 -11  -9  -27.32   31.90
   3  11   9  -21.02   20.29
   3 -11  -9    3.14   26.55
  -3 -12  -9  -27.38   29.03
  -3 -12  -9   10.16   40.80
   3 -12  -9  -12.19   27.26
   3 -12  -9   60.53   39.09
  -3 -13  -9   -2.85   29.79
   3  13  -9   -9.91   19.93
  -3 -13  -9   48.28   52.88
   3  13   9  -44.36   28.24
  -3  13  -9   -4.12   18.61
   3 -13  -9    6.88   28.99
   3 -13  -9   -4.16   46.18
   3   0 -10    5.86   17.56
  -3   0 -10   19.27   21.85
  -3   0 -10   28.25   17.04
  -3  -1 -10  110.44   18.86
  -3  -1 -10  131.33   24.82
   3   1 -10  117.41   17.45
  -3   1 -10  149.23   29.36
  -3   1 -10  165.53   21.19
   3  -1 -10  118.20   28.55
  -3  -2 -10  -13.35   19.01
   3   2 -10   27.04   12.37
  -3  -2 -10  -25.21   16.94
  -3   2 -10   10.74   13.54
  -3   2 -10    4.13   14.31
   3  -2 -10   21.96   16.83
   3  -2 -10  -12.94   16.54
  -3  -3 -10   45.89   19.85
  -3  -3 -10    5.75   18.91
  -3   3 -10   38.14   13.27
  -3   3 -10   34.23   13.77
   3  -3 -10   54.75   18.38
   3  -3 -10   20.23   17.65
  -3  -4 -10    3.79   20.64
  -3  -4 -10   20.24   20.86
   3  -4 -10   26.27   18.72
  -3   4 -10   -2.14   12.66
   3  -4 -10   47.26   18.70
  -3  -5 -10   -2.71   20.30
  -3  -5 -10   -5.20   20.64
  -3   5 -10   -3.90   13.88
   3  -5 -10   20.96   19.78
   3  -5 -10    4.97   19.41
  -3  -6 -10    0.39   22.64
  -3  -6 -10   44.83   23.28
   3  -6 -10   55.81   21.68
   3  -6 -10   69.23   20.97
  -3  -7 -10   16.48   38.76
  -3  -7 -10   -8.48   22.32
   3  -7 -10   15.29   30.19
   3  -7 -10   -7.42   23.51
  -3  -8 -10   -4.15   24.41
  -3  -8 -10   47.89   29.20
   3  -8 -10   63.95   25.51
   3  -8 -10   12.48   27.79
  -3   9  10  -13.76   42.79
  -3  -9 -10  -31.55   25.16
  -3  -9 -10   28.94   28.48
   3  -9 -10    1.56   23.50
   3  -9 -10   12.99   27.06
  -3 -10 -10   50.50   30.18
  -3  10  10   18.99   37.87
  -3 -10 -10    7.11   28.53
   3 -10 -10   12.16   26.31
   3 -10 -10   50.95   31.51
  -3 -11 -10   -4.63   27.87
  -3 -11 -10   13.77   34.19
   3 -11 -10  -18.45   25.97
   3 -11 -10   42.56   35.33
  -3 -12 -10   -9.99   39.64
  -3 -12 -10    5.70   29.33
   3 -12 -10    4.60   29.51
   3 -12 -10    0.58   40.51
   3   0 -11  549.94   39.74
  -3   0 -11  679.41   48.84
   3   0 -11  533.79   47.66
  -3   0 -11  682.61   41.77
  -3  -1 -11   24.64   20.93
  -3  -1 -11    0.89   28.17
   3   1 -11   39.89   16.40
   3  -1 -11   -2.81   18.20
  -3   1 -11   33.16   17.79
   3  -1 -11   49.84   18.35
  -3   1 -11   35.02   16.73
  -3  -2 -11  176.38   27.80
   3   2 -11  153.03   20.06
   3  -2 -11  168.37   25.26
  -3   2 -11  178.14   22.79
  -3  -3 -11   -7.77   22.01
  -3  -3 -11  -25.38   21.22
   3  -3 -11   35.24   19.70
  -3   3 -11    1.53   14.48
   3  -3 -11  -19.06   19.34
  -3  -4 -11  -11.72   22.77
  -3  -4 -11  -13.38   22.96
  -3   4 -11  -20.36   13.94
   3  -4 -11   36.08   19.56
   3  -4 -11   -1.96   20.65
  -3  -5 -11   15.08   30.26
  -3  -5 -11   -7.93   23.48
   3  -5 -11   35.16   22.65
  -3   5 -11   13.87   15.55
   3  -5 -11   -4.27   21.55
  -3  -6 -11   11.97   25.14
  -3  -6 -11   63.65   27.62
   3  -6 -11   62.86   24.39
   3  -6 -11   40.42   24.73
  -3  -7 -11   16.54   36.68
  -3  -7 -11   65.19   29.85
   3  -7 -11   68.42   42.20
   3  -7 -11   87.48   25.66
  -3  -8 -11   34.75   29.33
  -3  -8 -11   13.84   27.17
   3  -8 -11   19.92   25.38
   3  -8 -11   51.13   26.36
  -3  -9 -11   24.63   27.69
  -3  -9 -11   77.93   29.40
   3  -9 -11   51.72   26.36
   3  -9 -11   43.31   30.00
  -3 -10 -11   -7.71   30.37
  -3 -10 -11   40.89   32.02
   3 -10 -11   24.91   31.09
   3 -10 -11  -20.45   27.40
  -3 -11 -11    2.71   30.32
  -3 -11 -11  -22.37   34.49
   3 -11 -11   17.72   34.96
   3 -11 -11  -12.91   29.01
  -3   0 -12    6.68   20.40
   3   0 -12   20.23   18.92
  -3   0 -12  -10.75   20.43
  -3  -1 -12  441.45   47.85
   3   1 -12  357.98   30.40
  -3  -1 -12  452.98   35.33
   3  -1 -12  390.71   32.99
   3  -1 -12  305.34   44.01
  -3   1 -12  374.47   33.21
  -3   1 -12  421.40   41.12
   3   2 -12  -19.40   16.27
  -3  -2 -12   14.71   23.69
  -3  -2 -12    7.15   42.16
  -3   2 -12   62.57   25.34
  -3   2 -12    0.78   18.06
   3  -2 -12  -27.31   22.83
   3  -2 -12   42.06   20.02
  -3  -3 -12  -11.52   25.49
  -3  -3 -12   26.37   26.44
  -3   3 -12   29.17   16.92
   3  -3 -12   53.40   21.91
  -3  -4 -12   47.50   27.18
  -3  -4 -12  -17.71   26.38
   3  -4 -12   31.69   29.48
   3  -4 -12   -0.57   24.08
  -3   4 -12   -8.69   16.01
  -3  -5 -12   54.57   27.90
  -3  -5 -12   27.48   28.48
   3  -5 -12   28.58   25.32
   3  -5 -12   94.73   25.34
  -3  -6 -12   66.44   28.87
   3  -6 -12  102.93   27.81
   3  -6 -12   26.29   27.66
  -3  -7 -12  110.36   32.76
  -3  -7 -12  116.10   30.45
   3  -7 -12  100.91   28.54
   3  -7 -12   67.85   28.36
  -3  -8 -12   63.58   29.72
  -3  -8 -12   62.63   31.65
   3  -8 -12   74.75   29.89
   3  -8 -12   35.25   30.86
  -3  -9 -12    1.17   31.47
  -3  -9 -12   30.12   32.51
   3  -9 -12   24.34   31.45
   3  -9 -12  -24.31   28.90
  -3 -10 -12   40.23   33.49
  -3 -10 -12   -5.69   31.61
   3 -10 -12  -21.93   31.83
   3 -10 -12   48.49   32.56
  -3 -11 -12   -4.55   33.49
  -3 -11 -12   34.71   36.56
   3 -11 -12    5.51   31.31
  -3   0 -13  459.16   49.96
  -3   0 -13  383.23   36.81
   3   0 -13  366.31   34.01
   3   0 -13  319.72   66.72
  -3  -1 -13   -2.38   26.56
   3   1 -13   -7.59   20.20
  -3   1 -13   44.44   25.78
   3  -1 -13  -15.54   24.22
  -3   1 -13  -34.59   21.97
   3  -1 -13   13.04   23.30
  -3  -2 -13  113.11   31.03
   3   2 -13   64.70   19.49
  -3  -2 -13   82.52   26.89
   3  -2 -13   80.33   26.98
  -3   2 -13   62.27   21.45
  -3  -3 -13   16.61   27.21
   3   3 -13   -3.84   21.04
   3  -3 -13  -25.89   27.79
  -3   3 -13   12.90   19.09
   3  -3 -13   18.46   24.45
  -3  -4 -13   12.95   31.63
  -3  -4 -13    4.31   27.36
   3  -4 -13   22.96   25.67
  -3   4 -13   -8.97   19.15
  -3  -5 -13   56.39   30.06
   3  -5 -13   44.63   26.66
   3  -5 -13   -3.07   29.94
  -3  -6 -13  127.39   30.91
  -3  -6 -13  108.55   35.86
   3  -6 -13   81.22   32.71
   3  -6 -13  117.37   28.76
  -3  -7 -13   50.42   31.19
  -3  -7 -13  -12.00   34.32
   3  -7 -13   49.78   28.88
   3  -7 -13   46.80   32.76
  -3  -8 -13    0.11   34.84
  -3  -8 -13   48.13   32.76
   3  -8 -13   59.66   31.30
   3  -8 -13  -14.48   31.36
  -3  -9 -13   37.88   32.95
  -3  -9 -13   20.02   35.76
   3  -9 -13   26.36   32.70
   3  -9 -13   32.44   33.08
  -3 -10 -13   27.70   36.31
  -3 -10 -13    2.30   36.19
   3 -10 -13   33.40   33.58
  -3   0 -14  -36.54   27.12
   3   0 -14  -25.92   29.18
  -3   0 -14   35.08   33.99
  -3  -1 -14  128.73   33.94
   3   1 -14  135.40   27.99
  -3  -1 -14  113.52   28.98
  -3   1 -14   99.08   26.73
   3  -1 -14  164.25   42.92
   3  -1 -14  120.72   28.07
  -3  -2 -14  -34.08   26.65
  -3  -2 -14    8.24   37.46
   3  -2 -14    4.22   30.60
   3  -2 -14    0.44   25.92
  -3  -3 -14    1.44   28.76
  -3  -3 -14   17.85   37.95
   3  -3 -14    1.28   26.40
  -3   3 -14  -46.17   33.06
   3  -3 -14    6.43   32.66
  -3  -4 -14   30.99   30.79
   3  -4 -14   29.65   27.57
  -3   4 -14    8.70   30.11
   3  -4 -14   17.01   34.39
  -3  -5 -14   69.77   42.24
  -3  -5 -14   58.16   30.93
   3  -5 -14   57.09   38.53
   3  -5 -14   64.86   29.21
  -3  -6 -14   33.98   32.06
  -3  -6 -14   31.56   40.59
   3  -6 -14   80.54   31.15
   3  -6 -14   11.39   36.14
  -3  -7 -14   75.15   33.91
  -3  -7 -14   57.18   40.76
   3  -7 -14   47.74   32.15
   3  -7 -14   45.20   37.63
  -3  -8 -14   71.64   40.72
  -3  -8 -14   27.52   35.68
   3  -8 -14   88.62   35.57
   3  -8 -14   13.59   35.41
   3   0 -15   24.70   28.86
  -3   0 -15   28.27   29.45
  -3  -1 -15  106.89   54.55
   3   1 -15  -15.44   27.20
  -3  -1 -15  -31.63   29.81
  -3   1 -15  -41.43   28.26
   3  -1 -15  -19.83   29.16
  -3  -2 -15   73.78   44.32
  -3  -2 -15  -28.56   30.70
  -3   2 -15   -4.93   26.66
   3  -2 -15   13.18   29.90
  -3  -3 -15   33.77   31.51
  -3   3 -15   45.64   25.84
   3  -3 -15   -2.50   30.06
   3  -3 -15   96.12   44.67
  -3  -4 -15   78.91   50.82
  -3  -4 -15   -5.64   31.88
   3  -4 -15   69.59   50.14
  -3   4 -15   -2.55   26.16
   3  -4 -15   13.11   31.58
  -3  -5 -15   35.53   34.35
  -3  -5 -15   30.30   48.17
   3  -5 -15   92.67   43.83
   3  -5 -15   38.86   33.18
  -3  -6 -15   26.98   35.27
  -3  -6 -15  153.23   48.70
   3  -6 -15   86.19   34.79
   3  -6 -15   34.19   42.58
  -3  -7 -15   40.41   35.28
  -3  -7 -15   84.99   48.61
   3  -7 -15    1.26   41.55
   3  -7 -15   45.13   35.17
   3   0 -16   11.33   31.97
  -3   0 -16    4.38   33.05
  -3  -1 -16  -18.37   33.56
   3   1 -16  -51.73   32.36
  -3   1 -16  -62.61   31.86
   3  -1 -16    7.13   32.50
  -3  -2 -16   35.39   35.38
   3   2 -16  -54.67   32.84
   3  -2 -16   52.05   34.00
  -3   2 -16   25.27   30.82
  -3  -3 -16   85.83   58.12
  -3  -3 -16   17.55   35.06
   3  -3 -16   38.29   33.48
  -3   3 -16  -18.14   30.04
  -3  -4 -16   26.96   36.16
  -3   4 -16   18.45   30.86
   3  -4 -16   46.58   34.47
  -3  -5 -16  133.00   62.49
  -3  -5 -16    3.41   35.84
   3  -5 -16  151.60   53.87
   3  -5 -16  -28.68   34.06
  -4   0   0 2075.81  122.15
  -4   0   0 2425.32  121.89
   4   0   0 2212.85  121.82
  -4   0   0 2411.51  122.44
  -4  -1   0   87.63   10.75
  -4   1   0   90.00   10.92
   4   1   0   90.78    7.43
  -4   1   0  103.67    7.67
  -4  -1   0  102.52    7.13
  -4  -1   0   83.16    8.92
   4  -1   0  103.22    8.08
  -4   1   0   94.09    9.55
  -4   2   0  566.57   27.90
  -4  -2   0  538.15   29.56
  -4  -2   0  497.62   28.60
   4  -2   0  481.47   29.75
  -4   2   0  446.55   29.29
   4   2   0  468.73   27.50
  -4   2   0  486.59   28.96
  -4   3   0   12.16    9.30
   4  -3   0    5.36    8.36
   4   3   0   25.06    6.14
   4  -3   0    7.98    8.86
  -4   3   0   -9.34    6.59
  -4   3   0   16.57    7.16
  -4  -3   0   16.50    8.63
  -4  -3   0   -5.83    7.84
   4  -4   0 1489.79   82.39
   4  -4   0 1239.58   81.69
  -4  -4   0 1507.60   81.71
  -4  -4   0 1465.45   81.04
   4   4   0 1543.59   79.69
  -4   4   0 1583.31   80.08
  -4  -5   0  -20.76   12.61
   4  -5   0   -4.12   10.08
  -4  -5   0  -10.96    9.81
   4  -5   0   -5.82   11.71
   4   5   0   17.94    8.55
  -4   5   0  -12.29    8.28
  -4  -6   0  360.19   27.76
  -4   6   0  345.10   22.68
  -4  -6   0  372.16   27.38
   4  -6   0  294.02   26.26
   4   6   0  356.55   22.66
   4  -6   0  358.82   28.47
  -4  -7   0  143.67   23.49
   4  -7   0  141.08   20.94
   4   7   0  155.71   16.00
  -4   7   0  152.84   16.11
  -4  -7   0  144.51   23.78
   4  -7   0  158.03   24.64
   4  -8   0   73.06   19.52
   4   8   0   62.38   12.82
  -4  -8   0   42.28   27.09
   4  -8   0   30.25   15.58
  -4   8   0   52.60   12.00
  -4  -9   0  419.87   44.18
   4  -9   0  492.86   37.79
  -4   9   0  457.55   30.93
  -4  -9   0  532.05   40.31
   4   9   0  440.42   30.86
   4 -10   0    2.33   26.11
   4 -10   0   11.54   19.23
   4  10   0   43.25   15.23
  -4 -10   0   19.96   24.05
  -4  10   0   17.64   14.92
  -4 -10   0  -12.09   19.49
  -4 -11   0   44.84   39.31
  -4  11   0   52.51   16.40
   4 -11   0   23.99   20.31
   4  11   0   66.96   17.17
  -4 -11   0    6.97   22.16
   4 -12   0   67.50   27.64
   4 -12   0    9.68   35.43
  -4  12   0  112.63   20.09
  -4 -12   0   82.01   26.15
   4  12   0  104.32   20.31
   4 -13   0  -23.32   26.33
  -4  13   0   -5.30   21.09
  -4 -13   0  -17.19   37.66
   4  13   0   10.45   20.10
   4  14   0  -11.64   21.82
  -4  14   0  -17.32   22.98
   4 -14   0   11.26   29.54
   4 -15   0    6.58   33.51
  -4  15   0  -31.55   25.47
   4  15   0   31.03   26.15
   4   0   1   53.36    7.27
   4   0  -1   52.40    6.17
  -4   0   1   40.64    5.97
  -4   0   1   53.32    8.63
  -4   1   1  310.01   17.67
   4   1  -1  270.13   15.69
  -4   1   1  284.96   17.25
   4  -1   1  290.30   16.25
  -4  -1  -1  275.16   17.28
  -4   1   1  263.74   18.44
   4   1   1  289.00   16.02
  -4  -1   1  229.22   16.68
  -4   1  -1  267.15   17.93
  -4   1  -1  254.84   17.07
  -4  -1   1  267.03   17.51
  -4   2   1  137.44   10.13
  -4  -2  -1  136.40   12.28
   4   2  -1  113.53    8.99
   4   2   1  147.90    9.80
  -4   2  -1  100.06   13.48
   4  -2  -1  144.27   14.09
  -4  -2   1  114.49   12.15
   4  -2  -1  150.68   11.03
  -4   2  -1  108.77    9.46
   4  -3   1   89.36   10.08
  -4  -3  -1   47.05    9.65
  -4   3   1   74.60    9.49
   4  -3   1   71.30   10.84
  -4  -3  -1   84.86   11.55
  -4  -3   1   52.08    8.72
  -4   3  -1   63.63    7.90
  -4   3  -1   59.87    8.71
   4  -3  -1   75.22   17.91
   4   3   1   95.80   10.33
  -4   3  -1   91.31   11.71
  -4  -3   1   75.38    9.24
   4  -3  -1   67.39   10.35
   4  -4   1   30.30   11.13
   4  -4   1   20.05   11.01
  -4   4   1   15.57    8.97
  -4  -4  -1   19.88   11.20
  -4  -4  -1   51.09   14.81
  -4   4  -1   37.11    9.50
  -4   4  -1   60.67   12.78
   4  -4  -1   15.97   11.78
  -4  -4   1   36.58   10.74
  -4  -4   1   15.89    9.02
  -4   5   1  469.49   28.72
  -4  -5  -1  443.18   31.69
   4   5  -1  492.37   27.49
   4  -5   1  419.24   30.40
  -4  -5  -1  435.52   32.36
   4  -5   1  477.58   32.34
   4   5   1  493.09   28.28
   4  -5  -1  433.82   32.90
  -4  -5   1  426.48   29.42
  -4  -5   1  522.56   31.00
  -4   5  -1  508.35   27.95
  -4   6   1   49.60    9.74
   4   6  -1   67.76   11.56
   4  -6   1   55.64   18.00
  -4  -6  -1   14.72   10.93
   4  -6   1   38.80   11.24
  -4  -6  -1   37.07   15.83
  -4   6  -1   39.49    9.23
   4  -6  -1   61.83   14.52
  -4  -6   1   35.74   10.57
   4   6   1   62.00   10.19
   4  -6  -1   28.89   11.43
   4  -7   1  138.74   24.75
  -4  -7  -1  162.25   24.77
   4  -7   1  199.72   24.80
   4   7  -1  183.68   15.94
  -4  -7  -1  150.30   24.48
  -4   7   1  188.11   16.81
   4  -7  -1  192.96   25.96
   4   7   1  194.56   17.30
  -4  -7   1  176.79   33.56
   4  -7  -1  205.77   22.12
  -4  -7   1  212.38   23.36
  -4   7  -1  209.18   16.52
  -4   8   1  332.36   24.41
   4  -8   1  318.07   30.36
  -4  -8  -1  366.11   32.26
  -4  -8  -1  334.62   32.61
   4   8  -1  309.48   23.45
   4  -8   1  385.15   32.74
   4   8   1  327.57   24.44
   4  -8  -1  351.52   29.90
  -4   8  -1  349.78   24.28
   4  -8  -1  383.19   34.64
  -4  -8   1  307.78   37.98
  -4  -8   1  399.70   31.02
  -4  -9  -1  -28.27   16.94
   4  -9   1  -22.49   17.19
   4  -9   1   -1.78   22.76
  -4  -9  -1  -35.88   25.45
  -4   9   1   11.01   13.73
   4   9  -1   11.67   13.22
   4   9   1   17.68   14.41
   4  -9  -1   -0.98   22.80
  -4  -9   1  -57.99   35.40
   4  -9  -1  -21.90   18.23
  -4   9  -1   -0.55   12.72
   4 -10   1  240.76   34.90
  -4 -10  -1  191.92   36.02
  -4  10   1  207.65   21.98
   4  10  -1  204.18   20.81
  -4 -10  -1  125.96   31.84
   4  10   1  212.75   21.15
   4 -10  -1  207.04   31.81
  -4  10  -1  175.07   21.54
  -4 -10   1  196.80   33.41
   4 -10  -1  229.23   36.31
  -4  11   1  124.24   21.19
  -4 -11  -1   29.06   29.97
   4  11  -1  124.41   19.33
   4 -11   1   89.25   21.20
  -4 -11  -1   48.40   24.16
   4  11   1  130.22   20.53
   4 -11  -1   96.99   23.62
  -4  11  -1   86.63   17.64
  -4 -11   1  109.54   20.80
  -4 -12  -1  -30.85   29.52
  -4 -12  -1  162.58   54.61
   4  12  -1   26.35   17.91
  -4  12   1   10.68   19.96
   4 -12  -1  -13.48   30.63
   4 -12  -1  -28.12   24.63
  -4  12  -1   13.83   17.60
   4  12   1   20.92   18.89
   4  13  -1   16.77   20.32
  -4  13   1   43.01   21.80
  -4 -13  -1  -16.47   32.06
   4 -13   1    8.60   26.94
   4 -13  -1   -1.00   25.99
  -4  13  -1   41.55   20.20
   4  13   1   15.65   20.83
   4  14  -1  -14.94   20.61
  -4 -14  -1  -17.02   35.53
  -4  14   1   -8.36   24.30
   4  14   1   15.82   23.10
  -4  14  -1   -9.95   22.40
   4 -14  -1  -24.75   29.43
  -4  15   1   -2.26   26.69
   4  15  -1   -1.92   24.76
  -4 -15  -1   -4.97   40.98
   4  15   1    4.26   27.15
  -4  15  -1  -19.81   24.75
   4 -15  -1   -1.52   34.01
  -4   0  -2  256.13   16.57
   4   0   2  202.69   13.78
  -4   0  -2  174.57   14.84
   4   0  -2  222.09   12.99
  -4   0   2  224.73   14.25
  -4  -1  -2  270.07   17.98
  -4  -1  -2  284.97   19.27
  -4   1   2  281.20   15.92
  -4   1  -2  279.75   17.67
  -4  -1   2  234.89   16.67
  -4  -1   2  238.16   16.80
   4  -1  -2  268.39   18.83
  -4   1  -2  285.22   18.99
   4   1   2  291.25   16.35
  -4  -2  -2   47.96   14.31
  -4  -2  -2   68.99   11.64
  -4   2   2   60.83    8.25
  -4   2  -2   46.24   10.15
  -4   2  -2   44.49    7.92
   4  -2  -2   64.68    9.12
   4  -2  -2   67.21    9.64
   4   2   2   62.46    8.52
  -4  -2   2   50.61    7.63
  -4  -3  -2   30.98   12.55
  -4  -3  -2    6.87    8.73
   4  -3   2   14.68   10.35
  -4   3   2   17.53    8.41
   4  -3   2    9.11    8.63
  -4   3  -2   27.35   10.65
   4  -3  -2   15.18   10.46
   4  -3  -2   18.85   10.90
  -4   3  -2   12.31    9.12
  -4   4   2   38.41    9.27
  -4  -4  -2   28.46    9.82
   4  -4   2   37.64   10.70
   4  -4   2   32.12   10.60
   4  -4  -2   24.26   11.38
  -4   4  -2   19.69    7.89
  -4   4  -2   58.56   12.75
   4  -4  -2   28.88   11.34
  -4  -5  -2  107.26   17.84
  -4  -5  -2   48.63   11.13
   4  -5   2  106.24   19.15
   4  -5   2   97.55   16.37
  -4   5   2   74.50   12.26
   4  -5  -2   56.13   13.47
   4  -5  -2   61.83   11.66
  -4   5  -2   80.12   10.76
   4  -6   2  180.60   21.11
  -4  -6  -2  192.93   23.95
   4  -6   2  246.03   23.40
  -4  -6  -2  219.06   22.80
  -4   6   2  219.62   17.67
   4  -6  -2  231.51   24.96
  -4   6  -2  251.24   16.95
   4   6   2  230.96   18.18
   4  -6  -2  208.72   22.20
   4  -7   2  115.08   21.55
   4  -7   2  137.53   23.29
   4   7  -2  160.15   13.74
  -4  -7  -2  126.25   24.01
  -4   7   2  198.19   16.35
  -4  -7  -2  136.42   23.44
  -4   7  -2  177.32   15.31
   4   7   2  146.67   16.59
   4  -7  -2  178.64   21.82
   4  -7  -2  172.31   26.30
  -4  -8  -2   -9.52   14.42
   4  -8   2  -11.27   19.58
  -4   8   2   42.21   12.10
   4  -8   2    8.78   14.58
  -4  -8  -2  -15.18   20.53
   4   8  -2   26.01   10.05
   4  -8  -2   11.44   16.55
   4  -8  -2   53.27   19.02
   4   8   2   28.51   12.73
  -4   8  -2   15.78   11.23
  -4   9   2  169.99   19.30
   4   9  -2  153.21   16.36
  -4  -9  -2  129.08   27.75
   4  -9   2   95.68   18.13
   4  -9  -2  206.31   27.40
   4  -9  -2   95.89   20.94
  -4   9  -2  130.74   18.74
   4   9   2  141.39   18.70
   4 -10   2   46.95   24.39
  -4 -10  -2   80.19   31.61
   4  10  -2   60.29   14.67
  -4 -10  -2   26.68   19.69
  -4  10   2  100.79   17.28
   4 -10   2   56.97   17.56
   4  10   2   93.54   16.89
  -4  10  -2   39.76   14.31
   4 -10  -2   25.55   21.23
   4 -10  -2   74.42   25.71
  -4 -11  -2  -16.61   27.23
  -4  11   2    9.19   18.28
  -4 -11  -2  -31.72   21.75
   4  11  -2   18.45   15.79
   4 -11   2   -0.57   18.75
   4 -11  -2    3.06   30.56
  -4  11  -2  -12.15   17.81
   4  11   2   18.72   17.75
   4 -11  -2  -13.02   22.74
  -4 -12  -2   29.93   36.99
  -4 -12  -2   -5.29   28.36
   4  12  -2   50.45   18.58
  -4  12   2   28.89   20.74
   4  12   2   34.66   19.98
  -4  12  -2   46.60   18.25
   4 -12  -2    0.70   27.67
   4 -12  -2   15.29   23.86
  -4 -13  -2  -33.49   30.70
   4  13  -2   -0.71   19.39
  -4  13   2   -6.98   22.73
   4 -13  -2   22.23   36.52
   4 -13  -2  -32.93   26.23
  -4  13  -2    3.25   19.58
   4  13   2    6.86   22.06
  -4  14   2   25.44   25.37
  -4 -14  -2  -27.51   34.47
   4  14  -2   -3.86   21.50
   4 -14  -2   -2.37   29.33
  -4  14  -2  -18.22   21.52
   4  14   2    4.83   24.21
   4  15  -2    0.45   24.18
  -4 -15  -2  -19.96   42.13
  -4  15   2  -11.76   27.92
  -4  15  -2  -19.98   23.85
   4  15   2   25.24   26.63
   4 -15  -2    9.57   34.43
   4   0   3    6.35    5.87
  -4   0  -3   -2.89    9.10
  -4   0  -3   -7.19    7.22
  -4   1   3   49.78    8.50
  -4  -1  -3   50.50   10.02
  -4  -1  -3   27.58    8.92
   4   1   3   43.46    6.81
   4  -1  -3   30.95    8.46
   4  -1  -3   35.76    7.47
  -4   1  -3   17.98    7.87
  -4   1  -3   27.73   15.13
  -4  -2  -3   36.86   11.41
  -4  -2  -3   24.07    9.73
  -4   2   3   40.50    9.14
  -4   2  -3   32.57   10.20
   4   2   3   44.21    7.77
   4  -2  -3   27.18   12.16
   4  -2  -3   31.13    9.79
  -4   2  -3   16.57    8.20
  -4  -3  -3   51.58   11.47
   4  -3   3   73.15   10.47
  -4  -3  -3   99.79   17.49
   4  -3   3   50.23   10.31
  -4   3  -3   58.67   10.42
   4  -3  -3   58.58   11.80
   4  -3  -3   54.30   11.86
  -4   3  -3   67.39   11.80
  -4  -4  -3   68.71   11.48
  -4   4   3   81.57   10.79
   4  -4   3   89.29   10.95
   4  -4   3   78.52   10.90
   4  -4  -3   56.02   12.56
  -4   4  -3   85.45   12.22
   4  -4  -3   62.48   13.10
  -4   4  -3   69.18   10.35
   4  -5   3   32.63    9.65
  -4  -5  -3   26.23   10.51
   4  -5   3   43.39   11.89
  -4  -5  -3   49.31   13.53
  -4   5   3   34.36    9.69
  -4   5  -3   38.62   10.29
   4  -5  -3   19.77   12.57
  -4   5  -3   67.90   12.19
  -4   5  -3   38.00    7.53
   4   5   3   62.06    9.53
   4  -5  -3   20.11   11.04
   4  -6   3  214.24   21.83
  -4  -6  -3  182.93   23.77
  -4   6   3  179.75   17.30
  -4  -6  -3  200.46   22.24
   4  -6  -3  228.13   22.25
  -4   6  -3  221.96   15.48
   4  -6  -3  214.60   25.10
   4   6   3  191.01   17.86
  -4   6  -3  229.82   19.19
   4  -7   3  -26.33   16.30
   4  -7   3    0.08   11.76
  -4  -7  -3  -15.48   12.85
  -4  -7  -3   21.20   17.05
  -4   7   3   14.48   11.22
  -4   7  -3   -0.25    8.26
   4  -7  -3   19.68   15.77
   4   7   3   11.60   11.39
   4  -7  -3    0.75   14.10
  -4  -8  -3  -11.66   15.36
  -4   8   3   62.13   14.02
   4  -8   3   25.36   13.57
  -4  -8  -3   45.89   20.90
   4  -8  -3   23.81   16.81
  -4   8  -3   20.52   10.51
   4  -8  -3   61.23   19.53
   4   8   3   59.33   13.87
  -4  -9  -3   -5.77   24.61
  -4   9   3   22.62   15.54
   4   9  -3   18.42   11.04
   4  -9  -3  -16.53   19.74
   4   9   3   23.15   15.46
  -4   9  -3  -12.26   12.13
   4  -9  -3   29.53   22.61
  -4 -10  -3    5.74   29.18
  -4 -10  -3  -25.73   19.41
  -4  10   3   36.34   16.75
   4  10  -3    5.97   12.77
  -4  10  -3  -16.62   14.15
   4 -10  -3   -4.21   20.94
   4  10   3   30.45   16.86
   4 -10  -3   31.99   25.32
  -4 -11  -3  -32.59   35.30
   4  11  -3   10.00   15.41
  -4  11   3   25.79   19.11
  -4 -11  -3  -25.39   25.55
   4 -11  -3   20.47   29.35
   4  11   3   47.58   19.24
  -4  11  -3  -21.09   28.11
  -4 -12  -3  -38.31   26.16
  -4  12   3  -14.66   21.70
   4  12  -3    8.48   17.61
  -4 -12  -3  -49.92   33.67
   4 -12  -3  -29.70   29.41
   4  12   3  -17.44   20.54
   4 -12  -3  -23.29   23.45
  -4  12  -3  -11.11   17.71
  -4 -13  -3  -27.41   29.91
  -4  13   3  -12.58   23.55
   4  13  -3   -5.19   19.20
  -4 -13  -3  -41.29   44.74
   4  13   3   33.26   22.99
   4 -13  -3  -28.41   25.95
   4 -13  -3   18.12   32.91
  -4  13  -3  -11.66   18.10
  -4  14   3   -8.45   26.28
   4  14  -3  -12.54   21.07
  -4 -14  -3  -10.30   35.83
   4 -14  -3   -6.38   28.43
   4 -14  -3   46.24   45.86
  -4  14  -3   -2.21   20.89
   4  14   3   -1.18   25.35
   4  15  -3  -13.68   22.16
  -4 -15  -3  -10.00   42.37
  -4  15   3  -19.82   29.89
   4  15   3  -35.95   26.55
  -4  15  -3  -30.57   23.70
   4 -15  -3  -21.05   32.93
   4   0   4   30.61    7.14
  -4   0  -4   13.54   10.26
  -4   0  -4   34.33   11.88
   4   0  -4   29.15    6.28
  -4  -1  -4  154.79   18.05
  -4   1  -4  123.40   19.79
  -4   1  -4  158.40   17.08
   4  -1  -4  180.78   21.84
   4  -1  -4  109.36   15.89
   4   1   4  167.64   14.26
  -4  -2  -4  260.23   21.35
  -4   2   4  250.20   18.21
  -4  -2  -4  194.28   23.38
   4  -2  -4  236.98   27.10
  -4   2  -4  272.59   19.89
  -4   2  -4  245.72   21.74
   4   2   4  251.56   18.00
   4  -2  -4  196.00   19.77
   4  -3   4   35.89    8.94
  -4   3   4   66.95   10.25
  -4  -3  -4   23.94    9.74
   4  -3   4   48.46    9.45
  -4   3  -4   42.68   10.41
   4   3   4   57.44    9.14
   4  -3  -4   43.20   10.63
  -4   3  -4   31.11   11.80
   4  -3  -4   36.87   11.27
  -4   4   4   16.97    9.81
  -4  -4  -4   13.33    9.72
  -4  -4  -4   33.61   11.96
   4  -4  -4   -2.83   10.44
  -4   4  -4   19.56    9.18
   4  -4  -4   -9.58   11.41
   4   4   4   24.79    8.95
  -4   4  -4   10.69   10.44
  -4  -5  -4  443.53   30.93
  -4   5   4  400.27   26.27
  -4  -5  -4  427.17   28.87
   4   5   4  412.84   25.85
  -4   5  -4  383.08   27.61
  -4   5  -4  402.05   29.24
   4  -5  -4  386.24   28.44
   4  -5  -4  400.98   31.16
  -4  -6  -4   -5.89   14.11
  -4  -6  -4   -8.06   11.32
  -4   6   4   -9.59   10.81
   4   6   4    9.83   10.36
  -4   6  -4  -14.57    9.79
   4  -6  -4    2.49   14.08
  -4   6  -4    4.72   12.09
   4  -6  -4  -16.92   12.64
  -4  -7  -4   12.74   13.80
  -4  -7  -4   39.14   17.16
  -4   7   4   40.10   12.80
   4  -7  -4   13.06   14.13
   4   7   4   50.08   12.59
   4  -7  -4   47.84   16.62
  -4   8   4   17.59   14.68
  -4  -8  -4   -9.41   20.90
   4   8   4    9.47   14.25
   4  -8  -4  -13.39   16.94
   4  -8  -4   10.65   18.96
  -4   8  -4  -16.85    9.55
   4   9  -4   -3.64   10.08
  -4   9   4    1.65   16.12
  -4  -9  -4   -4.72   24.38
   4   9   4   14.54   15.81
   4  -9  -4   26.89   22.22
  -4   9  -4  -24.67   11.35
   4  -9  -4  -24.21   19.30
  -4 -10  -4  -32.67   19.47
  -4  10   4   -0.36   17.82
   4  10  -4   11.28   11.96
  -4 -10  -4  -49.10   28.58
   4  10   4   29.82   17.37
   4 -10  -4   25.79   24.87
  -4  10  -4  -20.01   13.70
   4 -10  -4    3.60   20.12
  -4 -11  -4  -27.47   23.63
  -4  11   4   -4.95   20.05
   4  11  -4   -9.79   17.10
  -4 -11  -4  -14.97   34.58
  -4  11  -4  -42.31   19.95
   4 -11  -4  -16.47   29.66
   4  11   4   -6.77   21.38
   4 -11  -4  -17.33   24.44
   4  12  -4  -25.31   16.83
  -4 -12  -4    5.54   32.16
  -4  12   4  -43.30   23.06
   4 -12  -4  -25.79   35.42
  -4  12  -4  -14.17   16.77
   4  12   4  -28.20   21.77
  -4 -13  -4  -24.56   43.25
  -4 -13  -4  -39.84   28.96
   4  13  -4   -7.58   19.27
  -4  13   4  -41.13   25.79
  -4  13  -4   12.28   18.90
   4 -13  -4  -54.52   34.81
   4  13   4  -18.40   23.96
  -4  14   4  -34.83   28.23
   4  14  -4   -7.39   21.00
  -4 -14  -4  -29.77   34.24
  -4  14  -4   -4.43   20.21
   4 -14  -4   -7.05   28.87
   4 -14  -4  -34.26   48.07
   4  14   4   -6.20   25.55
   4  15  -4   -9.15   25.49
  -4  15   4   -0.15   30.22
  -4 -15  -4   37.90   43.14
  -4  15  -4  -25.03   23.34
   4 -15  -4  -47.50   33.15
   4  15   4  -17.89   28.31
   4   0  -5   -8.76    8.48
   4   0  -5    4.63   10.06
  -4   0  -5  -14.13    9.75
  -4   0  -5    5.07   11.47
  -4  -1  -5   87.64   15.88
  -4  -1  -5   71.09   11.65
   4   1  -5  103.13   15.72
   4  -1  -5   79.54   14.65
  -4   1  -5   95.95   15.09
   4  -1  -5  122.53   18.91
   4   1   5   93.69   13.03
  -4   1  -5  106.73   18.24
  -4  -2  -5  277.39   24.07
  -4  -2  -5  270.98   21.93
  -4   2  -5  278.69   19.98
   4   2   5  274.87   19.36
   4  -2  -5  252.84   20.47
   4  -2  -5  285.63   24.73
  -4   2  -5  265.94   22.55
  -4   3   5   75.99   10.75
  -4  -3  -5   62.75   13.39
  -4  -3  -5   51.38   11.26
  -4   3  -5   74.69   10.69
   4  -3  -5   68.82   12.14
   4  -3  -5   44.54   11.09
   4   3   5   56.14   12.43
  -4  -4  -5  485.42   32.82
  -4  -4  -5  461.95   30.18
   4   4   5  441.52   27.70
   4  -4  -5  482.36   32.39
   4  -4  -5  409.07   29.55
  -4   4  -5  411.61   28.07
  -4  -5  -5  118.17   22.08
  -4   5   5  120.69   16.10
  -4  -5  -5  122.33   19.21
   4   5   5   92.00   14.90
   4  -5  -5  110.34   22.50
   4  -5  -5  119.95   15.39
  -4   5  -5   93.79   16.25
  -4   5  -5   89.97   13.55
  -4  -6  -5  208.64   26.19
  -4   6   5  195.21   19.87
  -4  -6  -5  226.61   23.51
  -4   6  -5  185.05   20.78
   4  -6  -5  170.50   27.41
   4   6   5  227.30   18.68
   4  -6  -5  224.35   22.70
  -4  -7  -5   36.90   18.32
  -4   7   5   39.01   14.20
  -4  -7  -5    3.38   15.02
  -4   7  -5   41.74   14.36
   4  -7  -5    0.89   16.84
   4   7   5   36.97   13.22
   4  -7  -5   36.40   16.88
  -4  -8  -5   23.27   20.90
  -4   8   5   37.88   16.12
   4   8   5   34.92   15.12
   4  -8  -5   51.24   19.58
   4  -8  -5    8.49   18.77
  -4  -9  -5   10.14   23.50
  -4   9   5   52.63   17.88
  -4  -9  -5    4.00   18.16
   4   9   5   49.96   17.23
   4  -9  -5   27.71   20.60
   4  -9  -5   39.11   22.92
  -4   9  -5   19.83   11.36
  -4  10   5    0.48   19.25
   4  10  -5   -3.01   11.30
  -4 -10  -5  -31.43   20.84
  -4 -10  -5   19.70   28.70
  -4  10  -5   -8.53   13.26
   4 -10  -5    1.46   24.84
   4 -10  -5  -21.19   21.94
   4  10   5   10.16   17.77
  -4  11   5  -23.14   21.82
  -4 -11  -5  -35.46   34.56
   4  11   5   -2.51   22.55
  -4  11  -5  -25.15   15.98
   4 -11  -5  -13.72   25.91
   4 -11  -5  -24.09   30.60
  -4 -12  -5  -46.28   25.97
   4  12  -5  -27.66   16.02
  -4  12   5  -15.28   25.30
  -4 -12  -5  -33.31   41.18
   4  12   5  -14.01   22.99
  -4  12  -5  -31.44   16.57
   4 -12  -5  -31.51   23.87
   4 -12  -5  -60.38   50.32
  -4 -13  -5  -10.79   28.85
   4  13  -5  -29.57   18.36
  -4  13   5  -16.02   27.00
   4 -13  -5  -70.38   44.62
  -4  13  -5   -6.42   18.66
   4  13   5   11.34   25.56
  -4  14   5  -44.06   29.25
  -4 -14  -5  -43.52   32.70
   4  14  -5  -20.52   21.25
  -4 -14  -5  -29.86   54.93
  -4  14  -5   -2.98   19.92
   4 -14  -5   32.98   46.99
   4 -14  -5  -31.43   28.60
   4  14   5  -33.16   27.37
  -4  15   5  -62.30   31.70
   4  15  -5   35.63   24.12
  -4  15  -5    0.10   22.99
   4  15   5  -34.82   31.52
   4   0  -6  603.27   35.91
   4   0  -6  637.06   38.61
  -4   0  -6  621.65   36.97
  -4  -1  -6  267.63   21.90
  -4  -1  -6  288.02   25.33
   4   1  -6  282.70   18.81
   4   1  -6  272.34   23.77
   4  -1  -6  302.86   24.71
  -4   1  -6  280.06   24.76
   4  -1  -6  290.94   20.12
  -4   1  -6  265.24   21.32
  -4  -2  -6   23.96   12.13
  -4  -2  -6   15.68   10.08
  -4   2  -6   13.26    8.73
   4  -2  -6   30.50   10.46
   4   2   6   11.06   12.15
   4  -2  -6   12.64    9.89
  -4   2  -6    8.72    9.68
  -4  -3  -6  357.98   25.67
  -4  -3  -6  357.57   28.60
  -4   3   6  302.11   23.84
   4  -3  -6  326.07   24.40
   4  -3  -6  365.26   27.59
  -4   3  -6  292.56   28.67
  -4   3  -6  303.92   22.47
   4   3   6  342.83   22.61
  -4  -4  -6   29.05   12.06
  -4   4   6   48.62   12.62
  -4  -4  -6   46.62   14.99
  -4   4  -6   52.17   10.71
   4  -4  -6   50.03   12.97
   4   4   6   28.81   10.22
   4  -4  -6   44.69   12.52
  -4   4  -6   41.32   17.27
  -4   5   6  287.00   23.02
  -4  -5  -6  282.44   25.22
  -4  -5  -6  301.99   28.97
  -4   5  -6  312.63   21.83
   4  -5  -6  254.66   24.57
   4   5   6  271.19   21.56
   4  -5  -6  247.66   28.26
  -4   6   6  114.37   16.20
  -4  -6  -6  126.42   22.53
   4  -6  -6  140.84   21.96
  -4   6  -6  145.39   25.80
  -4   6  -6  121.33   19.42
   4   6   6  111.39   17.30
   4  -6  -6   74.89   16.00
  -4   7   6  101.82   17.73
  -4  -7  -6   84.83   20.23
   4   7   6  132.59   18.96
  -4   7  -6  107.26   17.43
   4  -7  -6   61.04   19.09
   4  -7  -6  151.06   23.67
  -4  -8  -6  202.95   35.19
  -4  -8  -6  273.49   30.53
  -4   8   6  276.81   26.39
   4   8   6  263.86   24.69
   4  -8  -6  308.08   29.62
   4  -8  -6  318.08   38.71
  -4  -9  -6  -24.07   19.87
  -4   9   6   11.40   19.17
  -4  -9  -6   25.77   23.79
   4  -9  -6   11.14   21.58
   4  -9  -6   -2.04   21.45
   4   9   6    2.96   17.24
  -4 -10  -6  -18.44   27.50
  -4  10   6  -17.82   20.36
  -4  10  -6  -15.21   12.50
   4 -10  -6  -13.11   27.90
   4 -10  -6  -15.76   25.66
   4  10   6  -24.08   19.03
  -4  11   6  -23.82   22.47
  -4 -11  -6  -41.32   23.52
  -4 -11  -6  -50.73   33.38
   4 -11  -6  -20.59   24.75
  -4  11  -6  -19.28   15.33
   4  11   6  -34.74   30.44
  -4  12   6  -32.04   26.31
   4  12  -6    3.57   15.95
  -4 -12  -6  -45.81   25.24
  -4 -12  -6   19.27   48.52
   4 -12  -6   -9.44   38.53
   4  12   6  -21.40   24.87
   4 -12  -6   -6.33   24.33
  -4  12  -6  -19.32   17.72
   4  13  -6  -10.06   19.72
  -4 -13  -6   21.70   43.87
  -4 -13  -6  -40.61   29.96
  -4  13  -6  -19.96   18.58
   4 -13  -6  -40.27   27.87
   4  13   6  -23.37   27.23
   4 -13  -6   40.68   47.10
  -4 -14  -6  -33.66   32.31
   4  14  -6    2.14   23.41
  -4  14   6  -52.55   30.43
  -4 -14  -6  -30.90   53.40
  -4  14  -6  -16.35   20.54
   4 -14  -6  -18.85   43.12
   4  14   6    6.48   30.42
   4 -14  -6  -23.93   28.11
  -4   0  -7   15.19   11.87
  -4   0  -7    6.97   11.06
   4   0  -7   21.42   10.03
   4   0  -7   35.66    9.52
   4   1  -7  440.68   26.88
   4   1  -7  435.30   30.92
  -4  -1  -7  449.78   33.08
  -4  -1  -7  432.63   29.66
   4  -1  -7  427.29   27.79
   4  -1  -7  422.38   41.33
  -4   1  -7  437.64   28.69
  -4   1  -7  460.80   31.96
  -4  -2  -7  191.29   21.03
  -4  -2  -7  206.02   24.31
   4   2  -7  185.44   14.84
  -4   2  -7  166.31   17.61
   4  -2  -7  209.52   18.69
   4   2   7  181.78   18.37
   4  -2  -7  201.26   23.18
  -4   2  -7  180.15   21.35
  -4  -3  -7   -2.96   13.51
  -4  -3  -7  -18.18   12.85
  -4   3  -7    8.44    9.28
   4  -3  -7    4.23   12.23
   4   3   7   -5.91   10.27
  -4   3  -7    8.90    9.57
   4  -3  -7   -3.79   10.89
  -4  -4  -7  168.72   27.63
  -4   4   7  192.38   23.50
  -4  -4  -7  194.24   22.86
  -4   4  -7  219.89   18.57
   4  -4  -7  211.88   21.95
   4  -4  -7  212.96   25.56
   4   4   7  206.61   20.97
  -4   4  -7  205.59   30.65
  -4   5   7   60.17   23.08
  -4  -5  -7   36.68   15.01
  -4  -5  -7   74.04   17.27
  -4   5  -7  103.20   20.24
   4   5   7   53.63   13.17
   4  -5  -7   84.77   16.73
  -4   5  -7   73.85   13.18
  -4   6   7  156.06   21.63
  -4  -6  -7  160.64   24.95
   4  -6  -7  179.51   23.23
   4   6   7  153.71   19.73
  -4   6  -7  164.00   20.82
   4  -6  -7  109.86   19.18
  -4  -7  -7  515.66   43.79
  -4  -7  -7  519.22   38.90
  -4   7   7  491.99   36.02
   4  -7  -7  537.61   38.24
   4   7   7  498.26   34.77
   4  -7  -7  553.34   45.17
  -4   7  -7  523.07   35.49
  -4   8   7    4.24   18.47
  -4  -8  -7   -4.30   18.27
  -4  -8  -7   27.82   21.76
   4  -8  -7    0.66   21.71
   4   8   7   34.35   17.64
   4  -8  -7   45.78   21.78
  -4  -9  -7   18.54   25.69
  -4   9   7    0.46   19.93
   4  -9  -7   18.49   22.53
   4  -9  -7   47.95   22.44
   4   9   7   11.82   18.97
  -4 -10  -7   -5.51   28.81
  -4  10   7  -14.73   21.39
   4 -10  -7   -4.05   23.48
   4  10   7  -18.04   21.26
   4  11  -7  -10.88   13.75
  -4 -11  -7  -54.82   36.71
  -4  11   7  -35.31   23.59
  -4 -11  -7  -27.75   24.35
   4 -11  -7  -10.90   33.36
   4  11   7   -4.39   36.93
   4 -11  -7  -19.16   23.50
  -4  11  -7  -15.22   15.46
  -4 -12  -7  -33.07   26.22
   4  12  -7   -5.31   16.30
  -4 -12  -7  -30.62   42.92
   4 -12  -7  -29.78   26.16
  -4  12  -7  -16.70   17.52
   4  12   7   10.09   27.49
   4 -12  -7    3.18   37.62
  -4 -13  -7   45.55   53.44
  -4  13   7  -47.89   30.67
  -4 -13  -7    4.16   29.36
   4  13  -7    2.82   21.00
  -4  13  -7    7.16   19.80
   4 -13  -7  -14.26   27.87
   4  13   7  -29.33   30.58
   4 -13  -7    0.64   45.66
   4  14  -7   -8.44   22.94
  -4  14   7  -54.22   33.72
  -4 -14  -7  -24.90   33.77
  -4 -14  -7   21.21   52.54
   4  14   7  -23.41   34.89
   4 -14  -7  -12.57   29.69
   4 -14  -7   25.42   56.23
  -4  14  -7   16.22   21.17
  -4   0  -8  165.91   19.85
   4   0  -8  181.62   17.38
  -4   0  -8  151.02   25.28
   4   0  -8  173.77   23.39
   4   1  -8   52.64   10.18
  -4  -1  -8   25.43   14.10
  -4  -1  -8   22.39   13.42
  -4   1  -8   27.79   13.07
  -4   1  -8   31.94   19.87
   4  -1  -8   37.72   11.71
   4  -1  -8   53.57   12.21
   4   2  -8   95.47   13.19
  -4  -2  -8  109.80   17.34
   4  -2  -8   84.68   13.52
  -4   2  -8   74.52   12.63
   4  -2  -8  108.20   17.68
  -4   2  -8   94.27   13.44
  -4  -3  -8  110.55   18.47
   4  -3  -8  136.61   25.28
   4  -3  -8  136.54   19.72
   4   3   8   94.60   15.76
  -4   3  -8  122.53   15.94
  -4   3  -8  132.04   20.69
  -4  -4  -8  -11.17   17.71
  -4  -4  -8  -24.81   14.91
  -4   4   8  -28.37   16.29
   4  -4  -8   10.70   14.95
  -4   4  -8    9.80   11.41
   4   4   8    8.95   13.18
  -4   4  -8   42.36   17.96
   4  -4  -8   11.67   15.43
  -4  -5  -8   87.58   20.28
  -4  -5  -8   65.91   18.05
  -4   5   8   99.04   18.02
  -4   5  -8  102.19   17.62
   4  -5  -8   72.90   17.41
   4   5   8   89.41   15.63
  -4  -6  -8  355.88   38.50
  -4  -6  -8  325.48   32.25
   4  -6  -8  381.43   31.12
   4  -6  -8  375.49   38.48
   4   6   8  324.52   27.78
  -4   6  -8  309.84   27.60
  -4   7   8   10.34   18.40
  -4  -7  -8   57.32   22.60
  -4  -7  -8   30.80   19.76
   4  -7  -8   55.64   20.85
  -4   7  -8   64.25   18.40
   4   7   8   33.64   17.03
   4  -7  -8   77.40   20.58
  -4  -8  -8  157.34   29.40
  -4   8  -8  122.99   22.87
   4  -8  -8  113.19   25.59
   4   8   8  103.63   20.31
   4  -8  -8  179.12   27.73
  -4  -9  -8   34.01   28.51
  -4  -9  -8  -28.59   22.38
   4   9   8   -1.73   20.55
   4  -9  -8  -27.23   26.57
  -4 -10  -8   -4.00   28.97
   4  10   8  -31.34   22.91
   4 -10  -8  -13.23   27.80
   4 -10  -8  -19.27   25.65
  -4 -11  -8  -23.60   25.22
  -4 -11  -8  -19.38   34.09
   4 -11  -8    3.87   32.41
   4 -11  -8    0.31   25.55
   4  11   8  -11.04   38.41
  -4 -12  -8   -9.56   42.76
   4  12  -8    9.89   16.30
  -4 -12  -8  -17.62   27.14
   4 -12  -8   -2.19   26.75
   4 -12  -8   14.39   38.22
   4  12   8    6.16   30.25
  -4  12  -8  -22.74   17.75
  -4 -13  -8   -3.54   29.80
   4  13  -8  -25.54   19.78
  -4 -13  -8   77.31   55.70
   4 -13  -8  -17.41   28.23
   4 -13  -8  -22.50   46.31
  -4  13  -8    8.08   19.24
   4  13   8    6.57   33.39
  -4   0  -9   -1.06   14.13
  -4   0  -9    5.18   15.03
  -4  -1  -9   50.39   16.96
  -4  -1  -9   35.10   16.05
   4   1  -9   75.84   12.44
   4   1  -9   51.15   13.08
  -4   1  -9   67.81   15.37
  -4   1  -9   46.75   14.44
   4  -1  -9   66.30   14.60
  -4  -2  -9   55.01   16.35
   4   2  -9  112.09   15.37
  -4  -2  -9  101.60   18.75
  -4   2  -9   90.02   14.34
   4  -2  -9  126.23   20.11
   4  -2  -9   80.56   15.82
  -4   2  -9   96.00   18.09
  -4  -3  -9    5.41   18.65
  -4  -3  -9  -10.39   16.26
  -4   3  -9   13.79   12.55
   4  -3  -9   12.51   15.32
  -4   3  -9   23.64   11.83
   4  -3  -9   35.18   16.32
  -4  -4  -9   54.74   20.16
  -4   4  -9   82.09   21.63
  -4   4  -9   72.69   13.79
   4  -4  -9   73.04   17.73
  -4  -5  -9   51.25   20.87
  -4  -5  -9   11.86   18.92
  -4   5  -9   56.24   14.48
   4  -5  -9   43.74   18.35
  -4  -6  -9   72.40   22.30
   4  -6  -9   68.93   19.94
   4  -6  -9   48.96   20.94
  -4   6  -9   23.32   16.28
  -4  -7  -9   55.45   23.25
  -4  -7  -9   13.59   22.66
  -4   7  -9   67.04   19.87
   4  -7  -9   85.20   21.75
   4  -7  -9   53.62   21.33
   4  -8  -9   13.06   23.84
   4  -8  -9   66.08   27.92
  -4   8  -9   21.69   20.21
  -4  -9  -9   21.11   27.76
  -4  -9  -9  -25.72   23.77
   4  -9  -9  -11.88   24.21
   4  -9  -9   15.30   25.37
  -4 -10  -9   -7.10   30.95
   4 -10  -9   -1.19   28.84
   4 -10  -9  -11.21   23.35
  -4 -11  -9    8.56   36.63
  -4 -11  -9   -8.37   27.83
   4 -11  -9   -0.71   24.97
   4 -11  -9   19.23   33.52
  -4 -12  -9  -10.35   28.36
   4  12  -9    0.90   17.75
  -4 -12  -9   22.16   42.93
   4 -12  -9    5.42   38.48
   4 -12  -9   -2.81   26.91
  -4 -13  -9    9.11   50.63
  -4 -13  -9   19.92   32.77
   4 -13  -9    2.57   29.70
  -4  13  -9  -16.38   19.72
   4 -13  -9   21.42   47.34
  -4   0 -10   44.53   18.07
   4   0 -10   48.56   16.96
  -4   0 -10   21.47   17.80
  -4  -1 -10   29.91   18.40
   4   1 -10   49.72   15.60
  -4  -1 -10   41.78   18.22
  -4   1 -10   34.90   15.73
  -4   1 -10   42.69   16.79
  -4  -2 -10    4.66   19.55
   4   2 -10   14.78   12.95
  -4  -2 -10    4.45   19.04
  -4   2 -10   50.67   17.51
  -4   2 -10   19.59   14.91
   4  -2 -10   26.42   17.47
  -4  -3 -10  -22.28   18.55
  -4  -3 -10    0.04   20.66
   4  -3 -10   28.74   17.59
  -4   3 -10    2.24   13.66
   4  -3 -10    2.40   17.60
  -4  -4 -10   -9.75   19.53
  -4  -4 -10   -6.83   21.08
  -4   4 -10    3.10   13.51
  -4   4 -10   52.06   15.06
   4  -4 -10   11.68   18.84
   4  -4 -10   17.64   18.62
  -4  -5 -10   44.11   22.18
  -4  -5 -10   -1.05   21.14
   4  -5 -10   17.35   20.60
   4  -5 -10   41.45   20.30
  -4   5 -10   -4.47   14.95
  -4  -6 -10  -19.46   21.50
  -4  -6 -10    3.08   23.08
   4  -6 -10   55.49   21.81
  -4   6 -10  -24.88   16.66
   4   6  10  -38.93   23.22
   4  -6 -10    1.71   22.34
  -4  -7 -10   56.45   26.63
  -4  -7 -10   33.64   26.52
   4  -7 -10   74.26   24.83
  -4   7 -10   61.38   21.08
   4  -7 -10   47.01   23.82
  -4  -8 -10    4.87   25.91
  -4  -8 -10  -21.42   24.42
   4  -8 -10   -3.34   24.36
   4  -8 -10  -18.18   24.67
  -4  -9 -10   14.77   28.03
  -4  -9 -10  -11.05   25.87
   4  -9 -10   27.37   27.21
   4  -9 -10  -14.25   26.31
  -4 -10 -10  -22.06   27.63
  -4 -10 -10  -20.75   29.68
   4 -10 -10  -22.79   28.87
   4 -10 -10  -18.55   24.17
  -4 -11 -10  -17.12   34.47
  -4 -11 -10    2.69   27.55
   4 -11 -10   23.43   33.46
   4 -11 -10   21.96   28.34
  -4 -12 -10    3.93   43.30
  -4 -12 -10   17.88   32.56
   4 -12 -10   34.12   38.77
   4 -12 -10  -14.09   30.46
  -4   0 -11   43.65   19.83
  -4   0 -11   55.24   19.81
   4   0 -11   16.50   18.17
   4   1 -11  203.31   33.16
   4   1 -11  212.15   23.20
  -4  -1 -11  304.67   41.70
  -4  -1 -11  253.11   28.97
   4  -1 -11  225.12   25.94
  -4   1 -11  277.35   26.85
  -4   1 -11  240.66   33.76
   4  -1 -11  221.39   36.44
   4   2 -11   -5.97   14.07
  -4  -2 -11   12.04   20.97
  -4  -2 -11    1.49   21.84
   4  -2 -11   56.69   18.80
  -4   2 -11   14.01   16.68
  -4   2 -11   23.28   16.58
  -4  -3 -11    2.38   21.91
  -4  -3 -11   -2.60   21.33
   4  -3 -11   -3.74   20.15
  -4   3 -11    2.31   14.57
   4  -3 -11    9.62   19.14
  -4  -4 -11   -3.51   23.26
  -4  -4 -11  -23.81   23.24
  -4   4 -11   -6.81   14.80
   4  -4 -11   33.56   20.53
   4  -4 -11   -0.68   20.70
  -4  -5 -11   -2.66   24.11
   4  -5 -11    4.70   21.87
  -4   5 -11   26.49   16.56
  -4  -6 -11    8.24   28.35
  -4  -6 -11   30.95   27.06
  -4   6 -11   67.63   19.83
   4  -6 -11   43.44   24.72
   4  -6 -11   81.82   24.22
  -4  -7 -11   26.00   26.44
  -4  -7 -11    5.47   27.61
   4  -7 -11   15.84   24.03
  -4  -8 -11   82.40   29.08
  -4  -8 -11   30.14   30.40
   4  -8 -11   49.69   27.87
   4  -8 -11   33.21   27.82
  -4  -9 -11   -2.47   28.19
  -4  -9 -11  -21.76   29.21
   4  -9 -11  -32.57   27.79
   4  -9 -11   -3.35   27.93
  -4 -10 -11   -2.78   29.42
  -4 -10 -11   42.28   31.85
   4 -10 -11   73.96   31.63
   4 -10 -11   26.88   26.89
  -4 -11 -11   20.38   37.40
  -4 -11 -11    5.48   29.65
   4 -11 -11   28.66   36.13
   4 -11 -11  -13.91   30.39
   4   0 -12  174.52   24.93
  -4   0 -12  302.37   30.30
   4   0 -12  244.51   26.37
  -4  -1 -12    5.59   24.77
   4   1 -12   21.10   17.78
  -4  -1 -12    1.83   21.86
  -4   1 -12   10.84   19.66
  -4   1 -12    3.82   19.31
   4  -1 -12   34.89   19.83
   4  -1 -12  -12.89   21.06
  -4  -2 -12   60.96   29.48
  -4  -2 -12   70.79   24.00
   4   2 -12   40.58   17.15
  -4   2 -12   59.72   19.38
   4  -2 -12   37.41   23.03
   4  -2 -12   78.13   20.69
  -4  -3 -12  -17.28   26.16
  -4   3 -12  -12.76   16.66
   4  -3 -12   38.46   22.60
  -4  -4 -12   11.51   25.86
  -4  -4 -12  -14.12   27.72
  -4   4 -12   28.26   16.95
   4  -4 -12   18.10   23.61
   4  -4 -12  -20.43   24.11
  -4  -5 -12    1.98   29.66
  -4  -5 -12   31.26   27.62
   4  -5 -12   51.70   24.36
   4  -5 -12   11.34   25.70
  -4   5 -12   12.20   18.24
  -4  -6 -12   93.72   29.33
  -4  -6 -12   54.77   34.31
  -4   6 -12  123.48   23.49
   4  -6 -12   97.55   27.60
   4  -6 -12   93.11   32.43
  -4  -7 -12   31.63   33.70
  -4  -7 -12   69.57   29.66
   4  -7 -12   49.13   28.43
   4  -7 -12   91.13   28.11
  -4  -8 -12   27.30   28.97
  -4  -8 -12    9.33   32.10
   4  -8 -12   12.21   28.66
   4  -8 -12   41.12   28.01
  -4  -9 -12   40.33   31.66
  -4  -9 -12   78.61   32.92
   4  -9 -12   41.02   29.83
   4  -9 -12   27.36   29.67
  -4 -10 -12   16.33   34.73
  -4 -10 -12    5.03   33.26
   4 -10 -12   36.93   32.81
   4 -10 -12    7.73   29.60
  -4   0 -13    1.13   25.81
  -4   0 -13  -24.50   26.83
   4   0 -13    9.93   21.02
  -4  -1 -13   98.22   29.82
   4   1 -13  117.47   22.16
  -4  -1 -13  114.91   40.35
  -4   1 -13  125.07   24.92
   4  -1 -13   90.61   26.51
   4  -1 -13  157.95   28.72
  -4  -2 -13  -28.90   30.07
  -4  -2 -13   -5.43   26.16
   4   2 -13  -20.09   18.40
   4  -2 -13    1.10   26.47
   4  -2 -13   41.73   24.90
  -4   2 -13    5.03   20.75
  -4  -3 -13  -23.36   26.10
  -4  -3 -13    1.57   46.93
  -4   3 -13   -6.91   19.44
   4  -3 -13    3.30   23.49
   4  -3 -13  -25.01   27.53
  -4  -4 -13   -9.04   27.60
  -4  -4 -13   -5.05   33.52
   4  -4 -13  -41.20   37.55
   4  -4 -13   21.29   25.37
  -4   4 -13    7.59   19.57
  -4  -5 -13   88.93   31.60
  -4  -5 -13   83.30   47.31
   4  -5 -13  107.41   27.40
  -4   5 -13   84.77   32.37
   4  -5 -13   81.54   32.09
  -4  -6 -13   20.46   35.09
  -4  -6 -13   40.42   31.68
   4  -6 -13   94.00   29.52
   4  -6 -13    7.65   31.64
  -4  -7 -13   71.19   31.32
  -4  -7 -13   18.42   35.17
   4  -7 -13   73.70   32.22
   4  -7 -13   71.80   29.64
  -4  -8 -13   48.25   36.33
  -4  -8 -13   55.18   32.38
   4  -8 -13   68.00   32.74
   4  -8 -13   73.19   31.39
  -4  -9 -13  -14.09   32.09
  -4  -9 -13   -0.78   36.61
   4  -9 -13   25.18   33.68
   4  -9 -13   -9.72   34.38
   4   0 -14   60.90   25.74
  -4   0 -14   48.23   27.24
  -4   0 -14   69.33   31.64
  -4  -1 -14   55.26   34.19
  -4   1 -14  -32.93   24.89
   4  -1 -14  -12.96   25.11
  -4  -2 -14   12.13   28.76
  -4  -2 -14   34.35   36.33
   4   2 -14   -7.47   23.40
   4  -2 -14   26.13   26.27
   4  -2 -14    0.24   32.84
  -4   2 -14    5.22   24.11
  -4  -3 -14   -4.71   29.76
  -4  -3 -14  -45.13   38.53
  -4   3 -14  -20.48   25.98
   4  -3 -14   -0.17   33.18
   4  -3 -14   24.79   26.60
  -4  -4 -14   -9.75   29.41
  -4  -4 -14  -10.65   61.70
   4  -4 -14    1.06   35.14
  -4   4 -14   11.62   34.80
  -4  -5 -14   27.82   31.89
  -4  -5 -14   20.16   40.80
   4  -5 -14   45.54   37.58
   4  -5 -14   25.17   28.42
  -4  -6 -14   74.41   41.97
  -4  -6 -14   87.13   33.52
   4  -6 -14   50.84   35.57
   4  -6 -14   63.95   30.31
  -4  -7 -14   40.61   41.30
  -4  -7 -14   27.95   33.10
   4  -7 -14   47.68   35.45
   4  -7 -14   78.07   31.22
  -4  -8 -14   39.39   42.51
  -4  -8 -14   -7.10   35.36
   4  -8 -14   -0.62   31.97
   4  -8 -14  -23.64   37.38
  -4   0 -15   -5.79   29.47
   4   0 -15    5.78   28.17
  -4  -1 -15   10.39   47.23
  -4  -1 -15  -50.12   30.11
   4   1 -15   -6.50   27.41
  -4   1 -15  -33.72   27.72
   4  -1 -15   -0.91   27.90
  -4  -2 -15   12.36   47.45
  -4  -2 -15  -11.94   31.35
   4   2 -15  -40.36   27.41
  -4   2 -15  -17.37   26.51
   4  -2 -15  -15.10   27.71
  -4  -3 -15   40.43   54.06
  -4  -3 -15  -17.74   32.66
   4  -3 -15    4.76   28.68
   4  -3 -15   66.75   43.55
  -4   3 -15   -9.47   26.23
  -4  -4 -15   54.71   33.75
  -4  -4 -15   53.80   49.81
  -4   4 -15   13.23   26.40
   4  -4 -15   64.83   48.62
   4  -4 -15   18.86   30.00
  -4  -5 -15   64.80   49.94
  -4  -5 -15   31.57   35.56
   4  -5 -15   28.67   31.37
  -4   5 -15   48.95   29.84
   4  -5 -15   42.36   41.94
  -4  -6 -15   63.55   49.10
  -4  -6 -15   54.85   37.35
   4  -6 -15   12.10   40.66
   4  -6 -15   60.94   33.17
  -4  -7 -15   31.17   49.11
  -4  -7 -15    1.99   36.33
   4  -7 -15   32.12   39.49
  -4   0 -16  -49.74   32.61
   4   0 -16   34.02   32.47
   4   1 -16   -8.72   31.68
  -4  -1 -16  -35.25   34.50
  -4   1 -16    9.59   31.41
   4  -1 -16   32.48   33.27
  -4  -2 -16    7.82   34.62
   4   2 -16  -54.98   33.47
   4  -2 -16   12.42   34.13
  -4   2 -16   -0.21   30.90
  -4  -3 -16   55.09   55.77
  -4  -3 -16   41.61   35.65
   4  -3 -16   93.69   35.06
  -4   3 -16   30.65   30.84
  -4  -4 -16  -16.82   36.44
  -4  -4 -16   33.79   59.55
  -4   4 -16  -43.37   31.71
   4  -4 -16   67.90   35.41
   4  -4 -16   75.36   53.03
   5   0   0    3.63    4.87
  -5   0   0   -2.82    6.45
  -5   0   0   -1.96    4.55
  -5   0   0   -0.84    6.03
  -5   1   0  189.84   14.81
  -5   1   0  187.60   16.26
  -5  -1   0  183.73   14.48
  -5   1   0  195.99   12.78
   5   1   0  185.06   12.52
  -5  -1   0  185.91   15.78
   5  -1   0  185.75   12.96
  -5  -1   0  194.53   12.21
  -5  -2   0  114.82   13.41
  -5   2   0  138.02   15.31
  -5  -2   0  120.64   15.66
  -5   2   0  107.70   16.07
   5   2   0  137.61   10.40
  -5   2   0  104.86   12.46
   5  -3   0    5.73   11.49
  -5  -3   0   -9.49    9.38
  -5  -3   0   10.82   11.06
  -5   3   0   12.78   12.41
  -5   3   0    9.90    9.70
  -5  -4   0  110.85   17.69
   5  -4   0  114.99   13.44
   5  -4   0  119.96   23.63
  -5   4   0   82.83   13.96
  -5  -4   0  100.30   20.29
   5   5   0  595.22   35.30
   5  -5   0  544.23   37.10
   5  -5   0  655.18   40.23
  -5  -5   0  613.90   37.80
  -5   5   0  640.46   35.82
  -5  -5   0  644.51   39.16
  -5  -6   0   31.03   15.36
   5   6   0   41.98    9.63
  -5   6   0   28.70    9.49
   5  -6   0   18.05   11.96
   5  -6   0   64.04   14.40
  -5  -6   0   13.21   11.54
  -5  -7   0  131.14   24.02
   5  -7   0  148.53   22.21
  -5   7   0  129.60   16.02
   5   7   0  149.41   15.39
   5  -7   0  152.47   25.09
   5   8   0  357.10   25.99
  -5  -8   0  415.08   34.37
   5  -8   0  372.59   31.58
  -5   8   0  382.31   26.47
  -5  -8   0  352.10   36.63
   5  -8   0  436.73   35.37
   5  -9   0  -28.08   23.20
  -5   9   0  -15.93   13.74
   5  -9   0  -19.27   18.53
   5   9   0    3.76   14.30
  -5  -9   0  -33.46   23.82
   5  10   0  192.11   20.38
  -5 -10   0  179.66   35.29
   5 -10   0  217.28   37.72
   5 -10   0  192.00   31.67
  -5  10   0  175.87   22.16
   5  11   0   77.21   20.68
  -5 -11   0   43.73   22.33
   5 -11   0   84.29   22.43
  -5  11   0   67.22   19.97
  -5 -12   0  -15.14   24.91
  -5  12   0   13.36   19.04
   5 -12   0    2.17   30.68
   5  12   0   21.40   18.51
   5 -12   0   13.71   32.17
   5 -13   0   19.53   26.40
  -5 -13   0   10.79   30.86
   5  13   0   49.61   21.79
  -5  13   0   39.78   21.72
   5  14   0    2.56   24.01
   5 -14   0  -12.61   29.83
  -5  14   0   19.22   23.54
   5  15   0   22.34   24.69
   5 -15   0   44.17   33.95
  -5  15   0   -2.31   26.18
  -5   0  -1   62.30   11.29
  -5   0   1   81.88   11.47
  -5   0   1   73.42    8.69
   5   0   1  101.74    9.38
  -5   0   1  106.83   12.08
   5   0  -1  106.45    8.81
   5   1  -1    5.20    6.21
   5  -1   1    4.01    5.05
  -5   1   1   -2.24    5.32
  -5   1   1    7.31    7.83
  -5  -1  -1    1.29    8.17
  -5  -1  -1    8.24    7.56
  -5  -1   1    3.15    4.92
  -5   1  -1   -4.11    6.83
   5  -1  -1   -0.58    5.03
  -5   1  -1    0.35    4.62
  -5  -1   1   -5.52    6.10
  -5  -1   1    1.34    6.80
   5   1   1    6.51    5.13
  -5   1  -1    0.23    8.90
  -5  -2  -1   44.50   10.11
  -5   2   1   41.86    7.65
  -5   2   1   42.57    7.99
   5   2  -1   47.96    8.05
  -5  -2  -1   22.29    8.48
  -5   2   1   70.31   11.95
  -5   2  -1   30.12    8.30
  -5   2  -1   48.10    6.82
   5   2   1   49.77    6.91
   5  -2  -1   34.00    8.95
  -5   2  -1   39.36    9.72
  -5   3   1   12.34    9.10
   5  -3   1   23.60   10.04
  -5  -3  -1   22.53   10.48
   5  -3   1   21.76   10.56
  -5  -3  -1   60.74   14.73
  -5  -3   1   19.50    9.10
  -5   3  -1   28.37   10.26
   5  -3  -1   31.81   12.12
  -5  -3   1   34.94   13.46
   5  -3  -1   26.71   10.96
  -5   3  -1   40.92   13.60
  -5  -4  -1  261.87   25.83
   5   4  -1  329.16   20.80
  -5   4   1  296.03   21.64
   5  -4   1  404.93   29.10
   5  -4   1  337.40   24.79
  -5  -4  -1  330.09   27.77
  -5   4  -1  349.25   25.14
  -5   4  -1  367.44   26.83
   5   4   1  316.48   21.54
  -5   4  -1  273.95   21.22
   5  -4  -1  291.43   24.05
   5  -4  -1  407.01   29.53
   5   5  -1   22.27    7.77
   5  -5   1   18.38   14.49
  -5   5   1   -3.29    8.76
   5  -5   1    4.34   10.59
  -5  -5  -1    9.19   13.59
  -5  -5  -1   -6.88   10.32
  -5  -5   1   16.15    9.02
   5  -5  -1   -8.02   10.44
  -5   5  -1   -7.89    8.24
   5  -5  -1  -11.68   11.79
   5   5   1   15.24    8.94
  -5  -5   1   41.42   17.56
  -5   6   1  368.03   24.17
   5   6  -1  369.54   23.27
   5  -6   1  341.61   27.55
  -5  -6  -1  370.84   28.94
  -5  -6  -1  365.45   29.83
   5  -6   1  375.21   30.27
   5  -6  -1  351.47   27.40
  -5  -6   1  414.64   27.78
   5  -6  -1  374.89   30.51
  -5  -6   1  328.05   30.04
  -5   6  -1  374.72   23.89
   5   6   1  371.48   24.20
  -5   7   1   93.63   14.27
   5   7  -1   99.43   13.17
  -5  -7  -1   55.63   14.36
  -5  -7  -1   87.91   19.01
   5  -7   1   61.72   14.05
   5  -7   1   92.27   17.50
   5   7   1   92.48   14.77
  -5  -7   1   91.97   18.88
  -5   7  -1   95.78   14.61
  -5  -7   1   63.10   12.44
   5  -7  -1  106.11   17.79
   5  -7  -1   82.85   14.54
  -5  -8  -1  -11.78   15.31
   5   8  -1   37.89   11.78
  -5   8   1   29.79   12.39
   5  -8   1   16.30   15.40
  -5  -8  -1   -1.60   21.41
   5  -8   1   28.24   19.37
  -5   8  -1    8.36   11.88
  -5  -8   1   15.20   13.12
   5  -8  -1   49.57   19.30
   5  -8  -1   15.66   15.54
   5   8   1   30.09   12.71
  -5  -8   1    5.46   21.61
   5  -9   1  420.66   38.08
  -5  -9  -1  382.44   37.80
  -5   9   1  339.91   27.17
   5  -9   1  360.73   34.64
  -5  -9  -1  394.99   37.87
   5   9  -1  338.16   25.98
  -5  -9   1  367.73   33.92
   5  -9  -1  422.86   40.36
   5  -9  -1  396.34   33.79
   5   9   1  340.38   26.74
  -5   9  -1  353.39   27.25
   5 -10   1   25.21   20.30
  -5  10   1   42.55   15.45
   5  10  -1   45.10   15.14
  -5 -10  -1    9.04   20.82
  -5 -10  -1   15.98   24.17
   5 -10  -1   37.59   25.90
   5  10   1   50.10   15.89
  -5 -10   1   24.12   17.26
  -5  10  -1   27.46   15.32
   5 -10  -1   15.25   21.30
  -5 -11  -1  -29.81   22.86
   5 -11   1   13.30   21.19
  -5 -11  -1   58.16   29.48
   5  11  -1   35.26   20.66
   5 -11   1  -23.55   27.98
  -5  11   1   17.72   18.58
  -5  11  -1    4.79   25.79
   5  11   1   35.62   21.52
   5 -11  -1   -0.98   23.55
   5 -11  -1   25.81   22.56
  -5 -11   1   -3.07   18.66
   5 -12   1   53.12   23.62
  -5  12   1   82.36   20.99
   5  12  -1   78.90   18.96
  -5  12  -1   65.52   18.91
   5  12   1   80.10   20.62
   5 -12  -1   63.26   25.11
  -5  13   1  -16.04   22.09
   5  13  -1   22.03   20.17
   5 -13   1   -8.34   25.79
  -5 -13  -1  -41.09   31.86
   5 -13  -1  -20.38   25.68
   5  13   1   15.30   21.76
  -5  13  -1  -10.08   20.21
   5 -14   1   23.14   29.81
   5  14  -1    3.81   22.54
  -5  14   1   10.06   24.69
  -5 -14  -1   24.00   34.36
   5 -14  -1   -8.80   28.05
   5  14   1   28.08   23.58
  -5  14  -1    2.01   22.65
  -5  15   1    8.66   27.20
  -5 -15  -1   44.07   40.61
   5  15  -1   -9.40   23.58
  -5  15  -1    4.15   25.07
   5  15   1   -0.32   26.00
   5 -15  -1   39.91   34.22
  -5   0  -2    1.18    8.93
   5   0   2    7.54    6.10
  -5   0  -2    5.44    7.16
  -5   0   2    8.53    7.87
  -5   0   2    9.13    5.24
  -5   1   2    9.48    6.31
  -5  -1  -2   13.95    9.43
   5  -1   2    8.70    5.78
  -5   1   2   16.52    6.03
   5   1  -2   15.81    5.38
  -5   1  -2   10.74    8.78
   5  -1  -2    8.32    6.09
   5   1   2   13.17    6.11
  -5  -1   2    7.63    6.23
  -5  -1   2    5.55    8.17
  -5   1  -2   -2.07    7.23
  -5  -2  -2   50.30   11.23
   5   2  -2   43.07    6.87
  -5   2   2   64.32    8.97
  -5  -2  -2   70.52   11.96
  -5   2  -2   34.08    9.88
   5  -2  -2   47.32    9.41
   5  -2  -2   68.83   10.03
  -5   2  -2   43.44   11.10
  -5  -2   2   65.43   10.66
   5   2   2   63.56   11.77
  -5  -3  -2  996.61   55.89
   5  -3   2  896.75   56.63
  -5  -3  -2 1000.90   57.34
   5   3   2 1037.54   53.91
  -5   3  -2  924.35   55.49
  -5   3  -2  913.39   56.46
   5  -3  -2 1004.63   55.12
  -5   3  -2  962.92   53.37
   5  -3  -2 1016.15   58.17
  -5  -4  -2   51.77   11.44
  -5   4   2   56.56    9.96
   5  -4   2   93.06   12.58
   5  -4   2   79.76   12.15
   5   4   2   95.48   12.90
  -5   4  -2   59.30   10.53
  -5   4  -2   73.90    9.09
   5  -4  -2   39.62   12.63
  -5  -5  -2   71.12   11.96
   5  -5   2  112.37   16.32
  -5  -5  -2  111.59   19.17
   5  -5   2   76.68   12.16
  -5   5   2   85.65   12.69
  -5   5  -2   76.43   11.75
   5  -5  -2   66.15   12.37
  -5   5  -2  108.26   16.52
   5   5   2  104.03   13.29
   5  -5  -2  108.36   17.07
   5  -6   2   65.14   12.95
   5   6  -2   93.52   11.49
   5  -6   2   98.66   15.22
  -5   6   2   80.67   13.44
  -5  -6  -2   66.50   17.00
  -5   6  -2   64.80    9.97
   5  -6  -2   64.14   13.26
   5  -6  -2  102.50   15.43
   5   6   2   69.32   11.57
   5  -7   2   47.12   12.83
  -5  -7  -2   38.15   18.79
   5   7  -2   75.66   12.14
  -5   7   2   58.10   11.49
   5  -7   2   56.10   17.77
   5   7   2   52.53   12.03
  -5   7  -2   38.56   10.37
   5  -7  -2   69.75   17.01
   5  -7  -2   53.65   13.50
   5  -8   2  124.31   28.08
  -5  -8  -2  102.93   23.95
   5   8  -2  158.39   15.64
  -5   8   2  147.81   17.71
   5   8   2  152.63   18.37
   5  -8  -2  178.93   24.53
  -5   8  -2  112.29   17.43
   5  -8  -2  107.69   18.85
  -5   9   2    2.59   14.18
   5   9  -2   11.65   13.02
   5  -9   2  -37.72   28.80
   5  -9  -2   38.77   22.23
   5   9   2  -12.27   15.29
   5  -9  -2  -22.89   19.93
   5  10  -2   67.91   14.89
   5 -10   2    4.44   28.80
  -5  10   2   65.38   16.66
  -5 -10  -2   30.08   20.71
   5 -10   2   55.80   18.76
  -5 -10  -2   75.59   30.69
   5  10   2   74.03   17.38
   5 -10  -2   75.83   25.96
   5 -10  -2   26.13   21.97
  -5  10  -2   42.61   15.61
  -5 -11  -2    9.09   23.78
   5 -11   2   50.06   19.67
   5  11  -2   53.85   23.79
  -5  11   2   69.06   19.47
   5 -11  -2   47.85   28.71
   5 -11  -2   79.69   29.69
   5  11   2   64.65   24.97
  -5 -12  -2   10.21   36.84
   5  12  -2   18.67   17.96
  -5  12   2    9.45   20.82
   5 -12   2    1.19   20.95
   5  12   2   15.78   20.31
   5 -12  -2  -47.40   25.58
  -5  12  -2   -1.88   18.23
   5 -12  -2   -7.74   26.51
  -5 -13  -2  -18.10   32.86
  -5  13   2   -0.06   23.14
   5  13  -2   -0.52   19.36
   5 -13  -2  -38.24   35.52
   5  13   2   39.62   22.59
   5 -13  -2  -12.03   26.28
  -5  13  -2   30.96   19.38
  -5 -14  -2  -33.49   36.87
   5  14  -2    8.61   21.76
  -5  14   2   10.22   25.53
  -5  14  -2    4.08   21.74
   5  14   2   -3.08   24.54
   5 -14  -2   -4.66   29.53
   5  15  -2   26.09   23.66
  -5 -15  -2    3.35   41.92
  -5  15   2   21.59   28.87
   5 -15  -2  -13.14   35.28
  -5  15  -2  -33.08   24.80
   5  15   2   26.01   27.00
   5   0   3   59.94    8.94
   5   0  -3   54.13    6.92
  -5   0  -3   33.58    9.96
  -5   0  -3   64.76   11.69
  -5   1   3  172.19   13.41
  -5  -1  -3  147.06   18.48
   5   1  -3  147.46   12.89
  -5  -1  -3  143.31   21.47
   5   1   3  198.12   14.73
   5  -1  -3  188.85   19.85
  -5   1  -3  128.81   20.03
  -5   1  -3  163.07   17.54
  -5  -2  -3 1179.06   64.82
  -5  -2  -3 1191.21   65.80
  -5   2   3 1195.42   62.85
   5  -2  -3 1114.39   63.79
  -5   2  -3 1115.16   64.17
   5  -2  -3 1191.77   66.05
  -5   2  -3 1149.49   64.86
   5   2   3 1054.62   63.90
  -5  -3  -3    5.17   12.99
  -5   3   3   -4.85    8.15
  -5  -3  -3   -1.98   11.06
  -5   3  -3    1.31   11.17
  -5   3  -3   -5.69    9.45
   5  -3  -3  -19.07   10.88
   5   3   3   21.35    8.22
  -5   4   3   13.69    8.92
   5  -4   3   19.80   10.94
   5  -4   3   10.96   10.80
  -5  -4  -3   23.36    9.80
  -5   4  -3    8.95   10.95
  -5   4  -3   30.68    9.73
   5  -4  -3   15.87   10.89
   5  -4  -3    4.94   11.07
  -5  -5  -3  245.73   22.14
  -5   5   3  191.85   17.33
   5  -5   3  225.84   23.56
   5  -5   3  215.29   21.07
  -5  -5  -3  185.49   23.85
   5  -5  -3  204.01   21.06
  -5   5  -3  237.60   20.82
   5   5   3  217.58   17.67
   5  -5  -3  188.92   24.93
  -5   5  -3  250.60   16.26
  -5   5  -3  233.56   25.30
  -5  -6  -3   -1.57   11.73
  -5   6   3    9.70   10.09
   5  -6   3   42.68   17.72
  -5  -6  -3    2.81   15.44
   5  -6   3   14.82   11.19
   5   6   3   18.52   10.29
  -5   6  -3   31.47   10.06
   5  -6  -3   15.97   12.22
  -5   6  -3   12.43    7.96
   5  -6  -3   18.86   14.06
  -5   6  -3   20.19   12.21
  -5  -7  -3   26.86   13.78
   5  -7   3   34.53   12.66
  -5   7   3   55.20   12.28
   5  -7   3  -18.75   29.83
  -5  -7  -3   45.40   18.34
   5  -7  -3   72.92   17.61
  -5   7  -3   40.04    9.47
   5  -7  -3   45.86   14.66
   5   7   3   50.89   12.42
  -5  -8  -3  -23.23   21.71
   5   8  -3   16.89   10.20
  -5   8   3   27.24   13.76
   5  -8   3  -14.38   14.75
  -5   8  -3   -4.87   11.09
   5  -8  -3   41.80   19.45
   5   8   3   27.27   14.40
   5  -8  -3    1.48   16.64
  -5   9   3   40.81   16.09
  -5  -9  -3  -26.66   26.02
   5  -9   3   49.98   24.61
   5   9  -3   26.82   12.13
   5  -9  -3   46.65   22.89
   5   9   3   70.60   16.41
   5  -9  -3  -12.58   19.66
  -5 -10  -3   68.44   31.15
   5  10  -3   52.18   13.99
  -5  10   3   55.36   17.84
   5 -10  -3   17.75   22.84
   5  10   3   54.91   17.48
  -5  10  -3   19.96   15.35
   5 -10  -3   69.30   26.30
  -5 -11  -3  -25.38   32.53
  -5  11   3   12.36   19.45
   5 -11  -3  -27.50   27.77
  -5  11  -3  -15.70   19.26
   5 -11  -3   41.96   29.87
  -5 -12  -3  -34.92   27.21
   5  12  -3  -11.84   16.93
  -5  12   3  -22.46   21.95
  -5 -12  -3   19.24   36.14
  -5  12  -3    7.97   18.32
   5 -12  -3  -46.80   29.62
   5  12   3   -1.67   21.81
   5 -12  -3    6.95   27.05
   5  13  -3    6.89   19.09
  -5 -13  -3   52.47   46.68
  -5 -13  -3  -32.51   34.04
  -5  13   3  -30.93   23.72
   5  13   3    7.26   23.12
  -5  13  -3    4.60   19.26
   5 -13  -3  -44.48   25.89
   5 -13  -3   10.92   32.45
   5  14  -3   -9.47   20.94
  -5 -14  -3  -16.47   37.77
  -5  14   3  -13.97   27.48
   5 -14  -3   -0.55   29.77
  -5  14  -3   10.48   21.66
   5 -14  -3   62.32   59.65
   5  14   3   13.01   24.86
   5  15  -3   -6.41   24.07
  -5  15   3  -29.85   30.25
  -5 -15  -3  -44.04   41.38
   5  15   3    1.95   26.76
   5 -15  -3    9.82   33.82
  -5  15  -3   -3.71   24.17
   5   0   4   -0.13    7.51
  -5   0  -4    3.89   11.99
   5   0  -4  -10.53    6.61
   5   0  -4   -5.28    8.73
  -5  -1  -4  792.43   48.22
  -5  -1  -4  763.42   46.36
  -5   1  -4  782.25   45.73
   5  -1  -4  834.41   48.04
   5  -1  -4  723.29   44.76
   5   1   4  848.14   44.45
  -5   1  -4  779.45   47.37
  -5   2   4   63.39    9.74
  -5  -2  -4   33.57   11.08
  -5  -2  -4   56.45   13.49
   5  -2  -4   31.98   11.01
  -5   2  -4   37.26    9.94
   5  -2  -4   53.54   11.00
  -5   2  -4   44.40   11.49
   5   2   4   43.82    8.70
  -5   3   4  154.78   15.34
  -5  -3  -4  156.63   18.71
  -5  -3  -4  130.64   20.69
   5  -3  -4  137.77   22.36
  -5   3  -4  156.09   16.60
   5  -3  -4  103.60   16.90
  -5   3  -4  152.21   19.37
   5   3   4  156.25   14.55
   5  -4   4  348.44   26.92
  -5  -4  -4  316.45   27.07
   5  -4   4  290.80   22.91
  -5  -4  -4  344.92   24.88
  -5   4   4  334.06   22.17
   5  -4  -4  303.89   23.85
   5  -4  -4  306.89   27.47
  -5   4  -4  308.67   23.57
  -5   4  -4  331.05   25.89
   5   4   4  328.71   21.70
  -5  -5  -4   29.69   11.30
   5  -5   4   30.83   10.54
  -5   5   4   35.13   10.88
  -5  -5  -4   38.82   13.46
   5  -5   4   33.54   12.66
  -5   5  -4   39.80   10.85
  -5   5  -4   19.81   12.48
   5  -5  -4   25.21   11.89
   5   5   4   45.56   10.23
   5  -5  -4   47.56   13.16
  -5  -6  -4  146.65   21.68
  -5   6   4  124.25   16.89
  -5  -6  -4  153.68   24.42
   5  -6  -4  159.89   21.07
  -5   6  -4  205.98   35.44
   5   6   4  144.27   16.42
  -5   6  -4  152.98   18.93
   5  -6  -4  162.61   25.34
  -5   6  -4  134.55   13.78
  -5  -7  -4  -20.25   13.70
  -5  -7  -4   -2.64   17.66
  -5   7   4    8.52   13.30
   5  -7  -4  -14.76   13.82
  -5   7  -4   -5.15    8.58
   5   7   4   21.89   12.61
   5  -7  -4   16.47   17.12
  -5   7  -4   14.76   13.85
  -5  -8  -4   21.21   21.74
  -5  -8  -4    8.58   16.54
   5   8  -4   31.57    9.43
   5  -8  -4   13.22   18.25
  -5   8  -4   15.27   10.47
   5  -8  -4   77.60   20.70
   5   8   4   54.06   14.89
  -5   9   4   82.25   17.38
  -5  -9  -4   18.16   26.46
   5  -9  -4   36.87   21.46
   5  -9  -4   88.57   22.55
  -5   9  -4   49.31   12.87
   5   9   4   71.07   16.68
  -5 -10  -4  -36.78   29.97
   5  10  -4   10.50   12.47
  -5  10   4   -1.13   18.24
  -5 -10  -4  -29.03   20.10
   5 -10  -4    1.60   25.75
   5  10   4    8.01   17.14
  -5  10  -4  -12.34   14.26
   5 -10  -4  -16.17   22.99
  -5  11   4   -3.42   20.90
  -5 -11  -4   -5.53   35.92
  -5  11  -4  -23.82   16.70
   5 -11  -4   20.60   30.75
  -5 -12  -4   28.23   32.90
   5  12  -4  -29.70   16.59
  -5  12   4  -30.54   23.65
   5 -12  -4  -25.68   34.66
   5 -12  -4  -15.68   26.96
  -5  12  -4  -31.87   18.20
   5  12   4  -10.69   21.42
  -5  13   4  -30.03   26.40
   5  13  -4   -4.55   19.10
  -5 -13  -4   65.55   42.21
  -5 -13  -4  -48.50   30.39
   5  13   4   28.88   24.23
   5 -13  -4   38.14   47.23
  -5  13  -4  -19.60   19.36
   5 -13  -4  -47.11   26.55
  -5 -14  -4  -35.63   35.92
   5  14  -4  -28.25   20.29
  -5  14   4  -14.20   28.59
   5 -14  -4  -29.37   45.87
  -5  14  -4   -7.02   20.61
   5  14   4   -5.53   26.17
   5 -14  -4  -35.31   29.12
  -5  15   4  -13.05   31.26
  -5 -15  -4   11.49   43.32
   5  15  -4  -14.37   26.09
   5 -15  -4    1.27   32.61
   5  15   4  -16.65   29.95
  -5  15  -4   -2.49   23.34
  -5   0  -5  744.30   44.93
   5   0  -5  719.64   40.30
   5   0  -5  722.12   43.93
  -5   0  -5  724.34   42.68
  -5  -1  -5   42.92   11.43
  -5  -1  -5   66.19   13.12
   5  -1  -5   57.26   11.62
  -5   1  -5   58.71   10.51
  -5   1  -5   74.45   11.63
   5  -1  -5   69.02   10.60
   5   1   5   67.71    9.98
  -5   2   5  200.48   18.59
  -5  -2  -5  226.06   23.89
  -5  -2  -5  230.94   21.10
   5   2   5  244.58   18.03
   5  -2  -5  251.55   23.91
  -5   2  -5  261.90   19.11
   5  -2  -5  210.48   18.94
  -5   2  -5  247.24   21.35
  -5  -3  -5  146.67   21.75
  -5   3   5  109.42   15.35
  -5  -3  -5  155.06   18.34
   5   3   5  155.85   14.40
   5  -3  -5  138.00   16.53
  -5   3  -5  119.53   18.15
   5  -3  -5  139.05   21.47
  -5   3  -5  125.63   16.56
  -5   4   5  174.93   20.13
  -5  -4  -5  135.32   18.86
  -5  -4  -5  117.41   22.78
  -5   4  -5  127.64   19.63
   5  -4  -5  115.13   17.91
   5   4   5  122.98   14.90
   5  -4  -5  111.84   22.54
  -5   4  -5  138.07   16.75
  -5   5   5  275.36   21.69
  -5  -5  -5  284.41   24.63
  -5  -5  -5  267.79   27.77
   5  -5  -5  243.44   23.89
  -5   5  -5  297.46   25.71
   5   5   5  266.96   20.72
  -5   5  -5  277.72   22.61
   5  -5  -5  296.92   27.67
  -5   6   5   74.25   13.78
  -5  -6  -5   63.84   16.58
  -5   6  -5   81.19   15.14
   5  -6  -5   98.25   17.67
  -5   6  -5   73.01   10.92
   5  -6  -5   35.65   14.18
   5   6   5   71.61   12.93
  -5   6  -5   58.29   14.08
  -5  -7  -5   43.84   19.78
  -5  -7  -5   15.13   16.01
  -5   7   5   40.44   14.83
   5   7   5   62.99   14.17
   5  -7  -5   64.06   18.23
   5  -7  -5   34.40   15.92
  -5   7  -5   32.34    9.47
  -5   7  -5   64.81   15.73
  -5  -8  -5  162.31   27.47
  -5   8   5  144.14   22.39
   5  -8  -5  167.83   26.62
  -5   8  -5  141.97   15.79
   5   8   5  162.24   20.29
   5   9  -5   21.18   10.17
  -5  -9  -5  -21.68   17.97
  -5   9   5   37.50   17.88
  -5  -9  -5  -12.10   23.98
   5  -9  -5   -5.31   21.24
   5   9   5   29.87   17.08
  -5   9  -5    9.01   11.74
   5  -9  -5   20.90   22.40
  -5  10   5   15.20   19.43
   5  10  -5   14.56   12.35
  -5 -10  -5  -21.51   29.31
   5  10   5   17.59   18.55
  -5  10  -5    0.13   13.40
   5 -10  -5   11.83   24.92
  -5 -11  -5  -53.81   34.76
  -5  11   5  -14.44   22.73
  -5  11  -5  -11.17   16.33
   5 -11  -5  -19.72   31.18
  -5 -12  -5   17.02   42.86
   5  12  -5  -19.99   16.43
  -5  12  -5  -21.28   18.02
   5  12   5  -13.62   23.47
   5 -12  -5  -21.09   46.31
   5  13  -5    6.59   19.84
  -5 -13  -5  -80.31   59.67
  -5  13   5  -18.38   28.22
   5  13   5    1.23   25.99
   5 -13  -5  -27.76   45.11
  -5  13  -5  -11.10   19.15
   5 -13  -5  -31.10   27.37
  -5  14   5   -6.71   30.03
  -5 -14  -5   33.19   62.11
   5  14  -5   -4.69   21.73
  -5 -14  -5  -32.66   34.65
   5  14   5  -13.06   28.20
   5 -14  -5  -42.14   29.17
  -5  14  -5    0.19   20.98
   5 -14  -5  -37.30   42.66
  -5   0  -6   12.77   10.64
   5   0  -6   -2.33    8.57
  -5   0  -6   15.83   11.85
   5   0  -6  -11.15    9.50
  -5  -1  -6  281.88   25.89
   5   1  -6  233.83   25.58
  -5  -1  -6  264.16   21.86
   5  -1  -6  224.01   19.42
  -5   1  -6  257.90   20.23
   5   1   6  233.34   19.45
   5  -1  -6  225.24   37.32
  -5  -2  -6  304.49   27.40
  -5  -2  -6  285.57   23.98
  -5   2  -6  313.45   22.14
  -5   2  -6  295.43   25.20
   5  -2  -6  303.97   26.66
   5  -2  -6  276.68   22.01
   5   2   6  330.68   21.88
  -5   3   6  164.91   19.65
  -5  -3  -6  189.99   25.48
  -5  -3  -6  197.08   20.89
   5  -3  -6  190.18   19.36
   5   3   6  188.77   25.34
   5  -3  -6  207.21   24.06
  -5   3  -6  213.28   20.87
  -5   3  -6  215.95   17.88
  -5   4   6  200.28   19.92
  -5  -4  -6  223.02   22.23
  -5  -4  -6  201.09   25.72
  -5   4  -6  197.74   19.07
  -5   4  -6  211.10   21.74
   5   4   6  217.35   18.35
   5  -4  -6  217.63   24.48
   5  -4  -6  170.27   20.74
  -5  -5  -6   75.57   16.63
  -5   5   6   70.32   14.17
  -5  -5  -6   40.62   13.88
   5  -5  -6   87.83   15.71
   5  -5  -6   50.69   13.86
   5   5   6   67.31   12.18
  -5   5  -6   75.51   13.79
  -5  -6  -6   73.27   18.09
  -5   6   6   75.96   15.83
  -5  -6  -6   73.59   17.49
   5  -6  -6   84.95   18.47
  -5   6  -6   77.91   13.71
  -5   6  -6   84.59   16.32
   5   6   6   89.37   14.08
  -5  -7  -6  268.23   28.38
  -5   7   6  241.80   24.72
  -5  -7  -6  220.28   33.07
   5  -7  -6  220.94   34.08
  -5   7  -6  281.63   24.97
   5   7   6  263.18   23.34
  -5   7  -6  188.76   28.30
   5  -7  -6  291.57   27.95
  -5   8   6   16.37   17.92
  -5  -8  -6    1.92   19.29
  -5  -8  -6   22.38   22.75
   5  -8  -6    4.76   20.83
   5  -8  -6   45.78   21.08
   5   8   6   36.79   16.98
  -5   9   6   59.77   19.90
  -5  -9  -6    0.20   20.98
  -5  -9  -6   45.01   24.47
   5  -9  -6   46.86   23.14
  -5   9  -6   34.87   10.94
   5  -9  -6   26.40   22.41
   5   9   6   68.01   18.95
  -5  10   6    5.65   21.00
   5  10  -6   -5.32   11.52
  -5 -10  -6  -21.68   29.87
  -5 -10  -6  -14.50   21.63
   5 -10  -6   11.39   25.63
   5 -10  -6   -2.16   25.47
  -5  10  -6  -23.14   22.39
   5  10   6   14.70   20.01
  -5 -11  -6  -57.50   36.53
   5  11  -6  -11.40   15.14
  -5  11   6  -23.72   23.95
   5 -11  -6  -49.52   26.82
  -5  11  -6    6.04   16.06
   5  11   6  -34.33   34.30
   5 -11  -6   -5.27   36.45
   5  12  -6  -12.87   16.89
  -5 -12  -6  -43.46   49.51
  -5  12   6  -40.37   26.88
   5 -12  -6   -8.11   37.23
   5  12   6   -9.93   25.70
  -5  12  -6   12.03   18.25
   5 -12  -6  -27.98   25.20
   5  13  -6   -4.86   19.70
  -5 -13  -6  -14.52   29.94
  -5 -13  -6  -55.04   42.53
   5 -13  -6  -34.42   26.97
   5 -13  -6   17.49   46.73
  -5  13  -6  -21.89   19.41
   5  13   6    7.73   28.43
  -5  14   6  -54.37   31.83
  -5 -14  -6  -15.00   32.83
   5  14  -6   -5.11   21.37
  -5 -14  -6   -9.05   60.95
   5 -14  -6  -30.75   29.71
   5 -14  -6    3.88   43.00
   5  14   6   -7.67   31.51
  -5  14  -6   -8.82   21.50
   5   0  -7  560.27   37.82
   5   0  -7  548.55   33.84
  -5   0  -7  594.64   38.83
  -5   0  -7  575.51   36.04
  -5  -1  -7  175.90   26.12
   5   1  -7  154.54   22.01
   5   1  -7  179.72   15.93
  -5  -1  -7  180.80   20.87
   5  -1  -7  183.39   23.18
  -5   1  -7  184.66   18.96
  -5   1  -7  181.21   23.08
   5  -1  -7  194.02   17.56
  -5  -2  -7  292.93   30.13
  -5  -2  -7  301.72   25.58
   5  -2  -7  314.17   23.20
   5   2   7  318.99   23.53
  -5   2  -7  313.49   22.93
  -5   2  -7  317.59   26.82
   5  -2  -7  325.87   28.10
  -5  -3  -7  292.93   30.50
  -5  -3  -7  281.03   25.61
   5  -3  -7  334.54   27.78
  -5   3  -7  313.37   22.35
  -5   3  -7  304.04   24.93
   5  -3  -7  288.07   23.98
   5   3   7  290.59   22.88
  -5  -4  -7   -7.92   15.73
  -5  -4  -7  -10.40   14.40
  -5   4   7  -15.70   16.11
   5  -4  -7    8.25   13.87
   5  -4  -7    6.34   12.45
   5   4   7   -9.41   11.41
  -5   4  -7   11.28   17.93
  -5   4  -7   10.98   11.73
  -5  -5  -7  102.04   18.14
  -5   5   7   84.06   22.15
  -5  -5  -7   67.22   17.62
   5  -5  -7   70.53   15.97
   5  -5  -7   95.11   17.85
   5   5   7   87.36   14.13
  -5   5  -7  135.86   22.72
  -5   5  -7  111.62   18.04
  -5   6   7  198.85   23.87
  -5  -6  -7  207.52   26.35
  -5  -6  -7  182.81   32.90
  -5   6  -7  228.84   28.08
   5   6   7  190.87   21.37
  -5   6  -7  202.85   23.25
   5  -6  -7  182.46   32.03
  -5  -7  -7    2.53   20.21
  -5   7   7   -7.33   17.65
   5  -7  -7   13.23   20.18
  -5   7  -7  -28.25   15.34
   5  -7  -7  -18.36   18.21
   5   7   7  -15.29   15.47
  -5   7  -7   -7.05   18.00
  -5  -8  -7  295.13   32.22
  -5  -8  -7  270.60   37.84
  -5   8   7  266.98   27.89
   5   8   7  274.84   26.45
   5  -8  -7  344.49   31.90
   5  -8  -7  316.08   41.42
  -5   8  -7  301.46   27.81
  -5   9   7  -20.35   20.18
  -5  -9  -7    2.31   24.35
   5  -9  -7   63.80   24.32
   5  -9  -7   20.99   27.71
   5   9   7   23.40   19.37
  -5 -10  -7  -33.48   30.92
   5  10  -7   -5.79   11.04
  -5  10   7  -26.16   22.30
   5 -10  -7    4.28   30.11
   5 -10  -7  -37.67   23.50
   5  10   7  -23.63   21.53
  -5  10  -7  -13.59   13.27
   5  11  -7  -14.81   14.23
  -5 -11  -7  -47.14   37.08
   5  11   7  -63.31   30.24
  -5  11  -7  -24.27   14.81
   5 -11  -7   27.18   32.36
   5 -11  -7  -33.71   27.00
   5  12  -7   -4.23   17.20
  -5  12   7  -26.64   28.60
  -5 -12  -7  -22.69   27.96
  -5 -12  -7    9.43   46.53
   5  12   7  -16.84   27.85
  -5  12  -7  -20.69   17.57
   5 -12  -7  -19.93   25.00
   5 -12  -7  -46.78   37.63
  -5 -13  -7  -49.94   29.06
  -5 -13  -7   39.47   54.70
   5  13  -7  -18.85   18.95
   5 -13  -7  -35.37   27.41
   5  13   7  -26.84   31.10
  -5  13  -7  -26.61   19.25
   5 -13  -7  -57.04   45.58
   5  14  -7   -9.36   23.65
  -5 -14  -7   -9.27   35.22
   5 -14  -7  -39.63   32.18
  -5  14  -7   -4.66   21.62
   5  14   7  -20.38   34.24
   5   0  -8   30.10   11.11
  -5   0  -8    7.45   12.73
   5   0  -8   19.64   12.03
  -5   0  -8   11.33   14.19
   5   1  -8  371.88   24.88
   5   1  -8  408.97   32.88
  -5  -1  -8  340.94   33.57
  -5  -1  -8  342.51   28.62
   5  -1  -8  368.53   26.27
  -5   1  -8  399.65   31.40
   5  -1  -8  385.57   31.09
  -5   1  -8  378.17   27.25
  -5  -2  -8  203.58   23.73
  -5  -2  -8  229.98   30.72
   5   2  -8  204.61   17.52
   5  -2  -8  241.05   26.66
   5  -2  -8  220.56   21.23
  -5   2  -8  195.49   20.22
  -5  -3  -8   16.97   16.43
  -5  -3  -8    0.09   15.36
  -5   3  -8   34.38   12.12
  -5   3  -8   28.77   12.68
   5  -3  -8   40.18   14.72
   5  -3  -8   38.72   13.94
   5   3   8   35.32   18.53
  -5  -4  -8  100.94   18.98
  -5  -4  -8  148.11   20.63
  -5   4  -8  139.16   21.12
   5   4   8  132.23   21.57
   5  -4  -8  155.70   28.22
  -5   4  -8  131.12   19.00
   5  -4  -8  149.14   22.66
  -5  -5  -8   36.17   19.21
  -5  -5  -8   26.20   17.72
  -5   5   8    9.91   17.91
   5  -5  -8   32.80   17.74
  -5   5  -8   64.21   13.09
  -5   5  -8   63.09   14.96
   5   5   8   38.75   15.06
   5  -5  -8   83.33   18.53
  -5  -6  -8   -0.67   19.96
  -5  -6  -8  -33.49   19.52
   5   6   8  -20.44   15.42
  -5   6  -8   26.58   14.31
   5  -6  -8   34.17   19.51
   5  -6  -8   -8.36   19.15
  -5   6  -8  -19.46   15.83
  -5  -7  -8  351.55   40.56
  -5  -7  -8  361.75   33.89
   5   7   8  338.82   29.20
   5  -7  -8  354.49   33.09
   5  -7  -8  389.78   41.66
  -5   7  -8  346.08   31.11
  -5  -8  -8   10.05   22.96
  -5  -8  -8  -29.62   21.59
   5  -8  -8   -2.82   22.92
  -5   8  -8   23.45   19.49
   5   8   8   18.95   18.91
   5  -8  -8   36.07   22.96
  -5  -9  -8  -10.16   23.15
   5   9   8   27.20   20.45
   5  -9  -8   12.74   26.74
   5  -9  -8   55.87   27.15
  -5 -10  -8  -17.88   31.54
   5  10   8   -8.12   23.65
   5 -10  -8    7.35   24.91
   5 -10  -8   26.61   28.26
  -5 -11  -8  -40.98   37.22
   5  11  -8   -3.37   14.37
  -5 -11  -8  -28.13   25.17
  -5  11  -8  -18.98   14.74
   5  11   8  -26.83   32.45
   5 -11  -8   21.81   32.95
   5 -11  -8  -18.84   26.44
  -5 -12  -8    7.37   29.05
   5  12  -8    0.92   17.23
  -5 -12  -8   31.77   44.36
   5  12   8  -10.32   30.42
   5 -12  -8  -18.54   26.13
   5 -12  -8    9.84   38.71
  -5  12  -8  -21.40   17.61
  -5 -13  -8  -33.89   57.11
   5  13  -8   -7.80   19.99
  -5 -13  -8   -4.10   30.13
   5 -13  -8  -34.70   28.15
  -5  13  -8    9.48   20.12
   5 -13  -8  -37.65   46.61
   5  13   8  -69.16   31.85
  -5   0  -9  173.15   30.18
   5   0  -9  217.34   20.70
  -5   0  -9  186.42   23.95
   5   1  -9  116.78   16.73
  -5  -1  -9  107.62   18.17
   5   1  -9   66.33   13.27
  -5  -1  -9   79.36   17.85
   5   1  -9   52.76   13.82
  -5   1  -9   87.46   16.48
   5  -1  -9   82.03   15.23
   5  -1  -9  125.10   19.21
  -5   1  -9   82.57   15.09
  -5  -2  -9   71.13   18.46
   5   2  -9   96.24   15.96
  -5  -2  -9  107.09   19.56
  -5   2  -9   79.92   17.24
  -5   2  -9  104.33   15.67
   5  -2  -9  104.69   16.19
   5  -2  -9  116.40   20.49
  -5  -3  -9  104.06   21.09
  -5  -3  -9  157.18   25.12
  -5   3  -9  147.22   23.29
  -5   3  -9  141.86   19.41
   5  -3  -9  162.73   29.97
   5  -3  -9  186.51   23.09
  -5  -4  -9    0.69   19.14
  -5  -4  -9   20.28   19.97
   5  -4  -9   59.95   18.46
   5   4   9  -14.10   15.38
   5  -4  -9   15.82   16.75
  -5  -5  -9  -11.02   20.31
  -5  -5  -9    8.36   20.08
  -5   5  -9   34.37   12.80
  -5   5  -9   13.47   14.87
   5   5   9  -15.36   15.33
   5  -5  -9    7.03   17.98
  -5  -6  -9   67.55   20.55
  -5  -6  -9   88.14   23.25
  -5   6  -9   94.99   18.92
   5  -6  -9   90.19   22.54
   5  -6  -9  151.10   26.29
  -5  -7  -9   -2.29   22.48
  -5  -7  -9  -11.40   21.36
   5  -7  -9   71.97   21.65
  -5   7  -9   20.63   19.91
   5  -7  -9   21.32   21.02
  -5  -8  -9   31.50   27.48
  -5  -8  -9   69.05   29.01
   5  -8  -9   93.56   25.72
  -5   8  -9   81.02   21.33
   5  -8  -9   46.87   38.84
  -5  -9  -9   -6.80   26.23
  -5  -9  -9  -20.91   23.56
   5  -9  -9  -36.48   24.20
   5  -9  -9   19.86   26.37
  -5 -10  -9  -22.80   30.38
  -5 -10  -9  -34.84   24.46
   5 -10  -9  -20.97   27.77
   5 -10  -9   23.56   29.08
  -5 -11  -9  -22.66   28.61
  -5 -11  -9   22.23   37.37
   5 -11  -9   30.37   32.18
   5  11   9  -30.81   26.84
  -5  11  -9   -6.38   14.97
   5 -11  -9   -5.72   27.08
  -5 -12  -9   -3.27   44.00
  -5 -12  -9    1.00   28.57
   5  12   9  -29.91   25.61
   5 -12  -9  -20.41   27.15
   5 -12  -9   34.34   38.55
  -5  12  -9   -0.18   17.71
  -5 -13  -9   -8.37   31.32
   5 -13  -9    0.92   29.35
   5  13   9  -41.67   28.89
  -5  13  -9   20.53   20.97
   5   0 -10   41.01   15.73
  -5   0 -10   28.63   17.50
  -5   0 -10   43.46   18.62
  -5  -1 -10  -19.92   18.77
   5   1 -10   -9.24   13.76
   5   1 -10   11.86   15.67
  -5  -1 -10   -3.87   19.14
   5  -1 -10   13.76   16.38
  -5   1 -10  -13.32   16.63
   5  -1 -10  -24.63   23.49
  -5   1 -10    4.22   18.20
  -5  -2 -10   24.78   19.66
   5   2 -10   36.77   13.75
  -5  -2 -10   24.23   19.92
   5  -2 -10   45.10   17.81
  -5   2 -10   35.21   15.62
  -5   2 -10   18.85   14.28
   5  -2 -10   78.47   17.63
  -5  -3 -10   36.74   21.04
  -5  -3 -10   33.11   20.99
  -5   3 -10   41.30   15.11
   5  -3 -10   69.67   18.83
   5  -3 -10   29.00   18.34
  -5  -4 -10  -13.91   21.56
  -5  -4 -10  -10.92   21.11
  -5   4 -10   -6.85   14.29
  -5   4 -10   17.69   13.03
   5  -4 -10   10.05   18.96
   5  -4 -10   30.77   19.14
  -5  -5 -10   10.55   21.69
  -5  -5 -10   -9.01   22.62
  -5   5 -10   27.21   15.97
   5  -5 -10    2.47   19.54
   5  -5 -10   26.80   19.89
  -5  -6 -10    2.34   25.96
  -5  -6 -10   -7.38   22.30
   5  -6 -10   70.65   26.84
  -5   6 -10   16.33   17.69
   5  -6 -10    8.07   22.70
   5   6  10  -30.43   19.91
  -5  -7 -10   -7.92   25.79
   5  -7 -10  -33.19   23.68
   5  -7 -10   22.45   24.23
  -5   7 -10  -10.61   20.87
  -5  -8 -10  -17.28   25.30
  -5  -8 -10    7.72   27.35
   5  -8 -10   -7.34   24.71
  -5   8 -10   35.61   23.40
   5  -8 -10   42.91   25.66
  -5  -9 -10  -10.21   28.66
  -5  -9 -10  -30.39   27.51
   5  -9 -10   10.10   28.33
   5  -9 -10  -30.58   25.68
  -5 -10 -10   15.58   27.21
  -5 -10 -10   55.98   31.73
   5 -10 -10   28.92   31.12
   5 -10 -10   11.34   29.79
  -5  10 -10   21.25   12.68
  -5 -11 -10  -17.07   28.02
  -5 -11 -10   54.68   37.52
   5 -11 -10   12.72   32.58
  -5  11 -10   -0.19   14.84
   5 -11 -10  -10.68   27.33
  -5 -12 -10    6.91   30.18
  -5 -12 -10   53.18   43.80
  -5  12 -10   14.00   18.02
   5 -12 -10    2.77   38.74
   5 -12 -10   10.72   29.33
   5   0 -11  133.48   21.89
  -5   0 -11  106.63   21.48
   5   0 -11  123.23   20.56
  -5   0 -11   64.23   22.02
   5   1 -11   32.95   16.09
  -5  -1 -11   25.23   21.35
  -5  -1 -11   -9.83   20.43
   5   1 -11   37.93   18.41
   5  -1 -11   40.57   19.07
   5  -1 -11   42.62   17.53
  -5   1 -11   54.55   17.01
  -5   1 -11   32.47   18.26
  -5  -2 -11   -8.65   22.04
  -5  -2 -11   -7.22   21.15
   5   2 -11   27.56   14.88
   5  -2 -11    9.02   30.45
  -5   2 -11   11.22   16.50
   5  -2 -11   38.97   18.46
  -5   2 -11   27.66   16.24
  -5  -3 -11   10.59   22.55
  -5  -3 -11   -6.88   23.08
  -5   3 -11   21.65   16.04
   5  -3 -11   20.84   19.12
  -5   3 -11   24.92   14.43
   5  -3 -11   11.04   20.15
  -5  -4 -11   22.73   26.00
  -5  -4 -11   22.64   24.86
  -5   4 -11   33.00   16.17
   5  -4 -11   26.99   21.82
   5  -4 -11   66.64   21.30
  -5  -5 -11   -4.74   24.82
  -5  -5 -11  -37.10   25.88
   5  -5 -11   25.81   27.33
  -5   5 -11   -2.72   17.23
   5  -5 -11   -5.53   22.65
  -5  -6 -11   44.53   26.04
  -5  -6 -11  -16.48   28.08
   5  -6 -11   76.39   24.36
   5  -6 -11   23.22   26.56
  -5   6 -11   64.81   19.55
  -5  -7 -11   27.51   28.38
  -5  -7 -11   -6.04   28.67
  -5   7 -11   60.90   30.30
   5  -7 -11   42.20   23.97
   5  -7 -11    1.38   33.27
  -5  -8 -11   29.66   28.24
  -5  -8 -11  -18.15   28.00
  -5   8 -11    9.73   24.45
   5  -8 -11  -23.63   26.54
   5  -8 -11    7.62   25.48
  -5  -9 -11    8.56   29.69
  -5  -9 -11   36.07   31.79
   5  -9 -11   67.20   29.31
   5  -9 -11    3.19   28.38
  -5 -10 -11   38.19   33.55
  -5 -10 -11   27.99   30.97
   5 -10 -11   42.20   32.56
  -5  10 -11    1.04   12.56
   5 -10 -11   24.30   28.36
  -5 -11 -11    0.11   32.99
  -5 -11 -11   30.28   39.40
   5 -11 -11  -16.93   28.73
   5 -11 -11   55.11   36.17
  -5  11 -11   30.13   15.09
   5   0 -12   24.12   20.35
   5   0 -12   12.98   18.30
  -5   0 -12    9.17   22.39
  -5   0 -12   -1.85   21.48
   5   1 -12   67.91   18.01
  -5  -1 -12   71.59   24.09
  -5  -1 -12   87.10   26.29
   5  -1 -12   79.33   20.40
  -5   1 -12   78.05   21.33
   5  -1 -12   48.27   22.38
  -5   1 -12   73.65   20.81
  -5  -2 -12  -17.84   25.86
  -5  -2 -12   26.90   26.53
   5   2 -12   10.69   16.47
   5  -2 -12   16.77   22.52
   5  -2 -12   54.00   20.71
  -5   2 -12  -22.52   18.04
   5   3 -12   -4.85   20.67
  -5  -3 -12  -16.31   27.91
  -5  -3 -12   15.76   28.04
   5  -3 -12   -8.64   31.19
   5  -3 -12   30.61   38.66
  -5   3 -12   -9.78   17.60
  -5  -4 -12    2.67   26.26
  -5  -4 -12  -25.45   28.23
   5  -4 -12   12.45   22.92
  -5   4 -12   12.66   18.10
   5  -4 -12  -12.70   24.52
  -5  -5 -12   97.21   28.59
  -5   5 -12  120.82   20.74
   5  -5 -12  111.35   25.68
   5  -5 -12   58.58   26.51
  -5  -6 -12  -11.76   31.58
  -5  -6 -12    8.06   27.85
   5  -6 -12   40.62   24.65
  -5   6 -12   34.10   28.65
   5  -6 -12  -33.09   54.25
  -5  -7 -12   30.77   32.35
  -5  -7 -12   53.06   30.48
   5  -7 -12   46.51   25.89
   5  -7 -12   23.74   30.85
  -5   7 -12  105.40   26.07
  -5  -8 -12   34.45   31.51
  -5  -8 -12   41.14   31.49
   5  -8 -12   62.36   29.32
   5  -8 -12   59.99   32.75
  -5  -9 -12   -2.37   33.13
  -5  -9 -12   14.61   32.27
   5  -9 -12  -26.27   29.38
   5  -9 -12   21.88   29.65
  -5 -10 -12   37.83   33.13
  -5 -10 -12   37.30   35.19
  -5  10 -12   40.31   13.45
   5 -10 -12   45.92   33.86
   5 -10 -12   29.46   30.24
  -5   0 -13   44.14   27.35
  -5   0 -13   55.90   30.43
   5   0 -13   96.31   22.49
   5   1 -13   -9.70   20.48
  -5  -1 -13   19.35   28.29
  -5  -1 -13   19.30   25.39
   5  -1 -13  -28.38   24.97
  -5   1 -13   13.59   22.18
  -5   1 -13  -38.40   38.30
   5  -1 -13   40.53   40.60
   5   2 -13    8.04   19.13
  -5  -2 -13   16.80   30.82
  -5  -2 -13  -24.29   26.81
   5  -2 -13   62.96   24.08
  -5   2 -13    5.72   21.46
   5  -2 -13  -47.62   27.00
  -5  -3 -13   -8.17   34.07
  -5  -3 -13  -14.90   28.12
   5  -3 -13   30.36   23.67
  -5   3 -13   -8.50   20.38
   5  -3 -13   20.41   28.04
  -5  -4 -13   25.26   36.24
  -5  -4 -13   56.66   30.60
  -5   4 -13   42.76   21.72
   5  -4 -13   52.30   25.04
   5  -4 -13   12.05   30.53
  -5  -5 -13  -17.47   37.19
  -5  -5 -13   -6.24   29.06
   5  -5 -13   -3.86   33.03
  -5   5 -13   29.86   24.03
   5  -5 -13   28.67   25.13
  -5  -6 -13   55.84   31.50
  -5  -6 -13   66.33   38.40
   5  -6 -13  110.84   28.69
   5  -6 -13   45.67   32.90
  -5   6 -13  125.41   27.38
  -5  -7 -13   15.74   31.32
  -5  -7 -13   34.18   37.16
   5  -7 -13   65.19   28.72
   5  -7 -13    3.56   32.94
  -5  -8 -13  -20.96   36.67
  -5  -8 -13   19.79   32.96
   5  -8 -13    9.06   31.66
   5  -8 -13   22.25   29.52
  -5  -9 -13   73.58   36.09
  -5  -9 -13   29.30   36.73
   5  -9 -13   29.35   32.61
   5  -9 -13   68.27   32.59
  -5   0 -14   38.92   30.68
   5   0 -14   12.59   24.41
  -5   0 -14  -26.41   25.82
  -5  -1 -14   19.04   37.09
  -5  -1 -14   15.83   27.73
  -5   1 -14   -4.64   25.35
   5  -1 -14   15.05   24.81
  -5  -2 -14    4.60   38.06
   5   2 -14  -22.84   28.52
  -5  -2 -14   25.61   29.22
   5  -2 -14    1.38   32.78
   5  -2 -14   26.09   25.34
  -5   2 -14  -11.55   23.43
  -5  -3 -14   22.30   30.76
  -5  -3 -14    8.04   40.57
  -5   3 -14    5.25   23.61
   5  -3 -14   -7.60   34.07
   5  -3 -14   17.56   26.38
  -5  -4 -14  -41.64   42.86
  -5  -4 -14  -21.88   31.27
  -5   4 -14   -1.58   24.61
   5  -4 -14  -65.54   35.17
   5  -4 -14   32.68   27.32
  -5  -5 -14   33.51   33.54
  -5  -5 -14   19.23   43.31
  -5   5 -14   60.50   26.80
   5  -5 -14   37.35   35.43
   5  -5 -14   64.27   28.99
  -5  -6 -14   47.72   42.44
  -5  -6 -14   -4.68   34.94
   5  -6 -14   33.41   29.09
   5  -6 -14  -20.68   34.08
  -5   6 -14   45.21   30.67
  -5  -7 -14   26.42   41.33
  -5  -7 -14   24.60   34.69
   5  -7 -14   29.63   35.34
   5  -7 -14   14.00   30.13
  -5  -8 -14   30.40   35.97
  -5  -8 -14   93.65   43.41
   5  -8 -14   40.79   31.85
   5  -8 -14   20.95   35.84
  -5   0 -15  -49.73   29.39
   5   0 -15    3.56   27.32
  -5  -1 -15   33.45   42.99
  -5  -1 -15  -37.40   29.60
   5   1 -15   -0.74   26.67
   5  -1 -15    3.33   27.83
  -5  -2 -15   -1.81   31.29
  -5  -2 -15   35.50   52.54
   5   2 -15   -1.88   26.86
  -5   2 -15  -48.69   26.11
   5  -2 -15   25.59   28.18
  -5  -3 -15   20.14   33.03
  -5  -3 -15   49.30   51.68
   5  -3 -15  -19.92   44.52
   5  -3 -15   22.06   28.91
  -5   3 -15   23.93   26.98
  -5  -4 -15   42.02   34.33
  -5  -4 -15   35.62   49.09
   5  -4 -15   42.95   29.92
   5  -4 -15   55.08   44.73
  -5   4 -15   38.87   27.81
  -5  -5 -15   37.86   50.95
  -5  -5 -15   10.24   35.35
  -5   5 -15    7.80   30.34
   5  -5 -15  102.30   42.58
   5  -5 -15   23.61   30.01
  -5  -6 -15   11.14   49.55
  -5  -6 -15   -7.17   36.97
   5  -6 -15   29.52   41.80
   5  -6 -15   30.72   32.38
  -5   0 -16  -25.05   32.13
   5   0 -16   25.71   32.71
   5   1 -16   11.52   32.51
  -5  -1 -16    0.14   34.33
  -5   1 -16   17.93   30.32
   5  -1 -16   38.84   32.18
   5   2 -16  -45.99   32.54
  -5  -2 -16    6.72   34.31
  -5  -2 -16   -3.16   71.80
   5  -2 -16  -16.24   32.18
  -5   2 -16   -2.47   30.76
  -5  -3 -16  149.16   56.56
  -5  -3 -16   17.47   36.47
   5  -3 -16   42.99   33.50
  -5   3 -16   21.01   30.33
  -5  -4 -16   75.67   56.31
  -5  -4 -16   52.99   37.86
   5  -4 -16  191.06   53.94
   5  -4 -16   62.16   34.44
  -5   4 -16    0.89   32.31
  -6   0   0  173.22   19.06
  -6   0   0  216.99   19.52
  -6   0   0  194.35   14.36
  -6   1   0  892.76   45.99
  -6   1   0  832.15   47.54
   6   1   0  788.54   45.80
  -6  -1   0  923.35   45.95
   6  -1   0  803.55   45.92
  -6  -1   0  775.59   47.16
  -6  -1   0  817.39   48.06
  -6   1   0  809.50   48.38
  -6  -2   0   88.38   15.82
  -6  -2   0   61.08   10.38
  -6   2   0   48.08    9.18
  -6  -3   0  135.15   12.73
  -6   3   0  145.21   22.31
  -6   3   0  166.03   19.90
  -6  -3   0  150.86   21.53
  -6   3   0  113.05   15.52
   6  -3   0   95.64   16.72
  -6  -3   0  145.14   18.26
   6  -3   0  134.10   22.33
  -6  -4   0  298.47   24.73
  -6   4   0  353.33   24.65
  -6   4   0  324.32   22.00
  -6  -4   0  331.31   26.52
   6   4   0  326.12   21.50
  -6   4   0  342.62   25.54
   6  -4   0  297.04   24.58
   6  -4   0  346.55   30.10
  -6   5   0   48.22   10.10
   6   5   0   46.83    9.31
   6  -5   0   40.20   12.39
  -6  -5   0   42.69   16.69
   6  -5   0   30.43   12.23
  -6  -5   0   26.76   10.55
  -6  -6   0  267.25   34.82
  -6  -6   0  269.71   26.16
   6  -6   0  269.47   28.36
   6  -6   0  287.64   24.12
  -6   6   0  266.39   20.62
   6   6   0  269.21   19.91
   6  -7   0   39.80   16.96
   6   7   0   54.92   11.37
  -6   7   0   31.84   11.39
  -6  -7   0   51.70   17.55
   6  -7   0   14.66   13.47
  -6  -7   0    4.72   12.57
  -6   8   0   -8.64   13.32
   6  -8   0   17.49   20.18
  -6  -8   0   -5.11   20.05
   6  -8   0  -13.32   15.35
  -6  -8   0  -14.69   15.49
   6   8   0   21.93   13.22
  -6   9   0  359.16   27.85
  -6  -9   0  437.25   38.11
   6  -9   0  362.61   34.76
   6  -9   0  428.51   39.24
   6   9   0  332.76   27.39
  -6 -10   0   -3.70   26.54
  -6  10   0   49.60   16.36
   6  10   0   68.83   16.32
   6 -10   0   52.44   26.38
  -6 -10   0   31.87   19.42
   6 -10   0   58.45   22.04
   6 -11   0    1.03   23.54
  -6 -11   0   -9.40   20.98
  -6  12   0  137.24   23.33
   6 -12   0   75.12   27.20
   6  12   0   93.61   20.27
   6 -12   0   46.20   33.10
  -6 -12   0   85.72   25.79
  -6 -13   0    0.68   30.66
   6  13   0   18.61   21.95
   6 -13   0  -18.29   26.49
  -6  13   0   19.35   21.47
   6 -14   0   25.66   28.76
   6  14   0   24.68   25.23
  -6  14   0   26.68   24.33
  -6  15   0    9.97   26.97
   6  15   0   -6.12   27.67
   6 -15   0   -6.51   33.43
  -6   0   1  478.44   31.55
   6   0  -1  448.73   26.35
  -6   0   1  469.62   29.69
  -6   0  -1  410.66   29.99
  -6  -1  -1   23.59   11.15
  -6  -1  -1    7.09    9.70
  -6   1   1   14.38    8.23
   6   1  -1   23.39    6.81
  -6   1   1   11.53    7.82
   6  -1   1   30.72    7.33
  -6  -1   1    7.86    7.06
  -6   1  -1   23.62   11.36
   6   1   1   25.90    7.56
   6  -1  -1   12.00    7.19
  -6  -1   1   23.16   10.02
  -6  -1   1    3.03    8.92
  -6   1  -1   10.20    9.35
  -6   1  -1    5.38    6.88
  -6   2   1  161.91   19.20
  -6  -2  -1  104.31   21.53
  -6  -2  -1  140.83   18.66
  -6   2   1  142.68   20.65
   6   2   1  175.28   14.52
  -6   2  -1  128.78   14.66
  -6  -2   1  153.28   17.92
  -6   2  -1  125.40   21.22
  -6   2  -1  151.68   19.17
  -6  -2   1  141.48   19.29
  -6  -3  -1   41.67   13.00
  -6   3   1   49.54   12.87
   6  -3   1   12.52   10.39
  -6  -3  -1   12.79   10.60
  -6   3   1    6.09    9.95
  -6   3  -1   39.30   10.60
  -6  -3   1   27.02   11.12
   6  -3  -1   37.00   11.48
  -6   3  -1   27.86   13.95
   6  -3  -1   23.13   12.57
  -6  -3   1   19.82    9.54
   6   4  -1  129.01   12.58
  -6   4   1   78.55   14.16
   6  -4   1   97.41   13.88
  -6  -4  -1  136.53   18.71
   6  -4   1  125.99   13.84
  -6  -4  -1   76.60   12.66
  -6   4  -1  106.62   18.41
  -6   4  -1   85.55   13.06
  -6   4  -1  111.46   20.35
   6  -4  -1   97.00   14.23
   6  -4  -1  112.94   14.57
   6   4   1  129.51   13.64
  -6  -4   1  113.13   16.29
  -6  -4   1  115.67   18.75
  -6  -5  -1  214.10   22.75
  -6   5   1  225.64   18.44
   6   5  -1  233.42   17.80
   6  -5   1  254.79   26.82
  -6  -5  -1  201.37   24.97
   6  -5   1  220.26   21.07
  -6   5  -1  273.05   21.40
  -6  -5   1  272.37   23.03
   6  -5  -1  302.21   27.10
  -6   5  -1  244.21   18.47
  -6   5  -1  266.36   22.61
   6   5   1  220.18   18.35
  -6  -5   1  237.38   20.40
   6  -5  -1  249.17   21.18
   6  -6   1   -6.75   11.94
   6   6  -1   13.28    9.35
  -6  -6  -1  -17.25   11.93
  -6  -6  -1  -25.23   15.15
  -6   6   1  -12.35    9.88
   6  -6   1    6.03   14.03
  -6   6  -1   -5.82    9.67
   6  -6  -1   -1.74   13.81
   6   6   1   -6.57   10.09
   6  -6  -1   -3.61   12.77
  -6  -6   1   21.62   12.38
  -6  -6   1    1.93   10.41
   6  -7   1   67.00   17.82
  -6  -7  -1   87.17   18.97
  -6   7   1   74.85   12.21
   6   7  -1   96.87   13.64
   6  -7   1   52.37   14.34
  -6  -7  -1   47.19   14.51
   6   7   1   88.86   15.17
  -6  -7   1   75.37   15.36
  -6   7  -1   54.27   12.20
   6  -7  -1   63.44   14.47
  -6  -7   1   54.84   12.43
   6  -7  -1   82.16   17.88
   6  -8   1  168.41   23.65
   6   8  -1  192.29   18.34
  -6  -8  -1  196.89   28.63
  -6   8   1  197.24   19.71
  -6  -8   1  199.06   26.29
   6  -8  -1  208.15   26.51
  -6   8  -1  139.47   19.42
   6  -8  -1  212.03   30.54
  -6  -8   1  175.81   25.78
   6   8   1  181.46   19.15
   6   9  -1   34.66   14.30
  -6   9   1   -3.16   14.70
   6  -9   1  -30.71   23.10
  -6  -9  -1   24.88   25.45
  -6  -9   1  -25.52   15.11
  -6  -9   1   40.40   28.78
  -6   9  -1  -18.54   14.35
   6   9   1   27.52   15.29
   6  -9  -1   -3.69   22.82
   6  -9  -1   10.50   18.83
   6 -10   1   51.48   21.18
  -6 -10  -1    3.91   22.39
  -6  10   1   87.39   17.01
  -6 -10  -1   42.65   20.97
   6 -10  -1   63.23   22.77
   6  10   1   90.45   17.25
  -6  10  -1   68.07   16.85
   6 -10  -1   92.55   26.21
  -6 -10   1   52.93   17.81
   6 -11   1   81.24   22.41
  -6 -11  -1   13.08   29.91
  -6 -11  -1   53.30   24.64
  -6  11   1  109.13   29.95
  -6  11  -1   88.87   25.71
   6 -11  -1   78.31   27.84
  -6  12   1   27.02   20.15
  -6 -12  -1   -7.66   35.70
   6  12  -1   28.93   18.62
  -6  12  -1   22.74   19.24
   6 -12  -1   -8.43   27.09
   6  12   1    5.19   20.10
   6 -12  -1    2.07   29.20
   6 -13   1    7.44   25.91
  -6 -13  -1   10.08   30.82
   6  13  -1   46.78   21.61
  -6  13   1   48.27   23.02
   6 -13  -1   13.54   26.49
  -6  13  -1   39.84   20.52
   6  13   1   44.47   23.01
  -6 -14  -1    4.38   35.24
   6 -14   1   23.61   29.43
  -6  14   1  -27.46   24.20
   6  14  -1   -5.14   23.44
   6 -14  -1  -10.01   28.68
  -6  14  -1  -12.53   22.76
   6  14   1    5.69   23.82
   6  15  -1   17.29   24.85
  -6  15   1  -16.23   27.54
  -6  15  -1  -40.57   25.37
   6 -15  -1   -0.92   33.52
   6  15   1   11.69   24.97
  -6   0  -2  353.19   25.49
  -6   0  -2  344.11   27.79
  -6   0   2  353.06   25.63
  -6   0   2  349.77   24.34
   6   0  -2  352.25   21.74
   6   0   2  353.48   22.59
  -6   0   2  360.35   21.46
  -6  -1  -2   21.08   11.34
   6  -1   2   15.61    7.96
  -6   1   2   12.05    7.62
  -6  -1  -2   30.39   12.58
  -6   1  -2    6.84   10.89
  -6  -1   2   17.79    8.56
  -6  -1   2   13.58   11.98
  -6   1  -2    3.92   11.75
   6   1   2   37.35    9.65
   6   2  -2  251.26   15.52
  -6  -2  -2  200.51   24.45
  -6   2   2  223.65   17.24
  -6  -2  -2  226.70   21.38
  -6   2  -2  161.00   30.78
  -6  -2   2  185.25   20.49
  -6  -2   2  183.60   20.91
  -6   2  -2  201.63   21.50
   6  -2  -2  198.13   23.72
  -6  -3  -2   16.57   10.97
  -6  -3  -2   51.05   13.07
  -6   3   2   34.14    9.06
  -6   3  -2   41.12   12.59
  -6  -3   2   49.51   10.98
   6  -3  -2   23.15   11.98
  -6  -3   2   31.06    8.35
   6  -3  -2   32.43   11.59
  -6   3  -2   22.87    8.24
   6   3   2   49.19    8.68
  -6   3  -2   26.72   10.38
  -6   4   2   25.65    9.36
   6  -4   2   31.34   11.91
  -6  -4  -2   28.97   11.16
  -6   4  -2   36.34   10.31
  -6   4  -2   55.22   13.16
   6  -4  -2   33.72   11.18
  -6  -4   2   42.95   10.83
   6  -4  -2   12.47   11.58
  -6   4  -2   26.84    8.54
   6   4   2   51.57    9.12
  -6  -5  -2   -8.00   11.38
   6   5  -2   -4.84    7.71
  -6  -5  -2   -2.59   13.64
  -6   5   2   -5.06    9.00
   6  -5   2  -15.06   11.62
   6   5   2   -2.61    9.38
  -6   5  -2  -16.62    8.04
  -6   5  -2  -20.88   12.29
  -6   5  -2   -3.62   10.30
   6  -5  -2   -8.77   11.17
   6  -5  -2    3.30   11.69
  -6  -5   2   -3.83    7.92
   6   6  -2   75.39   11.56
   6  -6   2   45.14   12.65
  -6  -6  -2   56.44   16.41
   6  -6   2   55.28   15.80
  -6   6   2   56.98   10.91
  -6  -6  -2   33.01   13.47
  -6   6  -2   82.38   13.45
  -6   6  -2   50.29   10.02
   6   6   2   63.60   11.51
   6  -6  -2   50.97   13.51
   6  -7   2  -14.15   13.31
  -6  -7  -2   -6.67   18.81
  -6   7   2   17.21   11.58
   6  -7   2   -0.70   17.77
  -6  -7  -2   -3.27   14.01
  -6   7  -2   -6.88   10.68
   6   7   2   17.79   12.08
   6  -7  -2    3.95   16.49
   6  -7  -2   13.92   13.89
  -6  -8  -2   -1.65   22.64
   6  -8   2   48.74   20.57
  -6   8   2   21.13   13.32
  -6  -8  -2    5.04   16.34
   6  -8   2  -19.11   15.46
   6   8  -2   35.44   11.71
   6  -8  -2   47.94   20.38
   6  -8  -2   12.68   15.94
   6   8   2   42.06   14.66
   6   9  -2  100.32   16.10
  -6  -9  -2   18.08   18.92
  -6   9   2   68.21   15.67
  -6  -9  -2   98.29   27.05
   6  -9  -2   62.64   23.65
  -6   9  -2   30.17   14.91
   6   9   2   70.22   16.71
   6  -9  -2   46.14   19.55
  -6 -10  -2   20.41   21.84
   6 -10   2   11.22   19.75
  -6  10   2   38.50   17.01
   6  10  -2   62.53   14.73
  -6 -10  -2   83.36   31.24
   6 -10  -2   40.45   22.98
   6 -10  -2   83.79   26.17
  -6  10  -2   24.51   15.86
   6  10   2   66.85   17.98
  -6 -11  -2   23.25   29.23
   6 -11   2  -13.89   21.03
  -6  11   2   24.40   22.72
   6  11  -2   15.92   21.19
   6 -11  -2   12.74   29.60
   6  11   2   29.91   24.60
   6 -11  -2  -14.37   41.69
  -6  11  -2  -11.36   17.65
   6  12  -2   60.00   18.51
  -6  12   2   47.14   22.04
  -6 -12  -2   20.04   29.12
   6 -12   2   23.51   22.54
  -6 -12  -2    1.13   37.44
   6 -12  -2   85.00   27.80
   6  12   2   40.43   21.47
  -6  12  -2   31.38   19.15
   6  13  -2   23.35   20.56
  -6 -13  -2  -41.02   32.31
  -6  13   2   -0.76   23.27
   6  13   2   13.77   23.05
   6 -13  -2   -4.50   25.84
  -6  13  -2   11.82   20.19
  -6 -14  -2    9.95   37.43
   6  14  -2   27.43   22.82
  -6  14   2   -3.56   26.40
  -6  14  -2   13.58   22.45
   6 -14  -2    5.41   29.97
   6  14   2    8.13   24.38
  -6  15   2   12.05   29.06
  -6 -15  -2   30.03   41.36
   6  15  -2   10.15   25.75
   6 -15  -2    1.89   32.12
  -6  15  -2  -12.22   25.35
   6  15   2  -17.73   26.05
  -6   0  -3    4.33   12.58
   6   0   3    7.09    7.96
   6   0  -3    6.91    7.34
  -6   0  -3   -5.79   11.06
   6  -1   3  324.61   20.19
  -6  -1  -3  261.03   26.95
   6   1  -3  307.24   19.47
  -6   1   3  296.05   19.71
  -6  -1  -3  285.40   23.73
  -6   1  -3  319.77   24.41
  -6   1  -3  267.19   29.12
   6   1   3  312.93   20.92
  -6  -1   3  280.90   21.32
  -6   2   3    2.33    7.66
  -6  -2  -3   12.12   12.63
   6   2  -3    3.78    6.29
  -6  -2  -3  -10.96   11.18
   6   2   3   11.66    8.21
  -6  -2   3    5.97    6.57
   6  -2  -3   -0.88   10.54
  -6   2  -3    2.45   11.76
   6  -2  -3  -13.33    9.86
  -6  -3  -3  128.22   22.50
  -6  -3  -3  173.78   19.28
   6  -3  -3  104.62   17.55
   6  -3  -3  115.12   23.48
  -6   3  -3  141.87   18.13
   6   3   3  177.81   14.56
   6  -4   3   14.17   11.60
  -6   4   3   18.48    8.85
  -6  -4  -3   17.49   10.87
  -6  -4  -3   43.15   13.37
   6  -4  -3   21.85   11.26
  -6   4  -3   24.01   11.87
  -6   4  -3   25.11    8.07
   6  -4  -3   17.37   10.99
   6   4   3   37.57    8.99
  -6   4  -3   27.88   10.45
  -6  -5  -3   38.61   15.12
   6  -5   3   45.35   12.09
  -6   5   3   31.96    9.83
  -6  -5  -3   41.15   11.86
   6  -5  -3   43.40   12.53
  -6   5  -3   45.33   13.53
  -6   5  -3   32.56    8.65
   6  -6   3    4.21   11.84
  -6  -6  -3   -1.35   12.60
   6  -6   3   11.39   14.61
  -6   6   3   11.95   10.51
  -6  -6  -3   15.90   16.40
   6   6   3   26.18   11.02
  -6   6  -3   -5.25    8.60
  -6   6  -3   11.42   13.07
   6  -6  -3    9.26   12.94
  -6   6  -3   13.13   10.70
   6  -6  -3   16.26   14.46
  -6   7   3   13.43   11.86
  -6  -7  -3   -0.83   14.48
   6  -7   3    2.96   17.85
   6   7  -3   20.12    9.22
  -6  -7  -3   32.86   18.90
   6  -7   3    2.95   12.98
  -6   7  -3   -5.11    9.60
   6  -7  -3   21.62   17.33
   6   7   3   20.85   12.54
   6  -7  -3   18.14   14.25
  -6  -8  -3   43.31   24.20
   6   8  -3   81.86   13.93
   6  -8   3    7.82   16.00
  -6   8   3   46.90   14.95
   6   8   3   48.85   14.88
   6  -8  -3   68.02   21.45
   6  -8  -3   41.58   17.13
  -6   9   3   52.97   16.35
   6  -9   3   10.06   17.48
  -6  -9  -3   42.32   27.48
   6   9  -3   57.13   13.16
  -6  -9  -3   -5.14   24.70
   6   9   3   55.56   16.37
  -6   9  -3   20.34   14.54
   6  -9  -3   37.77   20.22
   6  -9  -3   82.85   23.82
  -6 -10  -3   12.18   31.21
   6  10  -3   15.21   13.88
   6 -10   3  -24.75   17.46
  -6  10   3    3.51   17.64
  -6 -10  -3  -18.47   20.67
  -6  10  -3  -17.82   15.26
   6 -10  -3    3.22   23.18
   6 -10  -3   49.49   26.12
  -6  11   3   43.58   24.05
  -6 -11  -3    7.25   28.97
   6  11  -3   48.25   19.30
  -6 -11  -3  -12.19   26.37
   6  11   3   45.47   21.61
   6 -11  -3   64.63   29.56
   6 -11  -3    3.66   26.64
  -6  11  -3    0.90   17.47
  -6  12   3  -27.48   22.22
  -6 -12  -3  -35.74   28.26
   6  12  -3    0.05   17.67
  -6 -12  -3  -15.72   36.30
   6 -12  -3   -1.48   27.42
   6 -12  -3    6.84   30.47
   6  12   3   10.02   21.44
  -6  12  -3  -19.28   18.81
  -6 -13  -3   23.19   32.29
   6  13  -3    8.01   20.20
  -6  13   3  -12.37   24.99
  -6  13  -3   25.70   20.33
   6 -13  -3   -7.06   26.23
   6  13   3   -1.50   23.16
   6 -13  -3  -39.48   31.36
  -6 -14  -3  -27.60   35.62
  -6  14   3   -0.28   27.82
   6  14  -3  -10.97   22.14
   6 -14  -3  -32.70   29.03
   6  14   3  -12.07   25.41
   6 -14  -3   19.14   58.45
  -6  14  -3    0.95   21.15
   6  15  -3   13.70   25.80
  -6 -15  -3  -18.17   43.70
  -6  15   3  -13.20   31.03
   6 -15  -3   11.77   32.16
  -6  15  -3   17.81   24.30
   6  15   3   16.04   27.91
  -6   0  -4  432.03   27.61
   6   0   4  362.27   26.63
   6   0  -4  390.18   24.03
  -6   0  -4  419.00   29.74
  -6  -1  -4  115.49   21.88
  -6  -1  -4  157.33   18.39
   6   1  -4  131.75   12.23
   6  -1  -4  116.10   18.36
  -6   1  -4  147.18   20.16
   6   1   4  158.24   14.90
  -6   1  -4  137.12   17.48
  -6  -2  -4  169.85   19.48
  -6  -2  -4  160.15   23.35
  -6   2   4  176.35   21.48
  -6   2  -4  177.23   18.65
   6  -2  -4  153.25   17.43
   6   2   4  173.30   21.05
   6  -2  -4  192.49   23.76
  -6  -3  -4   53.27   13.60
  -6   3   4   38.67    9.44
  -6  -3  -4   13.15   11.37
   6  -3  -4   13.16   10.86
   6   3   4   33.16    8.51
  -6   3  -4   32.17   11.45
   6  -3  -4   22.91   11.65
  -6   4   4  248.92   18.88
  -6  -4  -4  245.64   26.33
   6  -4   4  229.29   24.64
  -6  -4  -4  261.53   23.00
   6  -4   4  231.36   20.31
   6   4   4  248.91   18.64
   6  -4  -4  253.72   21.05
   6  -4  -4  232.33   26.12
  -6   4  -4  246.34   21.76
   6  -5   4   50.82   18.89
  -6  -5  -4   60.88   15.63
  -6   5   4   57.07   11.00
  -6  -5  -4   38.51   13.52
   6  -5   4   32.05   11.94
   6  -5  -4   30.21   12.80
  -6   5  -4   32.83   13.73
  -6   5  -4   30.80   11.19
   6   5   4   46.85   10.58
   6  -5  -4   66.81   13.35
  -6   5  -4   35.04    8.58
  -6  -6  -4   20.76   13.66
   6  -6   4   15.52   11.68
  -6  -6  -4   39.60   16.77
   6  -6   4   14.30   19.73
  -6   6   4   48.08   11.97
   6  -6  -4   43.29   15.39
   6   6   4   44.82   11.98
   6  -6  -4   46.21   13.77
  -6   6  -4   39.29   12.71
  -6   6  -4   54.20   14.48
  -6  -7  -4   51.44   20.03
  -6   7   4   56.73   14.37
   6  -7   4   46.29   13.68
   6  -7   4   11.62   20.16
   6   7  -4   74.46   11.45
  -6  -7  -4   35.05   16.74
   6  -7  -4   64.70   18.83
   6  -7  -4   47.81   16.45
   6   7   4   68.02   14.22
   6   8  -4  109.31   13.46
  -6   8   4  104.01   17.33
  -6  -8  -4   66.32   24.15
  -6  -8  -4   45.46   17.87
  -6   8  -4   67.79   12.58
   6   8   4  120.73   18.83
   6  -8  -4   79.30   19.04
   6  -8  -4  151.69   26.14
  -6  -9  -4   -7.01   26.12
   6   9  -4    3.18   11.63
  -6   9   4   13.82   16.85
  -6  -9  -4  -18.90   18.65
   6  -9  -4   26.58   22.44
   6  -9  -4  -22.17   20.50
   6   9   4   23.01   16.83
  -6   9  -4  -18.26   12.58
  -6 -10  -4   50.83   32.24
  -6  10   4   34.55   19.11
  -6 -10  -4   -8.88   21.19
   6  10  -4   36.77   13.42
  -6  10  -4   21.94   15.45
   6 -10  -4    3.10   29.43
   6  10   4   49.07   18.52
   6 -10  -4   12.82   25.99
  -6  11   4  -13.41   22.52
   6  11  -4   15.49   15.95
  -6 -11  -4   -5.82   37.37
  -6 -11  -4  -38.64   24.85
  -6  11  -4  -10.86   17.21
   6 -11  -4  -41.61   27.11
   6 -11  -4  -19.95   30.24
   6  11   4   -0.65   21.06
  -6  12   4   -7.94   24.34
  -6 -12  -4    1.48   34.34
  -6 -12  -4  -46.42   27.50
   6  12  -4    4.93   16.57
   6 -12  -4  -39.86   27.75
  -6  12  -4  -14.95   17.72
   6 -12  -4   14.05   37.46
   6  12   4    2.25   22.40
  -6 -13  -4  -42.64   45.97
  -6 -13  -4  -27.94   31.87
  -6  13   4  -35.47   26.42
   6  13  -4  -15.07   19.18
   6  13   4   -7.18   24.17
   6 -13  -4  -23.88   27.50
  -6  13  -4   -5.45   19.75
   6 -13  -4   16.43   35.40
  -6 -14  -4  -31.62   35.91
   6  14  -4    3.39   21.84
  -6  14   4  -22.31   29.37
   6 -14  -4   26.18   46.37
   6 -14  -4  -26.17   28.99
   6  14   4  -25.62   26.66
  -6  14  -4   -8.02   22.07
   6  15  -4  -25.30   24.30
   6  15   4   11.83   31.36
  -6   0  -5    1.74   10.05
   6   0  -5    0.47    6.64
   6   0  -5   -5.00    8.48
  -6   0  -5   12.50   11.19
   6   0   5    7.90    7.90
  -6  -1  -5  674.90   42.90
  -6  -1  -5  646.87   40.79
  -6   1  -5  686.22   40.04
   6  -1  -5  629.83   39.05
  -6   1  -5  692.44   41.92
   6   1   5  707.33   39.31
   6  -1  -5  704.57   42.54
  -6  -2  -5  151.41   23.76
  -6   2   5  149.16   16.66
  -6  -2  -5  186.30   20.25
   6   2   5  189.36   16.22
  -6   2  -5  168.94   31.06
   6  -2  -5  173.39   17.78
  -6   2  -5  188.83   18.02
   6  -2  -5  215.21   23.31
  -6   3   5  402.16   25.98
  -6  -3  -5  393.49   32.31
  -6  -3  -5  409.00   29.03
  -6   3  -5  406.54   27.41
   6   3   5  413.26   25.64
   6  -3  -5  385.33   30.94
   6  -3  -5  379.66   26.85
  -6   4   5  110.33   14.88
   6  -4   5   87.83   16.37
  -6  -4  -5   55.99   13.05
  -6  -4  -5   96.94   15.56
   6  -4   5   61.85   11.84
   6   4   5   81.82   13.98
   6  -4  -5   84.57   13.72
  -6   4  -5   89.68   13.23
   6  -4  -5   91.05   13.46
  -6   4  -5   72.07   14.49
  -6  -5  -5   45.46   15.29
  -6  -5  -5   12.31   12.76
  -6   5   5   23.94   12.02
   6   5   5   17.70   10.58
   6  -5  -5   16.05   13.79
  -6   5  -5   -2.11   12.76
   6  -5  -5    1.05   13.04
  -6   6   5   71.24   14.21
  -6  -6  -5   79.51   18.23
  -6   6  -5   81.15   16.37
   6   6   5   52.48   12.93
   6  -6  -5   87.79   17.17
  -6   6  -5   74.97   14.48
  -6   6  -5   72.01   12.37
  -6   7   5  139.59   20.75
  -6  -7  -5  160.78   26.50
  -6   7  -5  169.55   22.55
   6   7   5  116.69   19.17
   6  -7  -5  138.86   24.98
  -6   7  -5  108.87   15.06
   6  -7  -5   84.00   18.61
  -6   8   5  115.38   18.44
   6   8  -5   96.95   12.93
  -6  -8  -5   82.68   24.17
  -6   8  -5  101.52   15.20
   6   8   5   79.65   17.72
   6  -8  -5   60.92   19.67
  -6  -9  -5   44.55   26.13
   6   9  -5   46.98   11.54
  -6  -9  -5   16.26   19.52
  -6   9   5   57.34   18.77
   6   9   5   62.07   18.24
   6  -9  -5   77.63   23.97
  -6   9  -5   34.76   12.69
   6  -9  -5   27.46   21.39
   6  10  -5   25.48   12.87
  -6  10   5   -0.71   20.52
  -6 -10  -5  -24.84   28.29
  -6 -10  -5  -13.95   30.71
   6  10   5   11.49   19.33
   6 -10  -5   11.34   27.27
   6 -10  -5  -11.30   30.34
  -6  10  -5    7.30   24.81
   6  11  -5    4.34   15.14
  -6 -11  -5    4.66   38.01
   6 -11  -5  -17.79   31.62
   6  11   5    9.89   22.43
  -6  11  -5   -4.06   16.54
  -6 -12  -5  -41.47   40.07
  -6  12   5  -38.90   26.13
   6  12  -5  -14.16   17.58
   6  12   5    3.10   24.24
   6 -12  -5  -30.44   27.90
   6 -12  -5   -1.63   39.53
  -6  12  -5  -29.86   18.36
  -6 -13  -5   39.14   56.24
   6  13  -5  -22.56   18.68
  -6 -13  -5  -39.38   32.95
   6 -13  -5  -42.83   43.36
   6  13   5   -2.93   26.47
   6 -13  -5  -46.91   26.70
  -6  13  -5    5.49   19.81
  -6 -14  -5   -8.68   36.23
  -6  14   5  -18.50   31.48
   6  14  -5   -3.89   21.80
  -6 -14  -5   44.53   61.27
  -6  14  -5   27.78   21.77
   6  14   5  -32.97   29.38
   6 -14  -5  -38.85   29.30
   6 -14  -5  -76.94   42.96
   6   0  -6  523.76   36.34
  -6   0  -6  546.98   34.30
  -6   0  -6  571.29   37.22
   6   0  -6  532.96   32.21
  -6  -1  -6   83.56   14.32
  -6  -1  -6   56.69   13.09
   6   1  -6   52.46   10.41
  -6   1  -6  105.72   20.53
   6  -1  -6  117.18   21.60
  -6   1  -6   90.81   16.15
   6   1   6   69.38   11.40
   6  -1  -6   89.51   14.45
  -6  -2  -6  644.04   43.14
  -6  -2  -6  631.76   40.44
   6   2   6  681.71   38.21
   6  -2  -6  601.71   38.51
  -6   2  -6  677.11   38.95
   6  -2  -6  657.35   41.88
  -6   2  -6  647.67   40.59
  -6  -3  -6  215.54   26.87
  -6  -3  -6  227.10   23.41
  -6   3   6  226.31   22.75
   6  -3  -6  224.82   25.44
   6   3   6  217.80   18.74
  -6   3  -6  234.82   20.56
   6  -3  -6  231.31   20.30
  -6   4   6    4.35   12.92
  -6  -4  -6    9.50   12.84
  -6  -4  -6   18.48   15.38
  -6   4  -6   18.47   11.75
  -6   4  -6   20.58   12.01
   6  -4  -6    7.11   12.10
   6  -4  -6   21.28   12.75
   6   4   6    8.88   10.54
  -6  -5  -6   58.00   15.74
  -6   5   6  106.83   15.69
  -6  -5  -6   97.62   18.18
  -6   5  -6  102.25   18.90
  -6   5  -6   57.80   16.11
   6  -5  -6   63.16   14.85
   6   5   6   74.98   12.91
   6  -5  -6   78.62   16.60
  -6  -6  -6  129.01   23.85
  -6   6   6  120.94   17.48
   6   6   6  119.25   17.93
   6  -6  -6   79.54   16.94
  -6   6  -6  118.56   17.98
   6  -6  -6  136.45   19.73
  -6   7   6  105.88   18.44
  -6  -7  -6   71.25   21.16
  -6   7  -6   94.24   14.27
  -6   7  -6  114.42   18.69
  -6   7  -6   51.51   16.68
   6   7   6   74.65   16.12
   6  -7  -6  101.79   21.62
  -6   8   6  166.89   25.01
  -6  -8  -6  184.54   30.42
   6   8   6  182.82   23.54
  -6   8  -6  205.82   18.40
   6  -8  -6  261.68   28.89
  -6   8  -6  234.16   25.05
  -6  -9  -6   -3.94   21.23
  -6   9   6   45.53   20.41
   6   9  -6   18.63   10.84
  -6  -9  -6   14.10   25.74
   6  -9  -6    3.98   25.16
  -6   9  -6   24.74   11.73
   6  -9  -6   50.21   23.46
   6   9   6   56.20   19.20
   6  10  -6    7.91   12.64
  -6 -10  -6  -11.92   23.86
  -6 -10  -6  -22.29   31.72
  -6  10   6  -18.96   21.69
  -6  10  -6   14.89   14.70
   6 -10  -6  -14.92   25.81
   6  10   6   24.94   21.30
   6 -10  -6   22.99   28.41
  -6 -11  -6   -8.95   42.68
  -6 -11  -6  -45.80   24.52
   6  11  -6  -21.12   14.89
  -6  11   6  -52.60   24.48
  -6  11  -6   -8.46   16.38
   6  11   6  -25.28   24.03
   6 -11  -6  -26.28   32.29
  -6 -12  -6  -52.12   49.75
   6  12  -6  -17.49   16.79
   6 -12  -6  -28.42   38.51
   6 -12  -6  -51.98   27.73
  -6  12  -6  -22.69   18.53
   6  12   6  -20.01   26.30
  -6  13   6  -28.26   30.01
  -6 -13  -6  -62.12   46.13
   6  13  -6   17.42   20.64
  -6 -13  -6  -43.77   30.17
   6  13   6   -7.93   29.14
   6 -13  -6  -46.62   27.25
  -6  13  -6  -23.01   19.02
   6 -13  -6  -47.13   44.27
   6  14  -6   -0.30   23.03
  -6  14   6   -5.51   33.11
  -6 -14  -6  -56.38   59.14
   6  14   6  -33.20   32.03
   6 -14  -6  -51.84   29.17
  -6  14  -6    5.19   22.38
   6   0  -7   53.30   10.81
  -6   0  -7   62.26   14.06
  -6   0  -7   56.68   12.89
  -6  -1  -7  709.51   46.35
  -6  -1  -7  701.68   43.21
   6   1  -7  680.28   40.15
   6   1  -7  692.72   43.96
  -6   1  -7  725.08   41.86
   6  -1  -7  663.15   40.92
   6  -1  -7  693.83   44.54
  -6   1  -7  736.50   44.35
  -6  -2  -7  358.58   29.37
  -6  -2  -7  389.08   34.08
   6   2  -7  412.47   29.91
   6   2   7  395.30   34.23
  -6   2  -7  384.25   26.90
   6  -2  -7  374.75   26.56
   6  -2  -7  401.69   31.37
  -6   2  -7  380.83   30.11
  -6  -3  -7  193.43   23.68
  -6  -3  -7  152.16   28.45
   6  -3  -7  244.40   25.97
   6  -3  -7  186.91   20.47
  -6   3  -7  212.79   19.80
   6   3   7  166.46   19.65
  -6   3  -7  237.87   35.04
  -6   4   7  149.92   21.46
  -6  -4  -7  112.70   17.86
  -6  -4  -7  137.08   22.42
   6  -4  -7  128.78   20.97
   6   4   7  132.44   18.28
  -6   4  -7  141.41   18.86
   6  -4  -7  156.23   25.80
  -6   5   7   32.01   23.45
  -6  -5  -7   27.97   17.76
  -6  -5  -7   19.17   16.21
  -6   5  -7   42.15   14.35
   6   5   7   26.40   12.68
  -6   5  -7   25.21   14.70
   6  -5  -7   52.75   17.40
   6  -5  -7   21.12   14.39
  -6  -6  -7   21.94   19.87
  -6   6   7   12.17   17.29
  -6  -6  -7  -10.57   17.69
  -6   6  -7   35.84   16.31
   6  -6  -7    8.87   17.40
  -6   6  -7   30.02   16.24
   6   6   7    8.23   14.54
   6  -6  -7   52.78   19.62
  -6  -7  -7  334.38   33.64
  -6  -7  -7  334.82   38.83
  -6   7   7  321.41   29.97
  -6   7  -7  353.77   23.03
  -6   7  -7  380.50   59.94
   6  -7  -7  317.22   39.42
   6  -7  -7  401.62   34.42
  -6   7  -7  339.51   30.45
   6   7   7  330.25   27.88
  -6  -8  -7   28.20   23.02
  -6   8   7   -6.11   19.75
   6  -8  -7    2.36   21.62
   6   8   7   36.72   17.92
  -6   8  -7   39.12   19.05
  -6   8  -7   22.28   10.88
   6  -8  -7   41.41   22.33
  -6  -9  -7   -1.86   22.86
  -6  -9  -7   35.29   26.12
  -6   9   7   36.92   21.64
   6   9  -7   32.97   10.30
   6   9   7   50.02   19.66
   6  -9  -7   86.34   26.50
  -6   9  -7   49.10   12.15
  -6 -10  -7  -23.36   22.75
  -6  10   7  -31.40   22.74
   6  10  -7  -10.33   12.10
  -6  10  -7   -2.73   13.19
   6 -10  -7   11.24   29.06
   6  10   7   19.57   22.14
   6 -10  -7  -37.96   26.39
   6  11  -7  -10.34   14.67
  -6 -11  -7    6.27   40.88
   6  11   7  -36.24   25.68
  -6  11  -7  -18.98   15.72
   6 -11  -7  -17.85   32.54
   6  12  -7  -10.93   17.56
  -6 -12  -7  -25.90   48.72
  -6  12   7  -54.25   27.98
   6 -12  -7  -32.32   28.51
   6  12   7  -30.81   28.52
   6 -12  -7   -5.66   39.07
  -6  12  -7  -17.38   18.50
  -6 -13  -7  -18.46   31.23
   6  13  -7  -26.40   19.76
  -6 -13  -7  -79.75   54.92
   6 -13  -7  -17.92   46.41
  -6  13  -7  -24.60   20.09
   6 -13  -7  -10.31   28.86
   6  13   7    4.23   31.09
   6  14  -7    6.04   25.43
   6  14   7  -13.63   34.68
  -6   0  -8  656.41   43.95
   6   0  -8  596.75   53.23
   6   0  -8  611.77   37.87
  -6   0  -8  653.60   40.20
  -6  -1  -8  210.14   24.10
   6   1  -8  229.08   26.88
   6   1  -8  193.07   18.70
  -6  -1  -8  221.33   30.02
  -6   1  -8  216.93   26.90
   6  -1  -8  218.95   27.02
  -6   1  -8  192.40   21.90
   6  -1  -8  217.34   20.07
   6   2  -8  293.20   22.17
  -6  -2  -8  299.91   34.66
   6   2  -8  321.14   29.08
  -6  -2  -8  324.96   28.47
   6  -2  -8  295.26   24.89
  -6   2  -8  311.58   24.86
  -6   2  -8  363.77   29.76
   6  -2  -8  330.02   30.44
  -6  -3  -8  240.43   27.77
  -6  -3  -8  277.96   34.44
  -6   3  -8  287.98   23.40
   6  -3  -8  307.60   30.80
   6   3   8  262.96   26.52
   6  -3  -8  242.76   24.61
  -6  -4  -8   31.32   18.81
  -6  -4  -8   16.94   17.35
   6  -4  -8   31.65   15.08
   6  -4  -8   65.97   16.89
   6   4   8   50.04   17.82
  -6   4  -8   58.01   14.66
  -6  -5  -8    8.79   20.14
  -6  -5  -8  -15.06   17.75
   6  -5  -8   27.13   18.79
  -6   5  -8   29.23   13.75
   6   5   8   13.96   14.72
   6  -5  -8   -4.20   15.83
  -6   5  -8   23.73   14.85
  -6  -6  -8  178.59   36.08
  -6  -6  -8  199.41   31.18
   6  -6  -8  250.81   27.76
  -6   6  -8  217.46   25.33
   6   6   8  152.03   23.03
   6  -6  -8  193.66   34.98
  -6  -7  -8    4.73   21.60
   6  -7  -8   11.50   20.19
  -6   7  -8   13.47   19.09
   6   7   8    4.71   17.46
   6  -7  -8   41.32   20.56
  -6   7  -8   40.32   19.60
  -6  -8  -8  167.62   30.52
  -6  -8  -8   63.25   27.77
   6   8   8  114.65   20.53
   6  -8  -8   83.54   24.35
  -6   8  -8  146.52   25.45
   6  -8  -8  181.35   32.69
  -6  -9  -8  -40.87   21.97
  -6  -9  -8    5.11   35.10
  -6   9  -8    9.79   14.37
   6   9   8    0.69   20.88
   6  -9  -8  -16.15   25.01
   6  -9  -8   13.25   25.40
  -6 -10  -8  -31.69   31.03
   6 -10  -8   -7.42   27.08
   6  10   8  -49.30   23.15
   6 -10  -8  -22.77   28.15
  -6  10  -8   -4.70   12.90
  -6 -11  -8  -31.44   27.58
   6  11  -8  -16.85   14.21
  -6 -11  -8  -37.57   37.57
   6 -11  -8    4.86   33.25
   6 -11  -8  -12.28   27.47
  -6  11  -8  -22.04   15.10
   6  11   8  -55.94   27.66
  -6 -12  -8  -36.60   45.14
   6  12  -8   -9.39   17.02
  -6 -12  -8  -50.44   27.90
   6 -12  -8  -21.89   26.73
  -6  12  -8   -8.10   18.11
   6 -12  -8   11.72   37.65
   6  13  -8   -1.62   21.90
  -6 -13  -8   34.43   60.03
  -6 -13  -8  -14.62   30.43
   6  13   8  -28.50   33.42
   6 -13  -8   29.25   45.38
  -6  13  -8   -6.36   20.70
   6 -13  -8    5.74   29.54
   6   0  -9   14.29   16.18
  -6   0  -9   11.52   16.51
  -6   0  -9   28.82   15.79
   6   0  -9   24.21   13.27
   6   1  -9  347.05   33.65
   6   1  -9  369.04   26.36
  -6  -1  -9  391.52   31.61
  -6  -1  -9  375.02   37.86
  -6   1  -9  350.03   34.83
  -6   1  -9  390.69   29.35
   6  -1  -9  321.48   34.26
   6  -1  -9  392.56   28.15
   6   2  -9  273.43   35.96
  -6  -2  -9  237.96   28.24
  -6  -2  -9  247.14   37.20
   6   2  -9  244.48   21.46
   6  -2  -9  238.85   31.30
  -6   2  -9  275.01   24.04
   6  -2  -9  220.49   24.79
   6   3  -9  160.18   17.40
  -6  -3  -9  106.58   21.40
  -6  -3  -9  147.26   23.25
   6  -3  -9  171.73   23.45
   6  -3  -9  157.95   29.93
  -6   3  -9  173.05   25.86
  -6   3  -9  170.75   20.95
  -6  -4  -9   43.24   20.53
  -6  -4  -9   17.70   20.88
   6  -4  -9   24.83   16.37
  -6   4  -9   54.03   16.17
  -6   4  -9   52.46   15.42
   6  -4  -9   84.70   19.60
  -6  -5  -9   11.28   21.62
  -6  -5  -9    1.09   21.69
   6  -5  -9   37.27   18.71
  -6   5  -9   42.76   16.56
  -6   5  -9   53.42   16.52
   6  -5  -9   58.39   19.73
  -6   6   9   80.71   28.72
  -6  -6  -9  -17.52   19.94
  -6  -6  -9    1.17   22.58
  -6   6  -9   -9.08   17.37
  -6   6  -9   18.52   21.37
   6   6   9   -9.62   13.70
   6  -6  -9   -9.87   21.13
   6  -6  -9   53.00   20.14
  -6  -7  -9   23.93   22.19
  -6  -7  -9   38.81   24.81
   6  -7  -9  122.27   47.72
   6  -7  -9   29.86   23.15
  -6   7  -9   42.13   20.45
  -6  -8  -9  -31.59   27.70
   6  -8  -9  -41.26   36.45
   6  -8  -9    1.74   23.87
   6   8   9  -31.13   15.56
  -6   8  -9    1.24   21.27
  -6  -9  -9  -13.52   24.38
  -6  -9  -9   10.00   29.49
   6  -9  -9  -15.86   26.30
   6  -9  -9   29.40   25.48
  -6 -10  -9   37.43   32.01
  -6 -10  -9  -32.27   25.03
   6 -10  -9  -39.67   26.39
   6 -10  -9    3.95   28.94
   6  10   9  -39.70   18.69
  -6  10  -9  -14.27   12.29
  -6 -11  -9   20.15   37.49
  -6 -11  -9  -38.42   28.00
   6 -11  -9  -23.90   29.94
   6 -11  -9   25.56   32.61
   6  11   9  -11.64   23.32
  -6  11  -9  -15.01   15.26
   6  12  -9   -9.63   18.50
  -6 -12  -9   37.34   46.23
  -6 -12  -9    0.91   29.72
   6  12   9  -45.73   26.00
   6 -12  -9   -1.14   28.52
   6 -12  -9   30.51   39.41
  -6  12  -9   11.68   18.63
   6  13  -9  -36.71   22.73
   6  13   9  -52.01   31.92
   6   0 -10   28.20   16.06
   6   0 -10   48.71   15.85
  -6   0 -10   45.88   18.65
  -6   0 -10   30.79   18.33
   6   1 -10   16.90   15.85
  -6  -1 -10   23.09   19.58
   6   1 -10   44.26   14.76
  -6  -1 -10   -0.84   19.22
   6  -1 -10    2.38   17.96
   6  -1 -10   31.86   16.76
  -6   1 -10   24.67   16.67
  -6  -2 -10   50.52   21.40
  -6  -2 -10   33.12   20.65
   6   2 -10   71.62   14.67
  -6   2 -10   58.42   16.05
   6  -2 -10   55.16   18.11
   6  -2 -10   56.47   18.10
  -6   2 -10   60.54   15.28
   6   3 -10   15.17   13.06
  -6  -3 -10  -11.28   20.36
  -6  -3 -10    7.50   21.26
   6  -3 -10   -7.43   17.59
  -6   3 -10   -8.89   15.05
  -6   3 -10   27.74   14.56
   6  -3 -10   11.42   18.48
  -6  -4 -10   28.13   22.58
  -6  -4 -10   14.06   22.39
   6  -4 -10   75.83   19.86
  -6   4 -10   41.86   16.68
   6  -4 -10   17.42   18.89
  -6   4 -10   25.21   14.24
  -6  -5 -10   -2.19   22.70
  -6  -5 -10   -6.44   23.01
  -6   5 -10    1.03   16.18
   6  -5 -10    1.94   19.91
  -6  -6 -10   -9.31   39.16
  -6  -6 -10   -2.82   23.81
   6  -6 -10   23.99   33.02
   6  -6 -10    3.03   22.63
  -6   6 -10   -1.72   19.07
  -6  -7 -10  -46.25   27.39
  -6  -7 -10   -2.49   25.11
  -6   7 -10   -6.57   21.57
   6  -7 -10  -14.16   26.12
   6   7  10  -42.49   20.76
   6  -7 -10    1.13   23.35
  -6  -8 -10  -34.65   24.33
  -6  -8 -10  -10.68   27.00
   6  -8 -10  -16.93   26.64
  -6   8 -10   19.22   23.18
   6  -8 -10   10.60   24.91
  -6  -9 -10  -17.61   29.10
  -6  -9 -10  -36.13   26.35
   6  -9 -10  -18.31   28.20
   6  -9 -10   -9.66   26.15
  -6 -10 -10   44.68   33.29
  -6 -10 -10   16.56   27.75
   6 -10 -10    4.30   29.87
  -6  10 -10   -4.09   12.86
   6 -10 -10   -4.26   28.50
   6  10  10  -46.01   24.40
  -6 -11 -10  -28.31   28.18
  -6 -11 -10    7.80   37.17
   6 -11 -10    7.29   27.79
   6 -11 -10   28.73   34.21
  -6  11 -10   10.05   15.05
  -6 -12 -10  -13.58   31.90
  -6 -12 -10   65.83   45.59
   6 -12 -10   24.71   39.02
  -6  12 -10    9.67   17.94
   6 -12 -10   25.51   29.42
   6   0 -11   29.30   17.07
   6   0 -11   16.99   19.99
  -6   0 -11   17.91   32.41
  -6   0 -11   14.00   19.67
  -6  -1 -11   44.59   22.05
  -6  -1 -11   17.57   20.81
   6   1 -11   27.42   15.98
   6   1 -11   22.71   29.84
   6  -1 -11  -14.43   18.45
  -6   1 -11   13.90   18.27
  -6   1 -11   22.70   17.71
   6  -1 -11    9.17   17.87
  -6  -2 -11    1.09   22.81
  -6  -2 -11    0.65   22.15
   6   2 -11   22.15   15.07
   6  -2 -11   34.77   18.73
   6  -2 -11   16.88   24.22
  -6   2 -11   16.91   16.24
  -6   2 -11   -4.68   16.43
  -6  -3 -11   21.09   24.30
  -6  -3 -11   12.06   24.22
   6   3 -11   39.89   15.18
  -6   3 -11   52.42   16.02
   6  -3 -11   27.95   21.13
   6  -3 -11   55.97   20.25
  -6   3 -11   18.90   17.01
  -6  -4 -11   24.61   25.98
   6  -4 -11   71.91   23.24
   6  -4 -11   12.06   22.15
  -6   4 -11   45.33   17.95
  -6  -5 -11   73.93   27.04
  -6  -5 -11   52.62   28.14
  -6   5 -11   86.79   18.94
   6  -5 -11  124.14   24.99
   6  -5 -11   70.15   23.69
  -6  -6 -11  -35.16   26.90
  -6   6 -11   -2.03   19.92
   6  -6 -11  -11.97   24.26
   6  -6 -11    1.74   22.65
  -6  -7 -11  -24.20   28.66
  -6  -7 -11   11.48   27.63
   6  -7 -11   18.67   25.00
   6  -7 -11  -30.81   27.61
  -6   7 -11   16.65   23.50
  -6  -8 -11   24.76   30.58
  -6  -8 -11    3.15   28.76
   6  -8 -11  -25.27   28.27
   6  -8 -11    7.34   26.88
  -6  -9 -11  -14.78   31.72
  -6  -9 -11    2.13   29.91
  -6   9 -11   -7.08   12.38
   6  -9 -11   54.26   29.29
   6  -9 -11  -14.10   27.95
  -6 -10 -11    3.54   31.61
  -6 -10 -11   47.02   33.92
  -6  10 -11   32.10   13.79
   6 -10 -11   87.52   32.61
   6 -10 -11   32.23   33.13
  -6 -11 -11   44.25   41.35
  -6 -11 -11   21.11   31.45
   6 -11 -11   45.62   35.05
   6 -11 -11   38.73   29.33
  -6  11 -11   18.51   15.30
   6   0 -12   99.47   22.56
  -6   0 -12   42.84   22.38
  -6   0 -12   68.51   23.52
   6   0 -12   80.81   19.87
  -6  -1 -12    8.43   24.89
   6   1 -12   -3.70   17.62
  -6  -1 -12   36.91   32.53
  -6   1 -12    2.67   20.09
   6  -1 -12   29.73   22.46
  -6   1 -12   10.10   20.70
   6  -1 -12   22.19   20.17
   6   2 -12   19.01   17.23
  -6  -2 -12  -26.01   25.92
  -6   2 -12   75.44   19.38
   6  -2 -12   36.62   21.11
  -6   2 -12   34.29   19.24
   6  -2 -12   50.70   23.16
  -6  -3 -12   50.12   29.15
  -6  -3 -12   61.50   27.46
   6   3 -12   54.20   20.37
   6  -3 -12   85.82   27.48
   6  -3 -12   63.83   27.34
  -6   3 -12   70.07   19.63
  -6  -4 -12   36.62   30.77
  -6  -4 -12   58.36   29.44
   6  -4 -12   95.28   24.50
  -6   4 -12   76.11   20.57
   6  -4 -12   30.43   25.50
  -6  -5 -12  -22.93   27.80
   6  -5 -12  -25.53   25.74
   6  -5 -12   37.43   23.87
  -6   5 -12   -1.97   20.18
  -6  -6 -12   39.99   32.52
  -6  -6 -12   41.95   29.78
   6  -6 -12   77.39   25.95
   6  -6 -12   30.31   44.83
  -6  -7 -12  -21.12   33.64
  -6  -7 -12   33.97   30.30
   6  -7 -12   27.62   26.59
   6  -7 -12   -9.07   28.73
  -6  -8 -12   -0.97   32.01
  -6  -8 -12  -10.48   32.20
  -6   8 -12  -47.53   33.83
   6  -8 -12   -4.33   27.26
   6  -8 -12  -40.77   29.33
  -6  -9 -12   74.43   35.54
  -6  -9 -12   25.17   33.27
   6  -9 -12   60.73   30.30
  -6   9 -12   28.51   13.75
   6  -9 -12   59.91   34.24
  -6 -10 -12   31.89   35.30
  -6 -10 -12   29.66   34.15
   6 -10 -12   69.09   34.50
   6 -10 -12   24.80   29.89
  -6  10 -12   25.80   13.74
  -6   0 -13  -22.46   24.48
   6   0 -13    8.06   22.15
  -6   0 -13  -13.19   25.99
  -6  -1 -13   -3.51   29.27
   6   1 -13   32.31   20.54
  -6  -1 -13   24.44   25.70
   6  -1 -13   32.54   25.60
   6  -1 -13   34.59   27.19
  -6   1 -13    5.72   24.18
  -6   1 -13   28.10   23.79
  -6  -2 -13   78.17   27.56
   6   2 -13   29.40   19.42
  -6  -2 -13    9.41   34.13
   6  -2 -13   72.48   24.36
   6  -2 -13   57.71   27.98
  -6   2 -13  -13.88   35.34
  -6  -3 -13   11.79   28.46
   6   3 -13    8.27   19.40
  -6  -3 -13    7.38   34.04
   6  -3 -13   56.22   24.06
   6  -3 -13   12.10   28.10
  -6  -4 -13   11.06   29.30
   6  -4 -13   28.59   29.49
   6  -4 -13    4.90   24.88
  -6  -5 -13   -4.71   36.59
  -6  -5 -13   86.11   31.93
   6  -5 -13   99.04   26.78
  -6   5 -13   32.33   40.30
  -6  -6 -13  -26.65   38.01
  -6  -6 -13  -41.79   30.18
   6  -6 -13   27.32   27.15
  -6   6 -13   11.77   27.57
  -6  -7 -13    0.51   38.06
  -6  -7 -13   33.94   32.21
   6  -7 -13   33.00   29.48
   6  -7 -13  -13.01   31.57
  -6   7 -13   97.82   31.91
  -6  -8 -13   49.10   38.45
  -6  -8 -13   29.43   33.34
   6  -8 -13   -4.31   32.05
   6  -8 -13   82.70   30.53
  -6   8 -13    5.11   31.57
  -6  -9 -13    8.27   38.33
  -6  -9 -13   39.66   36.12
  -6   9 -13    3.85   13.40
   6  -9 -13  -20.77   31.56
   6  -9 -13   34.84   31.38
  -6   0 -14   25.17   26.49
   6   0 -14   47.93   25.06
  -6   0 -14   10.44   31.18
  -6  -1 -14   62.99   34.71
   6   1 -14   29.80   24.31
  -6  -1 -14  -12.31   28.40
  -6   1 -14  -26.39   24.07
   6  -1 -14   35.23   25.19
  -6  -2 -14   -5.43   38.15
  -6  -2 -14    0.68   29.23
   6  -2 -14  -56.82   33.07
   6  -2 -14   49.34   25.12
  -6   2 -14  -31.07   23.80
  -6  -3 -14   46.80   30.77
   6  -3 -14   27.61   25.26
   6  -3 -14  -29.77   34.92
  -6   3 -14   25.89   23.41
  -6  -4 -14   66.00   42.56
  -6  -4 -14   47.42   32.59
   6  -4 -14    0.37   47.12
   6  -4 -14   91.55   27.65
  -6   4 -14   69.21   26.06
  -6  -5 -14  -11.22   32.59
  -6   5 -14  -23.65   25.21
   6  -5 -14   26.43   27.83
   6  -5 -14   12.48   35.44
  -6  -6 -14    3.11   34.19
  -6  -6 -14  -12.71   43.23
   6  -6 -14   81.11   29.61
   6  -6 -14    9.08   35.09
  -6   6 -14   76.37   29.96
  -6  -7 -14   -7.65   34.32
  -6  -7 -14  -67.19   42.14
   6  -7 -14   21.32   37.10
  -6   7 -14   55.40   33.26
   6  -7 -14   53.66   31.59
  -6  -8 -14  -27.13   41.86
  -6  -8 -14   13.81   35.59
   6  -8 -14   -0.44   35.15
   6  -8 -14   40.67   32.20
  -6   0 -15  -32.26   28.27
   6   0 -15   11.89   26.94
  -6  -1 -15   13.84   41.86
   6   1 -15   26.26   27.66
  -6  -1 -15   11.97   31.00
   6  -1 -15   39.70   27.93
  -6   1 -15   -0.69   27.24
   6   2 -15    6.23   26.15
  -6  -2 -15   12.09   31.96
   6  -2 -15   50.99   28.71
  -6   2 -15   -3.68   27.09
  -6  -3 -15   37.80   33.71
  -6  -3 -15   14.89   49.50
   6  -3 -15   21.83   29.29
  -6   3 -15  -18.32   27.06
   6  -3 -15   63.42   50.71
  -6  -4 -15   16.44   35.53
  -6  -4 -15   10.34   50.44
   6  -4 -15  -72.64   42.22
   6  -4 -15   24.35   29.37
  -6   4 -15   -0.95   28.33
  -6  -5 -15   31.06   35.57
  -6  -5 -15   15.70   50.60
  -6   5 -15  -17.89   30.59
   6  -5 -15   62.12   31.18
   6  -5 -15   -6.24   42.20
  -6  -6 -15    3.88   49.56
  -6  -6 -15   16.85   38.43
  -6   6 -15   58.57   33.97
   6  -6 -15    0.50   30.87
   6  -6 -15   -6.38   40.88
   6   0 -16   92.86   31.81
  -6   0 -16   34.30   32.02
  -6  -1 -16  -30.65   32.72
   6   1 -16   -9.36   30.77
   6  -1 -16   57.02   31.17
  -6   1 -16  -13.54   31.44
  -6  -2 -16   54.78   56.30
   6   2 -16   72.13   34.85
  -6  -2 -16   -3.53   35.11
  -6   2 -16   18.74   30.61
   6  -2 -16   28.07   32.35
  -6  -3 -16  -74.13   51.57
  -6  -3 -16  -15.68   35.95
   6  -3 -16    6.37   32.08
  -6   3 -16   21.98   30.97
  -7   0   0    2.75   13.26
  -7   0   0   -6.03   11.33
   7   0   0    2.19    8.08
   7  -1   0  108.78   13.63
  -7   1   0   86.97   12.97
  -7   1   0   59.95   12.56
  -7   1   0  104.33   15.02
  -7  -1   0  101.79   14.51
  -7  -1   0   77.06   12.15
  -7  -1   0   75.46   10.15
  -7   2   0 1661.39   99.09
  -7   2   0 1866.51   98.91
  -7  -2   0 1666.01   99.03
  -7  -2   0 1863.83   99.07
   7   2   0 1746.17   96.96
  -7   2   0 1970.02   97.25
  -7   3   0   11.41   12.87
  -7  -3   0    0.02    9.94
  -7   3   0  -18.66    8.77
   7  -3   0    2.89   10.44
  -7   3   0   18.05   10.89
  -7  -3   0    8.91   17.71
  -7  -3   0   -2.29    7.14
   7   3   0   14.17    8.01
   7   4   0  448.03   27.79
   7  -4   0  458.66   35.71
  -7  -4   0  468.73   27.24
  -7   4   0  416.77   31.92
  -7   4   0  496.07   30.63
   7  -4   0  426.78   30.20
  -7  -4   0  469.83   32.21
  -7   4   0  473.55   28.34
  -7  -5   0  250.49   24.67
  -7   5   0  236.64   19.38
  -7  -5   0  231.70   22.42
   7  -5   0  246.20   22.42
   7   5   0  245.29   18.84
  -7  -6   0   -8.85   11.47
   7   6   0  -20.92   10.34
  -7  -6   0   14.60   14.80
   7  -6   0   -2.11   13.78
   7  -6   0  -17.71   13.06
   7  -7   0   26.00   15.37
  -7   7   0   36.40   12.49
   7  -7   0   48.19   18.35
  -7  -7   0   31.43   17.78
   7   7   0   58.35   12.59
  -7  -7   0   36.46   13.49
   7  -8   0   72.01   17.90
  -7  -8   0  118.60   21.96
   7  -8   0  102.56   22.61
  -7   8   0   80.45   15.08
  -7  -8   0   62.34   16.00
  -7   9   0   11.45   16.17
  -7  -9   0  -13.04   16.37
   7  -9   0   -3.34   18.87
  -7  -9   0   12.44   19.88
   7   9   0   33.28   16.20
   7  -9   0   14.63   23.58
  -7 -10   0   56.13   19.72
   7 -10   0   44.06   22.27
   7 -10   0   -6.55   24.90
  -7 -10   0   26.14   25.62
  -7  10   0   56.77   16.95
   7  11   0   94.29   20.23
   7 -11   0   65.25   29.53
  -7  11   0  105.82   20.65
  -7 -11   0   68.21   22.69
   7 -12   0  -52.47   30.87
   7 -12   0   22.59   27.36
   7  12   0   23.66   20.83
  -7 -12   0    8.14   26.34
  -7  12   0   43.29   20.04
   7  13   0   49.62   23.02
   7 -13   0   59.05   27.23
  -7  13   0   64.82   22.68
   7  14   0   20.42   23.18
   7 -14   0   -4.66   29.10
  -7  14   0   18.45   24.95
  -7  15   0    2.03   27.15
   7  15   0   12.28   25.01
   7 -15   0   32.84   34.30
  -7   0  -1   96.00   12.90
  -7   0   1  117.58   21.61
   7   0   1  135.20   14.24
   7   0  -1  137.37   13.42
  -7   0  -1  101.01   13.59
  -7   0  -1  110.89   19.23
  -7   0   1   85.00   14.58
  -7   1   1  734.28   44.23
   7   1  -1  756.20   41.35
  -7  -1  -1  834.86   45.72
  -7  -1  -1  687.57   43.74
   7  -1   1  764.74   41.86
  -7   1   1  771.05   45.05
  -7   1   1  713.63   41.76
  -7   1  -1  681.56   41.31
  -7  -1   1  676.43   43.55
   7   1   1  751.50   41.61
   7  -1  -1  788.30   41.60
  -7  -1   1  733.41   44.72
  -7   1  -1  641.29   44.04
  -7  -1   1  682.69   41.17
  -7   1  -1  708.81   45.78
  -7  -2  -1   42.17   13.06
  -7   2   1   63.24   13.79
  -7   2   1   24.20   10.01
  -7   2   1   55.10   10.70
  -7  -2  -1   32.82   10.99
  -7   2  -1   22.86    9.37
  -7  -2   1   32.57   10.25
  -7   2  -1   38.00   11.10
  -7   2  -1   23.05   13.33
  -7  -2   1   25.03   12.22
  -7   3   1  327.23   23.93
  -7  -3  -1  316.34   24.27
  -7  -3  -1  276.83   26.56
  -7   3   1  282.46   21.36
  -7   3   1  304.31   25.26
   7   3  -1  314.39   19.90
  -7   3  -1  315.09   20.56
  -7   3  -1  307.29   25.21
  -7   3  -1  277.62   26.68
   7  -3  -1  251.71   22.07
   7   3   1  309.85   20.45
  -7  -3   1  337.30   24.90
   7  -3  -1  253.32   26.52
   7  -4   1   65.21   14.03
  -7   4   1   89.43   11.14
   7   4  -1  109.73   12.74
  -7  -4  -1   62.35   12.20
   7  -4   1   97.90   16.83
  -7  -4  -1   65.55   13.92
   7  -4  -1  113.26   16.87
  -7   4  -1   77.64   10.37
  -7   4  -1  105.25   14.69
   7  -4  -1   65.21   13.33
   7   4   1   99.41   13.24
  -7   4  -1  114.32   21.93
  -7  -4   1   94.95   16.62
  -7  -4   1  116.86   18.47
   7  -5   1    6.53   12.73
  -7  -5  -1   -5.79   11.24
  -7   5   1    6.33    9.50
   7   5  -1   16.07    9.10
  -7  -5  -1   21.50   13.79
   7  -5   1    2.57   12.83
  -7   5  -1   24.36   13.18
  -7  -5   1   -5.29   10.23
  -7  -5   1   19.82   11.40
   7  -5  -1    2.82   12.14
   7  -5  -1   -9.40   12.12
  -7   5  -1   17.80   10.20
   7   5   1    6.59    9.86
  -7   5  -1   -0.20    9.60
  -7   6   1  112.07   16.02
  -7  -6  -1  129.90   21.58
   7  -6   1   99.73   15.44
  -7  -6  -1   78.38   14.71
   7  -6   1  150.99   20.00
   7   6  -1  125.54   14.69
   7   6   1  110.16   15.57
   7  -6  -1  120.98   19.83
   7  -6  -1  168.82   26.08
  -7  -6   1  120.79   19.25
  -7   6  -1  114.63   15.82
  -7  -6   1  147.15   21.64
  -7  -7  -1  -23.87   17.50
   7  -7   1  -32.15   17.30
   7   7  -1   11.83   11.63
   7  -7   1  -18.68   14.15
  -7   7   1  -13.20   12.17
   7  -7  -1   -8.34   15.04
  -7   7  -1  -23.78   11.96
  -7  -7   1   -4.90   12.24
  -7  -7   1  -12.99   15.47
   7  -7  -1  -22.77   17.40
   7   7   1   -1.67   12.13
   7   8  -1   29.23   13.24
  -7  -8  -1  -26.43   16.44
  -7   8   1   -1.29   13.75
  -7  -8  -1    6.75   21.15
   7  -8   1  -14.28   21.48
  -7  -8   1   10.38   14.73
   7  -8  -1    8.34   21.38
  -7  -8   1  -18.69   18.75
  -7   8  -1  -18.54   13.84
   7  -8  -1    9.20   16.96
   7   8   1   26.23   14.23
  -7  -9  -1   78.07   20.57
  -7   9   1  160.81   20.37
  -7  -9  -1  121.05   27.39
   7  -9   1  103.89   25.11
   7  -9   1   75.02   20.28
   7  -9  -1  118.85   25.03
  -7   9  -1  115.90   20.47
  -7  -9   1  170.01   29.30
  -7  10   1   65.48   17.36
  -7 -10  -1   69.09   21.72
   7 -10   1   42.08   22.14
  -7  10  -1   56.67   16.61
  -7 -10   1   68.62   18.17
   7 -10  -1   53.35   22.91
   7 -10  -1   90.77   26.93
   7  10   1   81.78   18.30
  -7 -11  -1   23.60   31.09
  -7 -11  -1    4.88   23.83
   7  11  -1   38.23   17.82
  -7  11   1    5.36   20.88
   7 -11   1  -35.08   23.52
  -7  11  -1   -5.48   18.21
   7 -11  -1   26.54   42.84
   7  11   1   37.43   19.38
  -7  12   1   86.76   21.48
   7 -12   1   68.09   27.27
  -7 -12  -1   31.32   28.41
   7  12  -1   47.62   19.95
   7 -12  -1  -10.54   28.81
   7  12   1   60.29   21.48
   7 -12  -1   50.09   27.33
  -7  12  -1   78.29   20.77
  -7 -13  -1   23.88   31.27
   7  13  -1   17.79   21.27
   7 -13   1   25.97   26.76
  -7  13   1    5.37   23.16
   7  13   1   18.02   23.56
  -7  13  -1   32.11   21.22
   7 -13  -1  -36.35   28.81
   7  14  -1   47.20   22.95
  -7 -14  -1   41.36   36.74
   7 -14   1   60.69   29.39
  -7  14   1   27.04   25.57
   7 -14  -1   29.58   29.84
   7  14   1   40.95   23.97
  -7  14  -1   21.77   23.32
   7  15  -1    2.88   24.40
  -7  15   1    1.97   28.08
   7  15   1   19.56   27.28
  -7  15  -1  -15.34   26.29
   7 -15  -1   10.25   32.01
  -7   1   2  173.37   15.15
  -7   1   2  160.55   21.17
  -7  -1  -2  159.28   23.60
  -7  -1  -2  176.01   20.52
  -7   1   2  201.71   19.88
   7  -1   2  192.37   16.10
   7   1  -2  192.72   15.43
  -7   1  -2  195.78   20.95
  -7  -1   2  181.01   19.81
  -7   1  -2  162.37   23.68
  -7  -1   2  147.47   20.44
  -7  -1   2  176.90   13.47
   7  -1  -2  174.65   15.88
   7   1   2  185.19   16.36
   7   2  -2  130.48   12.83
  -7  -2  -2  122.35   13.82
  -7   2   2  104.21   13.48
  -7   2   2  149.27   18.37
  -7  -2  -2  138.81   19.15
  -7  -2   2   93.67   18.31
   7  -2  -2  128.15   14.01
  -7   2  -2   90.32   12.91
   7   2   2  161.72   14.19
  -7   2  -2  120.42   13.72
  -7   2  -2  105.09   18.97
  -7  -2   2  121.45   17.67
  -7  -3  -2   44.60   12.97
  -7  -3  -2   20.15   11.29
   7   3  -2   38.21    7.45
  -7   3   2   21.56    9.10
  -7   3  -2   17.00   10.79
  -7   3  -2   18.01    8.34
  -7   3  -2   29.05   12.42
  -7  -3   2   48.16   14.06
  -7  -3   2   24.93    8.57
   7  -3  -2   22.97   10.87
   7  -3  -2   22.70   11.87
   7   3   2   31.60    8.57
  -7  -4  -2  -12.52   10.91
  -7   4   2  -17.86    8.72
  -7  -4  -2   -2.52   12.85
   7   4  -2   10.44    7.69
   7  -4   2  -16.37   10.92
   7  -4  -2   -5.28   11.71
  -7  -4   2    0.04    8.24
   7  -4  -2   -3.20   11.47
   7   4   2    3.18    8.70
  -7   4  -2  -15.02    8.33
  -7   4  -2  -12.60   10.61
  -7   4  -2   -1.29   13.29
  -7  -4   2    5.00   11.59
  -7   5   2   89.02   14.75
   7   5  -2  112.20   13.24
   7  -5   2   96.14   15.02
   7  -5   2  135.79   19.41
  -7  -5  -2  105.62   16.52
  -7   5  -2   77.49   13.56
   7   5   2   90.01   14.91
  -7  -5   2  115.80   18.05
   7  -5  -2  125.38   24.67
   7  -5  -2  134.55   18.14
  -7   5  -2  126.25   18.90
  -7   5  -2  131.87   22.28
  -7  -5   2  129.49   17.15
   7   6  -2    6.61    9.56
  -7  -6  -2  -13.10   12.87
   7  -6   2    6.14   14.34
  -7   6   2    5.34   10.66
  -7  -6  -2  -13.65   16.00
  -7   6  -2    9.21   10.43
  -7   6  -2    8.58   13.65
   7  -6  -2    2.32   14.14
   7   6   2    6.48   11.35
  -7  -6   2    8.24    9.33
  -7   6  -2    3.16    9.59
   7  -6  -2   -2.88   12.49
  -7  -7  -2  -12.55   14.90
   7  -7   2  -19.93   14.04
   7   7  -2   18.27   11.00
  -7   7   2    4.57   12.04
   7  -7   2   12.34   17.98
  -7  -7  -2  -11.32   18.99
   7  -7  -2   -4.75   17.83
  -7   7  -2  -16.65   11.25
   7   7   2   11.56   12.97
   7  -7  -2    4.35   14.71
  -7  -8  -2   52.13   23.75
   7   8  -2   94.20   15.80
  -7  -8  -2    8.96   17.43
  -7   8   2   57.21   14.65
   7  -8   2   13.07   16.68
   7  -8   2   33.80   21.31
   7  -8  -2   48.79   22.14
   7  -8  -2   46.40   18.43
   7   8   2   73.79   15.51
  -7   8  -2   21.66   13.87
  -7  -9  -2   88.85   27.68
  -7  -9  -2   37.90   19.92
   7  -9   2    5.88   18.92
  -7   9   2   62.37   15.91
   7  -9  -2   52.15   19.71
   7   9   2   84.94   17.41
  -7   9  -2   31.81   15.06
  -7 -10  -2   23.24   28.36
   7  10  -2   22.45   15.63
  -7 -10  -2  -24.02   21.16
  -7  10   2    0.24   16.62
   7 -10  -2  -17.12   22.57
   7  10   2   26.50   17.65
   7 -10  -2    5.59   26.32
   7 -11   2   53.63   22.65
  -7 -11  -2  -14.59   30.74
   7  11  -2   59.83   17.71
  -7  11   2   84.98   27.92
  -7  11  -2   61.87   18.21
   7 -11  -2   97.06   27.90
   7  11   2   83.52   20.26
   7 -11  -2   55.96   30.45
  -7  12   2   32.07   22.20
  -7 -12  -2   -4.65   29.45
  -7 -12  -2   -2.78   41.51
   7 -12   2    3.13   40.38
   7  12  -2   22.82   18.84
   7 -12  -2   11.80   28.77
   7  12   2    6.81   21.08
   7 -12  -2  -12.79   25.27
  -7  12  -2    0.79   19.54
  -7  13   2   34.21   24.23
   7 -13   2   10.48   26.34
  -7 -13  -2   22.22   31.84
   7  13  -2   30.50   21.03
   7 -13  -2   -6.67   34.06
   7  13   2   19.34   23.27
  -7  13  -2   37.43   20.98
   7 -13  -2    7.99   29.63
   7  14  -2    1.97   23.33
  -7 -14  -2   30.15   36.54
  -7  14   2    4.27   26.88
  -7  14  -2   -5.76   22.30
   7  14   2   10.06   25.07
   7 -14  -2   15.33   29.47
   7  15  -2   26.92   26.31
  -7  15   2   18.18   30.02
  -7 -15  -2    8.78   44.70
   7  15   2   23.35   28.14
   7 -15  -2   -7.00   33.61
  -7  15  -2   10.93   25.88
   7   0  -3  348.11   22.38
  -7   0  -3  343.61   28.49
  -7   0   3  366.21   24.71
   7   0   3  369.82   22.98
  -7   0  -3  361.72   26.35
   7  -1   3    0.44    7.84
  -7  -1  -3   26.72   12.28
  -7   1   3   10.78    7.46
   7   1  -3   10.57    7.59
  -7  -1  -3   20.02   11.29
  -7   1  -3    9.65   12.41
  -7  -1   3   21.56    7.54
  -7   1  -3   -1.36    9.75
   7   1   3   29.89   10.28
  -7   2   3   61.33    8.75
  -7  -2  -3   41.47   10.98
  -7  -2  -3   69.67   13.17
   7   2  -3   55.23    7.74
  -7   2  -3   61.61   13.10
   7   2   3   59.78    9.22
  -7  -2   3   40.94    8.14
  -7   2  -3   46.47   11.29
  -7  -2   3   62.63   11.93
   7  -2  -3   36.11   10.41
  -7   3   3   78.86    9.84
   7   3  -3   77.25   10.64
  -7  -3  -3   91.23   13.96
  -7  -3  -3   57.98   12.34
   7  -3  -3   64.52   13.23
  -7   3  -3   80.71   13.39
  -7  -3   3   84.98   12.30
   7  -3  -3   91.19   12.47
  -7   3  -3   59.84   12.06
   7   3   3   76.76    9.95
  -7  -4  -3   28.22   12.51
   7  -4   3    7.54   11.01
  -7   4   3   20.33    9.02
  -7  -4  -3   43.78   13.77
   7  -4   3   39.67   16.15
  -7   4  -3   24.07   11.00
   7  -4  -3   16.64   12.19
   7   4   3   33.04    9.33
  -7   4  -3   18.02    8.43
  -7   4  -3   11.92   12.75
   7  -5   3   -9.77   12.57
  -7   5   3   -0.38    9.41
  -7  -5  -3  -18.28   12.99
  -7  -5  -3    9.42   14.64
   7  -5  -3   -7.25   11.69
  -7   5  -3    6.24   10.84
   7  -5  -3    1.68   12.31
   7   5   3    5.25    9.92
  -7   5  -3    1.42   13.62
  -7   5  -3  -10.48    8.91
  -7  -6  -3    9.79   16.46
  -7  -6  -3   -2.56   13.54
   7   6  -3   18.94    9.26
  -7   6   3    0.97   10.84
   7  -6   3   -1.45   12.90
   7  -6  -3   11.11   12.94
  -7   6  -3   29.97   14.22
   7  -6  -3   35.80   14.98
   7   6   3   15.77   11.59
  -7   6  -3  -11.12    9.14
  -7   7   3   21.03   12.97
   7   7  -3   32.14   10.70
  -7  -7  -3   -1.15   20.20
  -7  -7  -3    0.02   16.34
  -7   7  -3    1.69   10.78
  -7   7  -3   48.38   15.38
   7  -7  -3   30.74   18.80
   7  -7  -3   31.17   16.18
   7   7   3   27.56   13.86
  -7  -8  -3  107.44   21.42
   7   8  -3  180.14   17.47
  -7   8   3  144.32   20.24
  -7  -8  -3  155.89   26.39
   7  -8   3  162.64   30.08
   7   8   3  183.16   20.67
   7  -8  -3  188.75   33.12
  -7   8  -3  148.64   19.37
   7  -8  -3  175.16   27.65
  -7  -9  -3   16.54   26.94
  -7  -9  -3  -32.21   19.49
   7   9  -3   15.25   13.28
  -7   9   3   16.74   16.32
   7  -9  -3    1.95   23.81
   7  -9  -3  -16.10   20.03
   7   9   3   22.82   16.81
   7 -10   3    7.64   19.50
   7  10  -3   37.92   14.92
  -7 -10  -3   13.85   22.80
  -7  10   3   40.70   18.54
  -7 -10  -3   70.10   32.32
   7  10   3   40.99   18.68
   7 -10  -3   45.43   26.89
  -7  10  -3   12.15   17.66
   7 -10  -3   19.04   25.31
   7 -11   3    1.54   20.58
   7  11  -3   36.25   17.12
  -7 -11  -3   32.50   29.20
  -7 -11  -3  -14.62   26.10
   7  11   3   12.05   20.99
   7 -11  -3   14.62   27.21
   7 -11  -3   21.78   29.79
  -7  11  -3   -0.54   18.37
  -7 -12  -3  -14.63   28.63
   7  12  -3   22.14   18.20
  -7 -12  -3   64.06   38.70
  -7  12   3   10.56   23.40
  -7  12  -3   29.80   19.61
   7 -12  -3  -22.98   29.24
   7  12   3   52.89   22.47
   7 -12  -3   20.49   29.94
  -7 -13  -3  -23.32   31.78
  -7  13   3   12.62   25.88
   7  13  -3   -1.17   19.93
  -7  13  -3   14.91   21.21
   7 -13  -3  -26.72   29.67
   7  13   3    6.13   23.95
   7 -13  -3  -47.64   40.04
  -7 -14  -3   -0.58   38.27
  -7  14   3   -4.50   28.02
   7  14  -3   16.71   23.65
   7 -14  -3  -26.71   29.08
   7  14   3   24.10   26.03
  -7  14  -3   32.52   22.76
   7 -14  -3  -65.04   43.95
   7  15  -3   11.66   25.35
   7  15   3   30.01   30.17
  -7   0  -4   -3.29   10.18
   7   0   4    3.88    7.98
   7   0  -4   -0.72    7.08
  -7   0  -4  -10.62   11.45
   7   1  -4  276.85   19.06
   7  -1   4  314.60   20.19
  -7  -1  -4  279.35   23.29
  -7  -1  -4  288.25   26.35
  -7   1   4  290.80   19.88
  -7   1  -4  297.97   25.69
   7   1   4  292.04   20.56
   7  -1  -4  275.88   25.23
  -7   1  -4  315.13   23.54
  -7  -2  -4  -16.50   10.42
  -7  -2  -4  -12.88   12.41
  -7   2   4   13.02   11.38
   7  -2  -4    1.85    9.81
  -7   2  -4   -5.76    9.40
   7  -2  -4   -6.39   10.32
  -7   2  -4  -10.16   11.50
   7   2   4   -9.30    8.27
  -7   3   4  186.88   16.19
  -7  -3  -4  151.65   24.47
  -7  -3  -4  187.69   20.36
  -7   3  -4  182.06   19.67
  -7   3  -4  213.55   22.26
   7  -3  -4  178.61   24.21
   7   3   4  167.39   16.23
   7  -3  -4  160.39   18.39
   7  -4   4    5.50   10.87
  -7  -4  -4    7.50   13.37
   7  -4   4    8.38   11.60
  -7   4   4   18.16   10.11
  -7  -4  -4   37.21   14.31
   7  -4  -4   19.54   11.75
  -7   4  -4   14.98   12.78
   7  -4  -4   23.97   12.09
   7   4   4   15.63    9.35
  -7   4  -4   12.71   10.71
  -7  -5  -4   30.80   15.72
  -7  -5  -4   11.21   12.93
   7  -5   4   27.44   13.69
  -7   5   4   27.78   11.03
   7  -5   4   13.44   12.85
  -7   5  -4    8.09    8.73
   7  -5  -4   40.23   12.91
   7   5   4   13.71   10.40
  -7   5  -4   13.34   11.42
  -7   5  -4   15.36   14.39
   7  -5  -4   20.42   11.98
   7  -6   4    5.35   13.05
   7  -6   4   15.26   15.66
  -7  -6  -4    9.79   14.70
  -7   6   4   13.77   12.10
  -7  -6  -4   22.56   17.58
  -7   6  -4    3.25    9.77
   7  -6  -4   13.56   15.85
  -7   6  -4   27.00   15.03
  -7   6  -4   30.56   13.44
   7   6   4   19.61   11.87
   7  -6  -4   26.40   14.69
   7   7  -4  129.57   15.26
  -7  -7  -4  139.38   23.19
   7  -7   4  152.43   24.87
  -7   7   4  155.87   19.47
  -7   7  -4  131.62   16.58
   7   7   4  163.51   19.68
   7  -7  -4  176.76   30.52
   7  -7  -4  139.14   21.05
  -7  -8  -4  144.08   26.81
   7   8  -4  137.08   16.12
   7  -8   4  147.47   27.68
  -7   8   4  118.91   21.36
  -7   8  -4  112.98   17.85
   7  -8  -4  164.46   27.84
   7  -8  -4  177.41   33.21
   7   8   4  157.53   20.84
  -7  -9  -4   62.44   28.63
  -7   9   4   25.11   17.91
  -7  -9  -4    1.19   19.28
   7   9  -4   57.94   13.11
   7  -9  -4   25.79   23.37
   7  -9  -4   30.86   20.59
  -7   9  -4   21.42   13.94
   7   9   4   53.91   18.11
  -7  10   4   27.14   19.77
   7  10  -4   31.86   14.74
  -7 -10  -4   30.62   32.65
   7 -10  -4  -16.90   47.44
   7  10   4   52.05   19.91
   7 -10  -4   30.87   26.65
  -7 -11  -4  -12.71   26.37
  -7  11   4   -6.90   38.41
   7  11  -4   20.42   16.22
  -7 -11  -4   19.92   37.64
  -7  11  -4    2.04   18.23
   7 -11  -4   -9.10   27.61
   7 -11  -4   29.00   30.88
   7  11   4   37.32   22.09
   7  12  -4   -5.44   18.41
  -7 -12  -4   19.53   37.97
  -7  12   4  -25.00   25.25
  -7 -12  -4  -50.13   28.61
  -7  12  -4    4.65   19.65
   7  12   4   -6.96   23.42
  -7 -13  -4   73.95   51.00
   7  13  -4    3.22   19.76
  -7  13   4   -7.28   27.56
  -7 -13  -4    2.54   33.26
   7 -13  -4    5.29   33.63
   7  13   4   -5.21   26.19
  -7  13  -4   59.64   20.71
   7 -13  -4   -6.96   31.29
  -7 -14  -4  -40.72   36.87
   7  14  -4    8.78   23.07
  -7  14   4  -19.83   30.35
   7 -14  -4   -0.81   42.59
  -7  14  -4    2.16   22.39
   7  14   4   -8.17   28.44
   7 -14  -4  -49.44   29.22
  -7   0  -5 1005.65   57.13
  -7   0  -5 1006.46   58.60
   7   0   5 1009.17   55.94
   7   0  -5  984.65   54.95
  -7  -1  -5   -5.21   11.54
   7   1  -5    7.41    6.80
  -7  -1  -5    8.15   12.15
   7  -1  -5   21.44    9.42
   7   1   5   14.44    9.96
  -7   1  -5    4.64   10.23
  -7   1  -5   20.20   11.98
   7  -1  -5   12.36   10.05
  -7  -2  -5  292.98   28.90
  -7   2   5  312.69   22.29
  -7  -2  -5  312.93   24.99
   7  -2  -5  316.34   28.44
  -7   2  -5  349.70   24.56
  -7   2  -5  328.08   26.26
   7  -2  -5  313.39   22.90
   7   2   5  294.59   22.79
  -7   3   5   76.06   11.86
  -7  -3  -5   67.50   14.70
  -7  -3  -5   36.57   13.62
   7  -3  -5   56.75   12.94
  -7   3  -5   80.26   13.45
   7   3   5   61.49   10.43
   7  -3  -5   74.53   12.49
  -7   3  -5   42.21   11.26
  -7  -4  -5   32.66   13.21
  -7  -4  -5   47.38   15.34
   7  -4   5   38.87   11.72
   7  -4   5   74.71   13.43
  -7   4   5   47.29   12.32
   7   4   5   36.83   10.46
   7  -4  -5   36.73   12.05
  -7   4  -5   26.55   11.67
  -7   4  -5   47.31   13.15
   7  -4  -5   53.15   12.64
  -7  -5  -5   26.73   15.94
   7  -5   5   -7.26   12.77
  -7   5   5   13.52   12.53
  -7  -5  -5  -12.74   14.10
  -7   5  -5    3.01   12.51
  -7   5  -5  -10.72   13.79
   7  -5  -5   -5.23   12.76
   7   5   5   22.70   11.06
   7  -5  -5    1.97   14.04
  -7   6   5   99.08   15.52
   7  -6   5   83.79   19.42
  -7  -6  -5   31.14   16.09
  -7  -6  -5   70.36   19.56
   7  -6   5   55.76   13.63
   7  -6  -5   56.23   17.40
   7   6   5   75.23   13.45
   7  -6  -5   41.14   14.61
  -7   6  -5   68.42   14.00
  -7   6  -5   65.44   10.77
  -7   6  -5   90.06   17.37
   7   7  -5   86.57   13.58
  -7   7   5  108.51   17.30
  -7  -7  -5   92.13   22.31
  -7  -7  -5   42.14   19.19
   7   7   5   90.34   16.10
  -7   7  -5   77.90   26.33
  -7   7  -5   89.35   15.49
   7  -7  -5  121.68   20.90
  -7   7  -5  130.50   23.11
   7  -7  -5   82.06   18.77
   7   8  -5   58.82   11.91
  -7   8   5   74.34   18.29
  -7  -8  -5   66.54   24.34
   7   8   5   82.88   17.32
  -7   8  -5   63.01   12.50
   7  -8  -5   42.12   18.85
   7  -8  -5   86.19   23.20
  -7   8  -5  109.80   18.46
  -7  -9  -5   20.16   20.90
  -7  -9  -5   93.88   28.39
  -7   9   5   94.43   19.79
   7   9  -5   59.99   13.24
  -7   9  -5   60.40   13.79
   7  -9  -5   40.39   22.30
   7  -9  -5   84.93   24.03
   7   9   5   78.02   19.37
   7  10  -5   21.02   14.30
  -7 -10  -5   -3.89   23.13
  -7  10   5   22.20   21.28
  -7 -10  -5   18.44   32.80
   7 -10  -5   17.06   27.49
   7 -10  -5  -16.67   27.03
  -7  10  -5   26.39   15.90
   7  10   5   23.97   20.66
  -7 -11  -5   -2.46   25.44
  -7 -11  -5    8.29   40.70
  -7  11   5  -42.64   30.71
   7  11  -5   25.40   16.13
   7 -11  -5  -33.58   29.04
   7  11   5   -3.25   23.37
  -7  11  -5   26.20   17.68
   7  12  -5   -0.59   18.13
  -7  12   5  -54.58   26.88
  -7 -12  -5   10.61   36.90
   7 -12  -5  -10.48   38.01
  -7  12  -5   -7.95   18.96
   7 -12  -5  -49.21   27.50
   7  12   5   10.47   26.50
  -7 -13  -5   25.75   50.15
  -7  13   5  -52.38   29.37
  -7 -13  -5  -37.48   32.32
   7  13  -5    1.91   20.86
   7  13   5  -11.10   27.31
   7 -13  -5   -8.49   31.27
  -7  13  -5    5.11   21.65
   7 -13  -5   13.95   44.28
  -7 -14  -5   11.35   36.60
   7  14  -5  -18.40   25.40
  -7  14   5  -70.18   32.03
   7 -14  -5  -34.23   29.64
  -7  14  -5    1.19   22.67
   7 -14  -5   22.58   43.16
   7  14   5   12.51   30.68
  -7   0  -6   29.78   12.42
   7   0  -6   21.27   18.44
  -7   0  -6   19.71   11.60
  -7  -1  -6  790.73   49.39
   7   1  -6  768.72   43.35
  -7  -1  -6  773.92   46.80
   7   1  -6  728.05   47.30
   7  -1  -6  742.34   44.97
   7   1   6  789.00   50.46
   7  -1  -6  809.07   48.36
  -7   1  -6  817.23   46.03
  -7   1  -6  827.77   48.40
  -7  -2  -6  192.32   22.39
  -7  -2  -6  165.32   27.01
   7  -2  -6  209.52   19.43
  -7   2  -6  207.55   23.35
   7   2   6  206.89   18.75
   7  -2  -6  212.60   24.95
  -7   2  -6  230.66   20.45
  -7  -3  -6  144.64   27.69
  -7  -3  -6  193.79   22.71
  -7   3   6  149.55   23.26
   7  -3  -6  188.03   19.21
  -7   3  -6  214.08   20.17
   7  -3  -6  199.57   25.62
   7   3   6  193.91   18.41
  -7   3  -6  202.25   22.67
   7  -4   6  102.01   16.22
   7  -4   6   70.69   13.11
  -7  -4  -6   94.87   17.97
  -7   4   6   98.61   14.99
  -7   4  -6   88.80   14.82
  -7   4  -6   62.32   12.85
   7   4   6   82.65   12.31
   7  -4  -6   81.05   14.60
   7  -4  -6   56.65   13.45
  -7   5   6   11.21   14.56
  -7  -5  -6   26.51   18.22
  -7  -5  -6  -10.59   15.65
  -7   5  -6   10.72   12.74
   7   5   6    6.87   11.71
   7  -5  -6   26.34   16.04
   7  -5  -6   -1.13   14.50
  -7   5  -6   -8.58   14.15
  -7   6   6   35.54   16.49
  -7  -6  -6    8.79   18.01
  -7  -6  -6   16.74   19.68
   7   6   6   51.23   14.27
   7  -6  -6   34.52   16.15
   7  -6  -6   30.74   17.87
  -7   6  -6   36.96   17.34
  -7   6  -6   61.83   24.12
  -7   7   6  252.50   26.13
  -7  -7  -6  252.18   30.69
  -7  -7  -6  213.45   36.44
  -7   7  -6  267.45   28.00
   7   7   6  234.34   24.04
   7  -7  -6  308.54   30.30
   7  -7  -6  263.35   35.49
  -7   7  -6  270.71   20.82
  -7   7  -6  252.24   33.05
  -7   8   6   74.98   19.79
  -7  -8  -6   83.98   24.47
   7   8  -6   74.56   13.14
  -7  -8  -6   56.95   21.09
  -7   8  -6  108.23   15.93
   7   8   6   80.79   17.56
   7  -8  -6   51.12   19.91
   7   9  -6   24.17   12.04
  -7  -9  -6   24.59   27.64
  -7   9   6   13.46   20.26
   7   9   6   26.37   18.88
   7  -9  -6   15.75   37.34
   7  -9  -6   37.95   25.48
  -7   9  -6   30.89   12.99
  -7  10   6   51.72   23.14
  -7 -10  -6   -8.87   23.70
  -7 -10  -6   39.34   32.42
   7  10  -6   15.11   15.74
   7  10   6   55.40   21.88
  -7  10  -6   43.50   15.67
   7 -10  -6   45.43   27.22
   7  11  -6  -11.68   15.91
  -7  11   6  -52.84   27.23
   7  11   6   -1.59   25.21
  -7  11  -6   -3.57   16.62
   7 -11  -6  -39.65   31.29
  -7 -12  -6  -64.19   48.96
  -7  12   6  -54.79   28.88
   7  12  -6  -18.72   18.53
   7  12   6  -30.89   27.38
  -7  12  -6  -17.57   18.98
   7 -12  -6   -0.05   39.00
   7  13  -6  -11.45   20.04
  -7  13   6  -57.51   31.14
  -7 -13  -6   31.03   47.77
  -7 -13  -6  -20.02   32.12
  -7  13  -6    0.80   21.01
   7 -13  -6  -35.45   32.03
   7  13   6  -10.36   29.63
   7 -13  -6    7.02   45.13
  -7 -14  -6   20.49   36.64
  -7  14   6  -67.47   34.00
   7  14  -6    0.20   24.25
   7  14   6   -1.99   32.49
  -7  14  -6   -0.85   22.14
   7 -14  -6  -24.23   30.11
  -7   0  -7  817.06   47.97
  -7   0  -7  846.31   51.05
   7   0  -7  772.20   46.12
   7   0  -7  794.07   50.22
   7   1  -7  224.40   17.02
   7   1  -7  211.12   25.90
  -7  -1  -7  259.92   29.33
  -7  -1  -7  227.76   23.91
   7  -1  -7  253.02   20.63
  -7   1  -7  259.41   26.75
   7  -1  -7  250.49   26.52
  -7   1  -7  258.56   22.63
  -7  -2  -7  553.65   37.55
  -7  -2  -7  547.80   42.09
   7   2  -7  550.81   38.46
   7   2   7  582.87   35.45
  -7   2  -7  567.69   37.86
   7  -2  -7  567.74   39.48
   7  -2  -7  537.87   35.01
  -7   2  -7  581.62   35.74
  -7  -3  -7  200.06   24.74
  -7  -3  -7  162.37   30.23
   7  -3  -7  180.84   20.49
   7  -3  -7  221.67   27.08
  -7   3  -7  201.93   24.05
  -7   3  -7  173.84   21.59
   7   3   7  178.32   28.94
  -7  -4  -7   27.71   16.60
  -7   4   7   65.68   24.48
  -7  -4  -7   71.75   18.47
  -7   4  -7   63.99   13.24
  -7   4  -7   90.85   15.34
   7  -4  -7   52.91   14.87
   7  -4  -7   94.55   16.10
   7   4   7   60.34   13.38
  -7  -5  -7   22.10   19.11
  -7   5   7    1.76   28.03
  -7  -5  -7   -5.23   18.05
  -7   5  -7   28.31   14.50
   7  -5  -7   26.81   17.77
  -7   5  -7   -0.06   15.38
   7   5   7   -7.58   13.36
   7  -5  -7    1.39   14.84
  -7  -6  -7  239.87   35.55
  -7  -6  -7  234.04   29.13
  -7   6   7  209.24   26.07
   7   6   7  216.77   22.91
  -7   6  -7  245.98   31.75
   7  -6  -7  260.58   34.15
  -7   6  -7  227.08   26.39
   7  -6  -7  236.67   28.08
  -7   7   7  100.00   21.32
  -7  -7  -7   85.06   22.92
   7  -7  -7  154.17   23.49
   7   7   7   97.54   18.31
  -7   7  -7  128.36   21.12
  -7   7  -7  124.77   15.52
  -7   7  -7  118.18   20.10
  -7   8   7   53.27   21.42
  -7  -8  -7   45.28   20.91
  -7  -8  -7   76.11   24.82
  -7   8  -7   56.78   12.42
  -7   8  -7  100.26   20.87
   7  -8  -7   60.53   21.12
   7   8   7   65.28   18.50
   7   9  -7   24.65   11.68
  -7   9   7   14.41   22.11
  -7  -9  -7   48.31   27.94
  -7  -9  -7  -10.60   23.60
   7   9   7   66.44   20.27
  -7   9  -7   49.96   21.09
   7  -9  -7   56.54   26.55
  -7 -10  -7  -44.81   24.76
  -7 -10  -7  -18.15   38.15
  -7  10   7  -38.50   21.90
   7 -10  -7  -11.12   28.10
   7 -10  -7    2.46   28.12
   7  10   7   -7.17   22.60
  -7  10  -7   10.73   14.14
  -7 -11  -7  -36.59   25.93
  -7 -11  -7  -18.30   40.67
   7  11  -7  -20.22   15.95
   7 -11  -7  -39.33   27.94
   7 -11  -7  -48.77   31.09
  -7  11  -7  -14.14   16.09
   7  11   7  -34.83   25.97
   7  12  -7  -12.33   19.17
  -7 -12  -7  -43.73   48.77
   7  12   7  -25.55   28.41
   7 -12  -7  -10.20   29.81
   7 -12  -7   24.30   37.82
  -7  12  -7   -8.33   18.54
   7  13  -7  -17.61   22.75
  -7 -13  -7  -26.07   49.66
  -7 -13  -7   -9.53   32.36
  -7  13  -7  -28.40   20.73
   7  13   7  -15.99   31.49
   7 -13  -7  -16.76   45.60
   7 -13  -7    9.96   30.87
   7   0  -8   27.09   12.23
  -7   0  -8   28.79   15.64
  -7   0  -8   31.97   14.16
   7   0  -8   17.27   13.34
   7   1  -8  635.12   42.30
  -7  -1  -8  632.64   40.61
  -7  -1  -8  625.12   45.06
   7   1  -8  564.67   36.48
  -7   1  -8  615.23   38.90
  -7   1  -8  626.83   42.60
   7  -1  -8  615.21   42.45
   7  -1  -8  562.05   37.48
   7   2  -8  273.66   21.86
   7   2  -8  298.50   29.86
   7   2  -8  282.01   22.50
  -7  -2  -8  328.29   29.33
  -7  -2  -8  300.91   36.04
   7   2   8  327.65   27.19
  -7   2  -8  332.37   26.51
  -7   2  -8  324.29   29.87
   7  -2  -8  318.94   25.11
   7  -2  -8  368.01   31.90
  -7  -3  -8  316.63   31.04
  -7  -3  -8  293.85   37.71
   7  -3  -8  316.67   27.27
   7   3   8  303.28   27.74
  -7   3  -8  359.72   31.98
  -7   3  -8  362.77   26.84
   7  -3  -8  335.97   33.11
  -7  -4  -8   34.81   19.89
  -7  -4  -8   71.54   20.96
   7   4   8   45.61   15.90
   7  -4  -8   87.87   18.08
   7  -4  -8   67.16   16.04
  -7   4  -8   68.11   14.37
  -7   4  -8   79.24   16.57
  -7  -5  -8   65.72   21.37
  -7  -5  -8   39.45   20.92
  -7   5  -8   91.21   15.86
  -7   5  -8   85.10   17.15
   7   5   8   97.67   16.75
   7  -5  -8   61.71   17.93
   7  -5  -8  118.87   20.28
  -7  -6  -8   40.46   20.29
  -7  -6  -8   63.06   22.86
   7  -6  -8   50.19   18.92
   7   6   8   33.46   17.28
  -7   6  -8   72.68   17.78
  -7  -7  -8   42.82   23.48
  -7  -7  -8   40.67   22.78
  -7   7  -8   73.24   20.26
   7  -7  -8   97.93   23.94
   7  -7  -8   22.96   19.85
   7   7   8   39.30   17.76
  -7  -8  -8   96.33   28.10
  -7  -8  -8   13.28   28.25
   7  -8  -8   97.06   36.18
   7   8   8   80.86   20.36
   7  -8  -8   93.46   31.93
  -7   8  -8  120.73   22.34
  -7   8  -8   71.31   14.08
  -7  -9  -8  -33.89   24.71
  -7  -9  -8   13.15   29.13
  -7   9  -8   16.61   12.75
   7  -9  -8   25.59   26.64
   7  -9  -8  -24.80   25.93
   7   9   8    1.29   21.27
  -7 -10  -8   -0.96   34.65
   7  10  -8  -20.80   15.58
   7 -10  -8   25.87   29.47
  -7  10  -8    9.67   13.71
   7 -10  -8  -36.96   27.23
   7  10   8  -24.96   24.27
   7  11  -8   -3.01   15.83
  -7 -11  -8  -49.42   27.07
  -7 -11  -8  -70.81   38.57
   7  11   8    2.22   29.08
   7 -11  -8   -4.33   32.32
  -7  11  -8  -10.62   15.65
   7 -11  -8  -34.49   28.25
  -7 -12  -8   -9.17   46.65
  -7 -12  -8  -32.46   28.44
   7  12  -8  -18.48   18.69
   7  12   8   -6.81   31.17
   7 -12  -8  -24.36   29.46
   7 -12  -8   28.42   38.20
  -7  12  -8   -5.87   18.66
   7  13  -8    5.75   23.68
  -7 -13  -8   35.44   62.05
  -7 -13  -8  -35.57   32.21
   7 -13  -8  -18.86   44.18
   7  13   8  -56.94   33.59
   7 -13  -8  -19.90   29.03
  -7  13  -8   -0.37   20.92
  -7   0  -9  563.63   43.84
   7   0  -9  522.65   35.81
  -7   0  -9  584.00   38.86
   7   0  -9  576.08   42.69
   7   1  -9  110.27   15.18
  -7  -1  -9  124.70   20.25
  -7  -1  -9   86.32   19.63
  -7   1  -9   75.75   16.54
   7  -1  -9  113.12   19.38
  -7   1  -9  105.99   17.52
   7  -1  -9   92.69   16.94
   7   2  -9  403.89   37.41
   7   2  -9  412.57   29.06
  -7  -2  -9  432.14   35.77
  -7  -2  -9  450.10   42.94
   7  -2  -9  436.58   38.43
  -7   2  -9  481.42   43.74
   7  -2  -9  421.48   31.80
  -7   2  -9  446.87   31.69
   7   3  -9  192.17   18.41
  -7  -3  -9  166.22   28.06
  -7  -3  -9  123.36   23.87
   7  -3  -9  209.34   31.54
   7  -3  -9  161.60   24.01
  -7   3  -9  200.98   28.04
  -7   3  -9  160.53   22.73
  -7  -4  -9    7.71   20.68
  -7  -4  -9   12.36   21.49
  -7   4  -9   29.80   16.21
  -7   4  -9    4.91   13.32
   7   4   9  -23.55   18.44
   7  -4  -9   27.09   18.74
   7  -4  -9   38.02   16.92
  -7  -5  -9   41.66   22.54
  -7  -5  -9   25.28   22.63
  -7   5  -9   51.44   17.24
   7  -5  -9   66.77   20.31
   7  -5  -9   16.86   18.09
  -7   5  -9   47.11   15.75
  -7  -6  -9   15.19   23.82
  -7  -6  -9  -22.35   20.79
  -7   6  -9   45.12   16.89
   7  -6  -9   10.86   19.74
   7   6   9  -22.50   14.26
  -7   6  -9  -21.36   17.93
   7  -6  -9   29.84   22.20
  -7  -7  -9   37.43   37.38
   7  -7  -9   83.14   26.65
  -7   7  -9   81.30   21.29
   7  -7  -9   35.77   22.70
  -7  -8  -9  -32.59   25.74
  -7   8  -9   15.94   22.64
   7  -8  -9  -24.81   25.56
   7  -8  -9    5.46   25.53
  -7   8  -9   -3.39   11.60
  -7  -9  -9   -5.59   28.33
  -7  -9  -9  -46.95   26.20
   7   9   9  -34.45   16.60
   7  -9  -9  -21.29   26.07
   7  -9  -9   12.04   26.69
  -7   9  -9    4.76   12.61
  -7 -10  -9   23.48   34.62
  -7  10   9  -35.95   25.63
   7  10   9  -16.59   19.47
  -7  10  -9   -1.41   13.17
   7 -10  -9  -11.24   27.55
   7 -10  -9   -5.46   28.51
  -7 -11  -9  -23.55   28.23
   7  11  -9  -30.80   16.96
  -7 -11  -9    7.54   38.85
   7 -11  -9   19.88   33.04
   7 -11  -9  -49.11   29.37
  -7  11  -9  -15.79   15.58
   7  11   9  -40.41   24.63
  -7 -12  -9    3.32   48.23
  -7 -12  -9  -10.88   29.54
   7  12  -9  -25.96   20.40
   7  12   9  -36.65   27.03
   7 -12  -9  -38.75   31.64
   7 -12  -9   29.81   39.33
  -7  12  -9    1.13   18.40
   7   0 -10   40.34   15.79
  -7   0 -10    1.17   17.88
  -7   0 -10   31.04   18.98
   7   0 -10   16.51   15.88
  -7  -1 -10  121.44   21.65
   7   1 -10  136.04   20.03
  -7  -1 -10  148.15   22.69
   7   1 -10  108.94   28.54
   7  -1 -10  120.56   22.29
  -7   1 -10  153.83   28.97
  -7   1 -10  145.06   23.25
   7  -1 -10   94.91   19.90
  -7  -2 -10   -0.51   20.60
   7   2 -10   11.76   16.87
  -7  -2 -10    0.85   21.84
   7   2 -10    7.40   14.28
  -7   2 -10    5.93   16.18
  -7   2 -10   -3.56   15.03
   7  -2 -10  -21.90   17.20
   7  -2 -10    6.91   17.86
   7   3 -10   52.20   14.48
  -7  -3 -10   23.28   22.10
  -7  -3 -10   45.31   22.12
   7  -3 -10   65.60   19.21
  -7   3 -10   48.62   16.58
  -7   3 -10   44.71   15.41
   7  -3 -10   46.75   18.63
  -7  -4 -10   19.59   23.48
  -7  -4 -10   43.34   23.44
  -7   4 -10   60.07   17.57
   7  -4 -10   82.14   20.86
   7  -4 -10   52.15   19.53
  -7   4 -10   54.26   15.65
  -7  -5 -10   18.44   26.98
  -7  -5 -10    2.95   23.56
  -7   5 -10   11.74   17.81
   7  -5 -10   15.54   20.67
   7  -5 -10   78.00   24.06
  -7  -6 -10   24.69   25.68
  -7  -6 -10   -0.46   27.09
  -7   6 -10   14.33   20.18
   7  -6 -10   62.56   23.91
  -7  -7 -10  -36.64   25.83
  -7  -7 -10  -39.16   25.61
   7  -7 -10  -18.25   25.11
   7   7  10   26.40   21.02
  -7   7 -10   13.64   22.67
  -7  -8 -10  -44.09   28.10
  -7  -8 -10    3.96   29.49
   7   8  10  -46.01   21.60
  -7   8 -10    3.37   25.16
   7  -8 -10   -1.17   28.61
   7  -8 -10    8.71   25.71
  -7  -9 -10  -18.37   26.66
  -7  -9 -10   11.73   30.40
  -7   9 -10   14.75   13.00
  -7   9 -10    2.50   27.74
   7  -9 -10   16.91   27.80
  -7 -10 -10   -0.69   28.23
  -7 -10 -10   55.99   36.31
  -7  10 -10  -17.12   13.23
   7 -10 -10   -8.23   28.35
   7 -10 -10  -41.47   27.99
  -7 -11 -10   65.44   40.46
  -7 -11 -10    2.46   28.92
   7 -11 -10   20.48   30.67
   7 -11 -10   56.59   34.63
   7  11  10  -46.67   29.16
  -7  11 -10    8.15   15.58
  -7 -12 -10    7.87   32.45
  -7  12 -10   30.96   19.21
  -7   0 -11   46.07   20.41
   7   0 -11   10.69   19.60
   7   0 -11   42.95   17.65
  -7  -1 -11   -4.48   21.34
   7   1 -11    2.59   16.59
  -7  -1 -11   18.78   22.04
   7   1 -11   45.37   19.64
   7  -1 -11   -8.65   19.23
  -7   1 -11    2.05   18.02
  -7   1 -11    0.24   18.32
   7  -1 -11   25.96   18.31
   7   2 -11   35.53   15.80
  -7  -2 -11  -12.25   24.09
  -7  -2 -11   -4.08   23.06
  -7   2 -11    6.18   16.85
   7  -2 -11   -2.31   21.13
   7  -2 -11   12.40   19.19
  -7   2 -11   17.23   17.37
  -7  -3 -11   52.97   25.48
  -7  -3 -11  121.17   29.33
  -7   3 -11   77.07   18.74
   7  -3 -11   59.55   22.11
  -7   3 -11   51.88   17.34
  -7  -4 -11   12.15   26.34
  -7  -4 -11   64.05   26.98
  -7   4 -11   61.81   19.83
   7  -4 -11   57.76   22.63
   7  -4 -11  117.32   43.93
  -7   4 -11   65.44   19.35
  -7  -5 -11   -9.09   27.77
  -7  -5 -11   50.71   28.21
   7  -5 -11   78.39   23.54
   7  -5 -11    7.91   23.91
  -7   5 -11   51.79   19.49
  -7  -6 -11   57.54   28.26
   7  -6 -11   38.40   27.28
  -7   6 -11   64.56   22.48
   7  -6 -11   56.85   25.75
  -7  -7 -11   -8.81   29.16
  -7  -7 -11  -38.13   27.89
  -7   7 -11   38.20   25.99
   7  -7 -11   -5.27   24.92
  -7  -8 -11  -41.95   28.85
  -7  -8 -11  -10.90   29.54
  -7   8 -11    3.82   33.68
   7  -8 -11  -29.43   28.93
   7  -8 -11   -2.51   26.23
  -7  -9 -11  -35.44   30.20
  -7  -9 -11   17.15   31.80
  -7   9 -11   -4.44   13.13
  -7   9 -11  -10.83   27.19
   7  -9 -11  -25.13   28.06
   7  -9 -11   18.38   27.66
  -7 -10 -11   33.96   35.21
  -7 -10 -11   17.10   32.47
   7 -10 -11   42.94   31.68
  -7  10 -11    8.52   13.83
   7 -10 -11    0.15   33.17
  -7 -11 -11   37.32   43.73
  -7 -11 -11   -7.03   31.84
   7 -11 -11   88.04   36.78
  -7  11 -11   21.15   15.63
   7 -11 -11    5.52   30.93
  -7   0 -12   16.04   30.73
   7   0 -12  -18.55   19.36
   7   0 -12   48.31   22.91
  -7   0 -12   -9.00   23.18
   7   1 -12   45.59   19.23
  -7   1 -12   21.00   20.87
   7  -1 -12    6.31   23.38
   7  -1 -12   49.72   20.84
  -7   1 -12    3.59   21.13
  -7  -2 -12   90.33   28.72
  -7  -2 -12  111.37   27.95
   7   2 -12  113.66   19.38
  -7   2 -12   86.13   21.90
  -7   2 -12   88.27   20.58
   7  -2 -12   94.54   24.94
   7   3 -12   27.06   18.99
  -7  -3 -12   11.60   30.25
  -7  -3 -12   38.97   27.79
   7  -3 -12   57.55   23.23
   7  -3 -12   47.39   25.95
  -7   3 -12    5.48   20.30
  -7   3 -12   80.80   22.49
  -7  -4 -12   80.91   28.99
  -7  -4 -12   54.04   32.08
  -7   4 -12  105.67   23.05
   7  -4 -12   94.26   27.44
   7  -4 -12  114.68   24.37
  -7  -5 -12   60.34   31.02
  -7  -5 -12   15.11   34.59
   7  -5 -12   64.54   27.71
  -7   5 -12  126.58   24.79
   7  -5 -12  129.25   26.38
  -7  -6 -12  -18.91   28.97
  -7  -6 -12  -52.43   34.12
   7  -6 -12    6.74   25.13
   7  -6 -12   -0.06   29.74
  -7  -7 -12   28.75   31.24
  -7  -7 -12   -1.30   32.98
  -7   7 -12   61.23   28.07
   7  -7 -12   -4.98   26.02
   7  -7 -12    8.99   29.79
  -7  -8 -12    5.78   31.77
  -7  -8 -12  -34.76   33.00
  -7   8 -12   19.47   29.06
   7  -8 -12   29.46   27.30
   7  -8 -12    3.12   30.32
  -7  -9 -12   58.66   35.68
  -7  -9 -12   -6.93   33.39
   7  -9 -12   68.39   31.10
   7  -9 -12  -11.17   33.27
  -7   9 -12    1.18   13.47
  -7 -10 -12   50.05   37.29
  -7 -10 -12   42.16   36.09
   7 -10 -12   70.26   34.72
  -7  10 -12   35.54   15.03
   7 -10 -12   55.16   33.69
  -7   0 -13   22.52   28.43
  -7   0 -13   36.47   24.44
   7   1 -13   48.93   22.10
  -7  -1 -13   46.45   26.45
  -7  -1 -13   48.55   30.90
   7  -1 -13   34.50   22.84
  -7   1 -13  106.38   25.56
   7  -1 -13   20.90   27.31
  -7   1 -13   21.99   23.40
  -7  -2 -13   51.41   43.39
  -7  -2 -13   -4.46   27.45
   7   2 -13   11.84   19.68
  -7   2 -13   19.97   27.86
  -7   2 -13   22.16   22.95
   7  -2 -13   73.08   23.99
   7  -2 -13   14.87   28.36
  -7  -3 -13  115.10   37.02
   7   3 -13   73.26   21.38
  -7  -3 -13   89.95   30.40
   7  -3 -13   89.66   30.20
  -7   3 -13   53.27   22.98
  -7  -4 -13   56.63   40.25
  -7  -4 -13   94.26   32.59
   7  -4 -13   62.93   30.57
  -7   4 -13   41.87   23.86
   7  -4 -13   43.90   24.96
  -7  -5 -13   18.32   31.08
  -7  -5 -13  -43.51   38.15
   7  -5 -13  -18.01   40.22
   7  -5 -13   40.10   25.25
  -7   5 -13    3.21   24.54
  -7  -6 -13   33.44   33.88
  -7  -6 -13   -3.85   37.25
  -7   6 -13   55.04   27.36
   7  -6 -13   58.13   26.78
   7  -6 -13   12.95   31.24
  -7  -7 -13  -26.66   34.12
  -7  -7 -13  -22.33   39.15
   7  -7 -13  -46.35   32.04
  -7   7 -13   54.83   29.32
   7  -7 -13   13.10   27.89
  -7  -8 -13   28.24   39.23
  -7  -8 -13    7.46   33.65
   7  -8 -13   -1.64   32.68
   7  -8 -13   29.16   29.72
  -7   8 -13   15.46   32.53
  -7  -9 -13   47.58   38.29
  -7  -9 -13   27.08   42.98
   7  -9 -13   33.26   32.59
  -7   9 -13   20.14   14.77
   7  -9 -13   70.89   32.57
  -7   0 -14  -20.20   32.22
   7   0 -14  -17.68   23.39
  -7   0 -14   -6.34   26.37
  -7  -1 -14   45.99   35.82
   7   1 -14   15.13   24.37
  -7  -1 -14   46.89   28.25
   7  -1 -14   35.52   25.29
  -7   1 -14    4.32   25.73
  -7  -2 -14   53.29   30.51
  -7  -2 -14   88.67   39.83
   7   2 -14   78.92   27.05
  -7   2 -14   58.43   25.55
   7  -2 -14   75.21   25.81
   7  -2 -14   89.57   35.23
  -7  -3 -14   34.12   32.03
   7   3 -14    5.18   29.50
  -7  -3 -14  -15.29   43.02
  -7   3 -14  -22.43   24.75
   7  -3 -14   42.69   26.01
   7  -3 -14   -7.78   36.16
  -7  -4 -14   13.66   32.12
  -7  -4 -14   42.30   42.87
   7  -4 -14   32.15   26.37
  -7   4 -14   38.36   25.62
  -7  -5 -14   30.02   34.20
  -7  -5 -14   28.84   45.58
  -7   5 -14   15.67   26.73
   7  -5 -14   94.21   27.93
   7  -5 -14   35.47   35.28
  -7  -6 -14  -28.40   45.24
  -7  -6 -14   14.05   34.16
  -7   6 -14   16.60   30.19
   7  -6 -14   14.60   28.45
   7  -6 -14    0.12   35.81
  -7  -7 -14  -27.04   48.41
  -7  -7 -14  -16.80   35.14
   7  -7 -14   53.01   31.14
   7  -7 -14    1.68   36.32
  -7   7 -14   47.62   34.75
   7   0 -15   72.99   28.24
  -7   0 -15   29.32   28.82
  -7  -1 -15    5.51   30.03
  -7  -1 -15   61.20   57.78
   7   1 -15    9.06   27.11
   7  -1 -15   41.66   27.84
  -7   1 -15  -27.18   28.08
  -7  -2 -15   30.13   32.39
   7   2 -15    8.76   26.63
  -7  -2 -15    5.18   45.21
  -7   2 -15    4.56   27.47
   7  -2 -15   63.93   27.72
  -7  -3 -15   -5.80   47.16
  -7  -3 -15   25.96   33.89
  -7   3 -15   14.80   28.42
   7  -3 -15   48.53   28.74
  -7  -4 -15  -40.50   48.72
  -7  -4 -15   15.32   35.30
   7  -4 -15  -25.41   43.31
   7  -4 -15   67.04   29.83
  -7   4 -15   62.17   29.85
  -7  -5 -15   17.23   50.81
  -7  -5 -15   -9.60   35.39
   7  -5 -15   31.92   30.67
   7  -5 -15  -47.80   40.59
  -7   5 -15   39.38   31.09
   7  -6 -15    0.65   43.01
  -7   6 -15   72.74   36.20
   7   0 -16  -22.62   32.07
  -7   0 -16  -29.66   32.09
   7   1 -16   68.84   32.15
  -7  -1 -16   18.19   32.39
  -7   1 -16   41.74   31.97
   7  -1 -16   23.41   31.91
  -7  -2 -16  -11.47   34.88
   7   2 -16  -46.75   33.02
  -7  -2 -16   33.81   54.85
   7  -2 -16   -3.38   31.45
  -7   2 -16    8.97   31.60
  -7  -3 -16   23.97   37.01
  -7   3 -16    6.11   33.28
  -8   0   0  119.49   20.22
  -8   0   0  102.41   15.05
  -8   0   0  136.75   22.29
   8   0   0  140.18   13.83
  -8   1   0  721.26   43.12
  -8   1   0  708.30   44.18
  -8  -1   0  709.81   43.98
   8   1   0  666.31   40.17
  -8   1   0  718.31   40.20
   8  -1   0  670.76   40.16
  -8  -1   0  719.34   40.16
  -8  -1   0  717.36   42.70
  -8  -2   0   39.69   12.98
  -8   2   0   23.78    9.06
   8   2   0   33.52    8.66
  -8   2   0   31.65   10.83
  -8  -2   0   32.05    8.52
  -8   2   0   51.18   14.33
  -8  -2   0   24.65   10.52
  -8  -3   0  917.40   53.68
   8   3   0  889.70   51.86
  -8  -3   0  992.77   51.96
  -8   3   0  858.11   55.27
  -8   3   0  961.05   54.33
  -8  -3   0  961.40   54.83
  -8   3   0 1058.83   52.52
   8  -3   0  829.73   55.30
  -8   4   0  105.62   15.17
  -8   4   0   70.25   11.68
  -8   4   0   84.82   11.43
  -8  -4   0   56.57   11.99
   8   4   0   94.42   13.14
   8  -4   0   60.78   14.56
  -8  -4   0   91.80   14.01
  -8  -4   0   69.43   10.03
   8  -4   0  102.98   16.71
  -8  -5   0  138.91   23.10
   8  -5   0  127.73   16.98
   8   5   0  157.12   15.82
  -8   5   0  135.82   16.73
   8  -5   0  140.76   20.23
  -8  -5   0  146.61   20.84
  -8  -6   0  108.03   17.25
  -8  -6   0  121.55   24.11
   8   6   0  103.71   16.03
   8  -6   0  101.25   16.08
   8  -6   0  133.45   20.86
  -8   6   0  104.17   17.01
  -8  -7   0  -20.93   17.55
   8   7   0  -11.61   12.86
   8  -7   0  -14.21   14.92
   8  -8   0   -1.16   21.19
   8  -8   0  -19.70   17.00
  -8  -8   0    7.77   20.61
   8   8   0   13.10   14.82
  -8   8   0  -21.35   14.72
  -8   9   0   81.49   16.83
   8  -9   0  101.50   24.74
   8   9   0   90.01   16.83
   8  -9   0   65.43   20.07
   8 -10   0   63.32   22.60
  -8 -10   0   50.10   26.18
  -8 -10   0   45.88   20.47
   8 -10   0   17.83   25.29
  -8  10   0  100.77   18.18
   8 -11   0  -18.08   28.97
   8  11   0   26.97   19.69
  -8  11   0   24.13   19.64
  -8 -11   0   25.09   23.31
   8  12   0   52.65   20.79
  -8  12   0   62.94   21.35
   8 -12   0    3.30   29.30
  -8  13   0   40.58   23.30
   8 -13   0   30.60   30.46
   8  13   0   39.04   22.19
   8 -14   0    4.51   30.80
   8  14   0   10.36   23.44
  -8  14   0   21.30   25.43
  -8  15   0  -10.71   27.91
   8  15   0   29.97   26.07
  -8   0   1  397.29   28.28
   8   0  -1  372.93   22.08
  -8   0   1  272.43   22.56
   8   0   1  354.73   22.25
  -8   0   1  299.90   26.69
   8   1  -1   39.35    9.05
  -8  -1  -1   47.93   13.06
   8  -1   1   41.74    8.91
  -8   1   1   36.13   14.77
  -8   1   1   37.70   11.37
  -8  -1  -1   30.03    8.72
  -8  -1  -1   33.88   11.12
  -8   1   1   35.06   10.28
  -8  -1   1   48.20   12.94
  -8  -1   1   26.83   13.96
  -8   1  -1   25.74    9.42
  -8   1  -1   25.53   11.27
  -8   1  -1   25.29   13.11
   8  -1  -1   56.86    9.09
   8   1   1   42.97    9.36
  -8  -1   1   35.06   10.59
   8   2  -1  725.42   43.08
  -8   2   1  725.99   46.84
  -8  -2  -1  754.96   47.25
  -8   2   1  742.88   45.55
  -8   2   1  797.17   43.82
  -8  -2  -1  755.23   45.70
  -8  -2   1  674.18   53.05
  -8   2  -1  782.77   46.04
   8   2   1  768.19   43.38
  -8   2  -1  887.92   43.68
  -8   2  -1  770.79   47.37
  -8  -2   1  778.71   46.37
  -8  -2   1  766.53   42.92
  -8   3   1   19.44   13.01
  -8   3   1   -4.10    9.51
   8   3  -1   15.38    8.05
  -8   3   1   15.92   10.10
  -8  -3  -1    9.81   12.34
  -8  -3  -1    7.57   10.97
  -8  -3   1   26.74   14.29
  -8  -3   1   16.49    9.32
  -8   3  -1   11.80   10.56
   8  -3  -1    1.80    9.68
  -8   3  -1   -0.87    8.76
   8   3   1   16.93    8.43
  -8   3  -1   14.75   13.30
  -8   4   1  425.16   26.71
   8  -4   1  398.15   27.98
   8  -4   1  391.06   31.95
  -8  -4  -1  394.47   31.51
  -8  -4  -1  407.29   29.17
   8   4  -1  405.04   25.60
   8  -4  -1  399.70   28.33
  -8  -4   1  420.47   29.96
  -8   4  -1  429.41   30.15
   8  -4  -1  461.82   34.63
  -8   4  -1  425.17   26.08
  -8  -4   1  387.85   28.38
  -8   4  -1  398.20   31.66
   8   4   1  399.33   26.00
  -8  -5  -1  172.55   22.50
  -8   5   1  177.66   17.47
   8  -5   1  236.30   28.63
  -8  -5  -1  141.62   24.21
   8   5  -1  205.73   17.25
   8  -5   1  205.28   21.34
  -8   5  -1  161.92   17.68
   8   5   1  165.90   17.42
  -8  -5   1  200.85   22.32
   8  -5  -1  209.44   21.27
  -8   5  -1  189.04   21.77
  -8   5  -1  195.76   23.94
  -8  -5   1  183.32   20.51
  -8  -6  -1    9.48   16.70
   8  -6   1    6.93   14.10
   8   6  -1   31.46   11.64
  -8  -6  -1    0.83   12.80
  -8   6   1   20.67   11.60
   8  -6   1    5.26   14.98
  -8  -6   1   15.74   11.55
   8   6   1   23.60   11.90
   8  -6  -1   38.23   13.98
  -8  -6   1    4.55   13.67
  -8   6  -1    1.97   11.38
   8  -6  -1   19.30   15.01
  -8  -7  -1  -13.53   13.89
  -8  -7  -1   -9.85   19.37
   8   7  -1   10.91   12.54
   8  -7   1  -11.80   17.74
   8  -7   1  -17.05   14.91
  -8   7   1   -6.75   13.55
   8  -7  -1    6.29   17.97
   8  -7  -1   12.27   15.90
  -8  -7   1    2.96   15.77
   8   7   1    6.56   13.67
  -8  -7   1    4.87   13.08
  -8   7  -1  -12.97   13.27
   8   8  -1   39.03   14.74
   8  -8   1   15.41   17.64
  -8  -8  -1    1.93   16.37
   8  -8   1   21.65   21.68
  -8   8   1   34.12   15.26
  -8  -8  -1   37.64   23.10
  -8  -8   1    9.80   14.93
  -8  -8   1   30.10   17.65
  -8   8  -1   -0.12   14.63
   8   8   1   36.20   15.76
   8  -8  -1   32.78   18.26
   8  -8  -1   38.95   21.81
  -8  -9  -1    6.00   18.29
   8   9  -1   47.14   15.63
   8  -9   1   16.83   18.79
   8  -9   1   36.72   24.26
  -8   9   1   49.79   16.16
  -8  -9  -1   36.87   26.67
  -8  -9   1   27.46   19.86
   8   9   1   43.02   16.62
   8  -9  -1   23.59   19.36
  -8   9  -1   23.86   16.59
  -8  -9   1   48.02   16.81
   8  -9  -1   75.78   24.30
   8 -10   1    8.09   21.38
  -8 -10  -1    9.37   20.44
  -8  10   1   32.57   17.66
   8  10  -1   35.27   17.14
  -8 -10  -1   11.36   25.57
  -8 -10   1   24.60   18.07
  -8  10  -1    4.85   17.82
   8  10   1   45.36   18.36
   8 -10  -1   11.40   22.66
   8 -10  -1   -0.23   26.43
  -8  11   1   55.14   20.36
   8  11  -1   58.86   18.90
  -8 -11  -1   34.85   34.21
   8 -11   1   27.59   43.64
  -8 -11  -1   27.36   24.48
   8 -11  -1   35.03   27.95
   8  11   1   47.27   20.37
  -8  11  -1   64.55   19.77
  -8 -12  -1   17.56   28.35
   8  12  -1   31.56   20.19
  -8  12   1   35.04   21.71
   8 -12   1    2.95   25.87
   8  12   1   18.52   22.46
  -8  12  -1   23.90   20.83
   8 -12  -1  -13.75   29.09
  -8  13   1   27.68   23.81
   8  13  -1   33.71   22.05
   8 -13   1   24.52   27.78
  -8 -13  -1   -6.18   33.01
   8 -13  -1    7.20   29.76
   8  13   1   46.41   23.62
  -8  13  -1   59.87   22.26
   8 -14   1  -14.14   29.18
  -8  14   1   -0.39   26.34
  -8 -14  -1   -3.85   38.57
   8  14  -1   21.23   22.84
  -8  14  -1   -0.89   24.13
   8  14   1   19.39   25.15
   8 -14  -1  -14.30   29.48
   8  15  -1  -15.95   27.41
   8  15   1   26.14   27.29
   8   0  -2    7.94    7.81
   8   0   2    9.02    8.06
  -8   0  -2   -0.49   12.34
  -8   0   2    1.94    9.06
  -8   0   2    4.69   12.80
  -8   0   2    2.23    8.86
  -8   0  -2   -5.99   10.23
   8  -1   2  364.44   29.44
  -8  -1  -2  393.51   28.96
  -8  -1  -2  312.82   26.11
   8   1  -2  337.88   21.99
  -8   1   2  280.89   21.81
  -8   1   2  337.53   25.11
   8  -1  -2  361.89   21.96
  -8   1  -2  263.80   27.77
   8   1   2  337.82   22.46
  -8  -1   2  356.76   26.06
   8   2  -2    7.41    7.60
  -8   2   2    5.01    8.98
  -8  -2  -2    3.24   12.32
  -8   2   2   24.96    9.99
  -8  -2  -2  -14.12   10.35
   8   2   2    8.21    8.41
  -8   2  -2   -2.43   10.84
  -8  -2   2   17.33   12.90
  -8   2  -2   -6.13    8.08
  -8   2  -2   -3.47   12.86
  -8  -2   2    5.40    9.20
   8   3  -2  422.58   25.63
  -8  -3  -2  392.72   31.49
  -8  -3  -2  391.43   29.34
  -8   3   2  447.72   26.18
  -8   3  -2  435.40   29.72
  -8   3  -2  396.54   32.09
   8  -3  -2  380.41   31.34
   8   3   2  434.43   26.28
   8  -3  -2  392.38   27.35
  -8  -3   2  425.04   29.23
  -8   3  -2  495.80   26.51
  -8  -3   2  389.52   28.64
   8   4  -2  143.74   14.31
  -8   4   2  124.39   15.49
   8  -4   2  175.43   18.39
   8  -4   2  114.72   23.78
  -8  -4   2  146.35   19.43
  -8   4  -2  154.44   21.05
  -8   4  -2  117.14   15.02
   8   4   2  164.23   15.39
  -8  -4   2  115.73   18.08
  -8   4  -2  141.93   24.26
  -8  -5  -2   27.91   15.29
   8   5  -2   45.30    9.76
   8  -5   2   33.82   14.01
   8  -5   2    6.57   13.88
  -8   5   2   18.55   10.99
  -8  -5  -2    2.40   11.93
  -8   5  -2    8.85    9.46
  -8  -5   2   35.09    9.43
   8   5   2   20.46   10.37
   8  -5  -2   22.32   13.64
  -8   5  -2   29.22   12.60
  -8   5  -2   42.03   14.87
   8  -5  -2   30.75   13.02
  -8  -6  -2   20.50   16.98
   8   6  -2   19.70   10.60
  -8   6   2   -1.93   11.26
   8  -6   2  -19.21   13.77
  -8  -6  -2    7.27   13.66
   8  -6   2   12.43   15.23
   8  -6  -2   18.55   13.82
  -8   6  -2   -2.32   10.43
  -8   6  -2   43.01   14.95
  -8  -6   2   34.80   17.98
   8  -6  -2    5.81   14.89
  -8  -6   2    1.85    9.70
  -8   6  -2   40.04   12.56
   8   6   2    7.67   11.79
  -8   7   2  -15.09   12.85
  -8  -7  -2  -31.99   19.30
   8   7  -2   -9.09   12.19
   8  -7   2  -26.19   17.44
  -8  -7  -2  -26.62   15.64
   8   7   2   -2.77   14.16
   8  -7  -2  -10.38   18.35
  -8  -7   2   -4.88   11.45
   8  -7  -2  -10.09   15.18
  -8  -8  -2   18.22   24.21
  -8   8   2   53.31   15.39
   8  -8   2   68.70   22.28
   8   8  -2   63.56   14.08
   8  -8  -2   57.59   18.72
   8   8   2   43.63   16.98
   8  -8  -2   79.28   22.86
  -8  -9  -2   -1.50   26.20
   8  -9   2  -18.63   18.10
   8   9  -2   15.83   15.05
  -8  -9  -2  -15.62   19.62
  -8   9   2    1.10   16.01
   8  -9  -2  -11.39   18.99
   8   9   2   -1.87   16.80
   8  -9  -2   27.72   24.01
  -8   9  -2  -25.50   15.22
   8  10  -2   46.91   17.19
  -8 -10  -2   17.06   25.52
   8 -10   2    0.25   20.91
  -8 -10  -2   -1.03   22.55
  -8  10   2   37.83   17.61
   8 -10  -2   18.87   25.89
   8 -10  -2   -1.06   24.55
  -8  10  -2  -10.83   20.26
   8  10   2   60.60   19.02
  -8  11   2    7.29   20.69
   8 -11   2    4.18   24.05
  -8 -11  -2  -15.65   33.33
  -8 -11  -2   26.35   26.71
   8  11  -2   37.87   18.93
  -8  11  -2  -11.53   18.42
   8  11   2   38.23   21.02
   8 -11  -2  -14.50   27.54
   8 -11  -2    5.50   29.29
   8 -12   2   30.63   26.43
  -8  12   2   36.95   22.58
  -8 -12  -2    5.10   29.36
   8  12  -2   11.44   19.13
  -8  12  -2   56.56   20.79
   8  12   2   53.85   22.46
   8 -12  -2   31.16   30.24
  -8  13   2    9.48   25.02
  -8 -13  -2   28.21   31.86
   8 -13   2   19.29   26.35
   8  13  -2   21.47   21.03
   8 -13  -2    9.67   29.94
   8  13   2   38.80   24.22
   8 -13  -2  -34.47   32.32
  -8  13  -2   30.95   22.26
  -8 -14  -2   46.28   39.29
   8  14  -2   28.03   22.39
  -8  14   2    5.78   27.63
   8  14   2   14.52   26.58
   8 -14  -2   -3.12   29.74
  -8  14  -2   10.15   22.92
   8  -1   3  104.86   10.63
   8   1  -3  108.33   10.52
  -8  -1  -3  101.06   14.21
  -8  -1   3   93.10   16.15
   8  -1  -3  102.39   10.30
  -8   1  -3   85.23   13.94
  -8   1  -3   63.59   11.71
   8   1   3   76.96   13.74
  -8  -1   3   63.88    9.71
  -8  -2  -3  175.87   22.55
   8   2  -3  142.72   13.72
  -8  -2  -3  165.45   19.44
  -8   2   3  173.84   14.01
  -8   2  -3  103.68   15.75
  -8   2  -3  104.49   22.18
  -8  -2   3  143.48   15.87
   8   2   3  171.22   15.12
   8  -2  -3  128.98   21.54
  -8  -3  -3  324.18   27.75
  -8   3   3  313.72   20.47
   8   3  -3  295.85   19.97
  -8  -3  -3  299.14   24.50
   8  -3  -3  322.85   29.79
  -8  -3   3  241.40   22.62
   8   3   3  310.77   21.01
  -8   3  -3  277.62   27.73
   8  -3  -3  301.47   23.10
  -8   3  -3  283.44   24.96
  -8   3  -3  311.43   20.33
   8  -4   3  -16.66   11.15
  -8   4   3   -6.01    8.99
  -8  -4  -3    0.53   13.25
   8  -4   3    1.59   11.84
   8   4  -3    3.17    7.60
  -8  -4  -3   -9.69   12.02
   8  -4  -3   -3.21   12.05
   8   4   3   -3.81    9.04
  -8   4  -3  -12.67    8.82
  -8  -4   3    8.48    7.84
  -8   4  -3   -5.84   11.17
   8  -4  -3   13.25   12.13
  -8   4  -3  -11.24   13.42
   8   5  -3   20.24    9.11
  -8   5   3    3.07   10.02
  -8  -5  -3    3.39   13.22
  -8  -5  -3   25.80   15.18
   8  -5   3    9.46   13.68
   8  -5   3  -10.13   13.60
  -8   5  -3  -10.48    9.56
   8  -5  -3   44.92   13.79
   8  -5  -3   12.63   12.70
  -8   5  -3  -16.89   14.60
  -8   5  -3    8.07   12.16
   8   5   3    8.01   10.26
   8  -6   3   22.11   15.64
  -8   6   3   10.44   11.40
  -8  -6  -3  -17.93   13.98
  -8  -6  -3   11.65   17.46
   8  -6   3  -23.28   14.00
   8   6  -3    2.11    9.91
   8  -6  -3   12.04   14.79
   8   6   3    2.90   11.94
  -8   6  -3    4.18   12.81
   8  -6  -3   11.43   13.54
  -8   6  -3    7.50   15.34
  -8   6  -3  -22.39   10.26
  -8  -7  -3   36.89   16.81
  -8  -7  -3   71.18   21.91
  -8   7   3   50.80   14.34
   8  -7   3   91.01   19.99
   8   7  -3   49.32   12.41
   8  -7  -3   58.42   17.23
   8  -7  -3   66.28   19.68
   8   7   3   59.24   15.11
  -8  -8  -3   38.31   24.99
   8   8  -3   48.58   13.28
  -8  -8  -3   11.14   18.77
  -8   8   3   58.91   15.86
   8   8   3   63.58   17.07
  -8   8  -3   16.33   14.23
   8  -8  -3   66.96   22.61
   8  -8  -3   47.72   18.22
   8   9  -3   64.72   15.35
   8  -9   3   40.46   19.04
  -8  -9  -3   42.42   20.92
  -8   9   3   66.94   17.60
  -8  -9  -3   69.40   28.60
   8  -9  -3   41.03   20.48
  -8   9  -3   28.15   15.45
   8  -9  -3   71.96   24.81
   8   9   3   86.26   18.73
  -8  10   3   11.57   18.55
  -8 -10  -3   27.71   34.28
  -8 -10  -3  -27.80   26.93
   8  10  -3   43.76   17.77
   8 -10   3   -3.51   20.76
   8  10   3   37.99   20.28
  -8  10  -3  -11.52   25.12
   8 -10  -3  -27.58   38.51
   8 -10  -3   41.75   26.93
  -8 -11  -3   21.37   26.80
  -8  11   3   62.31   23.46
   8  11  -3   48.90   18.45
   8 -11   3  -12.70   21.62
  -8 -11  -3  -26.84   29.98
   8  11   3   51.10   22.46
  -8  11  -3   21.13   19.39
   8 -11  -3   33.53   28.68
   8 -11  -3   39.99   30.57
   8  12  -3   38.31   19.86
  -8 -12  -3  -14.21   29.08
  -8 -12  -3  -46.80   40.68
  -8  12   3    7.60   24.15
  -8  12  -3   35.44   19.60
   8 -12  -3  -44.04   30.74
   8 -12  -3  -45.11   29.08
   8  12   3   22.73   23.81
  -8  13   3  -22.90   26.44
   8  13  -3   23.88   20.41
  -8 -13  -3   10.38   33.28
   8 -13  -3  -12.78   30.93
  -8  13  -3   25.90   21.63
   8  13   3   11.00   25.85
  -8  14   3  -17.66   29.24
   8  14  -3    5.34   22.73
  -8 -14  -3    3.54   37.65
   8 -14  -3  -27.02   29.40
  -8  14  -3   -1.93   23.35
   8  14   3   19.97   28.15
   8 -14  -3  -39.81   44.85
  -8   0  -4  493.90   32.54
   8   0  -4  495.54   29.35
  -8   0  -4  508.84   34.87
   8   0   4  494.60   30.06
   8   1  -4   78.87    9.56
   8  -1   4   89.92   12.04
  -8  -1  -4   78.71   12.97
  -8  -1  -4  104.00   17.92
   8  -1  -4   60.77   10.98
  -8   1  -4   80.88   14.71
  -8   1  -4   57.45   11.77
   8   1   4   87.91   14.27
  -8  -2  -4  527.65   34.62
  -8   2   4  556.36   31.51
  -8  -2  -4  546.79   37.08
   8   2  -4  535.93   30.98
   8   2   4  540.50   32.16
   8  -2  -4  508.48   32.67
   8  -2  -4  508.00   37.01
  -8   2  -4  546.87   34.87
  -8   2  -4  515.75   36.36
  -8  -3  -4   -5.20   11.72
  -8  -3  -4    5.87   13.44
  -8   3   4   16.24   15.91
  -8   3  -4   11.00   11.22
   8   3   4   18.16    9.39
  -8   3  -4    8.73   12.96
   8  -3  -4    8.31   11.57
   8  -3  -4   13.11   11.42
  -8  -4  -4  -17.35   13.25
   8  -4   4  -12.54   12.21
  -8   4   4   -0.16    9.87
   8  -4   4  -11.58   11.65
  -8  -4  -4   -3.82   14.18
  -8   4  -4  -12.42    8.57
   8  -4  -4   -3.23   12.07
   8  -4  -4   -4.04   12.44
   8   4   4   -1.73    9.81
  -8   4  -4  -15.51   13.19
  -8   4  -4   -0.77   11.23
  -8  -5  -4   -9.88   14.29
  -8  -5  -4    6.76   16.24
  -8   5   4   -0.26   10.86
   8  -5   4  -42.31   24.49
   8  -5  -4   -6.18   13.13
  -8   5  -4  -11.54   11.92
  -8   5  -4  -19.20    9.56
  -8   5  -4  -22.31   14.87
   8  -5  -4   -7.95   12.80
   8   5   4   -1.91   10.70
  -8  -6  -4   63.99   19.00
  -8  -6  -4   24.77   15.46
  -8   6   4   41.74   13.23
   8  -6   4   12.78   14.56
  -8   6  -4   50.52   16.76
   8  -6  -4   59.27   16.19
   8   6   4   33.58   12.73
   8  -6  -4   41.56   15.74
  -8   6  -4   54.68   14.95
  -8  -7  -4   92.27   19.59
   8  -7   4   92.93   17.46
  -8  -7  -4  151.65   27.64
   8  -7   4  142.84   23.05
   8   7  -4  126.41   16.03
  -8   7   4  140.94   19.81
   8  -7  -4   98.47   19.12
  -8   7  -4  187.10   28.89
   8  -7  -4  162.47   26.03
   8   7   4  128.85   19.27
  -8   7  -4  121.83   17.21
   8   8  -4  112.76   17.01
   8  -8   4  156.36   29.49
  -8   8   4  126.32   21.42
  -8  -8  -4  135.67   26.78
   8  -8  -4  160.21   27.48
   8   8   4  148.95   21.07
   8  -8  -4  105.80   21.49
  -8   8  -4  117.90   18.48
  -8  -9  -4   18.83   21.25
  -8  -9  -4   84.48   29.39
   8  -9   4   45.78   18.41
  -8   9   4   73.71   19.09
   8   9  -4   93.54   16.19
   8  -9  -4   53.46   21.78
   8  -9  -4   96.82   25.57
   8   9   4   82.60   18.92
  -8   9  -4   48.57   15.19
  -8  10   4   33.96   20.59
  -8 -10  -4   68.09   34.68
  -8 -10  -4   15.89   24.35
   8  10  -4   63.74   21.49
   8  10   4   39.39   21.67
   8 -10  -4   21.20   28.19
   8 -10  -4  -21.84   24.25
  -8  10  -4   14.69   17.48
  -8 -11  -4   22.62   33.72
  -8 -11  -4   -0.84   26.80
  -8  11   4    7.49   26.55
  -8  11  -4   51.91   19.31
   8  11   4   62.87   23.43
   8 -11  -4  -27.55   31.93
   8 -11  -4  -25.18   29.35
  -8 -12  -4   58.15   40.00
  -8 -12  -4  -41.02   29.00
   8  12  -4   -3.07   18.98
  -8  12   4  -25.13   25.59
  -8  12  -4   -9.67   20.39
   8 -12  -4  -55.57   30.78
   8 -12  -4   -8.08   38.21
   8  12   4   27.37   24.67
   8  13  -4    9.01   20.43
  -8 -13  -4  -12.86   32.89
  -8 -13  -4   17.57   50.17
  -8  13   4   -7.30   28.52
   8 -13  -4  -27.69   34.74
   8  13   4   -9.70   27.17
  -8  13  -4    8.26   21.01
   8 -13  -4  -42.92   30.70
  -8 -14  -4  -26.36   38.08
   8  14  -4  -18.80   22.21
  -8  14   4  -41.19   31.54
   8  14   4   26.04   28.49
  -8  14  -4    0.06   23.41
   8 -14  -4  -15.89   29.67
   8 -14  -4  -65.80   43.28
   8   0  -5    0.12    7.66
  -8   0  -5   -6.35   11.08
   8   0   5   -1.10    9.50
  -8   0  -5   11.95   12.74
   8   0  -5    0.45    9.80
   8   1  -5  671.45   38.73
  -8  -1  -5  699.85   44.59
  -8  -1  -5  661.80   41.95
   8  -1  -5  635.54   43.18
  -8   1  -5  731.36   41.87
  -8   1  -5  741.07   43.93
   8   1   5  681.01   40.49
  -8  -2  -5    1.82   11.70
  -8   2   5   15.17   11.22
  -8  -2  -5   17.52   13.43
  -8   2  -5   35.55   13.33
   8   2   5   14.46   10.21
  -8   2  -5   14.02   10.73
   8  -2  -5   14.56   11.76
   8  -2  -5   41.04   11.25
  -8   3   5  144.03   17.40
  -8  -3  -5  152.44   20.81
  -8  -3  -5  117.98   16.79
  -8   3  -5  127.80   22.30
  -8   3  -5  173.97   19.89
   8   3   5  144.83   16.37
   8  -3  -5  129.26   18.07
   8  -3  -5  134.54   25.42
  -8  -4  -5   -0.27   14.86
  -8  -4  -5  -18.46   12.93
   8  -4   5    0.28   12.87
  -8   4   5   -2.60   12.21
   8  -4   5   -9.67   12.04
  -8   4  -5    5.27   13.37
   8  -4  -5   -1.79   12.26
   8   4   5    1.34   10.38
   8  -4  -5    3.61   12.23
  -8   4  -5    2.08   12.05
   8  -5   5  -16.70   14.21
  -8  -5  -5  -14.41   15.03
  -8  -5  -5    2.95   17.00
  -8   5   5   -3.90   12.89
   8  -5   5    1.05   15.54
   8   5   5   12.53   11.31
  -8   5  -5    6.41   13.17
   8  -5  -5   -8.85   13.28
   8  -5  -5    2.47   13.94
  -8   5  -5  -20.22   14.47
  -8   5  -5  -13.23    9.54
   8  -6   5   32.24   15.16
  -8   6   5   59.06   15.76
  -8  -6  -5   19.15   16.85
  -8  -6  -5   34.61   19.53
   8  -6   5   47.18   19.07
  -8   6  -5   36.64   11.41
   8  -6  -5   51.98   18.02
   8   6   5   63.68   14.09
  -8   6  -5   52.53   17.45
  -8   6  -5   47.30   14.93
   8  -6  -5   32.13   16.02
   8   7  -5  234.55   19.41
  -8   7   5  206.76   24.78
  -8  -7  -5  221.26   35.87
   8  -7   5  264.88   30.18
  -8  -7  -5  259.34   30.86
   8   7   5  217.38   23.44
   8  -7  -5  248.67   28.92
   8  -7  -5  261.05   34.93
  -8   7  -5  286.07   27.37
  -8   7  -5  252.45   32.80
  -8   7  -5  224.16   21.01
  -8  -8  -5  109.40   27.21
   8   8  -5  128.91   16.80
  -8   8   5  127.67   20.51
   8  -8  -5  188.16   29.04
   8   8   5  162.29   24.69
   8  -8  -5  188.35   34.84
  -8   8  -5  144.86   18.21
  -8   9   5   24.72   19.62
   8   9  -5    3.27   14.00
  -8  -9  -5   19.88   29.32
  -8  -9  -5  -17.23   25.25
   8   9   5   24.69   18.46
  -8   9  -5    9.92   14.55
   8  -9  -5  -13.20   25.89
   8  -9  -5   39.30   25.57
  -8 -10  -5   93.92   35.88
  -8  10   5   62.97   22.84
  -8  10  -5  138.94   21.27
   8 -10  -5  101.03   30.73
   8  10   5   94.83   23.94
  -8 -11  -5   15.80   41.65
  -8 -11  -5  -16.10   27.07
  -8  11   5  -26.74   36.42
   8  11  -5   -1.59   17.42
   8 -11  -5  -49.25   32.91
  -8  11  -5   12.90   18.19
   8 -11  -5  -44.30   29.01
   8  11   5    1.51   23.68
   8  12  -5   18.31   19.10
  -8 -12  -5   90.16   55.51
  -8 -12  -5  -35.42   29.29
   8  12   5   -1.04   26.24
  -8  12  -5   15.38   20.06
   8 -12  -5  -12.67   37.66
   8 -12  -5  -41.98   32.57
  -8 -13  -5    5.94   55.77
  -8 -13  -5  -37.61   32.26
  -8  13   5  -60.46   30.18
   8  13  -5   -7.86   20.35
   8 -13  -5   -1.39   43.37
   8  13   5   -6.64   27.93
  -8  13  -5   12.08   20.83
   8 -13  -5  -32.45   31.16
  -8  14   5  -58.46   33.35
  -8 -14  -5   24.09   38.82
   8  14  -5   -7.88   24.74
  -8  14  -5   11.50   22.82
   8 -14  -5  -16.19   30.00
   8 -14  -5  -26.36   42.94
   8  14   5   17.68   30.64
   8   0  -6  639.02   44.25
  -8   0  -6  739.21   45.75
   8   0   6  728.36   41.34
  -8   0  -6  715.97   43.02
   8   1  -6   88.16   16.57
  -8  -1  -6   99.97   14.90
   8   1  -6  117.39   12.98
  -8  -1  -6  125.41   19.73
  -8   1  -6  168.39   19.36
  -8   1  -6  133.58   22.84
   8   1   6  129.63   16.30
   8  -1  -6  139.64   16.55
   8  -1  -6  141.02   23.83
  -8  -2  -6  280.52   26.27
  -8  -2  -6  300.75   31.08
  -8   2  -6  332.65   25.53
   8  -2  -6  288.21   29.24
   8  -2  -6  319.54   23.65
   8   2   6  289.62   29.45
  -8   2  -6  339.39   28.39
  -8  -3  -6   30.61   14.91
  -8   3   6   48.80   18.61
  -8  -3  -6   66.91   16.16
  -8   3  -6   55.60   14.31
   8  -3  -6   60.11   13.08
   8  -3  -6   41.55   13.03
   8   3   6   54.75   11.58
  -8   3  -6   34.92   12.14
   8  -4   6  112.38   15.92
  -8  -4  -6   63.02   17.61
   8  -4   6   66.99   14.68
  -8   4   6   89.18   17.00
  -8  -4  -6   82.87   18.22
   8   4   6   64.46   12.82
  -8   4  -6   79.44   14.01
   8  -4  -6   74.39   14.28
   8  -4  -6   99.42   15.68
  -8   4  -6  100.75   15.56
   8  -5   6  -10.66   14.23
   8  -5   6   31.69   30.65
  -8   5   6   19.42   15.67
  -8  -5  -6  -27.97   16.41
  -8  -5  -6    4.92   18.22
  -8   5  -6  -16.31   15.83
  -8   5  -6    9.91   13.78
   8   5   6    5.55   12.80
   8  -5  -6   19.86   15.59
   8  -5  -6   12.03   15.17
  -8  -6  -6  336.05   31.40
  -8   6   6  302.98   27.63
  -8  -6  -6  354.28   36.67
  -8   6  -6  332.71   30.39
   8   6   6  305.40   25.67
  -8   6  -6  317.96   22.93
   8  -6  -6  301.12   35.59
  -8   6  -6  267.33   54.82
   8  -6  -6  313.98   30.06
  -8   7   6  173.80   24.63
  -8  -7  -6  161.79   29.27
  -8   7  -6  180.79   18.89
   8   7   6  153.40   22.24
  -8   7  -6  211.61   26.94
  -8   7  -6  171.69   33.25
   8  -7  -6  209.37   34.49
   8  -7  -6  231.05   28.76
   8   8  -6    1.26   11.54
  -8   8   6    0.26   19.57
  -8  -8  -6   -8.21   24.36
  -8  -8  -6  -13.97   21.11
   8   8   6    7.59   17.15
  -8   8  -6    3.59   12.24
   8  -8  -6  -18.66   20.56
   8  -8  -6   19.84   23.00
  -8   8  -6    3.33   19.22
  -8   8  -6   -4.48   15.84
  -8  -9  -6   62.27   24.33
   8   9  -6  114.61   17.42
  -8  -9  -6  209.82   34.61
  -8   9   6  128.68   23.31
   8   9   6  184.22   24.43
  -8   9  -6  177.79   28.48
   8  -9  -6  110.69   31.71
  -8 -10  -6  -40.69   24.97
  -8 -10  -6    2.38   34.63
  -8  10   6  -29.17   23.22
   8  10  -6  -29.97   19.10
  -8  10  -6    7.74   15.49
   8 -10  -6   -4.64   30.68
   8 -10  -6  -35.01   28.46
   8  10   6  -14.05   24.85
  -8 -11  -6  -38.09   27.32
  -8 -11  -6   12.53   50.09
   8  11  -6   -3.96   17.16
  -8  11   6  -36.31   40.88
   8 -11  -6  -13.33   30.86
  -8  11  -6   42.63   17.91
   8  11   6  -12.00   24.68
   8 -11  -6    7.81   33.31
  -8 -12  -6  -28.89   30.98
   8  12  -6   -6.98   19.70
  -8 -12  -6  -21.87   49.19
   8  12   6  -11.71   27.30
   8 -12  -6  -34.05   36.86
  -8  12  -6  -14.24   19.42
  -8  13   6  -66.27   32.36
  -8 -13  -6  -11.16   53.69
  -8 -13  -6  -31.87   33.90
   8  13  -6   -5.44   20.77
   8 -13  -6  -10.02   32.35
   8  13   6  -17.00   29.41
   8 -13  -6  -20.16   45.28
  -8  13  -6   -3.97   21.67
   8   0  -7    7.94   12.22
  -8   0  -7   34.07   13.55
  -8   0  -7   41.61   15.06
   8   0  -7   38.28   11.26
  -8  -1  -7  633.11   43.36
  -8  -1  -7  586.43   39.55
   8   1  -7  601.01   34.95
   8  -1  -7  588.68   41.90
  -8   1  -7  621.45   41.56
   8   1   7  606.24   38.41
   8  -1  -7  584.84   37.02
  -8   1  -7  633.49   38.79
  -8  -2  -7  229.81   25.81
   8   2  -7  232.62   26.55
  -8  -2  -7  239.86   31.86
  -8   2  -7  263.52   27.98
   8  -2  -7  259.05   22.14
   8  -2  -7  248.17   28.17
  -8   2  -7  257.77   24.36
   8   2   7  240.78   23.07
  -8  -3  -7  296.14   35.23
  -8  -3  -7  284.54   29.00
  -8   3  -7  290.19   28.94
   8  -3  -7  327.92   25.50
   8  -3  -7  328.60   31.92
  -8   3  -7  337.79   26.82
   8   3   7  299.67   25.44
   8  -4   7   56.42   14.47
  -8   4   7   29.60   24.56
  -8  -4  -7   18.83   18.60
   8  -4   7   55.55   18.70
  -8  -4  -7   38.56   18.63
   8  -4  -7   49.39   14.95
   8  -4  -7   60.37   15.46
  -8   4  -7   61.17   16.65
  -8   4  -7   38.77   13.82
   8   4   7   53.00   14.03
  -8  -5  -7  103.33   19.67
  -8  -5  -7  146.04   26.29
  -8   5   7   96.69   35.12
   8  -5  -7  156.14   23.76
   8   5   7  138.13   19.89
  -8   5  -7  124.86   18.85
   8  -5  -7   86.11   17.48
  -8   6   7   80.02   18.44
  -8  -6  -7  157.01   27.89
  -8  -6  -7   81.36   19.96
  -8   6  -7  149.63   24.48
   8  -6  -7  107.58   18.70
   8  -6  -7  147.41   26.02
   8   6   7  110.18   17.45
  -8   6  -7  153.94   30.41
  -8   7   7   -0.42   17.66
  -8  -7  -7   -3.14   19.98
  -8  -7  -7   21.33   22.54
   8   7   7   16.87   16.19
  -8   7  -7   40.41   18.34
   8  -7  -7   33.09   22.63
  -8   7  -7   24.84   19.65
   8  -7  -7    7.66   18.00
  -8   7  -7    7.24   11.45
  -8  -8  -7  247.89   34.50
  -8   8  -7  254.68   22.77
   8  -8  -7  303.95   32.70
   8  -8  -7  242.22   40.98
   8   8   7  232.82   26.59
  -8   8  -7  298.81   30.15
  -8  -9  -7   -1.08   33.13
   8   9  -7  -23.48   13.07
  -8  -9  -7  -15.79   22.76
  -8   9   7  -10.52   17.17
  -8   9  -7   17.93   12.98
   8  -9  -7  -31.67   26.48
   8   9   7  -21.11   20.65
   8  -9  -7   45.62   26.70
  -8 -10  -7   -1.91   25.82
  -8 -10  -7   59.14   36.77
   8  10  -7    6.28   15.15
   8  10   7   32.54   26.95
  -8  10  -7   52.97   15.40
   8 -10  -7   32.31   28.23
   8 -10  -7   18.66   29.44
   8  11  -7  -22.57   16.75
  -8 -11  -7    3.24   44.24
   8  11   7    8.34   26.93
  -8  11  -7   -3.94   16.53
   8 -11  -7   -4.73   32.37
   8  12  -7  -30.34   20.92
  -8 -12  -7  -27.08   53.23
  -8 -12  -7  -35.11   30.31
   8  12   7   -2.09   29.46
   8 -12  -7  -74.07   36.59
  -8  12  -7    4.60   19.77
  -8 -13  -7   -6.33   34.44
  -8 -13  -7   69.47   49.24
   8  13  -7  -16.95   21.81
   8  13   7   -4.73   32.27
  -8  13  -7   14.27   21.92
   8 -13  -7  -15.72   33.32
   8 -13  -7  -10.72   45.70
  -8   0  -8  618.87   39.27
   8   0  -8  589.76   42.28
  -8   0  -8  597.84   43.83
   8   0  -8  561.15   36.73
   8   1  -8  121.89   17.28
  -8  -1  -8  134.67   23.23
  -8  -1  -8   80.07   17.55
   8  -1  -8  108.79   18.83
   8  -1  -8  118.85   16.49
  -8   1  -8  135.61   27.56
  -8   1  -8  130.93   21.87
  -8  -2  -8  529.16   43.77
  -8  -2  -8  540.34   38.26
   8   2  -8  508.74   39.07
   8   2   8  446.13   39.37
   8  -2  -8  512.19   34.41
   8  -2  -8  539.97   40.33
  -8   2  -8  520.96   39.23
  -8   2  -8  552.78   35.68
  -8  -3  -8  185.79   28.24
  -8  -3  -8  196.19   36.48
   8  -3  -8  255.01   31.45
  -8   3  -8  234.58   24.78
  -8   3  -8  237.22   28.36
   8  -3  -8  239.59   23.55
   8   3   8  189.98   29.52
  -8  -4  -8   27.40   20.41
  -8  -4  -8   20.70   19.71
   8   4   8   49.51   15.92
  -8   4  -8   35.11   16.44
   8  -4  -8   35.04   16.06
   8  -4  -8   62.86   17.34
  -8   4  -8   21.07   16.47
  -8  -5  -8   35.63   21.33
  -8  -5  -8   10.56   21.24
   8   5   8   12.11   16.54
  -8   5  -8   54.31   17.26
   8  -5  -8   66.42   19.40
   8  -5  -8   50.49   18.30
  -8   5  -8   46.10   15.61
  -8  -6  -8  -29.16   20.21
  -8  -6  -8   27.84   22.70
  -8   6  -8   17.13   17.29
   8  -6  -8   26.57   20.51
   8  -6  -8   10.23   17.82
  -8   6  -8   23.71   18.23
   8   6   8   10.79   16.34
  -8  -7  -8  226.77   41.90
  -8  -7  -8  246.94   33.66
   8  -7  -8  279.71   33.57
  -8   7  -8  207.43   29.39
   8   7   8  179.84   26.40
  -8   7  -8  288.01   35.62
   8  -7  -8  237.62   39.10
  -8   7  -8  234.77   20.23
  -8  -8  -8  -11.37   24.81
  -8   8  -8  -16.11   20.70
   8  -8  -8   17.45   25.52
  -8   8  -8   35.49   22.08
  -8   8  -8   12.26   13.21
   8  -8  -8  -13.38   36.49
   8   8   8  -10.12   19.50
  -8  -9  -8   72.46   31.34
   8   9   8   92.83   23.11
  -8   9  -8  119.63   18.41
  -8   9  -8  110.72   38.39
   8  -9  -8  101.58   28.69
   8  -9  -8   50.34   28.52
  -8 -10  -8  -17.10   25.33
  -8 -10  -8  -57.43   33.72
   8  10  -8  -27.87   16.03
   8 -10  -8   -5.82   27.63
   8  10   8  -10.79   28.58
  -8  10  -8   -1.04   14.62
   8 -10  -8   -9.04   29.63
  -8 -11  -8  -39.84   30.21
  -8 -11  -8  -18.00   43.75
   8  11   8  -19.80   29.36
   8 -11  -8  -20.99   32.04
   8 -11  -8   -6.86   32.64
  -8  11  -8   -7.30   16.48
   8  12  -8  -33.43   19.80
  -8 -12  -8   39.00   54.04
   8  12   8  -25.43   31.27
  -8  12  -8    2.30   19.14
   8 -12  -8   -6.00   38.24
   8 -12  -8  -31.94   30.18
   8  13  -8  -25.02   24.17
  -8 -13  -8   -5.72   32.61
  -8  13  -8    4.40   21.79
   8  13   8   11.05   34.45
   8   0  -9   20.25   14.25
   8   0  -9    2.00   15.50
  -8   0  -9    9.61   17.12
  -8   0  -9   13.70   16.38
   8   1  -9  489.46   33.39
   8   1  -9  479.89   40.64
  -8  -1  -9  522.05   37.90
  -8  -1  -9  513.02   44.62
   8  -1  -9  489.12   34.26
  -8   1  -9  508.50   41.90
  -8   1  -9  552.84   36.51
   8  -1  -9  518.87   40.91
   8   2  -9  139.90   19.11
  -8  -2  -9  114.62   22.13
   8   2  -9  170.88   29.72
  -8  -2  -9  164.30   23.50
  -8   2  -9  162.02   22.96
   8  -2  -9  176.34   31.65
  -8   2  -9  175.88   29.72
   8  -2  -9  142.70   21.76
   8   3  -9  127.59   17.40
  -8  -3  -9  116.86   22.53
  -8  -3  -9   99.31   22.68
   8  -3  -9  100.18   18.28
  -8   3  -9   76.42   16.72
   8  -3  -9  128.65   18.71
  -8   3  -9  121.68   22.79
  -8  -4  -9    9.14   21.93
  -8  -4  -9   -7.12   21.88
  -8   4  -9   32.78   17.06
   8   4   9    4.19   27.30
   8  -4  -9    3.07   18.26
   8  -4  -9   26.33   16.76
  -8  -5  -9    3.60   22.09
  -8  -5  -9  -22.39   22.39
   8  -5  -9    8.19   18.20
   8  -5  -9    2.05   20.32
   8   5   9  -32.86   15.36
  -8   5  -9   13.23   17.02
  -8   5  -9   13.16   16.51
  -8  -6  -9   59.81   24.16
  -8  -6  -9  140.02   27.34
  -8   6  -9  107.25   21.03
   8  -6  -9  151.40   37.16
   8  -6  -9  100.37   22.39
  -8  -7  -9   12.26   26.98
  -8  -7  -9  -41.58   25.31
  -8   7  -9   13.59   21.53
   8  -7  -9   19.86   25.53
   8  -7  -9  -11.62   24.91
   8   7   9   -3.59   15.92
  -8  -8  -9   59.67   27.52
  -8  -8  -9  103.85   29.10
   8  -8  -9   44.48   26.89
   8  -8  -9  114.13   25.94
  -8   8  -9   63.53   13.92
  -8   8  -9   80.84   24.69
  -8  -9  -9  -42.11   31.89
   8  -9  -9  -19.91   27.49
  -8   9  -9  -12.60   13.29
  -8   9  -9   20.45   25.59
   8  -9  -9  -26.47   26.86
  -8 -10  -9    0.24   35.23
   8 -10  -9    7.45   29.82
  -8  10  -9   -9.61   13.44
   8 -10  -9  -41.22   28.43
  -8 -11  -9   -5.92   29.95
  -8 -11  -9  -34.56   40.40
   8  11  -9   -4.04   17.95
  -8  11  -9  -13.99   16.01
   8 -11  -9    1.29   33.07
   8 -11  -9  -52.89   30.04
   8  12  -9    9.73   23.67
  -8 -12  -9   14.77   49.58
  -8 -12  -9   -4.00   31.39
   8 -12  -9   34.51   38.78
  -8  12  -9    0.71   18.16
   8  12   9  -24.16   28.11
   8 -12  -9   -7.34   31.74
   8   0 -10  102.39   18.25
  -8   0 -10   78.85   19.97
   8   0 -10  122.56   17.29
  -8   0 -10  120.22   20.27
   8   1 -10   12.78   17.94
  -8  -1 -10    5.13   19.91
   8   1 -10   18.03   14.81
  -8  -1 -10    5.85   19.99
   8  -1 -10   -5.18   17.86
  -8   1 -10    8.10   18.29
  -8   1 -10    9.73   17.90
   8  -1 -10   18.24   15.98
  -8  -2 -10   62.44   22.80
   8   2 -10  106.10   19.22
   8   2 -10   63.62   18.56
  -8  -2 -10   64.06   22.15
  -8   2 -10   59.57   17.04
  -8   2 -10   77.72   17.99
   8  -2 -10   45.11   19.05
   8  -2 -10   76.61   18.28
  -8  -3 -10   11.86   22.72
  -8  -3 -10   10.02   22.43
   8   3 -10   43.99   14.96
  -8   3 -10   19.87   17.68
   8  -3 -10   61.73   19.19
   8  -3 -10   29.86   19.11
  -8   3 -10   28.24   15.82
   8   4 -10   42.44   14.65
  -8  -4 -10   21.09   23.98
  -8  -4 -10  -23.01   23.39
  -8   4 -10   31.70   17.04
   8  -4 -10   79.22   21.41
   8  -4 -10   28.59   19.38
  -8   4 -10   16.35   18.08
  -8  -5 -10   64.77   25.51
  -8  -5 -10  115.17   31.65
   8  -5 -10   84.30   22.23
   8  -5 -10  152.55   30.59
  -8   5 -10   95.58   20.00
  -8  -6 -10    5.93   27.48
  -8   6 -10  -14.86   20.47
   8   6  10   43.95   28.29
   8  -6 -10   49.09   24.25
   8  -6 -10  -16.66   23.61
  -8  -7 -10   67.84   29.67
  -8  -7 -10    3.96   26.88
   8  -7 -10   28.07   29.25
   8  -7 -10   56.62   24.82
  -8   7 -10   45.71   24.98
   8   7  10   74.56   23.10
  -8  -8 -10   -3.01   28.95
  -8  -8 -10  -26.92   26.79
  -8   8 -10   -3.39   32.17
   8  -8 -10  -19.69   27.53
   8   8  10  -25.07   22.37
  -8   8 -10   -8.69   12.85
  -8  -9 -10   -4.24   32.32
  -8  -9 -10  -38.45   26.55
   8  -9 -10    7.00   27.59
  -8   9 -10  -18.86   12.73
  -8   9 -10   12.87   26.34
   8   9  10  -34.33   25.35
  -8 -10 -10   -7.65   32.39
  -8 -10 -10   42.58   35.57
   8 -10 -10  -19.61   30.45
   8 -10 -10   -5.39   28.88
  -8  10 -10    2.38   13.99
  -8 -11 -10    8.31   41.62
  -8 -11 -10    1.86   31.18
   8  11  10   15.05   33.73
   8 -11 -10  -13.34   32.18
   8 -11 -10    8.84   33.78
  -8  11 -10    2.42   15.91
  -8   0 -11    8.87   23.19
   8   0 -11   25.38   20.01
   8   0 -11   36.79   17.79
  -8   0 -11   21.80   19.97
   8   1 -11   21.41   19.81
  -8  -1 -11   -1.63   22.07
   8   1 -11   24.16   17.02
  -8  -1 -11   16.91   22.50
   8  -1 -11   45.29   18.52
  -8   1 -11   10.37   20.14
  -8   1 -11   -4.16   19.25
   8  -1 -11   14.38   19.35
  -8  -2 -11   63.75   33.31
  -8  -2 -11   62.54   25.03
   8   2 -11   95.24   17.79
   8  -2 -11   64.22   22.24
  -8   2 -11   57.08   18.59
  -8   2 -11   61.88   19.51
   8  -2 -11   90.06   20.46
  -8  -3 -11    5.68   26.91
  -8  -3 -11    8.36   27.36
   8   3 -11   42.75   16.57
   8  -3 -11   55.68   23.36
   8  -3 -11   41.01   35.00
  -8   3 -11   30.41   18.42
  -8   3 -11    5.94   18.91
  -8  -4 -11  193.21   35.17
  -8  -4 -11  132.91   31.25
   8  -4 -11  226.59   42.05
  -8   4 -11  166.36   26.60
   8  -4 -11  197.82   29.63
  -8   4 -11  235.84   35.10
  -8  -5 -11   83.04   28.62
   8  -5 -11   43.55   25.42
   8  -5 -11  113.73   25.61
  -8   5 -11   78.20   21.50
  -8  -6 -11    3.16   29.72
  -8  -6 -11   63.84   28.46
  -8   6 -11   22.81   28.05
   8  -6 -11   78.60   24.52
  -8  -7 -11  -14.79   31.03
  -8  -7 -11   -7.57   28.41
   8  -7 -11  -38.24   29.22
  -8   7 -11   40.58   27.85
   8  -7 -11   36.85   26.13
  -8  -8 -11   -5.20   30.88
  -8  -8 -11  -45.67   30.81
  -8   8 -11   -3.75   12.90
   8  -8 -11   17.26   29.44
   8  -8 -11  -11.24   25.90
  -8   8 -11  -11.81   27.32
  -8  -9 -11  -14.79   32.11
  -8  -9 -11  -37.46   28.79
   8  -9 -11  -38.64   30.49
  -8   9 -11   13.01   28.37
  -8   9 -11   -0.84   13.78
   8  -9 -11   14.62   28.42
  -8 -10 -11    0.65   34.36
  -8 -10 -11   11.54   36.34
   8 -10 -11   -0.59   31.69
  -8  10 -11    9.82   14.56
   8 -10 -11   17.08   31.23
  -8   0 -12   16.54   24.37
   8   0 -12   35.62   23.06
   8   0 -12   27.09   20.46
  -8   0 -12    1.21   22.45
   8   1 -12   74.30   19.75
  -8  -1 -12   61.30   25.39
  -8   1 -12   64.33   28.15
   8  -1 -12   55.93   27.65
  -8   1 -12   74.71   23.88
   8  -1 -12   63.31   24.58
  -8  -2 -12    6.59   26.35
  -8  -2 -12   31.18   27.78
   8   2 -12   27.86   18.53
   8  -2 -12    3.71   24.83
   8  -2 -12   30.08   22.76
  -8   2 -12   -7.84   21.05
  -8  -3 -12  342.92   57.75
  -8  -3 -12  288.75   38.63
   8   3 -12  270.86   27.80
   8  -3 -12  339.37   48.53
  -8   3 -12  298.36   38.89
   8  -3 -12  266.44   32.38
  -8  -4 -12   60.47   29.13
   8  -4 -12   93.20   25.26
   8  -4 -12   69.80   31.35
  -8   4 -12   29.50   28.65
  -8  -5 -12   64.19   29.87
  -8  -5 -12   47.89   36.53
  -8   5 -12   76.78   24.13
   8  -5 -12   77.12   32.22
   8  -5 -12  118.35   25.32
  -8  -6 -12    5.84   36.03
  -8  -6 -12   45.18   32.32
   8  -6 -12   55.96   27.46
  -8   6 -12   75.93   25.98
   8  -6 -12   15.64   31.10
  -8  -7 -12  -10.36   35.65
  -8  -7 -12   -0.43   33.17
   8  -7 -12  -16.68   30.16
   8  -7 -12    1.98   25.99
  -8   7 -12   10.91   27.74
  -8  -8 -12    8.23   32.83
  -8  -8 -12  -33.67   36.14
   8  -8 -12    9.00   28.69
  -8   8 -12   -4.35   13.16
  -8   8 -12   -0.56   28.90
   8  -8 -12  -26.89   30.57
  -8  -9 -12   13.10   35.57
  -8  -9 -12  -24.84   34.98
  -8   9 -12  -14.12   30.46
  -8   9 -12   19.02   14.78
   8  -9 -12   26.63   29.52
   8  -9 -12    1.10   33.99
  -8  10 -12   23.81   15.45
  -8   0 -13    0.71   23.83
  -8   0 -13   13.65   28.43
   8   0 -13    4.47   22.43
  -8  -1 -13   22.05   25.83
  -8  -1 -13   36.28   30.91
   8  -1 -13   44.40   22.78
  -8   1 -13  -11.51   23.51
   8  -1 -13   90.70   30.88
  -8   1 -13   44.75   27.78
   8   2 -13  132.83   24.19
  -8  -2 -13  166.82   30.88
  -8   2 -13  114.99   26.33
  -8   2 -13  108.76   25.01
  -8  -3 -13   10.08   30.43
   8   3 -13   23.98   23.21
   8  -3 -13   44.54   23.91
  -8   3 -13   26.84   23.66
   8  -3 -13   63.62   30.25
  -8  -4 -13  131.02   32.99
  -8  -4 -13   60.09   39.32
   8  -4 -13  147.49   27.66
   8  -4 -13  102.45   33.69
  -8   4 -13  116.38   25.37
  -8  -5 -13   25.61   38.72
  -8  -5 -13   16.51   31.99
  -8   5 -13   53.12   25.10
   8  -5 -13   50.28   26.39
   8  -5 -13   34.84   33.36
  -8  -6 -13   -9.47   33.16
  -8  -6 -13   -3.47   40.13
   8  -6 -13    8.71   26.50
  -8   6 -13    0.66   27.16
   8  -6 -13  -13.94   31.97
  -8  -7 -13  -14.16   40.39
  -8  -7 -13   -1.05   34.86
   8  -7 -13  -11.87   31.76
   8  -7 -13   13.04   27.69
  -8   7 -13   -4.80   29.81
  -8  -8 -13   19.27   41.45
  -8  -8 -13  -18.20   34.28
  -8   8 -13   11.48   13.98
   8  -8 -13   33.79   29.27
   8  -8 -13    0.70   32.85
  -8   8 -13  -32.66   32.45
  -8   0 -14    6.00   26.18
   8   0 -14   20.19   24.75
  -8   0 -14   76.21   34.92
  -8  -1 -14    5.40   27.07
  -8  -1 -14   -3.70   37.86
   8   1 -14   27.54   24.81
   8  -1 -14   44.20   25.65
  -8   1 -14   76.13   33.80
  -8   1 -14   35.42   25.52
   8   2 -14    3.23   24.12
  -8  -2 -14   22.60   53.92
  -8  -2 -14   35.18   30.67
   8  -2 -14   42.76   26.06
   8  -2 -14   67.37   37.85
  -8   2 -14   -9.76   25.16
  -8  -3 -14   80.08   40.71
   8   3 -14   82.63   28.31
  -8  -3 -14  118.43   33.39
   8  -3 -14  122.25   27.27
   8  -3 -14   56.40   38.64
  -8   3 -14   89.39   27.27
  -8  -4 -14  -44.60   41.66
  -8  -4 -14   47.79   35.29
   8  -4 -14  -23.50   41.02
   8  -4 -14   35.79   26.71
  -8   4 -14   32.50   26.96
  -8  -5 -14   14.33   36.64
  -8  -5 -14  -53.23   42.72
   8  -5 -14   44.20   28.43
   8  -5 -14   17.74   35.79
  -8   5 -14   63.02   28.50
  -8  -6 -14  -60.44   45.31
  -8  -6 -14  -58.18   34.14
  -8   6 -14   32.70   30.42
   8  -6 -14  -42.21   35.29
   8  -6 -14   23.80   28.46
  -8  -7 -14   46.08   51.37
  -8  -7 -14   -0.26   37.10
   8  -7 -14   13.59   37.09
  -8   7 -14   27.28   34.00
   8  -7 -14   17.50   30.26
   8   0 -15    0.34   27.79
  -8   0 -15  -18.05   29.87
   8   1 -15   38.09   27.79
  -8  -1 -15   18.70   30.35
  -8  -1 -15   64.67   48.02
  -8   1 -15   33.95   29.55
   8  -1 -15   47.54   27.74
  -8  -2 -15   89.70   44.99
  -8  -2 -15   15.54   32.17
   8   2 -15   19.91   27.42
   8  -2 -15   43.74   28.88
  -8   2 -15  -19.51   28.28
  -8  -3 -15   24.85   35.26
  -8  -3 -15   -5.13   47.74
   8   3 -15    6.95   28.49
  -8   3 -15   46.02   30.24
   8  -3 -15   59.39   28.84
  -8  -4 -15   40.01   47.86
  -8  -4 -15   62.51   36.30
  -8   4 -15    4.25   29.30
   8  -4 -15   32.97   44.06
   8  -4 -15   63.32   29.33
  -8  -5 -15  -16.98   37.24
  -8  -5 -15   -3.18   49.88
   8  -5 -15  -74.92   41.60
  -8   5 -15    6.18   30.65
   8  -5 -15   29.10   29.60
   8   0 -16   40.30   32.85
  -8   0 -16   38.13   33.58
  -8  -1 -16   -6.76   33.74
   8   1 -16  -30.85   31.36
   8  -1 -16   18.19   31.69
  -8   1 -16    3.23   32.64
   9   0   0    9.80    8.20
  -9   0   0   16.69   11.48
  -9   0   0    5.12    8.43
  -9   0   0   16.67   13.50
   9   1   0  284.51   20.73
  -9   1   0  283.17   20.48
  -9   1   0  293.96   25.43
  -9  -1   0  322.20   27.32
  -9   1   0  319.34   27.93
  -9  -1   0  296.58   24.77
   9  -1   0  279.13   20.93
  -9  -1   0  321.33   20.80
  -9  -2   0 1346.58   69.97
   9   2   0 1151.01   69.85
  -9  -2   0 1262.77   71.68
  -9   2   0 1325.10   72.32
  -9   2   0 1358.51   70.15
  -9  -2   0 1296.45   72.72
  -9   2   0 1195.25   72.66
  -9   3   0  127.15   16.36
  -9  -3   0  105.43   18.78
  -9  -3   0   77.26   12.70
   9   3   0   90.63   13.74
  -9   3   0   81.27   12.93
  -9   3   0   82.59   14.66
   9  -4   0 1109.81   64.26
  -9   4   0 1074.14   66.06
   9  -4   0 1107.62   67.24
  -9   4   0 1216.30   63.65
  -9  -4   0 1127.96   65.01
  -9   4   0 1168.94   65.23
  -9  -4   0 1125.01   62.91
  -9  -4   0 1201.70   66.04
   9   4   0 1131.09   63.11
  -9  -5   0  234.04   25.15
   9  -5   0  263.47   23.92
  -9  -5   0  256.41   27.74
   9  -5   0  271.97   31.17
  -9   5   0  257.30   26.20
  -9   5   0  276.27   24.24
  -9   5   0  231.35   21.25
   9   5   0  242.38   20.11
  -9   6   0  105.86   18.78
   9  -6   0  106.59   17.84
   9   6   0  134.52   17.18
   9  -6   0  123.05   22.48
  -9  -6   0  139.59   26.27
  -9  -6   0  141.19   23.63
   9  -7   0   -1.42   16.65
  -9  -7   0   -4.54   15.28
  -9  -7   0   45.07   19.36
   9   7   0   23.38   14.46
   9  -7   0    4.42   18.46
  -9   7   0   -5.89   13.72
   9  -8   0   28.34   18.92
   9  -8   0   44.79   22.92
   9   8   0   25.58   16.17
  -9  -8   0    3.93   16.93
  -9  -8   0   34.79   22.54
  -9   8   0   17.48   16.31
  -9  -9   0   -0.91   18.27
   9  -9   0   26.40   19.98
   9  -9   0    0.46   24.42
   9   9   0   19.91   17.13
  -9  -9   0   14.00   21.38
  -9   9   0   12.71   16.93
   9 -10   0    6.32   23.25
  -9 -10   0   28.26   21.49
  -9  10   0   45.05   22.05
  -9 -10   0  109.64   31.86
  -9  11   0   28.83   20.38
   9  11   0   29.77   20.26
   9 -11   0    2.56   27.21
  -9 -11   0    2.32   24.62
  -9 -12   0   38.94   29.99
   9  12   0   76.01   22.37
  -9  12   0   37.78   22.19
   9 -12   0   -3.48   28.92
   9  13   0   29.83   23.16
   9 -13   0   -3.62   29.63
  -9  13   0    7.20   22.83
  -9  14   0   41.51   26.08
   9  14   0    0.51   24.66
   9 -14   0   10.85   29.93
  -9   0   1  243.92   24.15
  -9   0  -1  195.49   22.16
  -9   0   1  222.09   17.78
  -9   0  -1  187.86   17.11
  -9   0  -1  236.21   24.59
   9   0  -1  228.89   16.92
   9   0   1  212.60   17.09
  -9   0   1  185.63   22.79
  -9   1   1  380.68   24.88
   9   1  -1  383.36   24.52
  -9   1   1  396.43   28.84
   9  -1   1  377.07   24.75
  -9  -1  -1  344.41   27.95
  -9  -1  -1  393.21   30.37
  -9   1   1  416.83   30.24
  -9  -1  -1  377.57   24.32
  -9  -1   1  366.58   28.12
   9   1   1  375.27   24.63
   9  -1  -1  388.56   24.64
  -9   1  -1  385.44   24.85
  -9   1  -1  329.96   28.51
  -9  -1   1  403.22   24.53
  -9  -1   1  415.83   29.33
  -9   1  -1  373.11   31.19
   9   2  -1   60.06    9.28
  -9  -2  -1   59.11   13.90
  -9  -2  -1   36.83   11.69
  -9   2   1   90.20   15.06
  -9   2   1   51.12   11.75
  -9   2   1   67.98   10.96
   9   2   1   57.85    9.72
  -9  -2   1   87.59   14.26
  -9   2  -1   64.19   10.32
  -9  -2   1   47.59   11.35
  -9   2  -1   55.43   12.46
  -9   2  -1   69.53   14.38
  -9  -2   1   77.31   12.46
   9   3  -1 1083.21   61.12
  -9   3   1 1082.64   63.26
  -9   3   1 1016.35   64.05
  -9  -3  -1 1160.38   61.17
  -9  -3  -1 1066.75   63.45
  -9   3   1 1180.07   61.77
  -9  -3  -1 1108.95   64.67
  -9  -3   1 1133.85   63.17
  -9   3  -1 1243.53   61.57
  -9   3  -1 1060.96   64.51
   9   3   1 1052.16   61.25
   9  -3  -1 1016.05   64.62
  -9   3  -1 1162.38   64.09
  -9  -3   1 1140.43   63.76
  -9   4   1   88.44   12.45
   9  -4   1   81.39   13.42
  -9  -4  -1   42.89   12.86
  -9   4   1  107.15   20.78
   9  -4   1   50.47   12.85
  -9  -4  -1   63.28   15.21
   9   4  -1   86.43   13.57
  -9   4  -1   72.61   13.70
  -9   4  -1  101.33   16.14
  -9  -4   1  115.59   20.96
  -9   4  -1   75.28   11.12
  -9  -4   1  100.26   15.10
   9  -4  -1   65.69   14.20
   9   4   1   57.62   10.63
   9  -5   1  346.46   35.09
   9  -5   1  377.75   28.56
   9   5  -1  370.46   24.74
  -9  -5  -1  360.16   29.44
  -9  -5  -1  352.43   31.70
  -9   5   1  361.15   25.18
  -9  -5   1  396.48   29.70
   9  -5  -1  341.47   28.01
  -9   5  -1  374.22   28.93
  -9  -5   1  351.73   36.44
   9   5   1  358.23   25.28
  -9   5  -1  380.82   25.75
   9  -5  -1  390.18   34.53
  -9   5  -1  367.13   31.43
  -9  -6  -1   71.97   18.45
   9  -6   1   54.75   16.51
   9  -6   1   80.37   17.41
  -9   6   1   66.89   13.54
  -9  -6  -1   37.21   14.62
   9   6  -1   92.89   15.77
   9   6   1   72.36   13.38
   9  -6  -1   57.89   16.66
  -9  -6   1   62.67   13.48
   9  -6  -1   49.42   16.04
  -9   6  -1   57.63   13.29
  -9  -7  -1  -13.31   20.10
  -9   7   1  -27.84   13.83
  -9  -7  -1  -26.06   15.15
   9   7  -1   -5.03   13.83
  -9  -7   1   19.48   29.05
   9   7   1  -16.42   14.00
   9  -7  -1   -4.29   18.56
  -9  -7   1  -14.55   13.63
   9  -7  -1  -11.76   15.73
   9  -8   1   25.03   22.51
   9   8  -1  -11.49   15.69
  -9   8   1   -0.37   15.24
  -9  -8  -1  -20.81   23.29
  -9  -8  -1  -25.64   17.05
  -9   8  -1  -25.25   15.47
   9  -8  -1    5.67   22.16
  -9  -8   1   -1.36   15.28
  -9  -8   1   32.88   19.97
   9  -8  -1   -2.84   18.06
   9   8   1   22.17   16.65
   9  -9   1  -17.70   23.91
  -9  -9  -1    6.76   18.85
  -9  -9  -1    5.88   23.21
   9   9  -1   22.30   16.08
   9  -9   1    2.33   19.34
  -9   9   1   40.47   16.67
  -9  -9   1  -11.98   16.33
  -9   9  -1  -21.52   16.70
   9  -9  -1   15.35   19.85
   9  -9  -1    7.03   24.61
   9   9   1   14.47   17.74
  -9 -10  -1  -16.40   20.77
  -9  10   1   47.71   18.84
   9 -10   1   -9.02   22.07
  -9 -10  -1   38.41   28.11
  -9 -10   1   16.69   18.26
   9 -10  -1  -17.68   36.57
   9 -10  -1   21.39   27.06
  -9  11   1   19.04   20.61
  -9 -11  -1   -3.12   34.64
   9 -11   1    8.27   26.75
   9  11  -1   24.12   19.70
   9 -11  -1  -39.89   21.68
  -9  11  -1   17.50   19.96
   9 -11  -1   -2.28   27.24
   9  11   1   17.61   21.80
  -9 -12  -1  -17.80   30.61
   9 -12   1  -10.96   27.96
   9  12  -1   19.29   20.51
  -9  12   1    0.82   21.79
   9 -12  -1    9.07   29.88
  -9  12  -1    2.51   21.50
   9  12   1   19.05   23.07
   9 -13   1   -9.81   29.47
  -9 -13  -1   47.51   35.44
   9  13  -1   39.94   22.17
  -9  13   1   26.33   24.49
  -9  13  -1   37.86   23.49
   9  13   1   31.70   24.59
   9 -13  -1  -18.89   29.33
  -9  14   1   -5.43   27.04
   9  14  -1    2.48   23.65
   9 -14   1   -9.15   30.36
  -9 -14  -1  -11.21   39.38
   9 -14  -1   -4.20   31.10
   9  14   1   20.75   26.39
  -9  14  -1   22.28   25.10
  -9  -1  -2    3.19   13.28
  -9   1   2   28.03   13.28
   9  -1   2   11.38    8.71
  -9   1   2   16.19   10.25
  -9  -1  -2    8.17   10.82
  -9   1   2    5.52    8.57
   9   1  -2   24.63    9.11
  -9   1  -2    9.59   12.53
  -9  -1   2    4.90    9.68
   9  -1  -2   16.73    8.50
  -9   1  -2    4.30   11.04
  -9  -1   2   -1.43   13.27
  -9   1  -2   -0.27    8.55
  -9  -1   2   11.47    8.16
   9   1   2    9.07    9.03
  -9   2   2  552.34   31.17
   9   2  -2  484.30   30.99
  -9  -2  -2  538.52   34.54
  -9  -2  -2  564.83   36.96
  -9   2   2  547.58   33.99
  -9   2   2  530.78   35.34
  -9   2  -2  540.35   31.48
  -9   2  -2  478.61   37.17
   9   2   2  543.75   31.39
  -9  -2   2  504.18   34.83
  -9   2  -2  452.68   34.76
  -9  -3  -2  238.52   24.84
  -9   3   2  225.00   16.50
   9   3  -2  176.67   16.24
  -9  -3  -2  201.29   21.55
   9  -3  -2  160.48   24.01
  -9  -3   2  166.66   21.50
   9  -3  -2  219.86   18.71
  -9   3  -2  146.28   21.90
  -9   3  -2  192.71   17.05
  -9   3  -2  158.05   26.05
  -9  -3   2  134.97   20.64
   9  -4   2  189.95   26.75
   9   4  -2  225.40   17.31
  -9  -4  -2  166.14   25.60
  -9  -4  -2  199.03   22.84
  -9  -4   2  230.56   21.80
   9  -4  -2  212.77   21.26
  -9   4  -2  206.84   24.51
  -9   4  -2  233.10   18.10
  -9   4  -2  188.45   27.27
  -9  -4   2  217.91   22.56
   9  -4  -2  204.85   28.61
   9   4   2  206.46   18.21
   9  -5   2   28.21   14.84
  -9  -5  -2   29.96   16.27
   9   5  -2   53.25   10.16
  -9  -5  -2   22.69   12.71
  -9   5   2   28.25   11.40
   9  -5   2   40.85   15.06
  -9  -5   2   60.70   15.54
   9  -5  -2   29.66   13.74
   9  -5  -2   43.43   14.53
  -9   5  -2   18.63   10.49
   9   5   2   33.10   11.13
  -9  -5   2   30.03   10.37
  -9   5  -2   70.78   15.90
  -9   5  -2   56.69   13.62
   9  -6   2   13.52   16.65
   9   6  -2   34.66   11.98
  -9   6   2   13.72   12.52
  -9  -6  -2    0.02   13.71
   9  -6   2    1.82   15.89
  -9  -6  -2   22.94   18.33
  -9   6  -2   47.74   16.56
  -9   6  -2   13.36   11.54
  -9   6  -2   28.41   13.58
   9   6   2   22.82   12.60
  -9  -6   2   60.51   27.16
   9  -6  -2   22.57   15.90
   9  -6  -2   28.38   15.44
  -9  -6   2   18.78   10.92
  -9   7   2   -9.63   13.85
   9   7  -2  -10.36   13.64
  -9  -7  -2  -14.80   21.24
   9  -7   2  -24.46   16.45
   9  -7   2   -0.97   19.49
   9  -7  -2   -3.21   16.43
  -9  -7   2    2.51   11.80
   9  -7  -2    2.70   18.74
   9   7   2  -22.93   14.30
   9  -8   2   -0.12   22.86
  -9  -8  -2  -10.19   24.40
  -9  -8  -2  -17.12   17.24
   9   8  -2  -17.45   15.01
  -9   8   2    9.30   15.40
   9   8   2   25.40   16.66
   9  -8  -2   42.35   22.48
   9  -8  -2   -9.81   17.58
   9  -9   2   12.04   19.46
  -9  -9  -2   40.79   29.28
   9   9  -2   27.86   15.87
  -9  -9  -2   13.86   19.43
  -9   9   2   36.36   17.20
   9  -9  -2   52.62   21.48
   9  -9  -2   77.54   25.43
  -9   9  -2    9.90   16.86
   9   9   2   42.42   18.42
   9 -10   2   -4.08   21.57
  -9  10   2   26.69   18.93
  -9 -10  -2  -13.41   21.92
  -9 -10  -2   15.40   26.54
   9 -10  -2   33.06   27.75
   9 -10  -2   -4.03   29.99
  -9  10  -2  -24.10   20.47
  -9  11   2   35.24   21.12
   9  11  -2   40.86   19.20
  -9 -11  -2    3.10   25.92
  -9 -11  -2   31.75   35.89
   9 -11   2  -15.67   32.87
   9 -11  -2  -23.74   27.07
   9 -11  -2   16.09   29.74
  -9  11  -2    6.60   20.07
   9  11   2   29.66   22.22
   9 -12   2   15.79   27.24
   9  12  -2   36.26   20.51
  -9  12   2   18.93   23.15
  -9 -12  -2   -1.02   29.82
  -9  12  -2   22.84   21.34
   9 -12  -2   12.74   30.69
   9  12   2   27.19   25.37
  -9 -13  -2    0.17   34.74
   9  13  -2    9.83   21.21
   9 -13   2  -26.63   27.48
  -9  13   2   17.01   25.97
   9 -13  -2  -81.05   41.09
  -9  13  -2    6.04   22.69
   9 -13  -2   -0.78   30.16
   9  13   2    2.90   25.23
  -9  14   2   -2.19   28.53
  -9 -14  -2   32.29   41.15
   9  14  -2    3.25   25.23
   9  14   2   29.69   27.30
  -9  14  -2   24.39   23.84
   9 -14  -2  -27.96   34.32
   9   0   3   22.01    8.96
  -9   0   3   16.69    9.17
  -9   0   3   24.57    7.67
  -9   0  -3    3.97   11.44
  -9   0  -3   14.35   13.22
   9   0  -3   19.99    8.20
  -9  -1   3  207.84   32.34
   9   1   3  181.69   17.67
  -9   2   3  360.80   22.11
  -9  -2  -3  345.11   26.24
   9   2  -3  335.14   22.25
  -9  -2  -3  333.28   29.56
  -9  -2   3  306.98   24.98
   9  -2  -3  323.46   28.29
  -9   2  -3  323.07   26.82
  -9  -2   3  287.96   24.92
   9   2   3  357.87   23.00
  -9   2  -3  316.46   29.60
  -9   3   3  117.74   14.04
  -9  -3  -3   92.53   14.27
  -9  -3  -3  109.34   19.58
   9   3  -3   97.16   13.34
   9  -3  -3  118.52   17.07
  -9   3  -3   87.86   13.93
  -9   3  -3   81.79   13.92
   9  -3  -3   92.91   13.95
  -9   3  -3  115.53   16.56
   9   3   3  124.05   14.68
  -9  -3   3   79.65   10.89
  -9  -3   3  128.44   14.91
   9   4  -3   39.96    9.03
  -9   4   3   23.60    9.92
   9  -4   3   18.26   12.33
  -9  -4  -3   16.88   12.30
  -9  -4  -3   30.54   15.22
   9  -4  -3   44.17   13.01
  -9  -4   3   25.23    9.07
  -9   4  -3   12.39   12.65
   9  -4  -3   32.42   14.02
  -9   4  -3   35.03   10.62
  -9   4  -3   17.87   14.99
   9   4   3   35.71   10.38
  -9  -4   3   34.08   14.89
  -9  -5  -3  -10.72   12.58
   9  -5   3  -17.02   14.54
   9   5  -3   12.00    9.71
  -9   5   3   -8.27   10.68
  -9  -5  -3  -15.35   16.08
  -9   5  -3  -11.54   10.51
   9  -5  -3  -10.52   13.30
  -9   5  -3   -9.23   12.97
   9   5   3    4.83   10.77
   9  -5  -3    5.45   13.60
  -9   5  -3    1.04   15.87
   9   6  -3   17.65   11.37
  -9  -6  -3   -1.43   15.81
  -9   6   3   -1.88   12.35
   9  -6   3   -6.56   16.95
  -9  -6  -3    3.03   18.49
  -9   6  -3    5.80   16.36
  -9   6  -3   21.06   14.54
   9  -6  -3    8.08   15.75
   9   6   3    6.60   12.68
   9  -6  -3    5.98   15.42
  -9  -7  -3   90.80   22.23
  -9  -7  -3   62.87   18.22
   9  -7   3  113.34   21.03
   9  -7   3   67.57   17.81
  -9   7   3   88.70   15.86
   9   7   3  112.03   19.32
  -9   7  -3   64.84   13.92
   9   8  -3   68.28   15.15
  -9  -8  -3   63.61   25.20
  -9   8   3   91.03   16.87
  -9  -8  -3   29.93   19.21
   9  -8   3   43.75   18.94
   9   8   3   77.05   17.45
   9  -8  -3  110.77   23.47
   9  -8  -3   64.27   20.09
  -9   8  -3   57.13   15.69
   9   9  -3  -10.31   14.89
  -9  -9  -3   25.58   28.50
  -9  -9  -3  -16.60   20.36
   9  -9   3  -23.72   18.77
  -9   9   3   17.58   17.06
   9  -9  -3    2.48   25.30
   9   9   3   15.18   18.12
   9  -9  -3    7.34   21.35
  -9  10   3   14.16   19.64
   9 -10   3  -17.76   21.19
  -9 -10  -3   33.21   34.75
  -9 -10  -3   -7.43   29.57
   9  10  -3   16.51   20.94
   9 -10  -3   29.70   28.46
  -9  10  -3  -18.44   17.77
   9 -10  -3  -24.52   25.26
  -9  11   3   21.85   23.08
   9 -11   3   84.76   29.49
  -9 -11  -3   18.26   26.41
  -9 -11  -3  -12.46   31.77
   9  11  -3   73.07   19.05
   9 -11  -3   19.60   31.04
   9 -11  -3   -4.17   28.97
  -9  11  -3   35.77   20.23
   9  11   3   66.12   23.47
   9  12  -3   -1.13   19.67
  -9  12   3   26.53   25.52
  -9 -12  -3   91.99   45.52
  -9 -12  -3    1.57   27.86
   9 -12   3   10.23   26.22
  -9  12  -3   19.72   20.50
   9  12   3   23.00   23.95
   9 -12  -3   -1.19   30.84
   9  13  -3  -16.33   21.29
  -9  13   3    3.97   27.19
  -9 -13  -3   31.44   32.94
  -9  13  -3   31.86   22.53
   9 -13  -3  -17.32   30.83
   9  13   3   12.60   25.83
   9  14  -3   -3.84   22.87
  -9 -14  -3   -6.19   37.83
  -9  14   3  -39.80   30.47
   9 -14  -3  -20.56   43.94
   9  14   3   16.95   28.61
  -9  14  -3   28.23   24.17
   9 -14  -3  -29.85   33.46
  -9   0  -4    3.87   11.56
  -9   0  -4   14.59   13.67
  -9   1   4  168.19   15.31
   9  -1   4  156.88   16.66
  -9  -1  -4  149.71   24.32
   9   1  -4  144.79   14.66
  -9  -1  -4  169.68   20.44
  -9   1  -4  149.95   20.82
   9   1   4  183.76   17.28
  -9   1  -4  156.01   23.83
   9  -1  -4  149.34   22.62
   9   2  -4  -13.85    8.63
  -9   2   4   14.68    8.37
  -9  -2  -4   18.60   13.47
  -9  -2  -4    1.90   12.47
   9  -2  -4    3.27   10.89
  -9   2  -4  -10.95   11.18
  -9   2  -4  -13.76   13.53
   9  -2  -4   15.83   10.17
   9   2   4   16.52    9.90
  -9  -3  -4   35.12   14.46
  -9   3   4   40.41   13.53
  -9  -3  -4   22.64   12.16
   9   3  -4   26.16    8.72
   9  -3  -4   38.63   12.45
  -9   3  -4   23.14   14.11
  -9   3  -4   19.96   12.08
   9  -3  -4   21.97   12.16
   9   3   4   26.29   10.17
  -9  -4  -4    2.33   14.64
   9   4  -4  -11.00    8.58
  -9   4   4    0.59   10.15
  -9   4  -4  -16.51   11.93
   9  -4  -4  -16.10   12.69
   9   4   4  -14.10   10.03
  -9   4  -4  -19.22   14.33
   9  -4  -4   -7.63   12.57
  -9  -5  -4   33.60   16.72
  -9  -5  -4   16.67   14.30
  -9   5   4   18.59   12.04
   9  -5   4   26.57   16.21
   9   5  -4   28.02    9.80
  -9   5  -4    8.49   16.61
   9  -5  -4   27.99   14.26
  -9   5  -4   21.21   13.37
   9  -5  -4   30.28   15.09
   9   5   4   35.03   11.58
  -9   5  -4    9.65   11.40
   9  -6   4   91.80   19.36
  -9  -6  -4   98.15   20.57
   9  -6   4   58.26   17.15
  -9   6   4   93.65   14.87
  -9  -6  -4   40.12   17.44
   9   6   4   84.10   14.77
   9  -6  -4  107.42   17.75
   9  -6  -4   74.56   16.30
  -9   6  -4  138.32   24.26
  -9   6  -4   73.54   13.30
  -9  -7  -4  135.91   24.31
   9  -7   4  100.33   20.34
  -9  -7  -4   63.94   18.97
  -9   7   4  118.28   20.22
   9  -7   4   86.42   18.16
   9  -7  -4  141.78   25.93
  -9   7  -4  100.89   17.49
   9   7   4  139.09   20.03
  -9   7  -4  171.51   30.06
   9  -7  -4  109.70   19.56
  -9  -8  -4   95.98   26.21
   9   8  -4   74.48   14.68
  -9   8   4   76.92   17.80
  -9  -8  -4   30.30   19.76
   9  -8   4   70.90   17.92
   9   8   4   56.76   17.20
   9  -8  -4   72.30   23.03
  -9   8  -4   49.17   14.60
   9  -8  -4   61.34   19.89
  -9  -9  -4   28.17   29.23
   9   9  -4   -5.91   14.80
  -9  -9  -4  -15.28   22.01
   9  -9   4   -6.54   18.19
  -9   9   4   18.93   18.61
   9  -9  -4   43.47   25.62
   9  -9  -4  -15.68   25.07
  -9   9  -4  -18.99   15.93
   9   9   4   11.65   18.33
   9  10  -4  131.75   20.33
  -9 -10  -4   61.06   35.68
  -9  10   4   84.07   22.34
   9 -10   4  129.37   22.10
  -9 -10  -4   45.72   25.58
   9  10   4   85.84   27.27
   9 -10  -4  117.99   28.97
   9 -10  -4   51.26   26.77
  -9  10  -4   97.95   19.16
   9  11  -4    4.78   18.05
  -9 -11  -4  -19.47   27.32
  -9  11   4   -2.66   24.70
  -9 -11  -4    9.86   31.43
   9  11   4    7.54   22.68
   9 -11  -4  -44.24   28.81
  -9  11  -4   -2.71   19.40
  -9 -12  -4  -77.96   40.15
   9  12  -4   23.35   19.70
  -9 -12  -4  -25.82   29.43
  -9  12   4  -15.69   26.92
   9 -12  -4  -38.59   31.07
   9 -12  -4  -13.67   37.67
  -9  12  -4   18.10   20.81
   9  12   4  -10.34   24.79
   9  13  -4   34.95   21.68
  -9 -13  -4   24.36   34.72
  -9  13   4  -15.31   29.43
   9 -13  -4  -35.65   30.99
   9  13   4   -2.40   26.23
   9 -13  -4  -19.61   34.42
  -9  13  -4   11.76   22.10
  -9 -14  -4   30.27   37.56
  -9  14   4  -50.31   31.98
   9  14  -4    1.95   24.13
   9  14   4   23.80   28.94
   9 -14  -4  -12.85   34.75
   9 -14  -4   11.30   42.71
  -9  14  -4  -15.52   24.16
   9   0   5  327.57   23.35
  -9   0  -5  336.84   29.77
  -9   0  -5  336.24   26.46
   9   0  -5  308.08   21.91
  -9  -1  -5   22.44   14.00
   9   1  -5   25.04    8.62
  -9  -1  -5   11.88   13.01
  -9   1  -5   33.65   14.68
   9   1   5   27.67   11.39
   9  -1  -5    4.85   10.40
  -9   1  -5   24.64   12.73
   9   2  -5  127.37   14.33
  -9  -2  -5  130.56   25.66
  -9   2   5  121.03   17.86
  -9  -2  -5  126.34   20.88
   9   2   5  131.45   17.26
   9  -2  -5  138.08   17.42
  -9   2  -5  113.50   23.40
   9  -2  -5  156.13   25.67
  -9   2  -5  131.40   20.26
  -9  -3  -5   -3.05   12.72
  -9  -3  -5   13.35   14.55
   9   3  -5    9.56    8.40
  -9   3   5    1.80   11.74
   9   3   5   10.91   10.53
   9  -3  -5   13.62   12.71
   9  -3  -5   16.24   12.54
  -9   3  -5    4.17   12.02
  -9   3  -5   11.26   13.98
  -9   4   5   61.31   13.53
  -9  -4  -5   43.51   16.25
  -9  -4  -5   40.00   16.03
   9   4   5   48.46   11.84
   9  -4  -5   34.29   14.04
  -9   4  -5   36.41   13.51
  -9   4  -5   37.74   15.54
   9  -4  -5   45.42   14.01
  -9   5   5   33.56   14.16
   9  -5   5   -3.98   22.91
  -9  -5  -5   34.92   18.52
   9  -5   5   -1.37   15.61
  -9  -5  -5    3.40   15.78
   9   5   5   28.73   12.73
   9  -5  -5   27.48   15.52
   9  -5  -5    8.80   14.22
  -9   5  -5   -3.26   11.22
  -9   5  -5   -0.30   14.20
  -9   5  -5    7.58   15.90
   9  -6   5  133.84   19.27
   9  -6   5  151.98   26.38
  -9  -6  -5  158.74   32.73
  -9   6   5  177.48   21.88
  -9  -6  -5  175.24   27.15
  -9   6  -5  159.78   18.72
  -9   6  -5  165.40   31.46
   9  -6  -5  198.75   24.90
  -9   6  -5  185.13   26.23
   9  -6  -5  162.01   32.18
   9   6   5  162.72   20.34
  -9   7   5  152.40   23.14
   9  -7   5  194.89   30.52
  -9  -7  -5  212.35   29.31
   9   7  -5  171.44   18.40
  -9   7  -5  165.92   33.61
  -9   7  -5  223.66   27.12
   9  -7  -5  125.91   21.91
   9  -7  -5  173.87   27.90
   9   7   5  154.80   21.79
  -9   7  -5  171.77   19.38
  -9  -8  -5  -10.07   19.80
   9  -8   5    9.56   16.71
  -9  -8  -5   18.66   26.46
   9   8  -5    4.01   13.54
  -9   8   5   22.02   18.92
  -9   8  -5    3.38   25.23
  -9   8  -5   -3.13   12.76
   9  -8  -5    7.50   19.48
  -9   8  -5   47.18   19.50
   9  -8  -5   18.88   22.63
   9   8   5   21.13   16.77
  -9   9   5  234.72   27.48
   9   9  -5  190.36   20.87
  -9  -9  -5  226.07   36.87
   9  -9  -5  149.96   33.36
   9   9   5  235.23   25.92
  -9   9  -5  196.61   31.79
   9  10  -5  -20.34   16.06
  -9 -10  -5  -39.40   24.51
  -9  10   5   21.05   23.07
  -9 -10  -5   -5.93   36.67
  -9  10  -5    3.80   16.45
   9  10   5    4.62   27.14
   9 -10  -5  -22.71   24.84
  -9  11   5    1.21   27.72
  -9 -11  -5   14.77   27.56
  -9 -11  -5   53.06   42.45
   9  11  -5   33.06   18.25
   9 -11  -5  -38.12   33.15
   9  11   5   35.83   24.05
  -9  11  -5   60.32   19.60
   9 -11  -5   -5.50   29.99
  -9 -12  -5   -3.11   50.17
   9  12  -5  -11.05   19.64
  -9  12   5  -24.46   28.90
  -9 -12  -5   -1.87   30.42
  -9  12  -5    3.29   21.02
   9 -12  -5  -31.19   33.00
   9 -12  -5  -63.86   37.86
   9  12   5  -26.90   25.64
  -9 -13  -5  -10.53   32.63
  -9 -13  -5    4.81   56.24
   9  13  -5    5.30   23.99
  -9  13   5  -22.25   32.01
   9  13   5  -13.46   27.73
   9 -13  -5  -34.97   31.38
   9 -13  -5  -21.80   42.87
  -9  13  -5  -13.81   21.86
   9  14  -5   -8.68   26.62
  -9  14   5  -18.32   35.15
   9  14   5  -16.70   30.36
  -9  14  -5   -0.70   23.71
   9   0  -6   -0.56   10.92
  -9   0  -6   10.09   14.43
   9   0   6    4.93   20.67
  -9   0  -6    0.43   12.55
   9   0  -6   25.69    9.06
  -9  -1  -6  291.08   25.69
  -9  -1  -6  252.53   29.68
   9   1  -6  273.00   19.44
   9  -1  -6  266.81   22.10
  -9   1  -6  289.40   29.35
   9   1   6  271.82   21.81
  -9   1  -6  307.35   25.72
   9  -1  -6  262.76   29.01
  -9  -2  -6   95.49   17.12
  -9  -2  -6   61.68   15.28
   9   2  -6   75.94   13.03
  -9   2  -6   76.18   13.71
   9   2   6   89.28   14.13
   9  -2  -6   99.95   15.52
   9  -2  -6   98.89   17.36
  -9   2  -6  122.82   16.75
  -9  -3  -6  149.28   29.33
  -9  -3  -6  185.59   24.23
  -9   3   6  231.60   27.85
   9   3   6  186.91   19.79
   9  -3  -6  163.87   20.90
  -9   3  -6  170.80   26.84
   9  -3  -6  200.62   28.76
  -9   3  -6  205.46   22.98
  -9   4   6   12.23   17.93
  -9  -4  -6   20.95   18.23
  -9  -4  -6  -13.10   15.68
   9   4   6   -0.32   12.38
   9  -4  -6   19.67   15.00
  -9   4  -6   29.85   15.96
   9  -4  -6   30.37   14.13
  -9   4  -6   27.05   14.00
  -9   5   6  135.32   21.77
  -9  -5  -6   77.01   18.74
   9  -5   6  114.87   18.91
  -9  -5  -6  148.99   22.31
   9  -5   6   84.10   17.91
   9  -5  -6  166.03   22.62
  -9   5  -6  125.80   19.40
   9  -5  -6   94.22   17.62
  -9   5  -6  182.68   29.90
   9   5   6  134.75   19.27
  -9  -6  -6  203.23   28.01
  -9  -6  -6  100.03   20.63
   9  -6   6  161.22   30.16
  -9   6   6  137.22   23.66
   9   6   6  165.94   21.38
  -9   6  -6  174.92   26.34
   9  -6  -6  131.94   20.48
  -9   6  -6  145.89   18.34
  -9   6  -6  189.66   33.34
   9  -6  -6  204.45   26.62
  -9  -7  -6   71.33   24.56
  -9  -7  -6   46.54   21.34
  -9   7   6   70.00   19.13
  -9   7  -6   92.46   20.62
  -9   7  -6   57.88   13.29
   9   7   6   62.70   16.66
   9  -7  -6  107.17   22.53
  -9   7  -6   76.91   20.01
   9  -7  -6   64.36   18.76
  -9  -8  -6  314.33   49.54
  -9   8   6  298.89   30.82
   9   8  -6  312.45   24.63
  -9  -8  -6  323.80   36.87
   9   8   6  295.23   28.93
  -9   8  -6  346.74   25.77
   9  -8  -6  408.89   41.61
  -9   8  -6  296.97   38.37
   9  -8  -6  369.09   34.38
  -9   9   6  -24.92   21.79
  -9  -9  -6  -24.86   23.76
  -9  -9  -6   -4.60   31.31
   9   9  -6  -26.67   15.22
  -9   9  -6   -0.82   14.59
   9  -9  -6  -28.15   24.89
   9   9   6  -20.60   19.85
  -9  10   6  117.84   26.08
  -9 -10  -6   61.12   27.46
  -9 -10  -6  152.85   51.37
   9  10  -6   56.72   17.58
   9  10   6   77.58   26.00
   9 -10  -6   89.96   30.04
   9 -10  -6  139.51   32.14
  -9  11   6  -42.87   34.42
  -9 -11  -6  -45.49   45.41
  -9 -11  -6  -35.08   27.68
   9 -11  -6    2.69   33.44
   9  11   6   -7.80   25.53
  -9  11  -6   12.62   17.85
   9 -11  -6  -31.47   31.67
  -9 -12  -6  -10.70   30.62
  -9  12   6  -20.65   31.39
   9  12  -6    3.71   21.02
  -9 -12  -6  -33.34   42.04
   9  12   6    8.44   27.96
   9 -12  -6  -31.76   37.38
   9 -12  -6  -45.38   32.78
  -9  12  -6   18.70   21.09
  -9 -13  -6   -8.63   34.36
  -9 -13  -6   11.04   55.56
   9  13  -6  -18.38   27.04
  -9  13   6  -36.29   32.69
   9  13   6   33.04   30.87
  -9  13  -6   -5.78   21.76
   9 -13  -6  -24.17   32.02
   9 -13  -6   10.59   44.65
   9   0  -7  375.31   33.81
  -9   0  -7  403.16   30.04
   9   0  -7  344.81   26.26
  -9   0  -7  404.02   34.85
   9   1  -7   95.01   13.83
   9   1  -7   80.49   14.09
  -9  -1  -7   51.43   16.63
  -9  -1  -7  103.77   17.73
  -9   1  -7   94.81   16.98
   9  -1  -7   78.32   14.84
   9  -1  -7  106.84   17.84
  -9   1  -7   67.48   15.09
   9   1   7   97.19   19.96
  -9  -2  -7  278.53   33.60
  -9  -2  -7  257.86   27.37
   9   2  -7  256.78   19.37
   9   2   7  246.13   33.29
  -9   2  -7  292.05   26.57
   9  -2  -7  276.72   31.45
   9  -2  -7  249.88   23.90
  -9   2  -7  285.85   30.36
  -9  -3  -7  190.70   26.85
  -9  -3  -7  173.60   32.86
   9  -3  -7  232.33   30.46
   9   3   7  185.20   22.96
   9  -3  -7  212.78   22.41
  -9   3  -7  223.79   24.49
  -9   3  -7  194.95   28.84
  -9  -4  -7   25.70   19.30
  -9  -4  -7    3.13   18.69
   9  -4   7    2.30   15.37
   9   4   7   16.37   14.13
  -9   4  -7    8.15   14.62
  -9   4  -7   22.64   16.44
   9  -4  -7   16.07   16.00
   9  -4  -7   31.88   15.49
  -9  -5  -7   24.63   18.92
   9  -5   7   54.78   16.53
  -9  -5  -7   50.62   21.08
   9  -5  -7   82.98   18.59
  -9   5  -7   58.72   26.73
   9  -5  -7   56.11   17.71
   9   5   7   54.27   15.43
  -9   5  -7   44.71   18.09
  -9  -6  -7  113.44   23.53
  -9  -6  -7   65.30   20.15
  -9   6  -7   97.32   16.41
   9  -6  -7   81.77   18.92
  -9   6  -7  121.57   18.86
  -9   6  -7  102.78   20.35
   9   6   7  103.02   17.17
   9  -6  -7  118.31   21.55
  -9  -7  -7  258.51   41.56
  -9  -7  -7  282.21   33.91
   9  -7  -7  356.18   33.30
   9  -7  -7  278.47   38.69
  -9   7  -7  304.41   31.13
  -9   7  -7  335.83   37.90
   9   7   7  253.47   27.30
  -9   7  -7  278.86   23.61
  -9  -8  -7  -16.42   27.75
  -9  -8  -7  -34.08   24.56
  -9   8  -7   38.76   21.52
  -9   8  -7  -32.57   19.37
   9   8   7    7.76   18.66
   9  -8  -7   49.37   45.67
  -9   8  -7   -3.74   16.32
  -9  -9  -7  152.88   51.66
  -9   9  -7  252.86   22.45
   9   9   7  212.72   28.60
  -9 -10  -7  -12.03   36.94
   9 -10  -7  -30.84   29.61
  -9  10  -7   -6.33   15.29
   9  10   7    8.16   27.44
   9 -10  -7  -30.68   28.08
  -9 -11  -7   18.28   44.62
   9  11  -7  -22.56   18.48
  -9 -11  -7  -14.27   27.85
   9 -11  -7   -8.62   29.90
   9  11   7   11.06   27.73
  -9  11  -7   15.10   17.08
   9 -11  -7   22.22   33.22
  -9 -12  -7  -34.76   30.95
   9  12  -7  -26.00   20.90
  -9 -12  -7   -9.83   53.29
   9 -12  -7  -44.70   32.72
   9 -12  -7  -24.50   38.25
   9  12   7    2.88   30.49
  -9  12  -7   -2.90   19.72
  -9 -13  -7   38.78   52.66
  -9 -13  -7  -31.31   33.70
   9  13  -7  -21.59   24.81
   9  13   7   -6.26   33.96
   9 -13  -7   13.85   33.05
  -9  13  -7    7.84   22.58
  -9   0  -8    8.78   16.55
   9   0  -8   22.06   15.59
   9   0  -8   11.88   13.10
  -9   0  -8   18.95   17.33
  -9  -1  -8  313.79   36.63
   9   1  -8  307.05   33.76
   9   1  -8  338.14   25.85
  -9  -1  -8  362.71   30.71
   9  -1  -8  332.56   34.36
   9  -1  -8  333.41   27.00
  -9   1  -8  373.52   29.59
  -9   1  -8  377.04   34.94
   9   2  -8  335.92   22.02
  -9  -2  -8  299.56   30.74
  -9  -2  -8  318.08   37.64
   9   2  -8  301.99   39.24
   9  -2  -8  301.81   26.60
   9  -2  -8  314.06   34.01
  -9   2  -8  341.70   28.78
  -9   2  -8  325.51   33.89
  -9  -3  -8   80.76   20.80
  -9  -3  -8   35.95   19.05
   9   3  -8   47.41   15.46
   9   3   8   -6.17   20.47
  -9   3  -8   43.06   15.42
   9  -3  -8   68.61   16.52
  -9  -4  -8   23.56   20.63
  -9  -4  -8   -8.72   19.46
  -9   4  -8   19.93   17.68
   9  -4  -8   56.04   17.88
   9   4   8   21.70   14.90
   9  -4  -8   43.57   17.22
  -9  -5  -8   40.57   21.80
  -9  -5  -8   23.36   21.82
   9  -5  -8   41.41   19.17
  -9   5  -8   41.68   17.67
   9   5   8   16.32   15.87
   9  -5  -8   46.25   17.54
  -9   5  -8   51.75   17.24
  -9  -6  -8  107.19   25.16
  -9  -6  -8  136.03   27.22
  -9   6  -8  190.98   34.00
   9   6   8   97.36   19.30
  -9   6  -8  146.78   26.69
  -9  -7  -8   22.95   27.59
  -9   7  -8  -25.43   21.22
   9   7   8    5.84   18.46
   9  -7  -8    2.64   21.88
  -9   7  -8   17.37   19.11
   9  -7  -8   23.04   29.23
  -9  -8  -8  301.95   46.49
  -9  -8  -8  234.40   37.88
  -9   8  -8  264.33   34.17
   9   8   8  255.37   29.34
   9  -8  -8  352.36   35.74
   9  -8  -8  273.57   45.87
  -9   8  -8  285.73   24.36
  -9  -9  -8    7.98   34.00
  -9  -9  -8  -44.16   26.24
   9  -9  -8   10.16   27.43
   9   9   8  -38.45   22.68
  -9   9  -8    4.95   14.24
   9  -9  -8  -29.29   27.01
  -9   9  -8   21.49   23.92
   9  10  -8   49.80   17.38
  -9 -10  -8   44.60   39.13
  -9 -10  -8  -18.08   26.20
   9 -10  -8   38.66   29.55
  -9  10  -8   31.01   15.03
   9 -10  -8   46.46   30.76
   9  10   8   16.16   28.48
  -9 -11  -8  -13.70   27.90
  -9 -11  -8  -68.64   42.72
   9  11  -8  -14.21   18.38
   9 -11  -8   -3.88   34.23
   9 -11  -8  -38.78   30.47
   9  11   8   14.79   29.73
  -9  11  -8   -6.72   17.23
   9  12  -8  -14.08   21.33
  -9 -12  -8   -3.89   55.33
  -9 -12  -8  -20.28   31.16
  -9  12  -8    5.71   20.09
   9 -12  -8  -43.14   38.12
   9 -12  -8  -40.44   32.03
   9  12   8  -15.25   30.80
  -9   0  -9  210.13   26.56
   9   0  -9  178.90   21.77
   9   0  -9  161.76   32.31
  -9   0  -9  174.09   34.13
  -9  -1  -9   91.68   20.42
  -9  -1  -9   53.87   19.14
   9   1  -9   57.67   17.09
   9   1  -9   84.88   15.02
   9  -1  -9   60.19   18.48
  -9   1  -9   72.89   18.97
  -9   1  -9   45.84   17.18
   9  -1  -9   83.25   16.22
  -9  -2  -9  128.64   23.20
  -9  -2  -9   68.67   21.11
   9   2  -9  131.21   18.82
  -9   2  -9  119.04   19.79
   9  -2  -9  112.03   18.95
   9  -2  -9  130.42   21.41
  -9   2  -9   93.10   18.31
  -9  -3  -9    5.88   20.95
  -9  -3  -9   46.31   21.46
   9   3  -9   12.02   19.04
   9   3   9   37.69   19.73
  -9   3  -9   31.97   18.15
   9  -3  -9   44.24   17.07
   9  -3  -9   24.22   17.35
  -9   3  -9    6.36   19.61
  -9  -4  -9   -7.68   21.94
  -9  -4  -9    5.63   22.07
  -9   4  -9   -7.06   17.37
  -9   4  -9    8.87   16.63
   9  -4  -9   11.25   18.57
   9   4   9   32.30   19.38
   9  -4  -9   -6.81   18.19
  -9  -5  -9   58.60   23.86
  -9  -5  -9   67.98   25.38
   9  -5  -9   69.83   19.70
   9  -5  -9   95.11   22.34
  -9   5  -9   84.18   19.28
  -9   5  -9  109.59   19.76
  -9  -6  -9  -23.78   29.95
  -9  -6  -9  -14.92   36.22
  -9   6  -9   23.07   19.18
  -9   6  -9  -22.01   19.87
   9  -6  -9  -16.20   20.03
   9  -6  -9   23.46   23.31
  -9  -7  -9  211.03   35.81
  -9  -7  -9  298.83   47.81
  -9   7  -9  194.91   31.70
  -9   7  -9  206.24   20.41
   9  -7  -9  127.19   41.33
  -9  -8  -9  -43.66   29.07
  -9  -8  -9  -36.95   25.22
  -9   8  -9    3.31   30.32
   9  -8  -9  -13.07   25.07
  -9   8  -9  -18.27   13.23
   9   8   9  -11.79   17.80
  -9  -9  -9   57.49   32.16
  -9  -9  -9   38.05   27.40
  -9   9  -9   76.87   25.70
  -9   9  -9   58.06   14.94
   9  -9  -9   50.97   27.41
   9  -9  -9  103.81   29.38
  -9 -10  -9  -26.76   28.92
  -9 -10  -9   10.02   35.79
  -9  10  -9  -13.51   14.32
   9 -10  -9   -5.73   29.62
   9  10   9    7.14   29.99
   9 -10  -9  -13.89   30.75
  -9 -11  -9  -37.76   45.53
   9  11  -9  -12.81   17.40
  -9 -11  -9  -26.92   31.55
  -9  11  -9  -10.60   16.93
   9 -11  -9  -21.90   32.08
   9  11   9  -17.37   26.56
   9 -11  -9  -40.18   32.82
   9  12  -9    0.89   20.55
  -9 -12  -9    7.82   32.02
   9 -12  -9  -17.66   31.50
   9  12   9  -40.15   30.46
  -9  12  -9   -2.86   19.21
  -9   0 -10   -9.28   18.88
  -9   0 -10   -0.33   19.29
   9   0 -10    6.70   15.18
   9   0 -10   11.95   17.21
   9   1 -10   20.23   15.47
   9   1 -10   12.26   18.55
  -9  -1 -10   15.01   20.27
  -9  -1 -10   -3.10   20.36
   9  -1 -10   21.71   19.11
  -9   1 -10   15.67   18.25
   9  -1 -10   25.06   15.89
  -9   1 -10   22.88   17.83
  -9  -2 -10    6.86   21.89
   9   2 -10   15.02   15.07
  -9  -2 -10  -17.99   21.22
  -9   2 -10   22.76   19.53
  -9   2 -10   -1.28   18.35
   9  -2 -10    2.18   19.22
   9  -2 -10   21.45   17.34
   9   3 -10    1.55   14.56
  -9  -3 -10  -12.22   22.77
  -9  -3 -10  -15.02   23.49
  -9   3 -10  -13.61   16.32
   9  -3 -10  -20.02   18.86
  -9   3 -10  -25.60   19.13
   9  -3 -10    7.62   18.86
  -9  -4 -10   78.91   40.72
  -9  -4 -10   86.66   26.04
   9  -4 -10   95.84   38.41
   9  -4 -10   99.07   21.96
  -9   4 -10  107.33   20.58
  -9  -5 -10   28.67   27.44
  -9  -5 -10  -22.38   27.80
  -9   5 -10   17.94   20.16
   9  -5 -10   48.19   23.60
   9  -5 -10   26.23   22.39
  -9   5 -10   21.59   18.95
  -9  -6 -10  124.58   29.40
  -9  -6 -10  108.06   31.36
   9  -6 -10  155.59   29.02
  -9   6 -10  178.47   34.87
  -9   6 -10  146.04   25.46
   9  -6 -10  210.50   31.21
  -9  -7 -10   -7.44   27.21
  -9  -7 -10    7.70   28.08
   9   7  10  -11.01   25.59
  -9   7 -10  -22.45   27.29
   9  -7 -10   53.94   25.97
   9  -7 -10  -16.14   27.14
  -9  -8 -10   42.72   27.83
  -9  -8 -10   30.97   30.53
   9  -8 -10   59.22   28.02
   9   8  10   57.75   24.39
  -9   8 -10   39.91   26.80
   9  -8 -10   31.22   29.28
  -9   8 -10   43.72   14.71
  -9  -9 -10   -5.35   31.22
  -9  -9 -10  -32.10   32.66
   9   9  10  -26.50   26.06
   9  -9 -10  -13.84   31.03
  -9   9 -10  -13.32   14.06
  -9   9 -10   -7.03   26.01
   9  -9 -10  -39.49   27.58
  -9 -10 -10    2.37   29.86
  -9 -10 -10   20.10   37.31
   9 -10 -10    6.58   32.18
   9  10  10  -53.38   42.15
   9 -10 -10  -52.35   33.19
  -9  10 -10    0.22   14.42
  -9 -11 -10  -23.28   30.33
  -9 -11 -10  -19.69   42.91
   9 -11 -10  -27.05   32.58
  -9  11 -10  -17.27   16.47
  -9   0 -11    6.97   22.96
   9   0 -11    4.57   17.59
  -9   0 -11   -7.15   21.12
   9   0 -11   16.57   21.08
  -9  -1 -11   38.82   23.15
   9   1 -11   52.97   17.86
   9   1 -11   46.02   20.82
   9  -1 -11   45.13   21.27
   9  -1 -11   60.38   19.29
  -9   1 -11   55.58   20.78
  -9   1 -11   40.69   21.32
  -9  -2 -11   -1.19   24.46
  -9  -2 -11   -8.94   24.86
   9   2 -11   20.98   16.60
  -9   2 -11   16.10   19.63
  -9   2 -11  -13.94   19.89
   9  -2 -11  -31.17   21.57
   9  -2 -11   18.34   21.99
  -9  -3 -11  249.17   49.96
  -9  -3 -11  251.41   36.33
   9   3 -11  280.38   26.48
  -9   3 -11  272.05   38.30
   9  -3 -11  263.85   31.31
  -9   3 -11  212.66   30.10
   9  -3 -11  328.62   52.35
  -9  -4 -11   15.37   27.12
   9   4 -11   24.11   26.60
  -9  -4 -11   11.68   29.51
  -9   4 -11    3.03   26.17
   9  -4 -11   33.84   23.07
  -9   4 -11    7.36   20.31
   9  -4 -11   37.16   23.00
  -9  -5 -11  198.87   37.14
  -9  -5 -11  131.20   33.04
  -9   5 -11  253.96   41.17
   9  -5 -11  175.85   29.22
   9  -5 -11  226.94   31.98
  -9  -6 -11   -3.64   30.05
  -9  -6 -11   28.57   30.84
   9  -6 -11    0.59   28.57
   9  -6 -11   66.87   25.85
  -9   6 -11   34.86   23.85
  -9  -7 -11   -1.31   31.62
  -9  -7 -11    4.87   31.00
   9  -7 -11   32.65   30.77
   9  -7 -11   38.58   26.04
  -9   7 -11   57.19   26.90
  -9  -8 -11  -36.34   33.11
  -9  -8 -11   -2.23   31.88
   9  -8 -11  -23.86   29.62
  -9   8 -11  -14.16   26.69
   9  -8 -11  -15.53   27.29
  -9   8 -11    9.20   13.43
  -9  -9 -11  -17.29   34.07
  -9  -9 -11  -12.16   33.42
  -9   9 -11   16.72   28.85
   9  -9 -11  -14.71   30.07
   9  -9 -11  -18.48   30.73
  -9   9 -11    8.57   14.40
  -9 -10 -11    3.20   33.59
  -9 -10 -11   -4.22   37.35
   9 -10 -11   -4.17   30.88
   9 -10 -11  -35.25   32.22
  -9  10 -11   -8.17   14.90
  -9   0 -12   20.88   25.24
   9   0 -12   17.79   27.23
   9   0 -12  -13.91   24.20
  -9   0 -12   13.36   23.33
  -9  -1 -12   23.56   27.79
   9   1 -12   26.23   20.52
  -9  -1 -12   36.00   24.31
   9  -1 -12    3.49   22.35
  -9   1 -12   18.43   22.82
   9  -1 -12   50.91   26.08
  -9   1 -12    1.01   23.53
   9   2 -12  268.31   28.15
  -9  -2 -12  161.78   33.05
  -9  -2 -12  248.32   35.84
  -9   2 -12  223.43   30.90
   9  -2 -12  241.88   30.57
   9  -2 -12  326.98   46.63
  -9   2 -12  267.75   43.10
   9   3 -12   33.33   19.59
  -9  -3 -12   12.31   27.98
  -9  -3 -12    2.13   33.20
   9  -3 -12  -22.23   26.50
  -9   3 -12   16.72   21.59
  -9   3 -12   15.69   23.00
   9  -3 -12   33.44   23.27
  -9  -4 -12  271.59   40.71
   9   4 -12  280.12   28.56
  -9   4 -12  244.62   32.29
   9  -4 -12  287.39   33.51
  -9  -5 -12   45.09   33.09
  -9  -5 -12    6.65   34.04
  -9   5 -12   50.65   23.69
   9  -5 -12   78.20   25.89
  -9  -6 -12   -4.01   34.70
  -9  -6 -12   38.23   31.52
   9  -6 -12   67.87   31.33
   9  -6 -12   50.70   27.33
  -9   6 -12   62.73   25.67
  -9  -7 -12   15.18   32.84
  -9   7 -12   35.72   28.33
   9  -7 -12   -4.03   30.24
   9  -7 -12    9.75   26.86
  -9  -8 -12   -1.22   33.47
  -9  -8 -12  -31.71   37.00
   9  -8 -12   13.33   31.69
   9  -8 -12    9.19   28.32
  -9   8 -12   18.06   30.94
  -9   8 -12    6.29   14.02
  -9  -9 -12    0.65   35.94
  -9  -9 -12  -15.22   35.22
   9  -9 -12  -55.24   32.17
   9  -9 -12   19.69   29.14
  -9   9 -12   -4.22   14.76
  -9   9 -12    3.05   30.99
  -9   0 -13   24.28   29.73
  -9   0 -13  -10.05   24.88
   9   0 -13   22.66   22.54
   9   1 -13   79.76   23.65
  -9  -1 -13   52.64   27.66
  -9  -1 -13   57.23   32.49
  -9   1 -13   80.32   30.42
   9  -1 -13  117.29   33.51
  -9   1 -13   79.06   25.52
   9  -1 -13  119.62   24.60
  -9  -2 -13  -32.92   27.61
   9   2 -13  -43.04   34.20
   9  -2 -13   85.97   31.50
  -9   2 -13   20.81   27.32
   9  -2 -13   61.15   23.86
  -9   2 -13  -23.94   23.46
  -9  -3 -13  238.07   39.83
  -9  -3 -13  171.81   40.31
   9  -3 -13  243.47   32.25
   9  -3 -13  325.45   55.47
  -9   3 -13  220.86   33.07
  -9  -4 -13   -3.53   36.76
  -9  -4 -13   -4.56   32.96
   9  -4 -13   55.98   51.79
   9  -4 -13   32.26   24.99
  -9   4 -13    4.45   24.51
  -9  -5 -13   83.45   40.91
  -9  -5 -13   81.66   36.01
   9  -5 -13  107.59   28.43
   9  -5 -13   81.92   33.17
  -9   5 -13  109.92   26.43
  -9  -6 -13   38.94   34.33
  -9  -6 -13  -18.27   39.86
   9  -6 -13   -4.30   32.80
   9  -6 -13   18.03   27.43
  -9   6 -13    0.43   27.48
  -9  -7 -13  -48.68   40.21
  -9  -7 -13   -2.62   35.15
   9  -7 -13   -5.19   33.01
  -9   7 -13   38.86   31.55
   9  -7 -13    3.74   29.05
  -9  -8 -13   20.90   36.84
  -9  -8 -13  -39.34   40.83
   9  -8 -13  -10.58   33.85
  -9   8 -13   16.65   33.30
   9  -8 -13   22.83   28.73
  -9   8 -13   -0.30   14.31
  -9   0 -14    5.72   37.10
   9   0 -14  -15.58   24.43
  -9   0 -14   -8.66   26.85
   9   1 -14    6.12   23.85
  -9  -1 -14  -14.44   27.72
   9  -1 -14    8.02   24.81
  -9   1 -14   -9.89   26.34
  -9   1 -14  -16.74   34.00
  -9  -2 -14  154.61   41.87
   9   2 -14   99.05   25.47
  -9  -2 -14  104.59   30.89
   9  -2 -14   72.23   42.56
   9  -2 -14   92.07   26.54
  -9   2 -14   76.91   27.86
  -9  -3 -14   38.09   40.79
   9   3 -14   -6.99   25.76
  -9  -3 -14   25.26   31.86
   9  -3 -14   34.00   51.49
   9  -3 -14   27.75   26.72
  -9   3 -14   35.36   27.92
  -9  -4 -14  105.61   36.35
  -9  -4 -14  106.20   43.38
  -9   4 -14   94.36   28.04
   9  -4 -14   57.96   39.44
   9  -4 -14   86.99   28.72
  -9  -5 -14  -21.02   42.79
  -9  -5 -14  -14.95   35.59
   9  -5 -14   17.98   27.77
  -9   5 -14   51.58   28.10
   9  -5 -14  -13.00   37.62
  -9  -6 -14  -82.84   44.43
  -9  -6 -14    8.90   36.61
   9  -6 -14   65.41   30.18
   9  -6 -14  -34.35   36.23
  -9   6 -14  -17.85   30.56
   9   0 -15   17.55   28.05
  -9   0 -15   76.19   53.37
  -9   0 -15   -6.96   29.73
  -9  -1 -15  -24.28   31.06
   9   1 -15   -4.63   27.38
  -9  -1 -15   99.80   43.64
  -9   1 -15  -29.73   28.85
   9  -1 -15   28.87   27.95
   9   2 -15  -13.87   28.58
  -9  -2 -15  109.04   45.62
  -9  -2 -15  -12.73   31.93
  -9   2 -15   -8.39   29.29
   9  -2 -15   30.55   27.60
   9   3 -15    2.30   29.29
  -9  -3 -15  138.50   49.59
  -9  -3 -15   -8.37   34.12
  -9   3 -15   -9.46   29.54
   9  -3 -15   57.24   29.00
  -9  -4 -15   72.67   48.02
  -9  -4 -15  -12.72   35.51
   9  -4 -15   33.12   29.43
  -9   4 -15    7.45   30.19
   9  -4 -15   51.64   44.40
 -10   0   0  147.13   23.36
 -10   0   0  113.66   20.28
 -10   0   0  114.78   14.28
  10   0   0  113.68   14.68
 -10   1   0 1001.74   53.11
 -10   1   0  965.34   56.13
 -10  -1   0 1004.30   56.81
 -10   1   0  947.75   57.28
  10   1   0  871.20   53.12
  10  -1   0  890.98   53.03
 -10  -1   0  958.28   55.78
 -10   2   0  135.53   15.67
  10   2   0  139.96   15.93
 -10  -2   0  158.02   15.50
 -10   2   0  143.88   22.15
 -10   2   0  126.99   15.90
 -10  -2   0  132.02   23.34
 -10  -2   0  167.22   21.05
  10   3   0 1074.04   64.11
 -10   3   0 1263.81   64.77
 -10  -3   0 1159.73   64.49
 -10   3   0 1117.72   67.58
 -10   3   0 1191.79   66.84
 -10  -3   0 1153.11   66.32
 -10  -3   0 1152.96   67.23
  10  -4   0   47.96   13.03
 -10  -4   0   61.28   12.96
 -10  -4   0   74.77   15.93
 -10   4   0   83.17   12.92
 -10  -4   0   64.09   10.79
  10  -4   0   78.00   13.71
  10   4   0   77.16   11.55
 -10   4   0  100.34   16.38
 -10   4   0   86.15   14.44
  10  -5   0  811.80   51.86
 -10   5   0  732.95   44.57
 -10   5   0  773.78   46.48
  10  -5   0  706.65   45.98
 -10  -5   0  725.72   47.13
 -10   5   0  744.10   48.02
  10   5   0  728.24   43.81
 -10  -5   0  775.97   48.21
 -10   6   0   84.83   15.81
  10   6   0   76.86   14.05
 -10  -6   0   43.05   15.44
 -10  -6   0   88.45   18.46
  10  -6   0  101.76   18.84
  10  -6   0   60.12   18.21
  10   7   0    8.34   14.78
  10  -7   0   19.59   17.52
 -10  -7   0    7.84   19.88
 -10   7   0   19.78   14.95
  10  -7   0   19.34   20.14
 -10  -7   0   -0.51   16.14
  10   8   0  -33.31   15.57
 -10   8   0  -24.85   16.19
  10  -8   0  -11.27   22.08
  10  -8   0  -21.45   18.47
 -10  -8   0    4.23   19.91
 -10  -9   0    0.69   22.62
  10   9   0    6.65   17.84
 -10  -9   0  -17.32   18.84
  10  -9   0    5.41   20.28
  10  -9   0   61.17   25.56
 -10   9   0    0.73   17.86
  10 -10   0  -27.33   27.71
 -10 -10   0  -29.73   21.74
  10  10   0   16.94   19.74
 -10  10   0  -29.94   23.29
  10  11   0   46.62   22.43
 -10  11   0   46.33   21.67
  10 -11   0   -8.52   26.66
 -10  12   0   13.76   22.51
  10  12   0   -3.09   23.20
  10 -12   0  -22.75   30.03
 -10 -12   0  -29.49   29.61
 -10  13   0    6.41   23.68
  10 -13   0    3.85   32.46
  10  13   0   23.82   24.13
  10  14   0   -3.85   25.72
 -10  14   0   -4.50   26.06
  10 -14   0   13.08   34.31
 -10   0   1  459.32   27.87
 -10   0  -1  376.11   27.28
 -10   0   1  385.34   30.92
  10   0   1  424.55   26.97
  10   0  -1  489.87   27.06
 -10   1   1   75.14   15.97
 -10  -1  -1   50.85   12.61
 -10  -1  -1   67.66   10.43
 -10  -1  -1   60.31   14.57
 -10   1   1   85.58   11.59
  10   1  -1   60.57   10.88
 -10   1   1   54.86   13.04
  10  -1   1   65.91   10.39
 -10   1  -1   47.82   12.82
 -10   1  -1   47.75   15.36
 -10  -1   1   58.27   15.20
 -10  -1   1   67.10   10.53
 -10   1  -1   57.60   10.64
  10  -1  -1   76.92   10.41
 -10  -1   1   55.52   12.12
  10   1   1   71.05   11.26
 -10   2   1  860.27   55.32
 -10  -2  -1  923.62   55.53
 -10   2   1  961.76   52.12
 -10  -2  -1  897.96   54.00
 -10   2   1  897.38   53.91
 -10  -2  -1  973.55   51.75
  10   2  -1  858.15   51.60
 -10   2  -1  922.41   54.73
 -10   2  -1  978.19   51.92
 -10   2  -1  955.74   56.38
 -10  -2   1  944.39   54.99
  10   2   1  866.20   51.73
 -10  -2   1  957.48   54.21
 -10  -2   1  867.96   51.69
 -10  -3  -1   10.40   13.72
  10   3  -1    1.19    9.32
 -10  -3  -1   11.93   11.16
 -10  -3  -1    0.90   11.79
 -10   3   1   10.42   11.25
 -10   3   1   -3.72   14.15
 -10   3   1    8.43   11.04
 -10  -3   1    9.58   14.69
 -10   3  -1    6.67   16.03
 -10   3  -1   -5.86   12.15
 -10  -3   1    0.34   11.07
  10  -3  -1    0.35   11.31
  10   3   1   -0.71    9.51
 -10   3  -1   -4.42    9.54
 -10  -4  -1  859.19   48.90
 -10   4   1  882.37   49.48
  10   4  -1  861.22   48.77
 -10   4   1  833.79   52.22
 -10  -4  -1  832.44   51.59
  10  -4   1  866.88   54.10
 -10   4   1  883.01   51.20
 -10  -4  -1  869.07   53.42
 -10   4  -1  821.74   53.81
 -10   4  -1  904.56   49.18
 -10  -4   1  889.51   51.99
  10   4   1  842.05   48.91
 -10   4  -1  856.16   52.03
  10  -4  -1  823.41   54.24
 -10  -4   1  852.95   51.59
  10  -4  -1  812.28   50.44
 -10   5   1  164.38   19.51
  10  -5   1  179.63   32.06
 -10  -5  -1  148.92   24.97
  10  -5   1  178.21   23.09
  10   5  -1  196.71   18.22
 -10  -5  -1  205.50   27.24
 -10  -5   1  173.17   24.48
  10  -5  -1  165.63   22.58
 -10   5  -1  234.41   28.38
 -10   5  -1  140.78   18.99
  10  -5  -1  203.78   31.61
  10   5   1  153.85   18.63
 -10   5  -1  192.03   24.25
 -10  -6  -1  180.97   30.31
 -10   6   1  170.37   20.99
 -10  -6  -1  208.74   27.52
  10  -6   1  204.24   34.00
  10   6  -1  199.87   20.18
  10  -6   1  177.59   26.02
  10   6   1  206.90   20.63
 -10  -6   1  182.73   26.23
 -10   6  -1  229.11   28.19
  10  -6  -1  167.83   32.90
 -10   6  -1  167.15   21.24
 -10  -6   1  180.55   27.59
  10  -6  -1  178.09   25.01
  10  -7   1    2.10   17.61
 -10  -7  -1    3.69   22.09
 -10   7   1    6.92   15.29
  10  -7   1   -8.46   19.80
  10   7  -1   12.90   14.44
 -10  -7   1   23.62   26.58
  10   7   1    1.72   15.06
  10  -7  -1   -4.48   18.06
  10  -7  -1   17.48   19.95
 -10   7  -1  -24.99   15.22
 -10  -7   1   -7.32   14.41
  10  -8   1  -18.07   22.27
 -10  -8  -1  -26.99   17.99
 -10   8   1   -9.33   15.88
 -10  -8  -1    8.71   24.43
  10   8  -1  -16.68   15.52
 -10  -8   1   45.36   42.44
  10   8   1  -12.39   16.78
  10  -8  -1  -19.11   22.11
  10  -8  -1  -11.87   18.64
  10  -9   1  -21.87   19.67
 -10  -9  -1  -24.47   19.71
 -10  -9  -1    0.97   22.16
  10   9  -1   -7.51   17.33
 -10   9   1    0.56   16.99
  10  -9   1  -45.50   23.87
 -10  -9   1  -24.56   17.13
  10  -9  -1   11.37   24.92
  10   9   1   -5.91   18.10
  10  -9  -1   -8.45   20.69
 -10 -10  -1   64.20   30.97
 -10 -10  -1  -10.06   23.03
  10  10  -1    6.74   19.33
 -10  10  -1    2.30   20.18
  10 -10  -1    4.08   23.60
 -10 -10   1   -3.91   19.44
  10 -10  -1   40.82   27.78
  10  10   1   14.60   20.72
 -10 -11  -1  -39.19   27.98
  10  11  -1   11.81   21.57
  10 -11   1  -41.07   26.44
 -10  11   1    4.30   21.27
  10  11   1   15.90   22.13
 -10  11  -1   -7.91   21.33
  10 -11  -1  -49.08   26.83
 -10  12   1   21.22   22.47
  10 -12   1   69.68   30.77
  10  12  -1   38.49   22.94
 -10 -12  -1   -4.30   31.37
 -10  12  -1   -1.70   22.53
  10 -12  -1  -26.72   30.75
  10  12   1   -2.22   23.47
  10  13  -1   13.50   23.58
 -10 -13  -1   14.23   35.86
  10 -13  -1  -19.24   32.84
  10  13   1    7.17   24.75
 -10  13  -1   -5.86   23.64
 -10  14   1   -4.34   28.13
  10 -14   1  -24.23   30.44
  10  14  -1   29.58   25.13
  10  14   1   -1.45   25.55
 -10  14  -1   10.89   25.23
  10 -14  -1  -25.88   33.64
 -10   0  -2    6.12    9.36
 -10   0  -2   14.40   13.50
  10   0  -2   25.97    8.90
 -10   0   2   21.79   14.14
  10   0   2   15.17    9.11
 -10   0   2   28.77    9.09
 -10   0  -2   21.55   12.19
 -10   0   2   31.79   10.68
 -10   1   2  378.35   28.70
  10   1  -2  412.28   25.34
 -10   1   2  369.50   26.80
 -10  -1  -2  457.86   32.09
 -10  -1  -2  366.93   29.55
  10  -1   2  317.34   25.74
 -10  -1   2  378.05   29.03
  10  -1  -2  425.03   25.63
 -10   1  -2  370.80   32.51
  10   1   2  385.35   26.09
 -10  -1   2  456.90   30.10
 -10   2   2    8.62   13.88
 -10  -2  -2   11.98   13.57
 -10   2   2   11.56   10.87
  10   2  -2   -5.14    9.45
 -10  -2  -2    4.31   12.01
 -10   2   2   14.65    8.80
 -10   2  -2  -12.84    9.67
 -10  -2   2   -3.64   10.36
  10   2   2   -0.42    9.84
 -10   2  -2   -9.69   14.04
 -10   2  -2  -15.84   12.75
 -10  -2   2    8.57   14.64
 -10   3   2  442.74   31.23
  10   3  -2  412.92   26.98
 -10  -3  -2  397.47   31.25
 -10   3   2  442.20   27.01
 -10  -3  -2  437.34   33.87
 -10  -3   2  411.49   30.93
  10   3   2  425.45   27.35
 -10   3  -2  455.83   27.61
 -10   3  -2  385.31   32.02
 -10  -3   2  428.25   30.95
  10  -3  -2  414.52   33.42
 -10   3  -2  385.19   34.52
 -10  -4  -2   11.96   12.90
  10   4  -2   18.92    9.61
 -10   4   2   23.62   10.81
  10  -4   2    9.30   12.66
 -10  -4  -2   19.45   15.78
 -10   4  -2   27.47   16.26
 -10  -4   2   17.45   11.03
  10  -4  -2   31.51   13.27
  10  -4  -2   20.93   14.72
  10   4   2   25.92   10.53
 -10   4  -2   10.58   13.67
 -10   4  -2   17.80   10.73
 -10  -4   2   38.98   26.73
  10  -5   2  132.68   18.30
 -10   5   2  106.34   17.73
  10   5  -2  140.94   16.59
 -10  -5  -2  122.76   19.69
  10  -5   2   97.84   18.25
 -10  -5   2  145.05   22.94
  10  -5  -2  154.12   21.55
  10  -5  -2  158.13   29.92
 -10   5  -2  144.87   23.91
 -10   5  -2  127.13   17.56
  10   5   2  122.39   17.37
 -10   5  -2   95.99   16.98
 -10  -5   2  138.69   22.71
  10  -6   2   84.37   19.49
 -10   6   2   92.77   15.26
  10   6  -2  110.20   17.03
 -10  -6  -2   81.51   20.80
  10  -6   2   60.74   18.69
 -10  -6  -2   48.97   16.87
  10   6   2   80.48   14.81
  10  -6  -2   78.43   17.27
 -10   6  -2  139.95   24.29
 -10  -6   2  141.40   24.43
 -10   6  -2   92.48   15.81
  10  -6  -2  102.94   18.46
 -10   6  -2   52.33   14.50
 -10  -6   2   64.45   13.45
  10   7  -2   40.12   14.56
  10  -7   2   24.20   20.38
 -10  -7  -2   16.93   22.64
  10  -7   2    3.68   17.54
 -10   7   2   36.16   15.49
 -10  -7   2   28.11   13.25
  10   7   2   22.96   15.51
  10  -7  -2   40.17   19.82
 -10   7  -2    1.13   15.09
 -10  -7   2  122.30   39.69
  10  -7  -2   22.20   17.03
 -10  -8  -2  -16.79   17.71
  10  -8   2   10.17   23.19
  10  -8   2  -23.02   18.20
  10   8  -2  -11.16   15.81
 -10   8   2  -25.46   16.02
 -10  -8  -2  -17.80   25.69
  10  -8  -2  -17.78   18.26
 -10  -8   2   -9.33   13.47
  10   8   2   -7.37   16.25
  10  -8  -2   -9.73   22.26
  10   9  -2   -0.41   17.58
 -10   9   2  -11.74   17.46
 -10  -9  -2  -20.26   29.97
 -10  -9  -2  -33.76   19.37
  10  -9  -2  -27.80   25.38
  10   9   2  -19.45   18.07
  10  -9  -2  -31.35   21.59
 -10 -10  -2   21.98   28.89
 -10 -10  -2  -34.95   29.17
  10  10  -2   -9.34   19.43
 -10  10   2   14.52   23.47
  10 -10   2  -22.41   26.68
  10 -10  -2    3.74   27.68
  10  10   2   17.25   20.65
  10 -10  -2  -28.45   23.71
 -10  10  -2  -29.11   19.53
 -10 -11  -2  -27.32   27.52
  10  11  -2   13.42   20.41
 -10 -11  -2   55.02   38.63
 -10  11   2   14.55   21.98
  10 -11   2  -28.42   26.60
  10  11   2   39.80   23.61
 -10  11  -2   -8.61   21.00
  10 -11  -2  -42.60   30.04
  10 -11  -2  -41.84   27.12
  10 -12   2  -11.14   28.23
  10  12  -2   -0.50   21.54
 -10  12   2  -10.33   24.06
  10 -12  -2    9.14   27.93
  10  12   2   26.92   23.87
 -10  12  -2  -15.40   21.89
  10 -12  -2  -55.58   31.49
 -10 -13  -2   32.42   37.58
  10 -13   2   -8.92   28.94
 -10  13   2   16.81   27.36
  10  13  -2   35.87   24.09
  10 -13  -2  -53.55   35.58
  10 -13  -2   -5.55   34.29
 -10  13  -2   -8.34   23.62
  10  13   2    2.21   25.33
 -10  14   2  -14.31   29.55
  10  14  -2   -7.36   26.26
 -10 -14  -2  -16.80   42.96
  10 -14  -2   -4.17   35.25
 -10  14  -2   -1.08   25.22
  10  14   2    6.97   28.15
 -10  -1  -3   -6.16   12.24
 -10   1   3    0.83    8.45
 -10   1   3   -5.40    9.55
 -10  -1  -3   -3.67   14.34
  10  -1   3   -7.25    9.30
  10   1  -3  -15.89    9.15
 -10   1  -3  -22.30   12.05
  10  -1  -3  -13.17    9.14
 -10  -1   3   12.64   14.23
  10   1   3   -5.18   10.27
 -10   1  -3  -25.66   13.43
 -10  -1   3  -13.44    9.52
 -10  -2  -3  206.54   21.77
 -10  -2  -3  226.13   26.06
  10   2  -3  166.62   16.69
 -10   2  -3  141.24   16.11
 -10  -2   3  142.63   20.96
 -10   2  -3  112.91   22.13
  10  -2  -3  185.71   24.36
 -10   2  -3  154.94   26.18
  10   2   3  197.11   17.45
 -10  -3  -3    5.68   13.43
  10   3  -3   -0.75    8.89
 -10   3   3    4.30    9.87
 -10  -3  -3   -7.88   14.75
 -10   3  -3   -9.84   11.98
 -10   3  -3   -3.70   14.48
 -10  -3   3   -7.39    9.49
  10   3   3   -0.50    9.90
 -10  -3   3  -18.94   13.18
 -10   3  -3   -7.90   10.10
  10  -3  -3  -11.13   11.21
  10  -3  -3   -5.31   11.97
 -10  -4  -3   31.36   16.14
  10  -4   3   14.63   13.50
 -10   4   3   46.76   11.05
 -10  -4  -3   24.00   14.16
  10   4  -3   43.90   10.27
 -10  -4   3   26.92   10.40
  10  -4  -3   33.94   14.44
 -10  -4   3   42.59   17.68
 -10   4  -3   43.76   17.02
  10  -4  -3   44.34   14.17
 -10   4  -3   25.62   11.51
 -10   4  -3    8.47   14.00
  10   4   3   31.00   11.16
  10  -5   3   12.92   15.92
  10  -5   3    1.50   16.27
 -10   5   3   35.55   12.12
 -10  -5  -3   59.23   18.32
 -10  -5  -3   12.87   14.32
  10   5  -3   43.47   10.68
 -10  -5   3   25.46   10.44
  10   5   3   39.01   12.50
  10  -5  -3   51.47   15.41
 -10   5  -3   23.47   14.68
 -10   5  -3   51.84   18.11
  10  -5  -3   35.48   15.32
 -10   5  -3   16.58   12.02
 -10  -6  -3   70.27   21.06
  10   6  -3   61.25   12.99
 -10   6   3   67.90   14.60
  10  -6   3   63.46   19.48
  10  -6   3   63.77   18.34
  10   6   3   55.75   14.19
  10  -6  -3   64.58   17.71
  10  -6  -3   72.57   17.23
  10  -7   3   -9.83   20.69
 -10  -7  -3   -9.45   22.76
  10   7  -3   11.59   13.55
  10  -7   3  -26.43   17.40
 -10   7   3   -0.15   14.91
 -10  -7  -3  -24.51   16.07
  10  -7  -3    9.68   19.23
  10   7   3  -13.30   14.99
 -10   7  -3    7.05   15.49
 -10   7  -3  -25.84   13.68
 -10   7  -3   10.28   18.01
  10  -7  -3    5.13   16.87
  10   8  -3   35.91   15.54
 -10  -8  -3   26.88   26.51
  10  -8   3   11.66   18.88
 -10   8   3   27.93   16.53
 -10  -8  -3    5.95   18.19
  10  -8   3   23.95   18.26
  10  -8  -3   28.59   23.83
  10   8   3   24.95   16.58
  10  -8  -3   19.83   19.86
 -10   8  -3    3.62   15.47
  10   9  -3  -19.45   17.11
  10  -9   3  -12.27   19.44
 -10  -9  -3  -11.62   30.57
 -10   9   3    6.72   17.98
 -10  -9  -3  -17.83   20.62
  10   9   3   -4.79   18.38
 -10   9  -3  -20.10   28.79
  10  -9  -3   -7.39   25.39
 -10 -10  -3   18.90   24.39
  10 -10   3   34.16   23.65
 -10 -10  -3   50.00   30.29
 -10  10   3   59.18   21.84
  10  10  -3   78.35   19.53
  10 -10  -3   27.39   29.46
  10  10   3   66.57   21.75
  10 -10  -3   21.83   26.08
 -10  10  -3   36.09   19.72
 -10  11   3   -6.21   23.43
  10 -11   3  -29.98   25.74
 -10 -11  -3  -20.91   34.95
  10  11  -3   11.84   20.07
 -10 -11  -3    4.58   26.75
  10  11   3   33.57   23.00
  10 -11  -3  -53.24   28.32
  10 -11  -3    4.84   36.83
 -10  11  -3  -17.74   20.64
  10  12  -3   38.79   21.44
  10 -12   3   19.46   26.29
 -10 -12  -3  -23.23   29.01
 -10 -12  -3   88.25   50.22
 -10  12   3   22.98   26.41
  10  12   3   19.70   24.29
 -10  12  -3   29.93   21.79
  10 -12  -3  -27.34   30.89
  10 -12  -3  -20.81   32.22
 -10 -13  -3  -17.30   34.48
  10  13  -3   -8.81   23.46
 -10  13   3   -8.80   28.47
  10 -13  -3  -26.21   34.79
  10 -13  -3  -48.51   32.25
  10  13   3   12.00   26.95
 -10  13  -3    0.80   23.04
 -10 -14  -3   12.50   43.90
 -10  14   3  -27.44   31.44
  10  14  -3   23.61   25.76
  10 -14  -3  -21.71   34.26
 -10  14  -3    2.01   25.51
  10  14   3   49.73   27.61
  10   0  -4    1.50    8.78
 -10   0  -4   -8.65   14.33
  10   0   4   10.03   10.13
 -10   0  -4   -8.84   12.23
  10   1  -4   43.28    9.62
  10  -1   4   58.52   12.41
 -10   1   4   46.51    9.97
 -10   1  -4   35.92   15.26
  10   1   4   75.39   11.77
 -10   1  -4   37.11   12.52
 -10   2   4    5.06    9.27
 -10  -2  -4    3.44   14.71
 -10  -2  -4   -8.03   13.48
  10   2  -4  -10.31    9.37
  10  -2  -4    6.64   10.79
  10   2   4    4.11   10.72
 -10   2  -4   -8.76   14.03
 -10  -2   4    9.72    8.52
 -10   2  -4  -12.30   12.40
 -10  -3  -4   17.94   15.73
 -10   3   4   31.19   10.26
 -10  -3  -4   -3.30   12.80
  10   3  -4   18.86    9.18
 -10   3  -4   -3.15   10.15
 -10   3  -4    2.01   14.91
 -10  -3   4   10.25    8.61
  10   3   4   17.71   10.67
  10  -3  -4   16.73   13.51
 -10   3  -4   -7.44   12.69
  10  -3  -4   29.28   12.41
 -10   4   4   41.37   11.63
  10   4  -4   14.25    9.94
 -10  -4  -4   32.73   16.57
 -10  -4  -4   13.66   14.09
  10  -4  -4   26.56   14.32
 -10   4  -4    8.51   13.81
 -10   4  -4   18.57   16.25
 -10   4  -4   -0.72   11.21
  10   4   4   24.79   11.39
  10  -4  -4    6.12   13.98
 -10  -5  -4   30.36   19.24
 -10  -5  -4   -2.56   14.47
  10   5  -4   19.41   10.48
  10  -5   4   15.89   16.89
 -10   5   4    9.78   12.47
  10  -5   4  -22.51   15.44
  10  -5  -4   -1.21   14.71
  10   5   4   24.31   12.55
  10  -5  -4   17.35   16.05
 -10   5  -4   13.01   17.85
 -10   5  -4   10.77   14.92
  10   6  -4   62.68   12.30
  10  -6   4   41.90   18.11
 -10  -6  -4   53.66   21.77
 -10  -6  -4   14.58   16.10
 -10   6   4   44.70   14.89
  10  -6   4   38.49   19.55
 -10   6  -4   49.50   17.33
 -10   6  -4   78.72   19.57
 -10   6  -4   15.18   13.34
  10  -6  -4   56.48   17.71
  10   6   4   40.59   14.14
  10  -6  -4   38.21   16.38
  10   7  -4  187.89   19.70
  10  -7   4  184.12   34.04
 -10  -7  -4  154.23   26.38
 -10   7   4  164.99   22.50
 -10   7  -4  130.04   20.52
  10  -7  -4  230.02   27.82
 -10   7  -4  246.99   28.06
 -10   7  -4  206.73   32.67
  10   7   4  171.01   22.50
  10  -7  -4  190.71   34.46
  10  -8   4  -17.21   18.03
 -10  -8  -4  -26.53   19.52
 -10   8   4    8.90   17.46
 -10  -8  -4   14.30   26.07
  10   8  -4   18.19   14.67
  10   8   4   20.18   17.11
 -10   8  -4   54.02   19.23
  10  -8  -4    5.79   18.98
  10  -8  -4   24.97   23.35
 -10   8  -4   -5.02   14.71
 -10  -9  -4   36.43   28.14
 -10   9   4   97.48   21.02
  10   9  -4  104.25   19.98
 -10  -9  -4   98.87   32.81
  10  -9   4   90.46   20.88
  10  -9  -4   82.06   27.05
  10  -9  -4  122.31   27.84
 -10   9  -4   67.36   19.06
  10   9   4   77.64   20.47
  10 -10   4  -11.33   21.40
 -10 -10  -4  -19.28   36.71
 -10 -10  -4    0.91   24.06
  10  10  -4   -1.38   18.49
 -10  10   4    9.64   22.38
  10 -10  -4   22.41   34.84
  10 -10  -4  -19.48   25.04
  10  10   4   12.18   21.89
 -10  10  -4  -27.19   18.11
 -10 -11  -4    6.53   26.80
 -10 -11  -4    4.21   34.82
 -10  11   4   40.34   26.37
  10  11  -4   64.91   20.01
  10 -11  -4   28.67   34.02
 -10  11  -4   82.30   21.74
  10  11   4   26.57   23.47
  10 -11  -4  -11.28   28.94
 -10 -12  -4   10.74   47.70
 -10 -12  -4    6.21   29.76
 -10  12   4    6.52   27.71
  10  12  -4   -1.79   21.96
  10  12   4   17.56   25.45
  10 -12  -4  -32.45   32.27
 -10  12  -4    0.00   21.83
  10 -12  -4  -11.39   37.33
 -10 -13  -4  -23.31   33.39
 -10  13   4    8.81   31.12
  10  13  -4   26.06   23.04
  10 -13  -4  -59.04   31.73
  10 -13  -4  -25.35   35.69
  10  13   4  -10.73   26.85
 -10  13  -4   20.67   24.23
  10  14  -4   34.03   26.85
  10  14   4   25.31   29.44
 -10   0  -5   11.34   15.70
  10   0  -5   14.41    9.15
 -10   0  -5    0.33   13.07
  10   0   5  -11.72   14.04
 -10  -1  -5   36.02   14.98
  10   1  -5   37.70    9.57
 -10  -1  -5   10.61   14.23
  10  -1  -5   19.31   11.78
 -10   1  -5    6.20   12.80
  10   1   5   33.63   11.02
 -10   1  -5   34.43   15.32
 -10   2   5   69.53   14.47
  10   2  -5   63.72   11.24
 -10  -2  -5   33.33   15.32
 -10  -2  -5   65.74   16.40
  10  -2  -5   77.26   13.22
 -10   2  -5   42.19   14.09
  10  -2  -5   50.35   13.80
  10   2   5   77.02   12.89
 -10   2  -5   90.94   16.66
 -10   3   5   80.58   13.70
 -10  -3  -5   27.87   14.79
 -10  -3  -5   46.19   16.93
  10   3  -5   58.60   10.98
  10  -3  -5   52.55   15.08
  10   3   5   49.43   12.38
 -10   3  -5   38.02   13.98
  10  -3  -5   53.66   14.14
 -10   3  -5   57.46   16.54
 -10  -4  -5    0.89   14.69
 -10   4   5   16.30   13.69
 -10  -4  -5   17.83   16.99
  10   4  -5   10.66    9.94
 -10   4  -5   -6.12   11.12
  10  -4  -5   11.62   14.90
 -10   4  -5   16.77   14.57
  10  -4  -5   13.95   14.45
 -10   4  -5   11.70   16.87
  10   4   5   20.05   12.30
  10  -5   5   58.68   17.48
 -10  -5  -5   59.46   17.17
 -10  -5  -5  100.56   20.34
  10  -5   5  109.16   19.29
  10   5   5  106.96   18.43
 -10   5  -5   73.27   19.64
 -10   5  -5   83.50   17.34
  10  -5  -5   94.01   17.35
 -10   5  -5   64.95   13.67
  10  -5  -5   65.67   16.69
 -10   6   5  146.66   22.22
  10  -6   5  144.13   20.86
 -10  -6  -5  195.34   28.12
  10   6  -5  166.30   17.59
 -10   6  -5  164.84   27.99
 -10   6  -5  187.68   32.75
  10   6   5  175.98   21.72
  10  -6  -5  169.70   32.79
 -10   6  -5  125.88   19.48
  10  -6  -5  190.75   25.08
 -10  -7  -5   76.60   24.53
  10  -7   5   67.33   18.08
 -10  -7  -5   33.35   19.38
  10   7  -5  117.00   16.69
 -10   7   5   85.77   18.55
  10  -7  -5  108.42   21.87
 -10   7  -5   72.04   18.89
  10   7   5   62.18   16.50
 -10   7  -5  118.86   20.80
 -10   7  -5   43.00   14.33
  10  -7  -5   73.15   20.38
 -10  -8  -5  185.59   32.64
 -10   8   5  170.36   25.66
  10  -8   5  195.02   33.28
  10   8  -5  184.93   20.02
 -10  -8  -5  123.75   25.26
 -10   8  -5  176.39   21.47
  10   8   5  153.39   23.89
  10  -8  -5  133.27   23.61
  10  -8  -5  210.34   30.83
 -10   9   5  -16.00   21.17
 -10  -9  -5  -23.99   23.23
 -10  -9  -5  -21.00   30.45
  10  -9   5   -2.47   18.90
  10  -9  -5    5.37   23.11
  10   9   5   13.27   20.20
  10  -9  -5    4.38   31.81
 -10 -10  -5   60.33   27.22
 -10 -10  -5  123.30   37.77
 -10  10   5  100.57   25.15
  10  10  -5  153.69   21.65
  10 -10  -5  146.54   32.95
  10  10   5  105.03   24.63
  10 -10  -5   93.77   27.32
 -10 -11  -5  -19.89   51.11
 -10 -11  -5  -17.34   28.10
  10  11  -5  -20.82   19.31
 -10  11   5    2.31   28.29
  10 -11  -5   -3.76   33.82
 -10  11  -5   -5.91   19.80
  10  11   5   -5.13   24.81
 -10  12   5  -22.63   30.53
  10  12  -5    9.69   20.89
 -10 -12  -5   21.28   47.22
 -10 -12  -5    7.02   29.24
  10  12   5  -11.80   27.11
  10 -12  -5   12.97   38.12
 -10  12  -5   14.23   21.55
  10 -12  -5  -26.45   32.47
 -10 -13  -5   -9.15   31.83
 -10  13   5  -27.31   33.46
  10  13  -5   -6.33   22.84
  10 -13  -5  -21.42   41.12
 -10  13  -5    0.65   22.90
  10  13   5  -19.71   29.20
  10   0  -6   96.11   14.75
  10   0   6  125.03   18.94
 -10   0  -6  122.72   18.03
  10   0  -6   96.18   15.17
 -10   0  -6   86.36   16.42
 -10  -1  -6   29.19   16.48
  10   1  -6   39.99   10.26
 -10  -1  -6   13.40   14.09
  10  -1  -6   30.58   12.07
  10   1   6   35.44   20.52
  10  -1  -6   29.83   13.25
 -10   1  -6   45.79   16.80
 -10   1  -6   36.80   13.93
 -10  -2  -6   31.94   15.75
  10   2  -6   71.11   10.98
 -10  -2  -6   56.12   17.85
 -10   2  -6   81.54   17.69
  10   2   6   45.40   13.86
 -10   2  -6   37.08   14.43
  10  -2  -6   82.44   14.35
  10  -2  -6   58.22   15.36
  10   3  -6  233.66   19.40
 -10  -3  -6  206.59   26.88
 -10   3   6  239.83   29.01
 -10  -3  -6  187.55   31.68
  10  -3  -6  229.57   23.29
 -10   3  -6  244.52   26.51
  10  -3  -6  255.04   31.90
  10   3   6  225.46   22.62
 -10   3  -6  231.36   30.41
 -10  -4  -6   42.17   18.31
 -10   4   6   26.37   22.92
  10   4  -6   31.52   10.55
 -10  -4  -6    1.49   16.21
 -10   4  -6   17.02   15.40
  10   4   6   39.32   13.85
 -10   4  -6   30.93   16.94
  10  -4  -6   24.05   16.67
  10  -4  -6   35.19   15.14
 -10  -5  -6    4.67   17.51
  10  -5   6    6.54   17.64
  10  -5   6  -13.29   18.34
 -10   5   6   44.06   17.09
 -10  -5  -6   68.95   21.02
 -10   5  -6   35.45   16.89
  10  -5  -6   68.13   17.27
  10   5   6   38.08   14.53
  10  -5  -6   28.69   15.97
 -10   5  -6    4.15   12.46
 -10   5  -6    8.28   17.77
 -10  -6  -6  205.49   29.22
 -10   6   6  160.93   24.52
  10  -6   6  218.83   32.88
 -10   6  -6  186.64   28.53
  10  -6  -6  237.22   27.27
  10   6   6  170.64   22.71
 -10   6  -6  195.79   35.81
 -10   6  -6  164.08   20.42
  10  -6  -6  195.92   34.52
  10  -7   6  221.27   31.58
  10   7  -6  168.83   18.46
 -10  -7  -6  174.39   31.06
 -10   7   6  166.41   23.09
  10  -7  -6  117.07   21.19
  10  -7  -6  184.69   29.17
 -10   7  -6  165.28   20.54
 -10   7  -6  190.79   28.51
 -10   7  -6  143.54   30.83
 -10  -8  -6   24.28   28.00
  10   8  -6   20.27   13.46
 -10   8   6  -15.53   20.70
 -10  -8  -6   -5.03   21.99
  10   8   6  -10.18   18.46
 -10   8  -6  -19.51   19.36
 -10   8  -6  -10.81   17.17
  10  -8  -6   40.11   28.33
 -10   8  -6   32.93   21.00
 -10  -9  -6  269.08   45.48
 -10  -9  -6  321.22   41.59
  10   9  -6  287.81   26.61
  10  -9  -6  376.44   45.68
 -10   9  -6  322.23   26.29
  10   9   6  253.20   31.07
 -10 -10  -6  -12.56   44.76
 -10  10   6  -38.53   24.29
 -10 -10  -6  -45.02   25.64
  10  10  -6  -17.25   17.50
  10 -10  -6   -3.77   30.75
  10 -10  -6   -5.26   27.22
 -10  10  -6    6.18   17.74
  10  10   6   -4.68   24.66
 -10 -11  -6  -16.80   48.56
 -10  11   6  -14.71   26.64
 -10 -11  -6    5.12   27.98
  10  11  -6   29.71   20.29
  10 -11  -6   47.80   34.13
 -10  11  -6   44.57   18.85
  10  11   6    3.97   26.85
  10 -11  -6   15.01   30.44
 -10  12   6  -23.07   26.98
  10  12  -6  -30.41   24.31
 -10 -12  -6   67.14   46.53
 -10 -12  -6  -20.96   30.79
 -10  12  -6   -4.62   21.33
  10  12   6   -1.88   28.75
  10 -12  -6    6.03   38.57
  10 -12  -6  -41.87   32.07
  10  13  -6    5.13   23.42
 -10  13   6  -57.86   27.16
 -10 -13  -6    9.58   33.33
 -10 -13  -6   16.37   59.29
  10 -13  -6  -36.85   32.24
  10 -13  -6   27.71   43.92
 -10  13  -6   13.39   23.14
  10  13   6   32.10   32.04
 -10   0  -7   -4.41   16.67
 -10   0  -7  -20.54   15.28
  10   0   7   35.57   15.03
  10   0  -7   -2.25   13.64
  10   0  -7    0.50   11.96
 -10  -1  -7   73.54   17.59
  10   1  -7   99.46   15.50
  10   1  -7   90.50   15.83
 -10  -1  -7   95.12   19.13
  10  -1  -7  122.21   15.69
  10  -1  -7   92.27   16.22
 -10   1  -7   80.06   17.24
 -10   1  -7  131.49   23.73
  10   1   7  126.33   16.60
 -10  -2  -7  270.34   35.66
  10   2  -7  309.77   21.43
 -10  -2  -7  265.98   29.93
 -10   2  -7  307.30   32.59
  10  -2  -7  297.59   34.12
  10  -2  -7  275.57   25.32
 -10   2  -7  351.65   28.64
  10   2   7  275.62   27.57
 -10  -3  -7  -29.96   16.49
 -10  -3  -7   -5.97   18.27
  10   3  -7    0.79   10.77
  10  -3  -7   -1.62   14.69
  10  -3  -7    0.66   15.02
 -10   3  -7   -5.13   14.69
 -10   3  -7   -4.32   16.96
  10   3   7  -19.08   14.79
 -10  -4  -7   36.82   20.67
 -10  -4  -7   21.52   19.65
  10   4   7   50.88   16.05
  10  -4  -7   69.14   16.30
 -10   4  -7   39.93   16.36
 -10   4  -7   51.55   18.11
  10  -4  -7   39.32   17.03
 -10  -5  -7  160.48   27.57
 -10  -5  -7   91.66   20.57
  10  -5   7  117.17   19.42
  10   5   7  116.74   17.89
 -10   5  -7  112.73   19.13
 -10   5  -7  150.19   25.92
  10  -5  -7  170.34   24.53
  10  -5  -7  185.98   33.30
 -10  -6  -7   81.21   23.43
 -10  -6  -7   48.00   20.47
  10  -6  -7   55.82   19.03
 -10   6  -7   71.07   20.27
  10   6   7   76.21   17.71
 -10   6  -7   67.54   19.99
 -10   6  -7   69.22   14.06
 -10  -7  -7   42.22   24.94
 -10   7  -7   31.12   24.25
  10  -7  -7   30.97   20.34
 -10   7  -7   47.80   20.17
  10   7   7   43.35   18.04
  10  -7  -7   71.50   30.83
 -10   7  -7   37.21   21.41
 -10  -8  -7  445.30   50.31
 -10  -8  -7  388.72   48.61
 -10   8  -7  418.21   30.12
  10  -8  -7  447.56   47.00
  10   8   7  342.87   33.71
 -10   8  -7  372.32   44.35
 -10   8  -7  448.01   54.96
  10  -8  -7  473.92   39.05
 -10  -9  -7  -11.24   33.34
  10   9  -7  -10.18   14.90
 -10  -9  -7  -12.35   25.69
  10  -9  -7   18.33   28.09
 -10   9  -7   28.84   23.61
  10   9   7  -15.20   22.48
  10  -9  -7  -25.29   26.05
 -10   9  -7    0.63   14.63
  10  10  -7  126.10   21.24
 -10 -10  -7   90.44   39.97
  10 -10  -7  216.54   36.71
  10  10   7  105.60   27.93
  10 -10  -7  106.98   31.47
 -10  10  -7  152.70   22.80
  10  11  -7   -5.27   18.39
 -10 -11  -7  -46.40   28.06
 -10 -11  -7  -51.85   45.04
 -10  11  -7   -7.86   17.88
  10 -11  -7   92.71   33.35
  10  11   7  -23.09   28.21
 -10 -12  -7  -23.65   30.31
  10  12  -7  -24.38   19.54
 -10 -12  -7   63.85   53.74
  10 -12  -7    2.50   38.67
  10 -12  -7  -34.71   33.40
  10  12   7   22.62   31.67
 -10  12  -7   17.89   21.15
  10   0  -8   33.53   16.09
  10   0  -8   65.37   14.64
 -10   0  -8   60.19   18.86
 -10   0  -8   36.95   16.77
  10   1  -8  118.51   18.74
  10   1  -8  111.95   17.83
 -10  -1  -8  155.63   25.85
 -10  -1  -8   94.95   19.46
  10  -1  -8  144.28   20.86
  10  -1  -8  137.83   19.20
 -10   1  -8  143.69   24.88
 -10   1  -8  104.92   18.50
  10   2  -8    3.93   15.12
 -10  -2  -8   -7.65   19.17
 -10  -2  -8  -32.57   17.72
  10   2  -8   16.37   10.25
  10  -2  -8   13.31   15.05
  10  -2  -8   25.36   16.52
 -10   2  -8   -5.91   18.64
 -10   2  -8  -19.65   15.83
  10   2   8   23.68   13.96
 -10  -3  -8   80.44   20.45
 -10  -3  -8  117.56   22.15
  10   3  -8   78.77   21.57
  10  -3  -8  132.89   19.88
 -10   3  -8  112.73   18.12
  10  -3  -8  153.90   22.00
 -10   3  -8  132.78   20.33
 -10  -4  -8   23.22   20.96
  10  -4   8   52.03   22.80
 -10  -4  -8   20.43   20.47
 -10   4  -8   32.65   17.98
  10  -4  -8   58.66   17.27
 -10   4  -8   40.36   21.22
  10   4   8   -0.44   13.44
  10  -4  -8   55.65   18.25
 -10  -5  -8    7.77   21.12
 -10  -5  -8   39.38   22.32
 -10   5  -8   32.86   18.86
  10  -5  -8   32.86   18.16
 -10   5  -8   54.83   18.75
  10   5   8   17.64   13.78
  10  -5  -8   77.04   19.77
 -10  -6  -8   39.64   25.06
 -10   6   8   70.22   32.38
 -10  -6  -8   10.75   22.81
  10   6   8    8.85   15.20
 -10   6  -8   17.89   20.08
  10  -6  -8   30.08   19.36
 -10   6  -8   30.48   19.10
 -10  -7  -8  452.02   49.13
 -10  -7  -8  357.18   44.21
  10  -7  -8  449.41   38.43
 -10   7  -8  387.23   37.11
 -10   7  -8  420.06   44.24
  10  -7  -8  389.04   67.36
 -10   7  -8  362.63   29.41
 -10  -8  -8  -38.20   25.82
 -10  -8  -8  -17.09   29.57
 -10   8  -8   17.56   24.46
  10  -8  -8   27.26   26.48
  10  -8  -8  -10.63   23.54
  10   8   8  -18.20   20.01
 -10   8  -8  -12.65   14.58
 -10  -9  -8  255.68   41.60
 -10   9  -8  242.81   32.97
 -10   9  -8  203.54   23.70
  10  -9  -8  239.73   47.98
  10  -9  -8  294.00   36.91
 -10 -10  -8   16.20   38.89
 -10 -10  -8  -33.28   27.72
  10  10  -8  -10.48   16.94
  10  10   8  -28.60   27.10
  10 -10  -8  -21.11   30.40
 -10  10  -8   -6.53   15.23
  10 -10  -8  -48.06   30.79
 -10 -11  -8  -15.07   29.33
 -10 -11  -8   -3.55   43.65
  10  11  -8    1.60   18.38
 -10  11  -8   10.27   18.25
  10  11   8  -58.79   28.56
  10 -11  -8   38.02   34.25
  10 -11  -8   22.07   31.20
  10  12  -8   -1.69   20.50
 -10 -12  -8  -19.10   31.65
 -10 -12  -8   -4.81   56.09
  10 -12  -8   -5.84   38.11
  10 -12  -8  -62.99   33.70
 -10  12  -8  -16.11   20.82
  10  12   8  -58.74   29.65
 -10   0  -9   -9.68   17.97
 -10   0  -9  -11.23   18.72
  10   0  -9   -4.08   14.52
  10   0  -9  -13.14   16.80
 -10  -1  -9  -26.40   18.48
 -10  -1  -9    7.51   20.49
  10   1  -9   -2.07   14.07
  10   1  -9    4.44   16.53
 -10   1  -9   -3.41   18.42
  10  -1  -9   16.09   15.13
 -10   1  -9   -9.69   17.05
  10  -1  -9   22.98   19.25
 -10  -2  -9   29.97   20.97
 -10  -2  -9    7.81   19.26
  10   2  -9   33.13   17.93
  10   2  -9   58.55   14.33
  10  -2  -9   46.40   17.92
  10  -2  -9   50.90   16.04
 -10   2  -9   37.80   17.39
 -10   2  -9   36.66   19.92
 -10  -3  -9  -23.95   21.61
  10   3  -9   27.31   19.95
 -10  -3  -9  -13.10   20.95
 -10   3  -9   -2.01   18.12
  10  -3  -9   14.92   17.60
  10  -3  -9   23.45   16.48
 -10  -4  -9   22.55   24.02
 -10  -4  -9   18.83   24.00
 -10   4  -9   46.65   18.84
 -10   4  -9   28.48   18.93
  10   4   9   41.92   19.41
  10  -4  -9   55.63   19.43
  10  -4  -9   42.01   19.63
 -10  -5  -9  -20.25   22.57
  10  -5  -9    2.87   19.53
 -10   5  -9  -19.02   18.53
  10   5   9  -31.65   17.70
  10  -5  -9    2.23   29.06
 -10   5  -9  -10.44   18.89
 -10  -6  -9  284.52   36.79
 -10  -6  -9  307.64   49.34
 -10   6  -9  189.79   31.50
  10  -6  -9  302.64   33.27
 -10   6  -9  297.00   41.85
  10  -6  -9  217.29   42.09
 -10  -7  -9  -12.97   26.75
 -10  -7  -9   35.20   29.38
  10  -7  -9   10.67   25.67
 -10   7  -9   57.35   22.05
 -10   7  -9    4.02   13.74
 -10   7  -9   -4.07   25.27
  10   7   9  -15.80   18.26
  10  -7  -9   22.23   25.94
 -10  -8  -9  282.93   38.78
  10  -8  -9  137.20   29.03
 -10   8  -9  201.83   23.02
  10  -8  -9  253.48   35.13
 -10   8  -9  225.53   33.62
 -10  -9  -9   -6.49   28.63
 -10  -9  -9    5.93   34.35
  10  -9  -9    6.91   28.16
 -10   9  -9   15.05   25.92
  10   9   9  -41.14   20.16
 -10   9  -9  -12.43   14.31
  10  -9  -9  -18.32   27.36
 -10 -10  -9   30.44   38.69
 -10 -10  -9  -12.70   27.91
 -10  10  -9    8.60   15.20
  10 -10  -9   10.59   32.07
  10  10   9  -45.30   25.23
  10 -10  -9   -7.09   30.47
 -10 -11  -9  -30.12   46.47
  10  11  -9  -15.47   17.08
 -10 -11  -9   -4.11   29.46
  10 -11  -9  -34.64   31.82
  10 -11  -9    8.42   35.00
  10  11   9    5.45   28.68
 -10  11  -9  -17.27   17.83
 -10   0 -10  -31.82   19.93
  10   0 -10   -4.52   15.88
  10   0 -10   -6.92   18.46
 -10   0 -10   -2.71   20.24
  10   1 -10    2.95   15.48
  10   1 -10    3.69   19.90
 -10  -1 -10    6.63   21.77
 -10  -1 -10   -9.27   20.35
  10  -1 -10   19.04   16.50
 -10   1 -10    3.85   19.36
  10  -1 -10    9.20   20.04
 -10   1 -10   11.56   19.73
  10   2 -10   30.21   20.82
  10   2 -10   12.75   15.19
 -10  -2 -10   -9.69   27.26
 -10  -2 -10  -13.51   21.34
  10  -2 -10   18.92   27.35
  10  -2 -10   38.31   17.32
 -10   2 -10   -6.37   20.02
 -10  -3 -10   96.38   28.44
 -10  -3 -10   62.86   25.77
 -10   3 -10   86.04   20.41
  10  -3 -10   82.28   21.59
 -10   3 -10  133.63   21.73
  10  -3 -10  134.51   34.21
 -10  -4 -10   -9.81   25.78
  10   4 -10   -2.91   15.54
 -10   4 -10   -8.78   20.72
 -10   4 -10   11.19   19.49
  10  -4 -10   -7.20   21.39
  10  -4 -10   -0.08   21.18
 -10  -5 -10  200.13   35.99
 -10   5 -10  202.45   40.28
  10  -5 -10  211.44   42.32
  10  -5 -10  244.55   31.46
 -10  -6 -10   12.56   28.58
 -10  -6 -10  -12.37   26.50
 -10   6 -10   33.67   22.91
  10  -6 -10    2.66   40.01
  10  -6 -10   22.17   24.42
 -10   6 -10    1.06   23.42
 -10  -7 -10  110.56   31.63
 -10  -7 -10  145.91   33.25
 -10   7 -10  118.65   19.40
 -10   7 -10  130.47   27.11
  10  -7 -10   84.52   29.28
 -10  -8 -10  -24.46   29.76
 -10  -8 -10   35.00   32.19
 -10   8 -10   -6.63   25.72
  10  -8 -10  -13.16   28.72
  10  -8 -10   27.98   27.28
 -10   8 -10  -10.59   14.69
 -10  -9 -10  -25.60   30.03
 -10  -9 -10  -14.09   33.30
  10   9  10   63.28   32.11
 -10   9 -10    4.32   14.48
 -10   9 -10   10.05   28.09
  10  -9 -10  -19.40   30.15
  10  -9 -10    6.85   29.93
 -10 -10 -10    6.61   37.87
 -10 -10 -10    9.12   30.14
  10 -10 -10  -53.16   30.27
  10 -10 -10   10.99   31.09
 -10  10 -10  -10.13   14.79
 -10 -11 -10  -31.98   30.93
 -10  11 -10    5.55   17.50
  10 -11 -10  -33.49   32.96
  10   0 -11   13.54   17.72
  10   0 -11   12.73   22.49
 -10   0 -11    6.18   22.60
 -10   0 -11   -0.91   22.96
 -10  -1 -11   -9.97   23.73
 -10  -1 -11   -0.53   23.72
  10   1 -11   23.53   18.01
  10  -1 -11    1.86   24.51
 -10   1 -11   -4.67   22.20
  10  -1 -11   19.86   21.87
 -10   1 -11    1.33   28.55
 -10  -2 -11  139.57   28.28
  10   2 -11  213.10   24.81
 -10  -2 -11  205.31   33.63
 -10   2 -11  188.54   29.78
  10  -2 -11  224.92   42.55
  10  -2 -11  203.20   28.45
 -10   2 -11  254.66   40.49
  10   3 -11   -2.14   18.26
 -10  -3 -11  -10.13   27.59
 -10  -3 -11  -20.56   25.14
 -10   3 -11  -28.33   21.60
 -10   3 -11   -8.37   21.15
  10  -3 -11    1.25   21.73
  10   4 -11  312.53   28.06
 -10  -4 -11  191.80   43.41
 -10  -4 -11  286.85   38.62
 -10   4 -11  300.71   31.92
  10  -4 -11  290.04   33.37
  10  -4 -11  277.45   44.72
 -10  -5 -11  -12.63   30.11
 -10  -5 -11  -23.81   31.10
 -10   5 -11   -1.68   22.88
  10  -5 -11   35.37   24.82
  10  -5 -11   14.64   29.96
 -10   5 -11   37.55   25.21
 -10  -6 -11  152.20   32.02
 -10  -6 -11  104.14   34.52
  10  -6 -11  180.57   32.59
 -10   6 -11  128.19   26.15
  10  -6 -11   69.30   29.00
 -10  -7 -11  -40.08   29.93
 -10  -7 -11   53.20   32.43
  10  -7 -11   -1.41   28.20
 -10   7 -11    3.17   13.40
  10  -7 -11    1.34   27.05
 -10   7 -11   -3.95   26.25
 -10  -8 -11   61.51   33.37
 -10  -8 -11   15.04   31.27
  10  -8 -11   22.16   29.27
  10  -8 -11  -20.60   32.19
 -10   8 -11   11.11   14.93
 -10   8 -11    6.29   27.77
 -10  -9 -11  -10.78   30.97
 -10  -9 -11   -1.99   36.33
  10  -9 -11   -8.63   29.11
  10  -9 -11  -37.28   33.01
 -10   9 -11   -3.70   14.99
 -10   9 -11   23.34   29.49
 -10 -10 -11   -1.66   39.72
 -10 -10 -11  -25.33   33.42
 -10  10 -11  -11.42   15.10
  10 -10 -11   11.80   36.16
 -10   0 -12    0.96   23.87
  10   0 -12   19.41   21.33
 -10   0 -12  -16.25   26.51
  10   0 -12   65.49   27.30
 -10  -1 -12   81.53   26.94
 -10  -1 -12   44.26   28.26
 -10   1 -12   71.50   26.74
  10  -1 -12  122.55   23.54
 -10   1 -12   48.32   23.70
 -10  -2 -12  -25.22   26.28
  10   2 -12   28.71   21.78
 -10  -2 -12    6.33   30.60
  10  -2 -12   12.97   27.14
  10  -2 -12   13.22   22.46
 -10   2 -12    9.02   23.39
 -10   2 -12   26.77   24.78
  10   3 -12  340.16   31.07
 -10  -3 -12  223.37   40.78
 -10  -3 -12  321.95   40.51
  10  -3 -12  320.38   34.21
  10  -3 -12  391.37   50.77
 -10   3 -12  254.17   46.52
 -10   3 -12  302.35   33.55
 -10  -4 -12   -2.93   34.75
 -10  -4 -12  -43.26   28.65
  10   4 -12   44.06   21.71
 -10   4 -12   -6.98   23.35
  10  -4 -12   40.29   24.93
 -10  -5 -12  222.84   40.72
 -10  -5 -12  122.09   36.55
  10  -5 -12  175.01   33.15
  10  -5 -12  190.80   33.08
 -10   5 -12  225.49   32.00
 -10  -6 -12   30.14   34.74
 -10  -6 -12   34.52   33.41
  10  -6 -12   25.91   26.84
 -10   6 -12   -1.12   25.94
  10  -6 -12   33.92   31.04
 -10  -7 -12    1.68   32.93
 -10  -7 -12  -35.17   35.11
 -10   7 -12   17.70   28.21
  10  -7 -12   39.70   28.97
  10  -7 -12   25.75   30.69
 -10  -8 -12  -24.77   36.53
 -10  -8 -12   31.87   36.08
  10  -8 -12    7.04   33.64
 -10   8 -12  -19.00   29.57
 -10   8 -12   -0.43   14.59
  10  -8 -12  -20.90   29.20
 -10  -9 -12   38.00   37.74
 -10  -9 -12   -4.90   35.06
 -10   9 -12    2.81   14.75
 -10   9 -12   35.61   31.52
  10  -9 -12   -3.51   34.21
 -10   0 -13   -8.84   25.65
  10   0 -13   31.15   23.34
 -10   0 -13   -7.04   30.78
 -10  -1 -13   -4.32   27.46
  10   1 -13   35.62   23.27
 -10  -1 -13   -4.41   40.47
  10  -1 -13  -37.94   36.04
  10  -1 -13   20.34   23.63
 -10   1 -13  -19.58   24.52
 -10   1 -13    9.46   32.27
  10   2 -13  188.57   30.54
 -10  -2 -13  147.61   38.00
 -10  -2 -13  202.23   37.33
  10  -2 -13  319.45   56.45
 -10   2 -13  165.26   29.23
  10  -2 -13  183.87   31.43
 -10   2 -13  290.25   52.83
  10   3 -13   10.55   23.68
 -10  -3 -13  -52.34   35.32
 -10  -3 -13   -0.45   29.31
 -10   3 -13  -29.93   24.67
  10  -3 -13    9.65   24.57
  10  -3 -13   31.71   34.04
 -10  -4 -13  174.85   35.36
 -10  -4 -13  177.00   42.71
 -10   4 -13  210.33   32.64
  10  -4 -13  245.66   42.53
  10  -4 -13  192.53   33.59
 -10  -5 -13   35.14   38.17
 -10  -5 -13   21.00   33.24
  10  -5 -13   27.71   26.49
 -10   5 -13   40.58   26.44
  10  -5 -13   25.87   31.80
 -10  -6 -13   33.70   39.40
 -10  -6 -13   35.00   34.18
 -10   6 -13   22.26   29.11
  10  -6 -13   36.12   33.49
  10  -6 -13   47.71   28.37
 -10  -7 -13    5.26   35.87
 -10  -7 -13   16.66   40.13
  10  -7 -13   -0.06   34.63
  10  -7 -13   33.06   28.61
 -10   7 -13   20.64   31.68
  10   0 -14   23.93   25.07
 -10   0 -14  -13.87   27.94
 -10  -1 -14   72.62   41.88
  10   1 -14   45.84   25.43
 -10  -1 -14   43.56   29.71
  10  -1 -14   68.97   26.64
 -10   1 -14   73.00   39.21
 -10   1 -14   17.07   27.45
  10   2 -14  -22.16   24.20
 -10  -2 -14    4.26   39.63
 -10  -2 -14    8.68   31.32
 -10   2 -14  -18.64   28.24
  10  -2 -14    4.74   25.85
 -10  -3 -14  108.37   34.56
 -10  -3 -14  105.93   41.98
  10   3 -14   79.00   27.64
  10  -3 -14  134.19   54.94
  10  -3 -14  125.69   28.14
 -10   3 -14  111.20   28.91
 -10  -4 -14   40.24   33.48
 -10  -4 -14    1.33   41.90
  10  -4 -14   46.40   38.98
  10  -4 -14   23.39   27.64
 -10   4 -14    1.95   28.26
 -10  -5 -14   22.64   35.77
 -10  -5 -14   12.18   44.45
 -10   5 -14   43.52   29.61
  10  -5 -14   80.43   29.20
  10  -5 -14    5.63   37.53
 -10  -6 -14    1.04   37.32
 -10  -6 -14   13.01   45.60
  10  -6 -14  -12.98   36.96
  10  -6 -14   25.14   28.69
 -10   6 -14  -45.43   31.70
 -10   0 -15  105.95   46.64
  10   0 -15   -2.00   27.45
 -10   0 -15   -4.94   30.05
 -10  -1 -15   58.69   43.98
 -10  -1 -15    9.74   31.38
  10   1 -15  -33.62   27.17
 -10   1 -15  -23.65   31.37
  10  -1 -15  -14.95   27.57
 -10  -2 -15    8.81   45.45
  10   2 -15    2.89   28.52
 -10  -2 -15   81.72   35.06
 -10   2 -15   21.90   31.05
  10  -2 -15   18.70   28.44
 -10  -3 -15    5.13   34.95
 -10  -3 -15   39.00   48.48
  10  -3 -15    4.87   28.11
 -10   3 -15   15.30   30.30
 -11   0   0  -11.48   11.90
 -11   0   0    6.19    9.05
 -11   0   0   -1.54   14.06
  11   0   0   -3.00    9.12
 -11   1   0  128.73   25.61
 -11   1   0  115.35   15.23
 -11   1   0  143.02   18.95
 -11  -1   0  142.98   18.51
 -11  -1   0  134.07   14.78
 -11  -1   0   87.66   14.32
  11   1   0  102.54   15.48
  11  -1   0  111.38   15.68
 -11  -2   0  731.22   42.06
 -11   2   0  748.94   46.54
  11   2   0  690.08   42.67
 -11   2   0  709.41   47.79
 -11  -2   0  733.86   47.14
 -11   2   0  778.10   42.89
 -11  -2   0  732.85   45.83
 -11  -3   0   -1.82   11.93
 -11   3   0    1.54   12.50
 -11  -3   0    8.43   15.41
 -11   3   0   -4.82   15.83
 -11   3   0   -7.63   11.18
 -11  -3   0   18.44    9.75
  11   3   0   -4.93    9.88
 -11  -4   0  719.26   47.01
  11  -4   0  695.92   44.97
 -11  -4   0  797.72   48.56
 -11   4   0  773.41   44.39
 -11   4   0  784.79   47.15
  11  -4   0  715.77   49.46
 -11  -4   0  704.97   43.04
 -11   4   0  724.10   49.30
  11   4   0  754.13   43.53
 -11   5   0  213.51   23.72
 -11   5   0  280.57   27.66
  11   5   0  237.10   22.32
 -11  -5   0  236.96   28.31
  11  -5   0  279.02   35.46
 -11   5   0  289.93   30.14
  11  -5   0  250.36   26.88
 -11  -5   0  255.99   30.34
  11  -6   0  284.05   37.17
  11  -6   0  215.64   27.34
 -11  -6   0  225.33   29.77
 -11  -6   0  180.21   31.79
  11   6   0  219.40   22.34
 -11   6   0  198.02   24.12
 -11   7   0   54.98   16.68
  11  -7   0   79.69   21.31
 -11  -7   0   54.74   23.99
  11  -7   0   46.26   19.38
 -11  -7   0   28.89   17.18
  11   7   0   37.29   15.49
  11   8   0  -21.26   16.09
  11  -8   0  -25.42   22.41
 -11  -8   0   30.62   20.73
 -11  -8   0  -19.62   17.77
 -11   8   0  -23.68   16.93
  11  -8   0  -21.27   18.18
  11  -9   0  -23.58   25.96
 -11  -9   0   27.53   26.54
 -11  -9   0  -27.02   19.66
 -11   9   0  -30.34   18.66
  11  -9   0  -39.50   27.31
  11 -10   0   25.41   24.61
 -11 -10   0   -8.97   23.45
 -11  10   0   17.40   21.35
  11 -10   0   -6.87   21.79
  11  10   0    3.65   20.28
 -11 -11   0  -34.22   27.26
  11 -11   0  -32.29   27.29
 -11  11   0    7.83   22.20
  11  11   0   -0.16   21.47
  11 -12   0  -12.17   31.11
  11  12   0   28.41   22.80
  11 -12   0  -36.73   29.75
 -11 -12   0    3.98   30.56
 -11  12   0   11.66   23.83
  11 -13   0  -49.65   33.47
 -11  13   0   -0.73   24.73
  11  13   0    7.66   23.82
 -11  14   0   -9.31   27.25
  11 -14   0  -31.82   34.78
  11  14   0   11.40   25.71
 -11   0   1  118.78   20.56
 -11   0   1  124.11   18.19
 -11   0  -1   95.24   15.44
  11   0   1   99.74   15.09
  11   0  -1  106.80   14.74
 -11   0  -1  107.72   15.46
 -11   0   1  102.80   14.56
 -11   0  -1  117.44   17.46
 -11  -1  -1  429.09   33.15
 -11   1   1  398.86   30.59
 -11  -1  -1  399.73   26.28
 -11  -1  -1  371.14   30.56
  11  -1   1  371.63   26.22
 -11   1   1  388.07   26.54
  11   1  -1  380.88   25.95
 -11   1   1  429.14   33.10
 -11  -1   1  382.54   30.47
 -11   1  -1  381.54   26.22
 -11  -1   1  435.67   32.48
  11  -1  -1  406.51   26.02
 -11  -1   1  389.94   26.04
  11   1   1  362.28   26.09
 -11   1  -1  403.55   33.52
 -11   1  -1  359.49   30.84
 -11  -2  -1   39.12   13.81
 -11   2   1   51.53   13.23
 -11  -2  -1   63.09   15.65
 -11   2   1   82.72   16.93
  11   2  -1   55.53   11.35
 -11  -2  -1   63.06   11.52
 -11   2   1   86.48   12.62
 -11   2  -1   45.31   10.88
 -11   2  -1   43.50   17.31
 -11   2  -1   23.88   13.50
  11   2   1   57.56   11.49
 -11  -2   1   69.35   16.24
 -11  -2   1   23.04   12.40
 -11  -3  -1  674.82   43.43
 -11  -3  -1  671.28   45.52
 -11   3   1  693.59   45.44
  11   3  -1  677.83   40.09
 -11   3   1  728.97   40.97
 -11   3   1  690.46   43.48
 -11  -3  -1  672.01   43.91
 -11  -3   1  683.81   43.85
 -11   3  -1  707.85   40.40
  11  -3  -1  609.34   45.31
 -11  -3   1  634.86   40.20
 -11  -3   1  728.07   44.57
 -11   3  -1  679.88   46.35
 -11   3  -1  705.48   44.91
  11   3   1  664.58   40.27
 -11  -4  -1   64.05   12.59
  11   4  -1   66.73   12.12
  11  -4   1   42.30   14.29
 -11   4   1   64.15   13.75
 -11   4   1   95.82   17.41
 -11  -4  -1   65.24   16.97
 -11   4   1   82.26   14.22
 -11  -4  -1   49.71   14.78
  11   4   1   62.36   12.06
 -11   4  -1   86.43   18.65
 -11  -4   1   51.70   13.03
 -11  -4   1   76.82   18.44
 -11   4  -1   55.85   13.08
  11  -4  -1   79.71   14.87
 -11   4  -1   64.15   15.26
  11  -4  -1   44.83   15.53
 -11   5   1  460.06   32.08
  11  -5   1  460.86   42.67
  11   5  -1  475.72   31.31
 -11  -5  -1  431.85   36.22
  11  -5   1  435.13   34.55
 -11  -5  -1  454.83   38.44
 -11  -5  -1  438.86   35.73
 -11   5  -1  513.36   35.99
 -11   5  -1  491.90   38.75
  11   5   1  459.89   31.33
 -11  -5   1  504.60   36.55
 -11  -5   1  491.57   36.61
  11  -5  -1  440.88   34.39
  11  -5  -1  499.98   41.69
 -11   5  -1  471.32   32.13
  11  -6   1  180.93   35.80
 -11   6   1  140.43   21.76
  11   6  -1  197.21   20.76
  11  -6   1  191.82   26.11
 -11  -6  -1  144.94   24.29
 -11  -6   1  178.96   29.11
  11  -6  -1  179.64   35.10
 -11   6  -1  138.05   22.38
  11  -6  -1  151.13   26.37
 -11   6  -1  222.65   30.29
  11   6   1  181.09   21.20
 -11  -6   1  211.63   28.57
 -11   6  -1  247.84   27.06
 -11  -7  -1   -7.88   17.77
  11  -7   1   29.48   20.67
 -11  -7  -1   46.88   24.06
  11  -7   1   22.00   26.37
 -11   7   1    9.14   16.43
  11   7  -1   21.56   15.21
  11  -7  -1   36.98   20.72
  11  -7  -1   12.26   18.01
  11   7   1   27.58   16.03
 -11   7  -1   -3.69   16.48
 -11  -7   1   37.83   19.36
  11  -8   1  -18.39   18.40
  11  -8   1  -22.61   22.50
 -11   8   1   -4.34   17.11
  11   8  -1   -6.39   16.12
 -11  -8  -1   -5.34   26.86
  11   8   1  -16.23   16.31
 -11  -8   1   60.34   30.01
  11  -8  -1    1.82   22.55
 -11  -8   1  -13.53   16.27
  11  -8  -1  -14.90   18.63
  11  -9   1   -3.13   23.21
 -11   9   1    5.50   18.79
 -11  -9  -1  -28.48   24.60
  11  -9   1    9.19   25.12
 -11  -9  -1  -20.34   21.60
 -11  -9   1    3.83   18.29
  11   9   1  -12.07   29.45
 -11   9  -1  -41.82   19.80
  11  -9  -1   44.00   26.24
 -11 -10  -1  -10.08   33.29
 -11  10   1    4.48   21.27
 -11 -10  -1   68.44   33.81
  11 -10   1  -22.61   24.32
  11  10  -1  -12.03   19.40
 -11  10  -1  -12.72   20.85
  11 -10  -1  -33.02   24.08
 -11 -10   1    1.49   20.60
  11  10   1    1.09   20.47
  11 -11   1  -12.91   26.77
  11  11  -1    6.51   20.66
 -11  11   1   21.44   22.51
 -11 -11  -1   21.31   28.38
  11  11   1   37.21   22.12
  11 -11  -1  -20.13   27.93
 -11  11  -1   16.40   22.66
 -11 -12  -1   -3.20   32.52
 -11  12   1  -11.41   23.66
  11 -12   1  -41.15   30.77
  11  12  -1   -2.28   21.77
  11  12   1   22.32   23.50
  11 -12  -1  -46.74   28.37
 -11  12  -1  -19.98   23.04
  11 -12  -1  -19.38   31.39
  11 -13   1  -16.03   32.35
 -11 -13  -1    5.91   37.84
  11  13  -1   33.38   25.47
 -11  13   1   30.71   26.85
  11  13   1  -16.89   23.88
  11 -13  -1   -8.37   33.63
 -11  13  -1   21.13   25.03
  11 -14   1  -16.75   33.54
 -11  14   1  -37.71   29.03
  11  14  -1   12.51   24.89
  11 -14  -1  -17.85   35.27
 -11  14  -1   -2.47   26.15
  11  14   1    6.34   26.42
 -11   1   2   16.54   15.40
 -11   1   2   16.30   13.81
 -11  -1  -2    4.38   10.00
  11   1  -2   16.78    9.91
 -11  -1  -2   27.32   15.05
 -11  -1  -2   19.19   13.27
 -11   1   2   24.43   11.90
  11  -1   2    9.99    9.89
  11   1   2   26.46   10.94
 -11   1  -2    8.62   10.24
 -11  -1   2    7.29   11.47
 -11  -1   2   25.90   16.12
  11  -1  -2   25.52    9.99
 -11   1  -2    4.74   15.32
 -11  -1   2   20.81   10.01
 -11   1  -2    0.77   13.39
 -11  -2  -2  290.83   29.40
 -11   2   2  306.53   21.05
  11   2  -2  245.31   20.97
 -11   2   2  284.55   25.75
 -11  -2  -2  285.04   20.79
 -11  -2  -2  259.53   26.02
 -11   2   2  286.80   27.69
 -11  -2   2  240.52   25.86
 -11   2  -2  241.21   21.28
 -11  -2   2  315.11   27.28
 -11   2  -2  224.55   26.84
  11   2   2  272.75   21.40
 -11   2  -2  217.58   29.62
  11   3  -2   10.96   10.22
 -11   3   2   14.02   10.51
 -11   3   2   34.10   12.27
 -11  -3  -2   22.07   15.74
 -11  -3  -2    2.96   13.93
 -11  -3   2   -1.01   16.42
  11   3   2   23.68   10.64
  11  -3  -2   19.60   12.62
 -11   3  -2  -10.89   11.05
 -11  -3   2   11.25   11.59
 -11   3  -2    8.35   17.43
 -11   3  -2   -7.51   13.56
 -11  -4  -2  291.61   33.27
  11   4  -2  351.69   24.11
 -11  -4  -2  326.51   30.40
  11  -4   2  272.85   33.17
 -11   4   2  342.16   24.55
 -11   4  -2  310.22   33.87
  11  -4  -2  321.00   27.23
 -11  -4   2  361.07   29.50
 -11   4  -2  346.04   24.52
 -11  -4   2  313.63   29.24
 -11   4  -2  360.63   31.67
  11   4   2  330.99   24.65
  11  -4  -2  349.11   35.55
  11  -5   2  153.18   20.38
 -11   5   2  127.41   19.96
  11   5  -2  166.07   18.67
 -11  -5  -2  130.31   22.46
 -11   5  -2  171.60   31.69
  11  -5  -2  173.88   32.92
 -11  -5   2  165.77   25.82
 -11   5  -2  104.83   19.10
  11   5   2  145.48   19.11
  11  -5  -2  151.18   23.84
 -11   5  -2  185.66   26.71
  11  -6   2  112.75   21.23
  11  -6   2  145.40   25.96
 -11  -6  -2  111.62   23.35
 -11   6   2  139.08   18.14
  11   6  -2  137.39   19.24
 -11   6  -2  180.45   26.94
 -11   6  -2  118.35   17.52
 -11   6  -2  195.92   30.91
 -11  -6   2  163.34   26.95
  11  -6  -2  148.65   25.22
 -11  -6   2  148.78   26.12
  11  -6  -2  194.53   34.38
  11   6   2  125.85   20.27
 -11  -7  -2  -19.63   23.61
 -11   7   2  -30.64   15.49
  11  -7   2  -24.57   20.60
  11   7  -2   -7.73   14.45
 -11  -7   2  -20.40   13.65
  11  -7  -2  -16.47   18.55
  11   7   2  -10.99   15.39
 -11   7  -2    5.39   18.27
  11  -7  -2    0.68   19.45
 -11  -8  -2   16.41   26.37
  11  -8   2   -6.86   18.70
 -11   8   2    2.23   16.71
  11   8  -2  -13.28   15.24
  11  -8   2  -17.59   23.06
 -11  -8   2  -17.31   14.37
  11  -8  -2    3.38   23.05
  11  -8  -2   -5.92   19.12
  11   8   2  -25.03   16.77
 -11  -9  -2  -35.66   23.44
 -11  -9  -2   37.77   27.03
  11  -9   2  -28.52   21.41
 -11   9   2  -21.47   18.50
  11  -9  -2  -16.19   24.41
  11  -9  -2  -12.58   26.63
 -11 -10  -2   31.50   32.48
 -11 -10  -2  -21.45   26.06
 -11  10   2   35.17   26.14
  11  10  -2   18.57   19.54
  11 -10   2  -38.86   24.49
  11 -10  -2   -3.34   24.71
  11 -10  -2  -22.96   28.57
 -11  10  -2  -15.42   20.58
  11  10   2   19.19   21.11
 -11  11   2   -3.92   22.92
  11  11  -2    1.24   20.32
 -11 -11  -2   71.67   42.15
 -11 -11  -2  -14.12   29.63
  11 -11   2  -36.46   26.60
  11 -11  -2  -36.26   30.96
  11  11   2   -0.87   23.85
 -11  11  -2    9.10   22.23
  11 -11  -2  -33.37   27.96
 -11 -12  -2  -14.14   32.03
  11 -12   2   34.41   29.46
  11  12  -2   30.97   22.16
 -11  12   2   -9.36   25.25
  11 -12  -2   -4.19   32.36
 -11  12  -2   26.14   23.62
  11  12   2    2.04   23.69
  11 -13   2  -30.74   29.08
  11  13  -2    3.94   22.73
 -11  13   2    2.35   28.23
 -11 -13  -2  -37.19   38.01
  11  13   2   14.43   26.42
  11 -13  -2   -6.01   34.52
 -11  13  -2   -3.52   24.72
 -11  14   2  -19.58   31.25
  11  14  -2   24.69   24.63
  11  14   2   28.50   27.11
 -11  14  -2   13.62   26.68
 -11   0  -3    4.20   13.19
 -11   0   3   41.07   15.32
 -11   0   3   23.83    9.67
 -11   0  -3    0.18   15.97
  11   0   3   19.46   10.55
 -11   0   3   18.00   10.99
  11   0  -3   38.91   10.18
  11  -1   3   29.01   10.82
 -11   1  -3    4.66   10.21
 -11   1  -3   -0.11   15.21
 -11   1  -3   22.54   13.02
 -11  -2  -3    5.36   13.46
 -11  -2  -3   45.51   17.06
  11   2  -3    4.28   10.78
 -11   2   3   43.92   10.74
  11  -2  -3   16.59   11.74
 -11   2  -3   10.86   10.79
 -11  -2   3   17.46   15.71
 -11   2  -3   -3.67   14.11
  11   2   3   24.04   11.19
 -11   2  -3   27.87   16.04
 -11  -2   3   20.22   10.87
  11   3  -3  101.93   13.05
 -11  -3  -3  112.80   18.74
 -11   3   3  120.25   15.79
 -11  -3  -3   88.68   16.30
  11  -3  -3  101.59   17.79
  11   3   3   96.08   16.58
 -11   3  -3  102.31   13.72
 -11  -3   3   68.23   12.55
  11  -3  -3   83.89   14.95
 -11   3  -3   92.97   18.02
 -11   3  -3   87.81   16.13
  11   4  -3    1.79   10.63
 -11  -4  -3   -3.95   17.47
 -11  -4  -3   -4.21   15.24
 -11   4   3   10.29   11.59
 -11  -4   3   18.92   17.10
  11  -4  -3    2.31   15.80
  11   4   3    5.35   11.87
  11  -4  -3   20.74   14.52
 -11   4  -3  -19.80   12.02
 -11  -4   3   14.31   11.46
 -11   4  -3    3.91   15.38
 -11   4  -3    0.59   17.48
 -11   5   3   53.66   13.63
  11   5  -3   61.22   12.33
 -11  -5  -3   27.30   16.40
 -11  -5  -3   59.99   20.11
  11  -5   3   47.22   18.05
  11  -5   3   22.10   16.69
 -11   5  -3   41.37   16.27
 -11   5  -3   16.50   13.22
  11  -5  -3   83.75   17.27
  11   5   3   60.10   13.84
 -11  -5   3   35.17   12.26
 -11   5  -3   60.55   19.97
  11  -5  -3   73.22   17.41
 -11  -5   3   12.10   31.40
  11  -6   3  -12.40   19.14
 -11   6   3  -10.50   14.43
  11  -6   3  -32.37   17.87
 -11  -6  -3   -8.08   21.55
  11   6  -3   -0.47   12.68
 -11   6  -3  -17.02   18.49
 -11   6  -3   10.56   16.45
 -11  -6   3   -4.71   11.72
  11  -6  -3  -11.70   16.29
  11  -6  -3   -3.50   18.06
  11   6   3   -8.05   14.16
 -11   7   3   60.37   16.95
 -11  -7  -3   20.77   18.29
  11  -7   3   95.71   22.46
 -11  -7  -3   73.79   25.31
  11   7  -3   58.92   14.84
  11  -7   3   33.92   18.91
 -11   7  -3   60.07   16.29
  11  -7  -3   89.51   20.31
  11  -7  -3   50.67   18.99
  11   7   3   75.25   16.52
 -11   7  -3   98.86   20.92
 -11   7  -3   83.07   17.69
 -11   8   3  -28.79   16.91
  11  -8   3  -19.46   18.40
  11   8  -3   -4.87   15.26
 -11  -8  -3  -22.00   19.34
 -11  -8  -3   10.75   27.65
  11  -8   3  -24.41   18.08
  11  -8  -3   22.41   23.28
  11  -8  -3  -32.18   20.33
 -11   8  -3  -32.38   16.19
  11   8   3    6.78   17.21
 -11   9   3    7.57   19.26
  11  -9   3  -13.93   21.35
 -11  -9  -3   22.97   33.03
  11   9  -3   24.34   18.25
 -11  -9  -3   -8.61   25.17
  11  -9  -3   29.21   26.89
 -11   9  -3  -21.53   18.37
  11  -9  -3  -18.22   22.48
  11   9   3    0.07   23.89
  11  10  -3    3.96   18.46
 -11 -10  -3  -14.10   29.32
 -11 -10  -3  -17.05   24.80
  11 -10   3   -1.98   24.95
 -11  10  -3  -11.95   20.06
  11 -10  -3    4.00   31.10
  11  10   3   20.90   21.48
  11 -10  -3   -5.22   24.80
  11 -11   3   16.50   26.84
  11  11  -3   72.59   20.43
 -11 -11  -3    1.12   27.99
 -11  11   3    1.28   24.56
 -11 -11  -3   78.49   40.21
  11 -11  -3  -14.30   28.81
 -11  11  -3   34.46   22.35
  11 -11  -3   -9.39   35.51
  11  11   3   55.51   23.71
 -11  12   3    6.41   27.57
  11  12  -3   18.08   21.61
 -11 -12  -3  -18.33   34.33
  11 -12   3  -50.40   27.55
 -11  12  -3  -15.80   22.89
  11 -12  -3  -38.23   32.98
  11 -12  -3  -57.10   29.13
  11  12   3   40.64   25.27
  11  13  -3   17.72   24.59
 -11 -13  -3  -16.08   38.72
 -11  13   3   -1.37   30.25
  11 -13   3   -7.65   28.37
  11 -13  -3  -40.57   35.17
  11  13   3   16.51   26.45
  11 -13  -3  -31.54   33.16
 -11  13  -3    9.50   24.20
  11   0  -4    6.28    9.56
 -11   0  -4  -15.86   15.31
 -11   0  -4    6.67   13.19
  11   0   4    0.27   10.74
  11  -1   4  -14.48   11.51
  11   1  -4   -6.38   10.00
 -11   1   4    4.80   10.53
 -11  -1  -4   17.08   16.55
 -11  -1  -4   -7.01   13.25
 -11   1  -4  -20.84   13.03
  11   1   4    6.39   10.76
 -11   1  -4    8.05   15.77
  11   2  -4   -3.53   11.26
 -11  -2  -4   42.51   14.38
 -11  -2  -4   33.39   16.60
  11   2   4   28.66   11.99
 -11   2  -4  -11.91   16.10
 -11  -2   4   12.65    9.83
  11  -2  -4   10.69   11.97
 -11   2  -4   -5.43   14.35
 -11   2  -4  -14.09   10.41
 -11  -3  -4  -21.89   13.92
  11   3  -4   -6.78   10.81
 -11  -3  -4  -19.96   16.90
 -11   3   4   -6.87   10.37
  11  -3  -4   -4.95   13.15
 -11   3  -4  -23.58   11.02
  11  -3  -4  -12.84   13.36
 -11   3  -4  -19.80   15.76
 -11   3  -4   -6.44   15.01
 -11  -3   4   -0.36    9.82
  11   3   4    8.79   12.07
  11   4  -4  -18.65   10.83
 -11  -4  -4  -25.37   15.07
 -11   4   4   -0.61   12.35
 -11  -4  -4   -0.32   17.65
 -11   4  -4  -22.17   15.30
  11   4   4    4.37   12.30
  11  -4  -4   -6.22   15.21
  11  -4  -4   -5.54   14.60
 -11  -5  -4   35.16   20.29
  11   5  -4   39.70   11.74
  11  -5   4   -3.41   17.09
 -11  -5  -4   10.99   16.40
 -11   5   4   28.42   13.76
  11  -5   4   11.68   18.21
 -11   5  -4   37.52   19.23
 -11   5  -4   -3.17   13.30
  11   5   4   29.47   13.89
 -11   5  -4   25.91   16.82
  11  -5  -4   47.19   16.68
  11  -5  -4   20.99   16.46
  11   6  -4   57.18   13.13
 -11   6   4   64.14   16.18
 -11  -6  -4   32.11   17.50
  11  -6   4   98.24   21.73
  11  -6   4   29.69   19.33
 -11  -6  -4   88.49   23.11
  11   6   4   63.16   15.86
 -11   6  -4   91.03   18.98
  11  -6  -4   57.47   18.79
  11  -6  -4   70.90   18.81
 -11   6  -4  100.46   20.69
 -11   6  -4   43.55   14.41
  11  -7   4   14.12   18.32
 -11   7   4    6.39   16.20
 -11  -7  -4   10.53   17.80
  11   7  -4   27.97   13.47
 -11  -7  -4  -10.04   23.37
  11  -7   4   10.97   17.21
  11  -7  -4   42.50   19.83
  11  -7  -4    9.28   18.95
 -11   7  -4   41.63   19.59
 -11   7  -4   30.99   17.60
 -11   7  -4  -11.53   13.87
  11   7   4   16.36   16.13
 -11   8   4   82.01   19.42
  11   8  -4   80.65   16.42
 -11  -8  -4  113.83   29.13
 -11  -8  -4   45.28   22.22
  11  -8   4   22.74   22.06
  11  -8   4   65.24   19.42
  11   8   4   53.17   18.44
  11  -8  -4   50.54   24.48
 -11   8  -4   56.13   18.79
  11  -8  -4   96.10   24.41
 -11  -9  -4  -11.31   22.70
 -11  -9  -4    5.77   33.08
 -11   9   4    4.24   20.41
  11   9  -4   19.33   16.70
  11  -9   4  -32.37   20.44
  11  -9  -4    1.36   23.06
  11  -9  -4  -19.86   28.18
 -11   9  -4  -21.19   18.12
  11   9   4  -12.99   24.22
  11  10  -4   94.24   19.37
 -11 -10  -4   52.16   39.59
 -11 -10  -4   24.15   25.26
 -11  10   4   69.78   27.18
  11 -10   4   77.23   40.52
  11 -10  -4   54.42   33.79
  11 -10  -4   20.00   24.88
  11  10   4   91.39   23.41
 -11  10  -4   79.53   20.64
  11 -11   4    7.09   26.15
 -11 -11  -4   65.42   38.95
 -11 -11  -4   -2.08   27.05
  11  11  -4    6.38   20.01
 -11  11   4    0.92   26.99
  11  11   4    6.75   24.08
  11 -11  -4  -18.79   34.25
 -11  11  -4    3.73   21.59
  11 -11  -4  -29.66   29.51
  11  12  -4   34.27   21.39
 -11 -12  -4   33.39   55.83
 -11  12   4  -24.81   28.77
 -11 -12  -4    3.22   30.83
  11 -12  -4    4.58   37.72
  11  12   4   -2.92   25.77
  11 -12  -4   -6.81   32.93
 -11  12  -4   32.62   23.12
  11  13  -4   12.92   22.76
 -11  13   4    0.82   32.56
 -11 -13  -4   -1.13   38.33
  11  13   4   20.00   28.11
  11 -13  -4  -26.12   31.87
  11 -13  -4  -14.38   35.24
 -11  13  -4    8.90   23.01
  11   0   5   13.00   12.30
 -11   0  -5   10.00   14.68
  11   0  -5   18.82   10.42
 -11   0  -5   13.24   17.51
  11   1  -5    3.33   10.39
 -11  -1  -5   -7.46   14.15
 -11  -1  -5   17.58   16.96
  11  -1  -5    7.97   12.76
 -11   1  -5   -4.68   16.65
  11   1   5   19.21   11.62
 -11   1  -5    4.92   14.48
 -11   2   5  -11.25   15.25
 -11  -2  -5   -2.90   16.52
  11   2  -5  -23.06   11.08
 -11  -2  -5   -1.46   15.34
 -11   2  -5  -11.99   17.29
  11   2   5    0.65   12.83
 -11   2  -5  -19.45   13.82
  11  -2  -5    1.97   14.36
  11  -2  -5    4.56   12.78
  11   3  -5  132.84   17.35
 -11   3   5  146.68   19.57
 -11  -3  -5   84.01   17.89
 -11  -3  -5  131.94   24.82
 -11   3  -5  140.88   24.28
  11   3   5  127.48   19.40
  11  -3  -5  155.74   30.48
  11  -3  -5  149.08   21.36
 -11   3  -5  100.03   17.34
 -11   4   5   51.56   15.11
 -11  -4  -5   45.07   19.22
 -11  -4  -5   37.13   16.33
  11   4  -5   61.84   11.82
 -11   4  -5   32.66   13.04
  11  -4  -5   68.14   16.00
  11  -4  -5   57.16   16.69
  11   4   5   55.99   14.13
 -11   4  -5   56.04   16.74
 -11   4  -5   52.65   18.98
  11  -5   5  -21.42   17.15
  11   5  -5    0.97   11.36
 -11  -5  -5    3.53   20.19
  11  -5   5    0.07   18.81
 -11  -5  -5   -6.60   16.30
 -11   5   5   -7.31   15.63
 -11   5  -5    9.25   19.33
  11  -5  -5  -12.39   16.12
 -11   5  -5  -17.37   13.54
 -11   5  -5   11.62   16.68
  11   5   5    5.31   14.30
  11  -5  -5   13.90   16.74
  11  -6   5  115.78   20.65
 -11  -6  -5  176.63   29.14
 -11   6   5  123.12   21.56
 -11  -6  -5   91.89   20.40
  11   6   5  149.32   20.90
 -11   6  -5   90.45   16.14
 -11   6  -5  141.70   22.84
 -11   6  -5  169.27   34.06
  11  -6  -5   95.65   18.63
  11   7  -5  104.74   17.64
 -11  -7  -5   64.64   20.66
  11  -7   5   92.42   19.60
 -11   7   5  103.61   19.49
 -11  -7  -5  112.22   26.50
  11  -7  -5   57.85   19.91
  11   7   5   81.92   18.60
  11  -7  -5  152.97   27.80
 -11   7  -5  101.75   16.10
 -11   7  -5   92.72   20.51
 -11   7  -5  160.36   28.07
 -11  -8  -5  -16.57   21.67
 -11   8   5   15.27   20.01
  11   8  -5   23.35   14.94
 -11  -8  -5   28.04   29.37
  11  -8   5   -6.78   19.14
  11   8   5   11.33   18.43
 -11   8  -5   28.95   23.15
  11  -8  -5   -1.20   26.92
 -11   8  -5  -17.75   15.94
 -11   8  -5   -5.81   21.90
  11  -8  -5    7.11   24.76
  11   9  -5  163.30   21.94
 -11   9   5  144.13   25.63
  11  -9   5  237.38   36.18
 -11  -9  -5  142.15   36.27
  11  -9  -5  181.28   33.26
  11  -9  -5  276.21   44.85
 -11   9  -5  187.79   24.84
  11  10  -5   -8.45   17.71
 -11 -10  -5  -13.77   40.78
  11 -10   5   12.21   25.77
 -11 -10  -5   -9.30   24.27
 -11  10   5  -15.50   24.73
  11  10   5   -0.90   23.82
 -11  10  -5   -0.29   18.67
  11 -10  -5  -20.33   26.86
  11 -10  -5   58.84   32.64
 -11  11   5   26.03   29.92
 -11 -11  -5   21.47   27.87
  11  11  -5   27.72   19.96
 -11 -11  -5   23.29   44.43
  11 -11  -5   51.12   35.55
 -11  11  -5   57.33   21.19
  11 -11  -5  -30.30   28.82
  11  11   5   56.41   26.73
  11  12  -5  -13.36   20.89
 -11 -12  -5   -9.21   30.13
 -11 -12  -5   15.55   55.01
 -11  12   5  -14.34   32.01
  11 -12  -5   26.97   37.84
  11 -12  -5  -31.97   33.54
 -11  12  -5  -18.13   22.52
  11  12   5    8.77   27.83
  11  13  -5   11.77   24.97
 -11  13   5  -26.51   35.65
 -11 -13  -5  126.45   71.33
 -11 -13  -5   -0.47   34.35
  11  13   5   20.80   30.46
  11 -13  -5  -12.69   41.05
  11 -13  -5  -17.56   36.39
 -11  13  -5   27.31   24.64
 -11   0  -6    4.32   17.88
  11   0  -6    5.97   11.16
  11   0   6   -0.90   13.94
 -11   0  -6   -8.47   15.06
  11   0  -6   -6.06   13.65
  11   1  -6   10.27   10.70
 -11  -1  -6   -0.90   15.73
 -11  -1  -6   -2.54   17.25
 -11   1  -6   19.63   17.92
  11  -1  -6   -9.49   12.15
  11   1   6    8.44   13.00
  11  -1  -6   11.66   13.52
 -11   1  -6   -6.57   14.40
 -11  -2  -6  249.97   35.39
  11   2  -6  311.96   22.62
 -11  -2  -6  298.82   30.01
  11   2   6  279.18   25.50
  11  -2  -6  325.22   34.33
  11  -2  -6  306.63   25.74
 -11   2  -6  270.40   34.16
 -11   2  -6  359.98   29.92
  11   3  -6   74.11   12.78
 -11  -3  -6   21.01   16.92
 -11  -3  -6   42.50   19.48
 -11   3  -6   71.15   18.26
  11  -3  -6   72.44   16.09
  11  -3  -6   42.05   16.16
  11   3   6   49.35   15.33
 -11   3  -6   46.85   16.43
  11   4  -6  149.80   17.92
 -11  -4  -6  127.03   22.41
 -11  -4  -6   70.60   18.84
 -11   4  -6  173.67   32.89
 -11   4  -6  149.13   25.52
  11   4   6  112.59   16.68
  11  -4  -6  124.55   22.55
  11  -4  -6   89.92   18.51
  11   5  -6  234.08   20.01
 -11  -5  -6  214.70   29.11
  11  -5   6  218.75   38.77
 -11  -5  -6  169.79   34.65
 -11   5  -6  226.17   29.22
 -11   5  -6  190.48   21.15
  11   5   6  194.82   23.54
  11  -5  -6  221.46   35.11
  11  -5  -6  213.17   25.80
 -11   5  -6  198.13   35.55
 -11  -6  -6   42.46   22.96
  11  -6   6    3.88   21.11
  11  -6   6   49.27   19.23
 -11  -6  -6   13.92   18.62
 -11   6  -6   62.05   20.55
 -11   6  -6   62.64   19.57
  11   6   6   37.95   16.72
 -11   6  -6   28.82   14.62
  11  -6  -6   33.24   17.79
  11  -6  -6   80.16   19.84
 -11  -7  -6   26.33   24.49
  11  -7   6   34.06   18.56
  11   7  -6   45.76   13.50
  11  -7  -6   34.18   22.31
  11  -7  -6   20.54   20.68
  11   7   6   34.82   18.07
 -11   7  -6   49.64   21.23
 -11   7  -6   28.86   26.41
  11  -8   6  254.04   35.12
 -11  -8  -6  220.48   37.21
  11  -8  -6  253.27   35.07
  11   8   6  154.71   28.09
 -11   8  -6  213.07   23.88
  11  -8  -6  243.10   42.09
 -11   8  -6  311.80   49.54
 -11   8  -6  227.32   40.21
 -11   9   6  -11.57   16.81
  11   9  -6    8.59   15.52
 -11  -9  -6  -22.25   23.60
  11  -9  -6   25.66   29.03
 -11   9  -6  -11.39   15.39
  11  -9  -6   17.90   23.23
 -11 -10  -6   63.25   27.14
  11  10  -6  134.52   22.30
 -11 -10  -6  167.19   44.67
  11 -10  -6  116.19   28.27
  11  10   6   85.54   26.47
 -11 -11  -6  -30.69   27.89
 -11 -11  -6   55.82   53.45
  11  11  -6  -19.36   18.66
  11 -11  -6   22.32   30.55
  11  11   6    4.61   27.40
  11 -11  -6   43.54   35.28
 -11  11  -6   -2.43   19.98
  11  12  -6  -18.32   20.73
 -11 -12  -6  -46.51   47.29
 -11 -12  -6  -11.75   29.42
  11 -12  -6   -6.17   34.78
 -11  12  -6   -0.59   22.52
  11 -12  -6    1.69   38.10
  11  12   6   26.03   30.90
  11  13  -6  -30.04   24.70
  11  13   6    9.58   33.80
  11   0  -7   25.38   15.49
 -11   0  -7   25.89   16.58
  11   0   7   18.09   19.25
 -11   0  -7   31.32   19.94
 -11  -1  -7  163.26   26.29
 -11  -1  -7  109.05   19.47
  11   1  -7  162.37   31.27
  11   1  -7  162.39   18.00
 -11   1  -7  180.11   26.36
  11  -1  -7  144.30   18.78
 -11   1  -7  171.17   31.63
  11  -1  -7  157.51   21.09
 -11  -2  -7  -16.78   18.77
 -11  -2  -7   14.02   19.38
  11   2  -7   18.01   11.10
  11   2   7   24.73   14.64
  11  -2  -7    9.81   15.95
 -11   2  -7   -0.24   15.61
  11  -2  -7   31.09   14.59
 -11   2  -7   22.42   18.34
 -11  -3  -7  315.85   32.50
  11   3  -7  343.83   23.76
 -11  -3  -7  277.56   38.84
  11   3   7  313.20   28.42
  11  -3  -7  317.28   27.92
 -11   3  -7  352.88   31.37
 -11   3  -7  307.58   36.04
  11  -3  -7  346.00   36.72
 -11  -4  -7  100.68   21.50
 -11  -4  -7  147.89   23.64
  11   4  -7  158.02   18.31
 -11   4  -7  198.40   26.13
  11   4   7  139.03   23.24
  11  -4  -7  185.82   23.61
  11  -4  -7  177.58   33.44
 -11   4  -7  122.63   20.18
 -11  -5  -7   22.88   21.42
 -11  -5  -7   -1.16   18.80
  11  -5   7   -5.96   18.70
  11   5  -7   37.83   11.90
  11  -5   7   89.55   37.67
 -11   5  -7    2.27   18.66
 -11   5  -7   -2.73   13.39
 -11   5  -7   26.15   17.84
  11  -5  -7   23.44   17.05
  11  -5  -7   37.46   17.76
 -11  -6  -7   37.26   22.62
  11  -6   7   54.10   19.10
 -11  -6  -7   42.95   23.11
 -11   6  -7   35.17   16.31
  11  -6  -7   81.20   22.60
 -11   6  -7   50.36   21.25
  11   6   7   35.38   17.88
  11  -6  -7   29.98   18.81
 -11   6  -7   45.68   28.14
 -11  -7  -7  127.52   25.22
 -11  -7  -7  212.43   33.63
  11   7   7  195.10   26.45
 -11   7  -7  179.38   22.36
 -11   7  -7  210.36   32.55
  11  -7  -7  251.35   31.47
  11   8  -7    1.14   14.08
 -11  -8  -7  -32.68   23.65
 -11  -8  -7  -10.64   29.62
  11  -8  -7    1.08   22.04
 -11   8  -7   -6.16   15.37
  11  -8  -7   35.18   26.71
 -11   8  -7    8.86   23.57
  11   8   7  -11.83   21.10
  11   9  -7  208.97   24.13
 -11  -9  -7  231.20   46.36
 -11  -9  -7  288.92   45.02
  11  -9  -7  326.95   37.57
  11   9   7  249.66   43.38
 -11   9  -7  268.50   25.22
 -11 -10  -7    7.50   41.99
  11  10  -7  -14.47   16.65
 -11 -10  -7  -21.93   27.49
  11 -10  -7   -5.07   31.19
  11  10   7   11.54   28.71
 -11  10  -7   -3.39   17.49
  11 -10  -7   -4.94   27.08
 -11 -11  -7   38.90   51.76
  11  11  -7   28.07   19.02
 -11 -11  -7    5.67   27.73
  11 -11  -7  -20.56   31.03
  11 -11  -7  -14.11   35.09
 -11  11  -7   37.74   19.72
  11  11   7   50.31   31.02
 -11 -12  -7  -37.45   52.11
 -11 -12  -7   25.27   30.46
  11  12  -7   -4.69   20.40
  11 -12  -7    3.81   33.90
  11 -12  -7   -6.30   38.57
 -11  12  -7    7.91   21.75
  11  12   7   29.41   33.58
 -11   0  -8  -22.46   18.02
 -11   0  -8  -15.80   19.07
  11   0  -8    4.60   14.04
  11   0  -8  -25.79   18.54
  11   1  -8   38.66   13.23
  11   1  -8   37.28   17.44
 -11  -1  -8   17.09   18.69
 -11  -1  -8   24.94   19.93
 -11   1  -8    4.07   17.49
  11  -1  -8   13.08   17.00
 -11   1  -8   20.89   20.49
  11  -1  -8   36.10   14.89
 -11  -2  -8  138.40   23.20
  11   2  -8  160.90   17.60
  11   2  -8  206.33   31.61
  11  -2  -8  159.04   22.51
 -11   2  -8  115.64   19.37
  11  -2  -8  178.04   32.56
 -11   2  -8  168.19   26.11
 -11  -3  -8   28.14   20.24
  11   3  -8   52.18   11.92
  11   3  -8   33.72   17.71
 -11  -3  -8   62.42   21.76
  11  -3  -8   61.55   17.99
 -11   3  -8   54.07   19.36
 -11   3  -8   38.05   18.21
  11  -3  -8   74.80   17.32
 -11  -4  -8    2.58   21.20
 -11  -4  -8   18.30   22.11
  11  -4  -8   23.59   18.28
  11  -4  -8   53.32   17.82
 -11   4  -8   29.44   19.26
 -11   4  -8   43.80   17.98
 -11  -5  -8    2.07   22.50
 -11  -5  -8   15.01   21.30
  11  -5   8   -2.85   18.83
  11   5   8    6.62   14.01
  11  -5  -8   30.86   19.99
 -11   5  -8   21.49   19.65
 -11   5  -8   15.32   19.91
  11  -5  -8   83.99   32.35
 -11  -6  -8  156.33   42.28
 -11  -6  -8   90.69   28.97
 -11   6  -8   93.40   24.12
  11  -6  -8   65.83   21.19
 -11   6  -8   83.33   15.89
 -11   6  -8  106.70   22.01
 -11  -7  -8  -17.52   23.31
 -11  -7  -8   10.55   26.94
 -11   7  -8   12.34   21.52
  11   7   8   -1.57   15.33
 -11   7  -8  -26.00   14.62
  11  -7  -8   28.93   24.21
 -11   7  -8  -24.41   23.67
  11  -7  -8  -16.14   22.18
 -11  -8  -8  287.17   49.66
 -11  -8  -8  331.83   41.30
 -11   8  -8  339.54   36.28
  11  -8  -8  373.47   38.01
 -11   8  -8  253.37   47.29
 -11   8  -8  303.63   27.64
  11  -8  -8  355.06   46.15
 -11  -9  -8  -18.31   35.41
 -11  -9  -8  -47.30   25.21
 -11   9  -8   20.14   24.58
 -11   9  -8   -8.87   14.97
  11  -9  -8  -21.34   26.84
  11  -9  -8   47.03   29.32
  11   9   8   20.97   25.25
 -11 -10  -8   64.19   40.03
  11  10  -8   24.78   17.03
 -11 -10  -8   11.97   27.96
  11  10   8   16.10   24.74
  11 -10  -8   18.93   28.64
  11 -10  -8   80.51   31.98
 -11  10  -8   33.38   17.30
  11  11  -8  -22.39   17.99
 -11 -11  -8  -40.08   50.12
 -11 -11  -8  -41.83   29.44
 -11  11  -8  -14.45   18.43
  11  11   8  -12.53   27.02
  11 -11  -8  -13.89   34.75
  11 -11  -8  -20.29   33.75
  11  12  -8   -6.47   20.80
 -11 -12  -8    1.73   32.53
 -11  12  -8   -4.03   21.75
  11  12   8    3.52   29.39
 -11   0  -9   -7.79   20.35
  11   0  -9   10.47   15.00
  11   0  -9   -6.54   18.34
 -11   0  -9    1.65   18.77
  11   1  -9    2.91   14.79
 -11  -1  -9  -28.97   19.16
  11   1  -9  -12.06   17.43
 -11  -1  -9   -7.83   21.22
 -11   1  -9  -26.70   18.23
  11  -1  -9   10.12   25.76
 -11   1  -9  -19.45   19.47
  11  -1  -9   12.34   15.26
  11   2  -9   32.88   14.55
  11   2  -9   28.43   18.30
 -11  -2  -9   40.39   22.66
 -11  -2  -9  -10.17   20.61
 -11   2  -9   29.29   20.17
 -11   2  -9   25.97   18.16
  11  -2  -9   50.73   16.74
  11  -2  -9   26.28   19.01
 -11  -3  -9  -25.04   20.71
  11   3  -9   18.49   11.45
  11   3  -9   63.68   20.75
 -11  -3  -9  -17.52   23.17
 -11   3  -9    3.31   19.27
  11  -3  -9   26.03   19.03
  11  -3  -9   31.37   18.01
 -11   3  -9    8.84   20.14
 -11  -4  -9  -11.18   29.91
 -11  -4  -9  -12.11   21.64
  11  -4   9   13.09   19.26
  11  -4  -9   31.59   24.92
 -11   4  -9   17.59   19.49
 -11   4  -9    1.81   19.64
  11   4   9   21.57   19.65
  11  -4  -9   -1.09   19.97
 -11  -5  -9   64.64   25.16
  11   5   9   13.85   19.66
  11  -5  -9   18.82   20.57
 -11   5  -9  -20.81   35.01
 -11   5  -9   63.27   21.06
 -11  -6  -9   -5.67   26.41
 -11  -6  -9  -13.80   26.91
 -11   6  -9   17.11   22.00
  11  -6  -9  -20.57   22.45
 -11   6  -9  -28.14   14.21
 -11   6  -9  -21.91   22.49
  11   6   9  -26.12   19.69
 -11  -7  -9  196.34   36.87
 -11  -7  -9  274.25   49.21
  11  -7  -9  268.29   44.21
 -11   7  -9  172.29   23.32
 -11   7  -9  173.96   33.43
 -11  -8  -9  -44.44   27.69
 -11  -8  -9  -11.39   29.46
  11  -8  -9   37.93   28.07
 -11   8  -9  -16.73   14.57
  11  -8  -9  -14.55   26.22
 -11   8  -9  -13.77   25.43
  11   8   9  -26.74   20.68
 -11  -9  -9   16.07   27.92
 -11  -9  -9   64.90   34.93
  11   9   9   -4.25   23.24
  11  -9  -9   44.41   29.21
 -11   9  -9   69.94   26.96
  11  -9  -9   58.96   30.30
 -11   9  -9   44.32   16.19
 -11 -10  -9  -36.24   29.04
 -11 -10  -9    1.45   40.77
 -11  10  -9    1.34   16.27
  11 -10  -9    8.45   31.76
  11  10   9  -16.35   26.76
  11 -10  -9  -22.00   30.23
 -11 -11  -9  -26.86   47.14
 -11 -11  -9  -19.67   29.98
  11  11  -9    5.61   18.41
  11 -11  -9  -16.57   35.05
  11 -11  -9    6.14   34.37
  11  11   9  -12.73   30.38
 -11  11  -9   -5.23   18.42
  11   0 -10  -11.77   16.07
  11   0 -10   18.52   20.24
 -11   0 -10  -16.43   20.88
  11   1 -10   15.11   16.49
  11   1 -10   11.08   20.34
 -11  -1 -10    5.86   29.78
 -11  -1 -10   -6.95   23.14
  11  -1 -10   39.16   17.47
 -11   1 -10   13.56   20.98
  11  -1 -10   18.20   20.82
 -11  -2 -10   19.73   24.12
  11   2 -10   38.32   16.51
 -11  -2 -10   49.71   24.72
 -11   2 -10   88.36   39.29
  11   3 -10   29.50   16.65
 -11  -3 -10   -3.32   23.99
 -11  -3 -10   23.61   25.60
  11  -3 -10   46.76   19.76
 -11   3 -10   25.33   21.55
  11  -3 -10    5.86   21.13
 -11  -4 -10   94.61   28.24
  11   4 -10  175.51   23.33
 -11   4 -10  173.44   28.42
 -11   4 -10  224.07   40.24
  11  -4 -10  139.36   24.55
 -11  -5 -10  -25.27   28.90
 -11  -5 -10  -11.71   26.20
  11  -5 -10   -2.63   24.21
 -11   5 -10   22.47   22.90
 -11   5 -10  -19.80   21.32
  11  -5 -10   35.93   23.41
 -11  -6 -10  136.30   32.40
 -11  -6 -10  136.59   30.33
 -11   6 -10  143.98   26.42
  11  -6 -10  240.53   44.04
 -11   6 -10  245.90   44.94
  11  -6 -10  226.25   32.73
 -11  -7 -10   14.64   28.03
 -11  -7 -10   -4.04   28.98
 -11   7 -10  -14.96   25.19
  11  -7 -10  -10.69   26.01
 -11   7 -10   -7.94   14.79
  11  -7 -10   46.62   26.85
 -11  -8 -10   22.72   30.33
 -11  -8 -10   32.70   31.56
 -11   8 -10   30.17   15.84
  11  -8 -10   25.54   27.97
  11  -8 -10   99.58   29.43
 -11   8 -10   40.90   27.10
 -11  -9 -10   30.78   36.96
 -11  -9 -10  -22.89   29.39
 -11   9 -10   -3.66   27.78
  11  -9 -10  -21.59   30.76
 -11   9 -10    4.53   15.98
  11  -9 -10   31.32   29.81
 -11 -10 -10   -2.10   31.00
 -11 -10 -10   18.24   40.13
  11 -10 -10    7.70   35.47
  11  10  10   12.43   35.29
 -11  10 -10    2.97   15.86
  11 -10 -10   -8.51   32.30
  11   0 -11   44.91   23.65
 -11   0 -11   26.86   23.61
 -11   0 -11   30.25   24.10
  11   1 -11   58.43   26.71
  11   1 -11   84.20   21.43
 -11  -1 -11   46.12   26.81
 -11  -1 -11   75.74   25.97
  11  -1 -11   45.28   24.37
  11  -1 -11   85.14   20.19
 -11   1 -11   52.41   24.57
 -11  -2 -11  -13.31   27.57
  11   2 -11   48.88   19.22
 -11  -2 -11   44.74   26.47
 -11   2 -11   29.71   23.62
  11  -2 -11   54.13   20.94
  11  -2 -11   30.92   24.21
 -11   2 -11   47.71   23.12
  11   3 -11  253.32   27.59
 -11  -3 -11  229.99   36.55
 -11   3 -11  222.02   31.36
  11  -3 -11  248.27   30.92
 -11   3 -11  258.84   43.74
 -11  -4 -11   -9.71   29.32
  11   4 -11   15.61   19.40
 -11  -4 -11   13.31   27.56
 -11   4 -11   25.87   24.70
  11  -4 -11    6.84   23.02
 -11   4 -11  -26.86   22.61
  11  -4 -11  -14.58   24.74
  11   5 -11  260.55   27.39
 -11  -5 -11  150.06   34.45
 -11  -5 -11  207.69   38.60
 -11   5 -11  216.42   31.43
  11  -5 -11  286.01   33.20
  11  -5 -11  213.38   34.78
 -11  -6 -11    6.79   29.56
 -11  -6 -11    3.12   31.23
  11  -6 -11    0.55   28.04
  11  -6 -11   34.12   27.13
 -11   6 -11    2.68   25.03
 -11  -7 -11   21.50   31.85
 -11  -7 -11   47.43   31.20
  11  -7 -11    7.30   28.26
 -11   7 -11   24.64   14.91
 -11   7 -11   49.77   27.60
  11  -7 -11   67.40   28.69
 -11  -8 -11   -4.97   33.59
 -11  -8 -11  -14.90   32.14
 -11   8 -11    6.89   15.36
 -11   8 -11    5.07   28.51
  11  -8 -11   -1.43   30.35
  11  -8 -11   21.27   28.36
 -11  -9 -11   40.46   37.16
 -11  -9 -11  -17.75   30.93
 -11   9 -11   16.60   15.54
  11  -9 -11  -32.10   31.88
  11  -9 -11  -26.66   30.38
 -11   9 -11  -22.82   29.13
  11   0 -12   21.87   21.18
 -11   0 -12    5.95   33.37
 -11   0 -12  -11.44   24.44
  11   0 -12   -3.61   40.37
  11   1 -12   48.22   21.10
 -11  -1 -12   45.56   26.94
 -11  -1 -12    6.88   30.88
 -11   1 -12    6.30   25.00
  11  -1 -12   40.77   22.20
 -11   1 -12   26.69   28.33
  11  -1 -12   36.84   28.29
  11   2 -12  234.95   29.12
 -11  -2 -12  245.77   37.57
 -11   2 -12  318.85   48.31
 -11   2 -12  226.33   33.05
  11  -2 -12  159.81   32.12
  11  -2 -12  247.01   31.27
 -11  -3 -12  -38.50   32.47
 -11  -3 -12   14.70   28.30
  11   3 -12    7.17   32.78
  11  -3 -12  -33.66   28.78
  11  -3 -12   21.90   23.64
 -11   3 -12   42.48   27.59
 -11   3 -12  -10.81   23.57
 -11  -4 -12  310.03   41.85
 -11   4 -12  271.75   34.20
  11  -4 -12  294.44   34.97
 -11  -5 -12    1.91   30.77
 -11  -5 -12   32.95   34.73
 -11   5 -12    4.69   24.75
  11  -5 -12   20.93   26.11
  11  -5 -12   17.33   31.07
 -11  -6 -12   41.98   33.36
 -11  -6 -12   35.96   36.59
  11  -6 -12   48.16   31.30
 -11   6 -12   83.24   27.86
  11  -6 -12  104.83   28.33
 -11  -7 -12   -6.77   34.43
 -11  -7 -12  -15.67   33.47
  11  -7 -12   10.44   27.43
  11  -7 -12    3.52   33.49
 -11   7 -12   30.11   29.08
 -11   7 -12   10.46   15.30
 -11  -8 -12   14.99   37.04
 -11  -8 -12    8.88   36.43
 -11   8 -12   -5.34   15.41
  11  -8 -12  -26.73   32.50
  11  -8 -12   -0.65   30.24
 -11   8 -12  -46.00   31.34
  11   0 -13   33.97   23.29
 -11   0 -13    1.59   26.90
  11   1 -13  103.58   24.26
 -11  -1 -13   49.87   28.79
 -11  -1 -13   48.86   36.00
  11  -1 -13   80.70   24.90
 -11   1 -13   71.96   34.20
 -11   1 -13   21.05   26.31
 -11  -2 -13   10.79   29.96
  11   2 -13   24.02   23.29
 -11  -2 -13   10.37   35.58
  11  -2 -13   50.96   35.23
  11  -2 -13   23.54   24.76
 -11   2 -13   55.36   32.31
 -11   2 -13   12.77   27.04
  11   3 -13  225.41   31.00
 -11  -3 -13  240.57   42.21
 -11  -3 -13  166.83   41.51
 -11   3 -13  202.63   33.62
  11  -3 -13  213.90   33.23
  11  -3 -13  170.07   62.23
 -11  -4 -13  -12.98   31.81
  11   4 -13    9.00   26.13
 -11  -4 -13   -5.30   37.83
  11  -4 -13   10.75   26.65
 -11   4 -13  -19.85   26.63
  11  -4 -13   40.62   35.99
 -11  -5 -13  130.03   35.79
 -11  -5 -13   35.86   38.82
  11  -5 -13  109.81   35.52
 -11   5 -13  121.03   28.33
  11  -5 -13   98.54   28.09
 -11  -6 -13    1.43   38.55
 -11  -6 -13  -32.16   34.34
  11  -6 -13   18.53   33.22
  11  -6 -13   40.71   29.05
 -11   6 -13   66.32   29.53
 -11  -7 -13  -19.92   34.88
 -11  -7 -13    0.35   40.94
 -11   7 -13   17.61   31.65
 -11   7 -13   -9.08   15.54
  11  -7 -13   -3.60   29.04
  11  -7 -13   22.33   34.40
 -11   0 -14  -37.18   28.67
 -11   0 -14   20.26   39.43
  11   0 -14   24.34   25.72
 -11  -1 -14  -15.65   30.02
 -11  -1 -14  -22.39   40.91
  11   1 -14   13.96   25.58
 -11   1 -14   -1.27   28.52
 -11   1 -14   78.16   50.60
  11  -1 -14   23.32   26.23
 -11  -2 -14   12.24   41.89
  11   2 -14   52.55   26.32
 -11  -2 -14   82.35   33.74
 -11   2 -14   56.36   28.81
  11  -2 -14   61.42   27.41
  11   3 -14  -17.55   26.37
 -11  -3 -14    6.85   41.14
 -11  -3 -14   15.90   35.05
 -11   3 -14  -35.97   28.19
  11  -3 -14   43.53   44.00
  11  -3 -14   13.04   27.34
 -11  -4 -14  118.52   36.71
 -11  -4 -14   49.32   43.28
  11  -4 -14   66.71   28.29
 -11   4 -14   74.30   29.03
  11  -4 -14   82.45   39.67
 -11  -5 -14   15.83   44.71
 -11  -5 -14   26.78   35.74
 -11   5 -14   15.68   29.72
  11  -5 -14   11.25   28.78
  11  -5 -14   13.52   38.63
  11   0 -15  -28.69   28.09
 -11   0 -15   27.08   32.66
 -11   0 -15   28.29   47.46
 -11  -1 -15   24.53   45.70
  11   1 -15  -10.98   28.59
 -11  -1 -15  -26.65   31.93
  11  -1 -15  -46.55   27.70
 -11   1 -15   19.96   33.56
 -11  -2 -15   94.92   47.36
 -11  -2 -15    4.55   33.95
 -11   2 -15  -23.98   30.84
 -12   0   0  349.99   32.52
 -12   0   0  443.10   34.96
 -12   0   0  395.87   26.46
  12   0   0  393.62   26.56
  12   1   0  243.39   20.87
 -12   1   0  253.96   28.24
 -12   1   0  230.61   30.46
  12  -1   0  248.99   20.85
 -12  -1   0  271.56   29.48
 -12   1   0  263.04   21.09
 -12  -1   0  261.81   27.58
 -12  -1   0  267.29   20.21
  12   2   0   37.98   11.85
 -12   2   0   39.20   15.57
 -12   2   0   39.97   18.14
 -12   2   0   51.15   12.65
 -12  -2   0   51.59   17.70
 -12  -2   0   28.38   13.47
  12   3   0  701.31   42.91
 -12  -3   0  747.34   48.07
 -12   3   0  743.15   43.56
 -12   3   0  693.83   49.49
 -12  -3   0  722.10   46.95
 -12  -3   0  688.79   42.10
 -12   3   0  748.05   46.86
 -12   4   0   38.81   18.38
 -12   4   0   27.97   14.93
 -12   4   0    2.99   14.14
  12  -4   0   14.13   15.80
 -12  -4   0   18.82   14.12
 -12  -4   0   23.93   18.74
 -12  -4   0   45.24   12.22
  12   4   0   24.25   12.52
  12   5   0  488.08   33.26
  12  -5   0  552.22   45.12
 -12   5   0  525.96   38.01
 -12  -5   0  481.49   40.36
 -12   5   0  533.41   40.94
 -12  -5   0  512.74   39.66
  12  -5   0  452.94   37.14
 -12   5   0  449.37   34.62
 -12  -6   0  347.08   35.77
 -12   6   0  341.04   30.28
  12  -6   0  438.96   42.44
  12   6   0  372.29   28.64
  12  -6   0  383.54   33.68
 -12  -6   0  348.24   36.73
 -12  -7   0  -31.91   17.09
  12   7   0  -11.16   15.39
  12  -7   0   10.50   21.04
  12  -7   0   -7.10   18.71
 -12   7   0  -19.04   16.35
 -12  -7   0    9.49   24.65
 -12  -8   0   53.95   23.29
 -12   8   0   21.91   18.51
  12  -8   0   24.66   23.68
  12  -8   0   13.85   20.08
  12   8   0    8.25   17.48
 -12   9   0   75.44   28.20
  12  -9   0   66.15   24.06
  12   9   0   58.28   20.28
  12  -9   0  133.40   28.08
 -12  -9   0   26.88   22.14
 -12  10   0   11.39   22.22
 -12 -10   0   26.31   29.59
  12 -10   0   -8.19   24.90
  12  10   0    1.46   20.18
  12 -11   0   11.46   27.56
 -12  11   0   45.82   23.39
 -12 -11   0   32.23   28.61
  12  11   0   32.81   22.28
  12  12   0   23.89   23.18
  12 -12   0  -21.16   30.77
 -12  12   0   34.99   25.16
 -12 -12   0   22.41   32.59
  12 -13   0  -15.08   34.66
  12  13   0   16.19   24.02
 -12  13   0   21.55   26.34
  12   0   1  125.04   16.33
 -12   0   1  114.74   19.51
 -12   0  -1   79.08   18.80
 -12   0  -1   90.56   16.58
  12   0  -1  127.68   16.44
 -12   0   1  126.64   17.36
 -12   0   1  166.77   26.49
 -12   0  -1  107.99   16.26
 -12  -1  -1  100.87   18.69
  12   1  -1   85.92   12.54
 -12  -1  -1   71.84   15.00
 -12   1   1  114.35   19.19
 -12   1   1   85.24   15.36
 -12  -1  -1  100.85   13.05
  12  -1   1   98.90   16.30
 -12   1   1  113.27   14.22
 -12   1  -1  101.80   18.28
 -12   1  -1   79.62   12.68
 -12  -1   1  109.02   19.48
 -12  -1   1   74.50   15.18
 -12   1  -1   76.68   15.28
  12  -1  -1  114.41   12.88
  12   1   1   98.96   12.70
 -12  -1   1   92.56   13.60
 -12  -2  -1  354.75   33.31
  12   2  -1  333.23   26.02
 -12  -2  -1  383.57   31.31
 -12  -2  -1  395.75   26.24
 -12   2   1  363.51   34.89
 -12   2   1  389.38   31.25
 -12   2   1  372.99   27.05
 -12   2  -1  335.22   35.60
 -12  -2   1  358.23   31.75
 -12   2  -1  406.85   32.69
 -12  -2   1  379.35   29.78
  12   2   1  343.24   26.28
 -12  -2   1  358.82   32.58
 -12   2  -1  373.76   25.87
 -12   3   1   10.09   17.24
 -12   3   1   13.57   14.32
 -12   3   1    0.41   13.63
 -12  -3  -1   -4.59   17.10
 -12  -3  -1    1.47   11.97
 -12  -3  -1   -8.62   13.49
  12   3  -1    4.92   11.87
 -12   3  -1  -12.09   15.41
 -12  -3   1   -5.83   13.06
 -12  -3   1   -4.34   16.86
  12  -3  -1   -1.21   12.84
 -12   3  -1  -14.84   11.41
  12   3   1   -2.74   11.87
 -12   3  -1   -8.64   18.15
 -12   4   1  638.10   42.09
 -12  -4  -1  605.29   43.56
 -12   4   1  611.27   39.51
  12  -4   1  596.59   46.44
 -12   4   1  661.92   44.39
  12   4  -1  623.11   38.44
 -12  -4  -1  615.42   44.88
 -12  -4  -1  551.37   39.08
  12  -4  -1  599.25   40.49
 -12  -4   1  639.27   43.32
  12  -4  -1  613.76   45.70
 -12  -4   1  666.69   43.90
  12   4   1  611.67   38.49
 -12   4  -1  668.05   43.81
 -12   4  -1  634.15   39.27
 -12   4  -1  640.39   46.82
 -12  -5  -1  152.34   25.05
 -12   5   1  172.14   23.11
  12  -5   1  178.65   26.34
  12  -5   1  185.15   36.99
  12   5  -1  232.34   21.65
 -12  -5   1  203.71   29.84
 -12   5  -1  222.22   32.74
  12  -5  -1  228.87   36.43
  12  -5  -1  197.07   26.39
 -12   5  -1  236.13   28.85
 -12  -5   1  227.15   29.84
 -12   5  -1  134.79   22.84
  12   5   1  180.33   21.68
 -12  -6  -1   98.83   23.41
 -12   6   1  104.40   17.80
  12  -6   1   93.48   20.73
  12   6  -1  125.25   20.41
  12  -6   1  127.14   22.28
 -12   6  -1  105.02   18.42
 -12  -6   1  167.82   25.87
 -12   6  -1  166.04   27.01
  12  -6  -1  103.40   21.11
 -12   6  -1  101.69   17.35
  12   6   1   96.14   16.82
 -12  -6   1   82.19   16.69
  12  -6  -1  106.77   21.27
 -12  -7  -1  -15.81   24.13
 -12  -7  -1   -2.45   18.55
  12   7  -1   46.71   16.03
 -12   7   1   50.23   21.44
  12  -7   1   48.27   19.98
  12  -7   1   76.54   22.55
 -12  -7   1   26.37   17.98
  12  -7  -1   31.27   19.71
 -12  -7   1   41.64   20.43
  12   7   1   34.00   16.37
 -12   7  -1   49.38   17.97
  12  -7  -1   69.24   21.12
 -12  -8  -1    4.50   22.87
  12  -8   1   15.56   23.95
  12   8  -1  -13.29   17.23
 -12   8   1   24.97   18.59
  12  -8   1   25.91   20.56
 -12  -8  -1   -3.34   19.70
  12  -8  -1  -13.61   19.89
  12  -8  -1   56.66   24.31
 -12  -8   1   60.61   27.80
 -12  -8   1  -15.97   16.75
  12   8   1    2.96   17.47
 -12   8  -1   14.70   18.72
 -12  -9  -1   36.79   28.15
  12  -9   1   10.41   23.64
  12  -9   1   20.58   24.43
  12   9  -1  -24.97   18.50
 -12  -9  -1  -34.19   35.17
 -12   9   1    2.79   20.16
  12  -9  -1   -6.89   23.02
  12   9   1   -7.42   19.60
 -12  -9   1    7.59   18.51
  12  -9  -1   -4.23   27.13
 -12   9  -1   13.32   22.93
 -12 -10  -1  101.48   39.53
 -12  10   1   17.41   22.54
  12 -10   1   37.47   25.16
 -12 -10  -1  -19.09   27.28
  12  10  -1   24.71   20.54
  12  10   1   19.59   21.34
  12 -10  -1   85.62   30.38
  12 -10  -1   29.53   25.93
 -12  10  -1   39.63   22.47
 -12 -10   1   33.20   21.32
  12 -11   1   17.85   27.30
 -12 -11  -1   36.91   29.90
 -12  11   1   47.98   24.29
  12  11  -1   12.32   21.22
  12 -11  -1  -11.94   27.68
 -12  11  -1   22.05   23.50
  12  11   1   14.75   22.23
 -12 -12  -1    4.65   34.57
 -12  12   1   21.79   25.25
  12  12  -1   17.36   22.81
  12 -12   1   12.31   31.88
  12 -12  -1  -29.72   31.01
  12  12   1    2.90   23.75
 -12  12  -1    5.80   24.49
 -12  13   1   -9.04   27.91
 -12 -13  -1    8.79   38.71
  12 -13   1  -29.82   33.32
  12  13  -1   17.07   25.32
  12 -13  -1  -17.45   34.46
  12  13   1   21.96   25.13
 -12  13  -1    9.50   26.29
  12 -13  -1  -47.72   42.15
  12   0  -2    6.97   10.56
 -12   0   2   28.69   10.76
 -12   0  -2   16.41   11.38
 -12   0   2   29.48   16.99
 -12   0   2    1.56   12.35
 -12   0  -2    2.42   13.68
 -12   0  -2   15.39   16.26
  12   0   2    2.06   10.63
 -12   1   2  127.60   18.66
 -12   1   2  106.80   16.41
  12   1  -2  124.90   16.87
 -12  -1  -2   99.91   18.78
 -12  -1  -2  104.27   17.57
 -12  -1  -2  144.97   27.48
 -12  -1   2  126.25   23.38
 -12  -1   2  133.63   22.20
  12   1   2  125.87   16.89
 -12  -1   2  156.30   25.56
  12  -1  -2  136.25   16.89
 -12  -2  -2   27.62   12.06
  12   2  -2   20.63   12.15
 -12  -2  -2   28.92   17.44
 -12  -2  -2   11.38   14.21
 -12   2   2   24.02   10.79
 -12   2   2   34.69   17.47
 -12   2   2   27.24   12.66
 -12  -2   2    5.56   12.54
 -12   2  -2   12.14   14.65
 -12   2  -2   11.98   12.00
 -12   2  -2   24.41   17.29
 -12  -2   2   28.87   17.92
  12   2   2   35.42   12.23
  12   3  -2  241.89   21.47
 -12  -3  -2  208.39   30.78
 -12   3   2  241.50   20.53
 -12  -3  -2  226.37   27.39
 -12  -3  -2  266.10   21.67
 -12   3   2  271.73   28.51
  12   3   2  223.41   21.45
 -12  -3   2  214.47   26.87
 -12   3  -2  233.98   21.39
 -12  -3   2  221.96   28.43
 -12   3  -2  206.19   29.27
 -12   3  -2  198.59   32.66
  12  -3  -2  208.80   30.78
  12   4  -2   28.88   12.36
 -12   4   2   48.38   13.60
 -12  -4  -2   29.71   15.43
 -12  -4  -2   52.16   19.44
  12  -4   2   19.68   15.17
 -12  -4  -2   40.45   14.16
  12  -4  -2   45.15   17.54
  12   4   2   57.65   13.23
  12  -4  -2   76.77   16.59
 -12   4  -2   37.40   16.86
 -12  -4   2   49.18   19.71
 -12  -4   2   37.13   13.65
 -12   4  -2   31.15   13.08
 -12   4  -2   43.65   21.03
  12   5  -2  189.60   21.00
 -12  -5  -2  167.32   33.09
 -12  -5  -2  210.68   29.27
 -12   5   2  184.03   22.66
 -12  -5  -2  192.13   24.92
  12  -5   2  195.44   27.02
  12  -5  -2  218.67   25.94
 -12   5  -2  214.94   29.48
 -12   5  -2  141.08   21.94
 -12  -5   2  177.76   28.04
  12   5   2  207.94   21.77
 -12   5  -2  178.11   34.45
 -12  -5   2  179.17   28.29
  12  -5  -2  213.23   35.96
  12  -6   2  -23.05   25.92
 -12  -6  -2  -13.96   17.81
  12  -6   2   28.52   20.34
 -12  -6  -2  -26.70   23.01
  12   6  -2    2.30   14.37
 -12   6   2   -4.00   16.08
  12   6   2   -0.09   14.94
 -12   6  -2   24.84   16.71
  12  -6  -2   -2.35   17.98
 -12  -6   2   28.53   35.80
 -12   6  -2   17.61   19.60
 -12  -6   2   -5.53   14.48
 -12   6  -2  -20.01   15.12
  12  -6  -2   -0.19   18.86
 -12  -7  -2   -7.35   25.65
  12   7  -2    4.20   14.92
 -12   7   2   -3.12   16.65
 -12  -7  -2  -23.02   18.83
  12  -7   2   -4.62   19.66
  12  -7   2   -6.19   22.04
  12  -7  -2  -19.35   18.18
 -12   7  -2  -10.44   16.68
 -12   7  -2   20.28   18.89
  12  -7  -2    1.87   20.41
 -12  -7   2   13.18   14.61
  12   7   2   12.59   16.40
 -12   7  -2   15.73   15.95
 -12   8   2  -11.51   17.69
  12   8  -2   -0.38   17.28
 -12  -8  -2   45.02   30.34
  12  -8   2    2.10   20.08
 -12  -8  -2  -34.03   20.86
  12  -8   2   20.83   24.25
  12  -8  -2   -3.99   27.32
  12   8   2   -3.50   17.65
 -12  -8   2   -9.63   15.48
 -12   8  -2  -22.78   18.29
  12  -8  -2    0.11   23.15
  12  -9   2   -8.62   24.61
 -12  -9  -2  -37.68   24.35
 -12   9   2   -7.54   19.97
 -12  -9  -2   12.21   27.30
  12   9  -2  -21.09   17.82
  12  -9   2  -11.51   21.08
  12  -9  -2  -33.87   27.11
 -12   9  -2  -25.70   20.43
  12   9   2  -12.79   20.20
  12  -9  -2  -20.26   22.81
  12 -10   2   -3.71   25.09
 -12 -10  -2   13.80   26.94
 -12 -10  -2   -7.75   35.50
  12  10  -2    4.70   20.07
 -12  10   2   32.13   23.33
 -12  10  -2  -11.06   21.88
  12  10   2   34.53   22.06
  12 -10  -2   11.52   25.54
  12 -10  -2   18.35   31.21
  12 -11   2    8.67   27.97
 -12  11   2   22.92   24.26
  12  11  -2   31.74   21.39
 -12 -11  -2   -8.92   30.22
  12  11   2   27.18   23.55
  12 -11  -2  -17.80   28.31
 -12  11  -2   25.65   23.73
  12 -11  -2   -2.17   38.39
 -12  12   2  -30.20   26.35
 -12 -12  -2   27.69   36.13
  12 -12   2   -7.33   30.43
  12  12  -2   14.95   23.41
 -12  12  -2   14.97   24.29
  12  12   2   16.51   24.12
  12 -12  -2  -51.87   28.44
  12 -12  -2  -35.69   31.83
 -12  13   2    9.92   29.87
  12  13  -2   -1.12   23.50
 -12 -13  -2   33.97   40.83
  12 -13   2  -20.22   31.05
  12  13   2   10.80   25.77
  12 -13  -2   -1.32   35.21
 -12  13  -2   -8.23   25.80
  12   0   3   25.94   11.32
 -12   0   3   19.42   12.33
 -12   0  -3   12.55   16.75
 -12   0  -3    4.78   11.63
 -12  -1  -3   14.49   17.14
  12   1  -3  -14.23   10.64
 -12   1   3    0.84   11.81
  12  -1   3   -4.27   11.46
 -12  -1  -3   -5.92   11.03
 -12  -1  -3  -10.35   13.56
 -12   1   3   -6.08   10.54
 -12   1  -3  -16.58   11.50
 -12   1  -3   -9.26   16.66
 -12  -1   3  -11.26   11.82
 -12   1  -3  -16.90   13.82
 -12  -1   3   -3.65   17.03
  12  -1  -3    1.14   11.11
  12   1   3    0.32   10.98
 -12   2   3   61.92   12.01
  12   2  -3   28.93   12.58
 -12  -2  -3   52.73   17.54
 -12  -2  -3   55.15   15.04
 -12   2  -3    5.36   12.23
 -12   2  -3   -0.17   15.41
 -12  -2   3   17.67   17.32
 -12  -2   3   33.74   12.47
 -12   2  -3   -5.46   17.95
  12   2   3   50.63   12.94
  12  -2  -3   26.47   14.17
 -12  -3  -3    0.19   17.86
 -12  -3  -3  -21.49   14.73
 -12   3   3   18.75   12.02
  12   3  -3  -15.21   12.45
 -12  -3   3  -13.27   12.26
  12  -3  -3    8.03   13.26
 -12   3  -3  -19.55   17.80
  12  -3  -3    2.92   14.85
  12   3   3   -1.82   12.60
 -12  -3   3    9.00   16.50
 -12   3  -3   -6.37   15.21
  12   4  -3    7.80   12.47
 -12  -4  -3   -0.81   15.98
 -12   4   3   29.09   12.88
 -12  -4  -3   43.78   20.53
  12  -4  -3   26.88   15.65
 -12   4  -3   -9.10   19.71
  12   4   3   31.77   13.16
 -12  -4   3  -59.03   35.13
 -12   4  -3  -14.16   12.97
 -12  -4   3   -5.75   13.23
  12  -4  -3   27.96   17.50
 -12   4  -3  -14.69   17.01
 -12   5   3    6.60   13.76
 -12  -5  -3    9.47   16.64
  12   5  -3    9.08   12.66
  12  -5   3  -10.48   18.49
  12  -5   3  -13.36   17.63
 -12  -5  -3   17.88   20.77
 -12   5  -3   -4.40   20.60
 -12  -5   3   14.12   13.07
 -12   5  -3   18.46   16.09
  12   5   3   14.77   13.95
 -12  -5   3    1.62   17.96
  12  -5  -3    2.32   17.18
  12  -5  -3   27.84   16.73
  12  -6   3   48.03   21.08
 -12  -6  -3   23.65   18.74
 -12  -6  -3   42.08   23.55
  12  -6   3   34.95   19.81
 -12   6   3   33.24   15.56
  12   6  -3   38.48   14.38
  12  -6  -3   60.22   18.69
 -12   6  -3   18.20   14.75
 -12   6  -3   61.58   17.84
 -12   6  -3   57.03   21.35
 -12  -6   3   30.57   13.42
  12  -6  -3   43.27   19.29
  12   6   3   33.39   15.51
 -12   7   3    1.35   16.43
 -12  -7  -3  -29.64   19.49
  12  -7   3  -28.23   19.18
  12  -7   3   23.05   23.18
 -12  -7  -3   27.66   26.23
  12   7  -3   -1.31   14.44
  12   7   3    0.03   16.58
 -12   7  -3   24.85   20.51
 -12   7  -3    4.14   17.69
 -12   7  -3  -29.65   15.66
  12  -7  -3   29.05   20.63
  12  -7  -3   -2.90   18.48
  12  -8   3   -6.74   20.36
  12  -8   3   -6.07   18.84
  12   8  -3   10.37   20.12
 -12   8   3    2.77   18.39
 -12  -8  -3    8.48   29.71
 -12   8  -3  -21.81   24.54
  12   8   3  -20.52   17.91
  12  -8  -3    0.88   23.49
 -12  -9  -3  -26.79   34.02
 -12  -9  -3  -10.53   24.38
  12   9  -3   17.87   18.21
  12  -9   3   -7.62   30.50
 -12   9   3   22.69   20.85
 -12   9  -3  -15.02   19.85
  12  -9  -3   -8.23   22.57
  12   9   3   11.06   20.63
  12  -9  -3   12.80   28.57
  12  10  -3   28.01   19.16
 -12  10   3    5.99   23.98
  12 -10   3    6.33   25.55
 -12 -10  -3   22.79   27.15
 -12 -10  -3   67.19   32.58
  12  10   3   38.22   22.69
  12 -10  -3   16.60   25.63
 -12  10  -3   -3.15   21.54
  12 -10  -3  -25.96   37.55
 -12 -11  -3  145.36   45.97
 -12 -11  -3   20.44   31.74
  12  11  -3    1.25   20.40
 -12  11   3   -5.15   25.76
  12 -11   3   25.08   28.07
 -12  11  -3   12.06   22.94
  12 -11  -3  -17.66   28.85
  12 -11  -3  -13.89   35.09
  12  11   3   33.43   24.25
 -12 -12  -3   -0.68   34.52
 -12  12   3    3.90   28.38
  12 -12   3   29.23   28.67
  12  12  -3   32.16   22.37
  12  12   3   19.07   25.49
 -12  12  -3   29.61   24.55
  12 -12  -3  -22.72   32.57
  12  13  -3   18.39   23.21
 -12 -13  -3  -24.09   38.97
  12 -13   3   -5.71   28.72
 -12  13   3   -8.69   31.44
  12  13   3   22.60   28.64
 -12  13  -3   13.15   25.28
  12 -13  -3    6.68   36.38
  12   0  -4   14.38   11.09
 -12   0  -4   -6.89   17.08
 -12   0  -4  -16.02   14.42
  12   0   4   13.63   11.69
 -12  -1  -4   23.81   15.73
  12   1  -4   -8.74   10.91
  12  -1   4   -7.12   12.39
 -12   1   4   29.53   13.48
 -12  -1  -4   10.43   17.85
  12   1   4   -0.28   11.51
 -12   1  -4  -18.25   17.04
 -12   1  -4   -7.86   15.11
 -12   2   4   55.50   12.02
  12   2  -4   46.77   12.99
 -12  -2  -4   60.24   19.60
 -12  -2  -4   38.40   16.15
 -12   2  -4   57.76   19.35
  12   2   4   73.83   14.24
 -12   2  -4   43.21   16.52
 -12   2  -4   62.72   13.13
  12  -2  -4   52.35   15.42
 -12  -2   4   50.77   12.34
  12   3  -4   39.85   13.13
 -12  -3  -4   91.75   20.15
 -12  -3  -4   27.18   17.15
  12  -3  -4   40.55   15.82
 -12   3  -4   59.57   14.11
  12  -3  -4   63.22   15.41
 -12   3  -4   27.93   16.05
 -12  -3   4   39.36   12.19
  12   3   4   56.56   14.20
 -12   3  -4   47.50   19.38
 -12  -4  -4   63.14   20.83
 -12  -4  -4   43.06   17.22
 -12   4   4   78.74   14.02
  12   4  -4   66.91   14.12
 -12   4  -4   60.16   17.82
 -12   4  -4   50.47   14.91
  12  -4  -4  105.02   17.95
  12  -4  -4   53.08   18.68
 -12  -4   4   55.85   12.42
 -12   4  -4   53.70   21.06
  12   4   4   81.09   14.70
  12   5  -4   28.60   13.33
 -12  -5  -4   41.79   17.66
  12  -5   4   56.41   19.96
 -12  -5  -4   55.53   22.19
  12  -5   4    6.45   16.94
 -12   5   4   23.63   14.59
  12  -5  -4   38.61   17.72
 -12   5  -4   21.94   15.29
  12   5   4   58.63   15.15
 -12   5  -4   34.62   20.13
 -12   5  -4   17.10   18.05
 -12  -6  -4   65.50   23.87
  12  -6   4  104.53   22.43
  12  -6   4   64.33   20.39
 -12   6   4   53.22   16.34
 -12  -6  -4   33.68   19.09
  12   6  -4   65.68   14.34
 -12   6  -4   59.15   19.00
 -12   6  -4   41.69   15.11
  12  -6  -4   49.94   18.33
  12   6   4   53.00   21.17
  12  -6  -4   90.53   19.00
 -12   6  -4   90.10   21.43
 -12   7   4   29.46   17.32
 -12  -7  -4   -2.76   19.73
 -12  -7  -4   21.65   26.54
  12  -7   4   -2.43   18.01
  12  -7   4   37.42   19.94
  12   7  -4   33.22   14.62
 -12   7  -4   58.12   21.23
 -12   7  -4   25.59   18.46
  12  -7  -4   22.21   18.29
  12   7   4   15.53   17.44
  12  -7  -4   42.89   20.88
 -12   7  -4    9.29   15.56
 -12   8   4  -12.50   19.12
  12  -8   4  -28.28   19.64
  12  -8   4  -28.16   22.36
 -12  -8  -4    4.87   29.82
 -12  -8  -4  -22.28   21.45
  12  -8  -4   -1.95   22.38
  12  -8  -4   17.06   24.75
 -12   8  -4  -14.31   17.37
 -12   8  -4    8.57   18.46
 -12   8  -4   54.70   31.63
  12   8   4   16.63   19.43
 -12  -9  -4   25.37   23.82
 -12  -9  -4   64.73   37.02
 -12   9   4   50.42   22.03
  12   9  -4   36.06   17.66
  12  -9   4   13.73   38.27
  12   9   4   41.95   22.01
  12  -9  -4   58.33   35.20
  12  -9  -4   26.23   23.81
 -12   9  -4   49.06   19.62
  12  10  -4    9.56   18.52
 -12 -10  -4  -11.46   26.48
 -12 -10  -4  -28.92   35.02
  12 -10   4  -22.47   24.92
 -12  10   4   -8.06   32.52
  12 -10  -4   13.48   26.52
 -12  10  -4  -15.76   21.04
  12  10   4  -10.28   22.95
  12 -10  -4  -13.00   32.60
 -12 -11  -4    3.56   29.70
  12  11  -4   32.89   20.02
 -12  11   4   41.78   28.50
 -12 -11  -4   50.69   41.56
  12 -11   4   38.45   26.94
  12 -11  -4  -22.13   34.30
 -12  11  -4   50.94   23.45
  12 -11  -4    0.41   29.35
  12  11   4   43.48   25.30
 -12 -12  -4  -16.95   79.73
 -12 -12  -4   10.86   34.05
  12 -12   4  -11.14   26.68
 -12  12   4  -14.37   31.10
  12  12  -4   -5.87   21.26
  12  12   4   20.24   27.70
  12 -12  -4  -20.15   36.92
  12 -12  -4  -12.75   32.73
 -12  12  -4   15.80   24.17
 -12  13   4   -4.63   34.60
 -12 -13  -4   -3.42   38.42
  12  13  -4   13.18   23.28
 -12  13  -4  -13.33   24.28
  12  13   4   18.01   29.62
  12 -13  -4   -8.04   37.38
 -12   0  -5  -16.71   17.95
 -12   0  -5  -11.86   15.74
  12   0  -5    9.97   11.50
  12   0   5   -5.99   12.98
  12   1  -5  120.84   17.21
 -12  -1  -5  133.89   21.58
 -12  -1  -5   79.13   18.78
 -12   1  -5  156.23   21.14
  12   1   5  109.27   15.03
  12  -1  -5   99.31   16.51
 -12   1  -5   89.82   17.81
  12   2  -5  149.72   18.75
 -12  -2  -5  187.83   26.80
 -12  -2  -5  135.60   19.76
 -12   2  -5  142.50   19.95
 -12   2  -5  170.08   26.65
  12   2   5  181.95   21.24
  12  -2  -5  193.21   20.91
  12  -2  -5  179.01   30.60
 -12  -3  -5  107.94   19.49
 -12  -3  -5  148.84   27.14
 -12   3   5  116.60   19.60
  12   3  -5  185.37   19.67
 -12   3  -5  148.44   19.54
 -12   3  -5  171.74   26.68
  12  -3  -5  157.66   23.16
 -12   3  -5  150.28   19.33
  12   3   5  181.90   21.19
  12  -3  -5  194.19   33.32
 -12  -4  -5  167.68   28.29
  12   4  -5  186.62   20.65
 -12   4   5  140.72   21.45
 -12   4  -5  213.02   28.56
 -12   4  -5  172.87   21.38
 -12   4  -5  238.10   34.46
  12  -4  -5  186.58   24.76
  12   4   5  172.59   22.35
  12  -4  -5  180.65   34.05
  12  -5   5   98.98   20.23
 -12  -5  -5  179.87   28.70
 -12  -5  -5  111.08   21.22
  12   5  -5  168.47   19.23
 -12   5   5  142.25   19.18
  12  -5   5  161.72   27.10
 -12   5  -5  132.31   21.06
  12  -5  -5  170.98   34.71
 -12   5  -5  161.13   23.91
  12  -5  -5  175.36   25.19
  12   5   5  156.32   21.86
 -12   5  -5  116.66   20.77
  12   6  -5   39.65   13.25
 -12   6   5   14.48   17.21
  12  -6   5   -7.08   19.70
 -12  -6  -5    5.10   23.60
 -12  -6  -5    2.08   18.65
  12  -6  -5   10.40   18.66
  12   6   5   14.90   16.09
 -12   6  -5   30.62   21.62
 -12   6  -5   -4.34   14.60
 -12   6  -5   23.45   18.25
  12  -6  -5    5.37   19.36
 -12   7   5   -7.49   18.92
 -12  -7  -5   -6.22   25.70
  12  -7   5   16.54   21.25
  12   7  -5   41.81   14.37
  12  -7   5   10.56   19.43
 -12   7  -5   29.52   22.09
 -12   7  -5  -33.15   25.36
  12   7   5   -6.44   17.88
 -12   7  -5   18.36   19.77
  12  -7  -5   33.92   22.02
  12  -7  -5    2.49   22.09
 -12  -8  -5  104.07   31.42
  12  -8   5   89.34   21.68
 -12   8   5  103.62   22.57
  12   8  -5   72.02   16.76
 -12  -8  -5   44.60   22.31
 -12   8  -5   99.14   21.68
  12  -8  -5   65.64   22.87
 -12   8  -5   88.88   18.25
  12   8   5   89.79   21.49
  12  -8  -5  106.18   34.05
 -12  -9  -5  -39.37   37.66
 -12   9   5  -23.54   23.54
 -12  -9  -5  -14.36   23.08
  12   9  -5   11.24   16.64
  12   9   5    2.54   23.79
 -12   9  -5  -21.85   18.34
  12  -9  -5  -20.14   29.43
  12  -9  -5  -31.72   24.76
  12  10  -5  149.13   23.53
  12 -10   5  134.73   26.47
 -12  10   5   88.12   39.82
  12  10   5   71.95   25.99
 -12  10  -5  152.78   25.95
  12 -10  -5   79.75   27.01
  12 -10  -5  156.35   33.81
 -12 -11  -5   11.32   29.30
 -12 -11  -5   67.22   44.61
  12  11  -5   -2.72   19.78
 -12  11   5    1.95   29.35
  12 -11  -5  -49.02   30.12
  12 -11  -5  -15.38   35.04
 -12  11  -5    2.58   21.96
  12  11   5   10.52   26.71
 -12 -12  -5   64.82   57.41
  12  12  -5   10.66   21.09
 -12  12   5  -24.17   32.31
 -12 -12  -5    4.17   32.58
  12 -12  -5  -44.25   33.46
  12 -12  -5    9.06   39.14
  12  12   5  -29.47   29.35
 -12  12  -5   36.60   23.91
  12  13  -5  -19.46   22.71
  12  13   5  -24.92   31.76
 -12   0  -6  456.53   35.55
  12   0  -6  409.65   38.34
 -12   0  -6  446.69   39.67
  12   0   6  375.77   38.74
 -12  -1  -6  112.57   19.66
 -12  -1  -6  149.90   27.27
  12   1  -6  146.82   18.16
  12   1   6  141.01   21.74
 -12   1  -6  171.21   22.77
  12  -1  -6  157.42   30.70
 -12   1  -6  109.09   18.82
 -12  -2  -6  174.28   28.22
  12   2  -6  186.70   19.64
  12  -2  -6  186.94   22.87
  12   2   6  173.45   21.86
 -12   2  -6  149.30   20.83
 -12   2  -6  225.04   27.91
  12  -2  -6  220.74   32.74
  12   3  -6  384.27   26.66
 -12  -3  -6  351.45   33.51
 -12  -3  -6  282.84   39.59
  12  -3  -6  357.46   29.71
 -12   3  -6  401.09   33.58
  12   3   6  331.36   29.19
 -12   3  -6  414.56   39.17
  12  -3  -6  370.42   38.59
  12   4  -6  215.90   20.64
 -12  -4  -6  216.41   29.48
 -12  -4  -6  126.91   22.89
 -12   4  -6  148.09   20.38
  12  -4  -6  186.72   34.44
 -12   4  -6  217.89   35.64
 -12   4  -6  184.35   28.14
  12   4   6  160.47   23.15
  12  -4  -6  187.41   24.93
  12  -5   6  -11.74   16.96
 -12  -5  -6   42.63   22.34
  12   5  -6   40.13   13.36
 -12  -5  -6    4.95   18.34
  12  -5   6    8.66   18.88
 -12   5  -6   36.50   19.90
  12  -5  -6   47.68   17.56
 -12   5  -6   24.48   18.87
 -12   5  -6   18.81   14.75
  12   5   6    8.58   15.95
  12  -5  -6   21.55   17.31
  12  -6   6    1.67   21.31
 -12  -6  -6   17.68   22.12
 -12  -6  -6   32.13   24.73
  12   6  -6   56.64   13.88
  12  -6   6   31.07   20.56
 -12   6  -6   42.37   20.43
 -12   6  -6   14.57   21.33
 -12   6  -6   17.15   15.31
  12  -6  -6   32.21   20.10
  12   6   6   30.21   17.55
  12  -6  -6   43.37   19.76
 -12  -7  -6  104.47   28.56
  12  -7   6   86.52   21.46
 -12  -7  -6   64.56   22.79
  12   7   6   62.02   20.15
 -12   7  -6  116.86   26.36
  12  -7  -6   67.48   42.66
  12  -7  -6  132.25   29.15
 -12   7  -6   90.89   17.70
 -12  -8  -6   -5.86   23.25
  12   8  -6   21.01   15.37
  12  -8   6  -19.42   20.65
 -12  -8  -6    2.90   37.44
 -12   8  -6   -0.76   21.42
  12  -8  -6  -19.34   21.42
 -12   8  -6   18.44   22.79
  12   8   6   -7.60   21.20
  12  -8  -6    0.73   26.61
 -12   8  -6  -22.24   15.34
 -12  -9  -6  188.55   43.12
  12   9  -6  175.70   23.51
  12  -9  -6  211.67   36.57
  12   9   6  190.10   32.73
 -12   9  -6  206.08   25.55
  12  -9  -6  267.03   45.23
 -12 -10  -6   26.88   46.96
 -12  10   6  -31.63   19.93
 -12 -10  -6   14.82   26.07
  12  10  -6   16.06   17.42
  12 -10  -6  -26.86   27.73
 -12  10  -6  -14.33   18.96
  12  10   6   -6.79   27.47
  12 -10  -6   42.91   33.33
 -12 -11  -6   22.38   28.95
 -12 -11  -6  -33.27   51.33
  12  11  -6   21.93   20.22
 -12  11  -6   26.36   21.61
  12  11   6   34.23   29.99
  12 -11  -6   17.97   35.16
  12 -11  -6   14.15   30.19
 -12 -12  -6   13.81   56.31
  12  12  -6   -5.93   21.58
 -12 -12  -6  -12.43   31.87
  12 -12  -6  -26.32   37.98
  12 -12  -6  -28.46   33.95
 -12  12  -6   -2.64   23.62
  12  12   6   -5.77   32.28
 -12   0  -7  -21.13   17.53
  12   0  -7   21.73   16.02
 -12   0  -7   -9.25   20.71
  12   1  -7  254.40   38.84
  12   1  -7  271.11   22.60
 -12  -1  -7  224.48   37.11
 -12  -1  -7  255.60   30.97
  12  -1  -7  276.47   25.21
 -12   1  -7  250.35   35.95
  12  -1  -7  281.45   35.02
 -12   1  -7  272.53   30.55
  12   2  -7  194.51   20.19
 -12  -2  -7  177.32   28.95
  12  -2  -7  216.50   35.09
 -12   2  -7  197.36   28.16
  12  -2  -7  242.48   24.29
 -12   2  -7  202.30   35.32
 -12  -3  -7  106.73   22.62
 -12  -3  -7   55.01   20.06
  12   3  -7  110.53   17.49
  12  -3  -7  115.27   17.79
 -12   3  -7   95.86   20.50
  12  -3  -7   93.58   19.17
  12   3   7   94.88   17.45
 -12   3  -7   82.33   19.06
  12   4  -7  116.44   18.19
 -12  -4  -7  102.70   23.09
 -12  -4  -7   60.51   19.95
 -12   4  -7   88.36   20.72
  12  -4  -7   96.61   19.63
  12  -4  -7  113.15   18.79
 -12   4  -7   72.55   19.85
  12   4   7   87.41   18.82
 -12  -5  -7   25.38   21.67
 -12  -5  -7   66.19   23.70
  12  -5   7   33.16   20.30
  12  -5   7   30.81   21.52
  12   5  -7   72.88   14.29
 -12   5  -7   61.48   20.34
  12  -5  -7   60.40   19.60
 -12   5  -7   45.85   20.27
  12  -5  -7   39.01   19.72
  12   5   7   52.51   18.89
 -12   5  -7   47.51   15.32
 -12  -6  -7   15.08   24.29
  12  -6   7   26.54   20.91
  12   6  -7   42.64   13.96
 -12  -6  -7   46.80   26.68
 -12   6  -7   20.26   16.05
  12  -6  -7   20.72   21.44
  12   6   7   23.94   18.93
 -12   6  -7  -10.68   27.67
  12   7  -7    6.03   14.66
  12  -7   7  -22.46   19.85
 -12  -7  -7  -34.01   22.96
 -12  -7  -7  -19.44   31.80
  12  -7  -7   -3.02   23.61
  12   7   7   -1.67   20.44
 -12   7  -7    8.09   22.79
  12  -7  -7  -23.11   22.61
 -12   7  -7  -28.52   15.58
 -12   7  -7  -25.00   23.14
  12   8  -7  159.60   21.60
 -12  -8  -7  164.48   37.09
 -12   8  -7  155.67   26.22
 -12   8  -7  181.27   23.20
  12   8   7  105.12   25.26
  12  -8  -7  238.55   33.94
  12   9  -7    8.08   16.55
 -12  -9  -7   12.10   37.28
 -12  -9  -7  -19.53   23.96
 -12   9  -7   38.35   23.75
  12  -9  -7   29.62   29.69
  12   9   7  -30.31   27.34
  12  -9  -7   18.67   26.72
 -12   9  -7    3.89   16.48
 -12 -10  -7   89.32   45.27
 -12 -10  -7   31.16   25.96
  12  10  -7   40.36   17.45
  12 -10  -7   98.74   33.01
  12  10   7   84.56   30.48
 -12  10  -7   51.64   19.26
  12 -10  -7   41.69   30.88
 -12 -11  -7  -13.67   52.24
 -12 -11  -7   -8.54   28.67
  12  11  -7    0.67   19.25
  12  11   7   -6.36   32.47
  12 -11  -7    4.92   36.21
  12 -11  -7  -18.56   33.64
 -12  11  -7    4.16   19.95
  12  12  -7    8.65   22.52
 -12 -12  -7    3.97   32.76
 -12  12  -7   19.94   22.88
  12  12   7   27.00   35.89
  12 -12  -7  -35.07   36.84
  12   0  -8   81.57   28.25
 -12   0  -8   76.42   20.51
  12   0  -8  129.35   16.98
 -12   0  -8  115.33   23.09
 -12  -1  -8   13.24   20.64
 -12  -1  -8    0.45   19.05
  12   1  -8   48.17   17.88
  12  -1  -8   42.64   15.83
  12  -1  -8   44.17   18.37
 -12   1  -8   31.38   20.73
 -12   1  -8   21.73   18.14
 -12  -2  -8   92.37   22.84
  12   2  -8   90.39   13.75
 -12  -2  -8   69.52   20.79
  12   2  -8   96.42   18.55
  12  -2  -8  120.34   18.02
 -12   2  -8  108.46   21.94
  12  -2  -8  103.23   19.92
 -12   2  -8   70.93   19.38
 -12  -3  -8   71.35   23.46
  12   3  -8   32.02   17.84
  12   3  -8   64.33   12.90
  12  -3  -8   74.58   17.47
 -12   3  -8   63.84   20.58
 -12   3  -8   54.71   19.82
  12  -3  -8   64.60   19.16
 -12  -4  -8   17.04   20.34
 -12  -4  -8   65.46   27.60
  12   4  -8   51.09   13.74
  12  -4  -8   88.55   37.52
 -12   4  -8   59.77   20.07
  12  -4  -8   39.25   19.19
 -12   4  -8   77.13   21.11
 -12  -5  -8   11.29   34.69
  12  -5   8    1.00   21.04
  12   5  -8   49.51   15.17
 -12   5  -8   55.36   29.65
  12  -5  -8   55.50   20.53
 -12   5  -8    2.51   14.92
  12  -5  -8   33.70   19.91
 -12  -6  -8  -19.66   26.52
 -12  -6  -8  -26.23   22.76
  12  -6   8  -12.94   20.14
 -12   6  -8  -14.56   22.05
  12  -6  -8   -3.70   22.70
 -12   6  -8  -19.51   22.33
  12   6   8   17.31   16.07
 -12   6  -8  -16.37   15.35
 -12  -7  -8   58.17   25.93
 -12  -7  -8   89.60   30.49
 -12   7  -8   75.71   25.61
 -12   7  -8   96.46   17.50
  12  -7  -8   98.05   25.53
  12  -7  -8  142.70   26.66
 -12  -8  -8  -17.53   25.25
 -12  -8  -8   28.10   32.88
 -12   8  -8   -2.22   15.72
  12  -8  -8   55.40   27.86
  12  -8  -8   43.18   24.14
 -12   8  -8   32.14   24.71
  12   8   8    1.44   17.89
 -12   8  -8  -16.62   24.96
 -12  -9  -8   34.02   28.07
  12   9  -8   32.20   16.57
 -12  -9  -8   85.21   37.89
 -12   9  -8   53.51   16.56
  12   9   8   -5.81   21.23
 -12   9  -8   25.38   28.17
  12  -9  -8   66.22   26.89
 -12 -10  -8  -39.79   26.43
 -12 -10  -8    6.07   45.00
  12  10   8  -37.63   23.67
 -12  10  -8   -3.01   18.20
  12 -10  -8   48.91   32.64
  12 -10  -8    6.12   30.99
  12  11  -8    3.86   19.50
 -12 -11  -8   87.14   53.43
 -12 -11  -8  -11.10   27.34
  12 -11  -8  -14.76   33.95
 -12  11  -8   24.06   20.26
  12 -11  -8    5.94   35.52
  12  11   8   -2.23   27.18
  12   0  -9    5.39   15.48
  12   0  -9   -2.27   20.30
 -12   0  -9   -1.38   20.28
 -12   0  -9  -25.16   23.88
  12   1  -9   59.37   20.15
 -12  -1  -9   21.22   21.19
  12   1  -9   75.11   16.66
 -12  -1  -9   58.27   29.92
 -12   1  -9   42.46   20.19
  12  -1  -9   75.38   17.22
 -12   1  -9   31.56   23.98
  12   2  -9   15.67   15.24
  12   2  -9   17.12   19.24
 -12  -2  -9  -22.01   21.38
  12  -2  -9    3.62   18.27
  12  -2  -9   21.30   19.85
 -12   2  -9   10.56   24.29
 -12   2  -9   -4.30   19.61
 -12  -3  -9   34.20   24.73
 -12  -3  -9   63.45   25.72
  12   3  -9   74.03   19.56
  12  -3  -9   71.02   21.29
  12  -3  -9   75.30   21.38
 -12   3  -9   77.77   21.17
 -12  -4  -9   11.57   26.02
  12  -4   9   -1.17   20.72
  12  -4  -9   29.87   20.48
  12  -4  -9   13.10   19.15
 -12   4  -9   15.06   22.85
  12   4   9   44.66   22.75
 -12   4  -9   30.93   22.55
 -12  -5  -9    5.72   26.45
 -12  -5  -9   -9.58   22.87
  12   5   9   14.73   21.79
  12  -5  -9   13.99   21.83
  12  -5  -9  -17.97   23.67
 -12   5  -9   24.10   22.44
 -12   5  -9   -7.43   21.42
 -12  -6  -9   25.88   28.05
 -12  -6  -9   23.23   24.53
 -12   6  -9   52.25   24.75
 -12   6  -9   80.95   24.96
  12  -6  -9   72.71   24.86
 -12   6  -9   54.48   16.30
  12  -6  -9   45.54   23.69
 -12  -7  -9  -45.38   25.02
 -12  -7  -9   -7.58   30.29
  12   7   9  -13.45   21.63
 -12   7  -9   26.08   25.29
  12  -7  -9    8.23   26.62
 -12   7  -9   -4.65   15.82
  12  -7  -9  -24.40   24.85
 -12   7  -9  -32.70   24.65
 -12  -8  -9   31.37   25.42
 -12  -8  -9   65.23   33.61
 -12   8  -9   49.04   34.68
 -12   8  -9   54.83   16.88
  12  -8  -9  120.13   29.37
  12   8   9    2.60   23.79
  12  -8  -9   42.12   26.60
 -12   8  -9   92.45   26.90
 -12  -9  -9  -10.77   25.95
 -12  -9  -9   36.12   36.59
  12   9   9   44.21   28.61
 -12   9  -9   21.73   27.50
  12  -9  -9   14.99   30.24
  12  -9  -9    6.38   29.33
 -12   9  -9    7.77   16.07
 -12 -10  -9   -6.58   29.70
 -12 -10  -9   -9.31   43.06
  12  10  -9   14.87   16.96
  12  10   9   38.97   31.28
 -12  10  -9    2.27   16.74
  12 -10  -9   46.58   32.82
  12 -10  -9   34.55   31.68
  12  11  -9    6.17   19.00
  12  11   9   13.26   33.10
  12   0 -10   66.77   24.35
 -12   0 -10   78.11   25.44
  12   0 -10   48.50   22.59
 -12   0 -10   58.97   23.68
 -12  -1 -10  -16.61   23.36
  12   1 -10   16.18   22.60
  12   1 -10   36.70   17.81
 -12  -1 -10  -24.72   23.68
  12  -1 -10   -3.68   22.33
 -12   1 -10   30.59   24.51
  12  -1 -10   20.24   25.15
 -12   1 -10  -16.36   22.55
 -12  -2 -10   38.10   26.31
  12   2 -10   67.21   18.34
  12   2 -10  107.01   31.28
 -12  -2 -10   19.52   25.49
 -12   2 -10   27.81   23.63
  12  -2 -10   72.45   19.76
 -12   2 -10   66.03   24.03
  12   3 -10   96.27   18.82
 -12  -3 -10   41.36   26.64
 -12   3 -10   43.52   23.66
  12  -3 -10   72.92   20.42
 -12   3 -10   61.73   23.07
  12  -3 -10   50.88   22.72
  12   4 -10   20.69   17.28
  12   4 -10    4.51   12.94
 -12  -4 -10    0.62   28.66
 -12  -4 -10  -15.03   27.30
 -12   4 -10   48.66   23.18
 -12   4 -10   -1.50   21.21
  12  -4 -10   16.84   23.09
  12  -4 -10   24.15   21.70
 -12  -5 -10   41.79   29.74
 -12  -5 -10   51.46   26.79
 -12   5 -10   57.98   23.27
 -12   5 -10   62.73   25.56
  12  -5 -10  119.17   25.14
  12  -5 -10   59.79   37.06
 -12  -6 -10  -26.71   27.13
 -12  -6 -10   -5.57   29.77
 -12   6 -10  -13.19   15.40
 -12   6 -10  -44.48   23.67
  12  -6 -10    0.75   25.33
  12  -6 -10   18.41   24.89
 -12   6 -10   47.80   26.75
 -12  -7 -10   -8.72   26.94
 -12  -7 -10   38.26   31.33
 -12   7 -10   21.37   16.44
  12  -7 -10   55.27   29.34
  12  -7 -10  101.76   28.65
 -12   7 -10   25.76   25.94
 -12  -8 -10  -13.73   27.31
 -12  -8 -10   26.55   33.78
  12  -8 -10  -33.15   29.13
 -12   8 -10   -1.21   26.69
  12  -8 -10   10.95   29.02
 -12   8 -10   -6.18   15.54
 -12  -9 -10   40.71   37.80
 -12  -9 -10   -6.84   27.66
 -12   9 -10   25.98   28.30
  12  -9 -10   43.67   31.07
 -12   9 -10    6.94   16.28
  12  -9 -10    5.62   30.23
 -12 -10 -10   30.22   32.37
 -12 -10 -10   48.22   45.56
 -12  10 -10   -9.19   17.13
  12 -10 -10   -1.59   33.61
 -12   0 -11  -43.00   24.48
 -12   0 -11   19.93   26.54
  12   0 -11   32.61   25.10
  12   0 -11   17.21   19.45
  12   1 -11  129.97   36.13
  12   1 -11   62.62   20.44
 -12  -1 -11   13.56   27.92
 -12  -1 -11   52.54   26.47
  12  -1 -11   75.93   20.57
  12  -1 -11   97.43   26.38
 -12   1 -11   81.89   26.60
 -12   1 -11   42.33   40.63
 -12  -2 -11  115.31   29.13
  12   2 -11   96.58   24.69
  12  -2 -11  101.13   27.37
  12  -2 -11  163.66   26.87
 -12   2 -11   72.59   25.80
 -12   2 -11  110.36   25.19
 -12  -3 -11  -20.26   27.62
 -12  -3 -11  -14.71   30.24
 -12   3 -11  -18.91   22.64
  12  -3 -11   25.66   33.10
 -12   3 -11   41.10   26.29
  12  -3 -11   29.33   21.97
 -12  -4 -11  146.28   34.42
 -12  -4 -11  133.83   35.36
 -12   4 -11  169.82   29.95
 -12   4 -11  246.14   47.40
  12  -4 -11  194.63   31.11
  12  -4 -11  150.63   50.55
 -12  -5 -11   -1.05   30.56
 -12  -5 -11   -5.26   30.19
 -12   5 -11  -29.34   23.37
  12  -5 -11   17.90   24.77
  12  -5 -11   -2.07   27.09
 -12  -6 -11   51.43   33.27
 -12  -6 -11   28.18   31.08
 -12   6 -11   53.46   25.81
 -12   6 -11   31.61   15.87
  12  -6 -11   55.44   28.20
  12  -6 -11   71.66   27.29
 -12  -7 -11    5.35   32.55
 -12  -7 -11   -3.87   31.71
  12  -7 -11   -1.50   29.28
 -12   7 -11    5.34   27.81
  12  -7 -11    9.35   28.70
 -12   7 -11   -9.51   16.21
 -12  -8 -11  -31.53   29.33
 -12  -8 -11  -37.32   34.63
 -12   8 -11   29.85   29.33
 -12   8 -11    9.68   16.21
  12  -8 -11   -9.28   32.22
  12  -8 -11   12.74   29.29
 -12  -9 -11   -6.05   38.46
 -12  -9 -11   -4.17   31.40
  12  -9 -11  -30.63   34.18
 -12   9 -11  -21.43   29.80
 -12   9 -11   10.55   16.73
 -12   0 -12   20.34   27.51
  12   0 -12   43.43   21.58
 -12  -1 -12   73.73   27.91
  12   1 -12   82.43   22.51
 -12  -1 -12   29.63   35.45
  12  -1 -12   84.86   23.45
 -12   1 -12   88.42   28.52
  12  -1 -12   99.58   30.92
 -12   1 -12   69.70   30.77
 -12  -2 -12  -10.03   29.61
 -12  -2 -12   -3.30   32.17
  12   2 -12   37.43   21.55
  12  -2 -12   25.10   22.75
  12  -2 -12   10.09   30.26
 -12   2 -12    3.02   29.35
 -12   2 -12    1.73   24.62
 -12  -3 -12  146.31   36.36
 -12  -3 -12  223.53   40.15
  12   3 -12  253.91   31.02
  12  -3 -12  227.91   32.34
 -12   3 -12  319.41   53.60
 -12   3 -12  191.72   33.00
  12  -3 -12  268.62   53.28
  12   4 -12  -14.66   23.58
 -12  -4 -12   15.34   34.44
 -12  -4 -12   -2.03   31.77
 -12   4 -12   51.47   31.17
 -12   4 -12  -29.23   24.14
  12  -4 -12   12.52   25.16
  12  -4 -12   26.17   31.60
 -12  -5 -12   78.06   38.03
 -12  -5 -12  107.82   35.62
  12   5 -12  132.19   27.92
  12  -5 -12  131.41   28.62
  12  -5 -12  136.20   31.82
 -12   5 -12   88.16   26.93
 -12  -6 -12  -26.57   35.65
 -12  -6 -12   24.94   33.38
 -12   6 -12   -8.09   27.33
  12  -6 -12   15.82   32.27
  12  -6 -12   31.21   28.70
 -12  -7 -12  -31.64   35.26
 -12  -7 -12  -11.63   33.85
  12  -7 -12   42.42   29.56
 -12   7 -12    3.79   29.93
  12  -7 -12   21.47   32.17
 -12   7 -12   12.81   16.41
 -12  -8 -12  -14.65   36.01
 -12   8 -12  -30.27   30.93
 -12   8 -12    1.95   16.65
  12  -8 -12  -12.76   33.25
 -12   0 -13  -18.24   28.97
  12   0 -13  -13.57   23.58
 -12   0 -13   -8.56   37.15
 -12  -1 -13   30.40   36.17
  12   1 -13   90.68   24.69
 -12  -1 -13   11.58   29.61
 -12   1 -13   13.67   44.30
 -12   1 -13   58.84   29.55
  12  -1 -13   29.42   24.27
 -12  -2 -13   70.70   38.18
 -12  -2 -13   64.27   31.96
  12   2 -13  105.48   26.04
 -12   2 -13   68.82   28.41
  12  -2 -13  131.02   38.89
  12   3 -13   42.84   24.77
 -12  -3 -13   -8.93   31.93
 -12  -3 -13   34.98   39.49
 -12   3 -13   26.60   39.19
  12  -3 -13   20.49   38.72
  12  -3 -13   62.64   26.52
 -12   3 -13    8.48   26.58
 -12  -4 -13   87.28   40.22
 -12  -4 -13  111.14   36.04
  12   4 -13  119.48   28.64
  12  -4 -13  142.94   38.18
 -12   4 -13  112.77   28.12
  12  -4 -13  119.59   28.69
 -12  -5 -13   12.81   39.75
 -12  -5 -13   -8.20   35.53
 -12   5 -13   20.10   28.15
  12  -5 -13    2.79   34.93
  12  -5 -13   40.41   29.05
 -12  -6 -13   11.76   38.51
 -12  -6 -13  -14.61   39.45
  12  -6 -13   23.75   34.01
 -12   6 -13   33.29   29.97
  12  -6 -13   22.75   27.79
 -12   0 -14   23.56   41.01
 -12   0 -14    9.84   30.72
  12   0 -14   56.26   26.21
 -12  -1 -14   -6.67   31.17
  12   1 -14    6.86   26.01
 -12  -1 -14  -23.13   43.20
  12  -1 -14   -0.85   26.59
 -12   1 -14   63.46   41.72
 -12   1 -14   12.33   31.08
 -12  -2 -14    2.36   33.61
 -12  -2 -14   10.94   43.43
  12   2 -14   12.92   25.58
  12  -2 -14  -12.34   26.37
 -12   2 -14   14.49   29.66
 -12  -3 -14   83.19   35.68
 -12  -3 -14   62.88   43.76
  12   3 -14   42.18   27.45
  12  -3 -14  109.81   44.59
 -12   3 -14   41.53   28.60
  12  -3 -14   51.73   28.55
  12   4 -14    7.78   28.41
 -12  -4 -14  -23.38   36.05
 -12  -4 -14   28.96   44.31
  12  -4 -14    9.52   27.56
 -12   4 -14   31.59   29.37
  12  -4 -14   64.27   40.40
  13   0   0   -4.29   11.18
 -13   0   0   20.93   11.75
 -13   0   0   -1.01   14.31
 -13   0   0   11.67   18.92
 -13  -1   0   48.38   11.70
 -13   1   0   48.16   19.35
 -13  -1   0   42.03   19.45
 -13   1   0   35.96   13.36
  13  -1   0   66.37   12.39
  13   1   0   38.64   12.44
 -13  -1   0   38.10   14.50
 -13   1   0   39.38   15.05
 -13  -2   0  326.29   34.17
  13   2   0  316.26   25.84
 -13   2   0  319.90   32.81
 -13  -2   0  365.99   32.66
 -13   2   0  302.02   26.37
 -13   2   0  330.75   36.03
 -13  -2   0  353.80   28.12
 -13  -3   0  127.84   22.42
 -13   3   0   83.07   17.61
  13   3   0  105.29   15.71
 -13  -3   0  111.27   17.94
 -13  -3   0   92.71   16.88
 -13   3   0  153.42   22.41
 -13   3   0  108.07   17.07
  13   4   0 1017.44   60.51
 -13   4   0 1020.82   61.50
 -13   4   0 1091.02   64.12
 -13  -4   0 1073.01   65.58
  13  -4   0 1055.98   67.30
 -13  -4   0 1035.54   64.75
 -13   4   0 1081.23   66.65
  13  -5   0   43.82   19.46
  13  -5   0   42.86   20.54
 -13   5   0   50.35   16.22
 -13   5   0   24.26   17.77
 -13  -5   0   36.57   16.37
 -13  -5   0   58.49   23.52
  13   5   0   48.23   15.47
 -13   5   0   73.88   20.98
 -13  -6   0   32.18   25.06
  13  -6   0   21.66   20.18
 -13   6   0   -2.01   18.20
  13  -6   0   16.99   20.22
 -13  -6   0    3.75   17.40
  13   6   0   18.06   16.12
 -13  -7   0   33.90   21.90
  13  -7   0   70.58   23.06
  13   7   0   45.37   17.41
 -13  -7   0   37.17   18.34
 -13   7   0   51.11   18.91
  13  -7   0   13.85   20.63
 -13   8   0  170.27   25.54
  13   8   0  137.23   34.41
 -13  -8   0   87.25   21.67
 -13  -8   0  108.14   28.46
  13  -8   0  116.49   28.74
  13  -9   0   56.05   23.97
  13  -9   0   59.88   27.94
 -13   9   0   46.50   23.00
  13   9   0   17.61   20.00
 -13  10   0  123.53   24.59
 -13 -10   0   62.92   27.32
  13 -10   0   89.66   26.84
  13  10   0   30.05   21.98
 -13 -11   0   56.82   29.56
  13 -11   0   34.93   28.09
 -13  11   0   48.89   24.96
  13  11   0   35.39   23.36
 -13 -12   0   38.23   33.81
  13 -12   0  -60.13   45.95
  13 -12   0  -34.72   31.14
  13  12   0   38.40   23.81
 -13  12   0   24.47   26.58
 -13  13   0   25.46   27.92
  13 -13   0   12.44   35.63
  13  13   0   -3.10   24.69
 -13   0   1   61.16   19.92
  13   0  -1   51.72   12.40
 -13   0  -1   39.97   19.44
 -13   0  -1   25.22   15.77
  13   0   1   49.50   12.17
 -13   0   1   57.41   13.83
 -13   0   1   45.26   15.31
 -13   0  -1   46.61   12.37
 -13   1   1   52.64   19.01
  13  -1   1   29.75   11.94
 -13  -1  -1   26.74   18.46
 -13   1   1   33.51   15.67
  13   1  -1   37.27   12.05
 -13  -1  -1   31.20   12.62
 -13  -1  -1   22.88   15.37
 -13   1   1   33.96   13.79
  13   1   1   30.76   12.19
 -13   1  -1   22.85   19.93
 -13  -1   1   20.77   14.50
 -13   1  -1   22.31   12.10
 -13  -1   1   39.07   19.39
  13  -1  -1   43.08   12.37
 -13   1  -1   14.66   14.84
 -13  -1   1   52.91   19.51
 -13  -2  -1   59.30   19.76
 -13   2   1   68.24   15.26
 -13  -2  -1   37.06   14.78
 -13  -2  -1   68.16   13.45
  13   2  -1   37.51   13.58
 -13   2   1   42.09   16.82
 -13   2   1   79.27   19.76
 -13   2  -1   12.89   17.05
 -13   2  -1   26.51   12.71
 -13  -2   1   36.65   20.17
  13   2   1   56.05   14.12
 -13  -2   1   39.79   13.81
 -13   2  -1   24.58   20.17
 -13  -2   1   30.56   15.21
 -13  -3  -1  589.59   41.98
 -13   3   1  592.07   41.11
  13   3  -1  559.09   36.89
 -13  -3  -1  610.48   36.81
 -13  -3  -1  608.06   43.57
 -13   3   1  579.96   43.93
 -13   3   1  576.08   37.73
  13   3   1  572.92   36.78
  13  -3  -1  530.58   43.58
 -13   3  -1  561.56   43.08
 -13  -3   1  560.27   42.84
 -13   3  -1  535.38   36.91
 -13  -3   1  576.54   41.76
 -13   3  -1  540.94   45.71
 -13  -4  -1    4.70   15.33
 -13  -4  -1    3.04   21.03
  13  -4   1  -11.37   15.81
 -13   4   1  -12.75   15.57
  13   4  -1   -1.90   13.85
 -13   4   1    5.57   14.51
 -13  -4  -1   -3.32   15.58
 -13   4   1   19.91   18.97
 -13   4  -1    0.51   17.04
 -13  -4   1    0.71   20.33
  13   4   1    7.72   13.28
 -13  -4   1   -8.74   14.73
 -13   4  -1  -18.39   20.16
  13  -4  -1   -6.94   15.66
  13  -4  -1   -1.17   15.37
  13  -5   1  284.85   39.96
 -13  -5  -1  252.15   34.98
 -13   5   1  247.14   25.78
 -13  -5  -1  288.60   33.73
  13  -5   1  300.65   30.65
  13   5  -1  280.31   24.78
 -13   5  -1  290.15   32.00
 -13   5  -1  224.48   26.83
  13  -5  -1  279.46   29.75
  13  -5  -1  356.48   40.54
 -13  -5   1  242.93   33.37
 -13  -5   1  269.54   33.72
 -13   5  -1  276.45   36.51
  13   5   1  262.30   25.58
  13  -6   1   76.64   22.37
 -13   6   1   37.82   17.17
 -13  -6  -1   48.02   25.25
  13  -6   1   39.59   20.73
 -13  -6  -1   15.32   18.19
  13   6  -1   47.59   16.13
 -13  -6   1   19.13   16.67
  13  -6  -1   69.83   25.23
  13   6   1   50.66   16.47
 -13  -6   1   82.19   21.98
 -13   6  -1   40.00   17.84
 -13   6  -1   82.02   21.05
  13  -6  -1   60.26   21.10
 -13   6  -1   44.49   17.12
  13   7  -1   16.90   16.64
  13  -7   1   13.66   22.95
  13  -7   1  -24.72   20.58
 -13  -7  -1  -21.14   19.41
 -13  -7  -1  -12.59   27.91
 -13   7   1  -16.31   18.14
  13  -7  -1   -3.38   21.84
 -13  -7   1    1.14   16.76
  13  -7  -1    4.14   19.76
 -13   7  -1    5.97   18.45
  13   7   1    4.40   17.12
  13  -8   1   14.47   36.05
  13   8  -1   29.44   19.36
 -13   8   1   15.48   19.82
 -13  -8  -1    3.68   22.68
  13  -8   1   49.89   25.31
 -13  -8  -1   41.89   25.26
 -13  -8   1   37.56   18.52
  13  -8  -1   23.39   22.95
  13  -8  -1   30.97   25.03
 -13   8  -1    6.15   20.54
  13  -9   1  103.56   25.08
  13   9  -1   48.30   20.16
 -13  -9  -1   87.29   27.13
  13  -9   1   95.41   22.55
 -13  -9  -1   38.84   33.90
 -13   9   1  116.95   32.61
 -13  -9   1   54.87   21.67
  13  -9  -1  130.57   29.62
  13   9   1   42.90   21.04
 -13   9  -1  108.27   23.48
  13  -9  -1   97.16   25.69
  13 -10   1   30.58   25.48
 -13 -10  -1   18.20   27.57
 -13  10   1   35.80   23.90
  13  10  -1    5.46   20.74
  13 -10  -1   15.18   26.21
  13 -10  -1   31.13   30.31
  13  10   1   34.86   22.05
 -13  10  -1   77.18   24.00
  13 -11   1   40.54   27.64
  13  11  -1   12.12   21.67
 -13 -11  -1   40.09   30.69
 -13  11   1   25.24   25.78
  13  11   1   43.25   23.41
 -13  11  -1    5.22   24.72
  13 -11  -1   38.67   28.80
  13 -11  -1  -44.71   31.44
  13  12  -1    7.32   25.76
  13 -12   1  -16.57   30.97
 -13 -12  -1    8.35   35.15
 -13  12   1   40.67   27.27
  13  12   1   32.37   24.76
  13 -12  -1  -21.30   31.53
 -13  12  -1   32.87   25.83
  13 -13   1   -4.10   33.86
 -13  13   1    3.24   29.53
  13  13  -1    9.94   27.28
 -13 -13  -1   67.90   43.51
 -13  13  -1   32.13   27.87
  13  13   1    2.09   25.61
  13 -13  -1  -36.04   36.81
  13   0  -2  132.51   17.91
 -13   0   2  158.59   27.90
 -13   0   2  101.16   18.22
 -13   0   2   91.50   19.21
 -13  -1  -2   45.38   13.96
  13   1  -2   47.47   12.43
 -13   1   2   52.48   13.26
  13  -1   2   40.32   12.66
 -13  -1  -2   28.13   14.79
 -13   1   2   68.64   19.42
 -13  -1  -2   46.53   18.90
 -13   1   2   47.84   15.38
 -13   1  -2   36.41   13.55
 -13   1  -2    8.79   16.15
 -13  -1   2   51.61   19.93
  13   1   2   50.99   12.45
 -13   1  -2   16.82   19.31
 -13  -1   2   54.15   18.11
 -13  -1   2   28.71   14.97
  13  -1  -2   52.57   12.95
 -13   2   2   75.06   12.68
 -13  -2  -2   60.68   14.65
  13   2  -2   59.82   14.37
 -13   2   2   68.52   14.80
 -13   2   2   88.08   20.03
 -13  -2  -2   37.81   16.12
 -13  -2  -2   72.31   20.40
  13   2   2   60.61   14.25
 -13   2  -2   27.41   16.58
 -13   2  -2   33.18   13.68
 -13  -2   2   39.20   14.95
 -13   2  -2   43.63   19.46
 -13  -2   2   57.38   20.78
 -13   3   2   28.69   13.26
 -13   3   2   28.85   13.93
 -13  -3  -2   18.69   19.84
 -13  -3  -2   32.91   14.96
 -13  -3  -2    2.58   15.44
  13   3  -2    1.78   13.83
  13   3   2   29.01   14.37
 -13   3  -2  -18.87   20.44
  13  -3  -2   17.68   14.80
 -13  -3   2   47.34   20.67
  13   4  -2   80.45   15.03
  13  -4   2   48.82   17.75
 -13  -4  -2   59.14   18.59
 -13  -4  -2   91.87   22.90
 -13  -4  -2   95.90   17.16
 -13   4   2  114.75   19.44
 -13   4  -2   49.47   18.06
 -13   4  -2   67.16   15.39
 -13  -4   2   87.27   22.43
 -13  -4   2   52.83   15.58
 -13   4  -2   83.48   23.24
  13  -4  -2   67.13   17.38
 -13   5   2  -28.84   15.52
 -13  -5  -2   39.55   14.89
 -13  -5  -2  -20.41   17.17
 -13  -5  -2  -15.68   22.34
  13  -5   2  -10.48   18.54
  13   5  -2  -10.42   14.04
  13  -5   2  -13.13   19.68
 -13  -5   2   20.27   21.23
 -13  -5   2  -22.29   14.68
 -13   5  -2   -2.64   21.14
  13   5   2    3.60   14.89
  13  -5  -2   15.71   17.66
 -13   5  -2  -21.53   15.02
  13  -5  -2    4.53   19.20
 -13   5  -2   12.50   18.06
  13  -6   2    0.34   20.19
  13   6  -2   -5.94   15.10
 -13  -6  -2  -18.29   18.19
 -13   6   2  -16.97   16.65
 -13  -6  -2  -15.52   24.29
  13  -6   2    6.11   21.54
  13  -6  -2   -6.58   19.42
 -13   6  -2   16.05   21.13
 -13   6  -2    8.81   17.65
 -13  -6   2   52.55   22.12
 -13   6  -2  -18.30   16.23
  13  -6  -2  -13.87   18.64
 -13  -6   2   -7.45   15.95
  13   6   2   13.43   15.62
 -13  -7  -2  -20.42   19.80
  13  -7   2  -23.95   20.67
 -13   7   2    1.34   17.94
 -13  -7  -2  -23.24   27.35
  13  -7   2   15.25   23.83
  13   7  -2  -11.39   16.87
 -13   7  -2   -0.57   20.54
  13  -7  -2   -9.15   20.25
 -13  -7   2  -24.77   15.56
  13   7   2    6.39   17.09
 -13   7  -2    3.54   17.95
  13  -7  -2   11.56   21.29
 -13   7  -2    1.23   17.94
 -13  -8  -2   28.66   32.12
  13  -8   2  -23.42   34.74
  13   8  -2   20.89   18.20
  13  -8   2   10.03   24.09
 -13   8   2  -12.29   19.04
  13  -8  -2  -13.76   21.19
  13  -8  -2   13.60   24.30
 -13  -8   2  -10.23   16.70
 -13   9   2  -22.03   28.35
 -13  -9  -2   39.51   29.57
  13  -9   2  -17.91   21.46
  13   9  -2   17.25   18.53
  13  -9   2    3.71   23.67
 -13  -9  -2   11.49   25.55
  13   9   2   12.85   21.12
  13  -9  -2   -0.60   29.11
 -13   9  -2    0.13   21.80
  13  -9  -2   -8.80   25.13
 -13 -10  -2   19.42   38.31
 -13 -10  -2  -18.22   27.28
  13  10  -2    8.30   19.91
 -13  10   2   12.14   24.36
  13 -10   2    3.35   25.10
 -13  10  -2   16.22   23.37
  13 -10  -2   -4.56   26.24
  13  10   2   20.26   22.49
  13 -10  -2  -34.17   40.26
  13  11  -2   26.59   21.28
 -13  11   2   39.36   26.18
  13 -11   2   24.19   28.43
 -13 -11  -2   29.12   32.90
 -13  11  -2   22.95   24.85
  13 -11  -2  -21.36   32.42
  13 -11  -2   -3.64   27.93
  13  11   2   16.08   23.65
 -13  12   2  -40.75   28.13
  13  12  -2   14.76   23.72
 -13 -12  -2   14.59   35.91
  13 -12   2  -45.66   30.68
  13 -12  -2  -58.20   31.47
  13  12   2   25.92   25.35
 -13  12  -2   -5.68   25.90
 -13 -13  -2   25.89   41.67
  13  13  -2   16.46   26.71
 -13  13   2   -5.96   30.88
  13 -13   2  -12.46   32.39
 -13  13  -2   14.14   27.27
  13 -13  -2  -53.14   36.19
  13  13   2   25.05   27.20
 -13   0  -3  -11.13   14.58
  13   0  -3   11.05   11.85
 -13   0  -3  -14.32   12.99
 -13   0   3   24.09   13.63
 -13   0  -3  -24.19   18.36
 -13   0   3   34.22   22.87
 -13   0   3   16.91   17.92
  13   0   3   -8.14   12.30
 -13  -1  -3   48.20   13.75
  13  -1   3   29.08   13.30
 -13  -1  -3   49.28   19.28
  13   1   3   55.80   12.84
 -13  -1   3   58.30   19.56
 -13  -2  -3  100.71   20.03
 -13  -2  -3  102.93   14.92
  13   2  -3   69.65   14.57
 -13  -2  -3   42.72   16.84
 -13   2   3   78.88   14.20
  13   2   3  100.40   15.14
 -13   2  -3   63.18   15.11
 -13  -2   3   58.92   15.02
  13  -2  -3   52.85   16.13
 -13   2  -3   74.98   21.23
 -13   2  -3   43.39   16.96
 -13  -3  -3   47.79   17.36
 -13  -3  -3   82.36   21.23
  13   3  -3   47.18   14.37
  13  -3  -3   41.96   15.65
 -13   3  -3   19.47   18.07
 -13   3  -3   35.06   21.73
 -13  -3   3   33.46   14.02
 -13   3  -3   44.34   14.96
 -13  -3   3   52.41   20.60
  13   3   3   82.44   15.28
 -13   4   3   47.11   14.10
 -13  -4  -3   55.63   21.51
  13   4  -3    0.87   14.83
 -13  -4  -3   32.20   17.45
 -13  -4  -3   47.67   16.01
  13   4   3   62.68   15.17
 -13  -4   3   -9.21   19.49
  13  -4  -3   35.87   18.80
  13  -5   3   57.36   20.69
 -13   5   3   19.58   14.88
  13   5  -3   11.33   14.14
 -13  -5  -3   49.48   16.69
 -13  -5  -3   48.59   24.15
  13  -5   3   14.61   18.12
 -13  -5  -3   12.66   18.41
 -13   5  -3   -1.09   22.22
 -13  -5   3  -18.17   20.33
 -13  -5   3    4.25   13.97
 -13   5  -3    5.12   17.56
  13   5   3   50.47   15.43
 -13   5  -3    0.58   14.33
  13  -5  -3   32.01   18.83
 -13  -6  -3   -5.81   18.79
  13   6  -3   13.67   14.70
  13  -6   3    3.12   20.32
 -13  -6  -3   17.93   25.84
  13  -6   3   16.75   22.23
 -13   6   3   -2.87   15.83
 -13  -6   3    4.39   14.08
  13   6   3   22.99   16.21
  13  -6  -3   24.03   19.25
 -13   6  -3   25.56   21.60
 -13   6  -3    8.81   18.15
  13  -6  -3    4.09   20.12
 -13   6  -3  -13.71   15.46
  13  -7   3   40.30   24.24
  13   7  -3    4.49   16.55
 -13  -7  -3  -34.54   21.04
 -13  -7  -3  -37.07   28.03
  13  -7   3  -26.05   21.14
 -13   7   3    3.94   17.37
  13   7   3  -11.93   17.70
 -13   7  -3    4.38   19.15
  13  -7  -3  -20.29   21.95
  13  -7  -3  -25.38   21.26
 -13   7  -3  -22.97   17.63
 -13   7  -3    7.88   22.17
 -13   8   3  -21.39   19.69
 -13  -8  -3   -5.16   23.42
  13  -8   3  -12.63   35.11
  13   8  -3   10.75   17.75
 -13  -8  -3   14.97   33.00
  13  -8   3   -6.18   20.18
  13  -8  -3  -16.15   21.33
 -13   8  -3   -0.12   19.66
  13  -8  -3   15.81   25.04
 -13  -9  -3  -20.83   25.27
 -13   9   3  -19.06   22.14
  13  -9   3  -17.50   23.50
  13  -9   3  -20.43   24.40
  13   9  -3    0.87   18.46
 -13  -9  -3  -25.81   31.19
 -13   9  -3  -16.95   21.15
  13   9   3  -15.19   22.19
  13  -9  -3  -11.34   37.06
 -13 -10  -3  -22.68   38.48
  13 -10   3   36.86   26.57
  13  10  -3    3.76   19.39
 -13 -10  -3   -1.88   28.84
 -13  10   3   12.14   25.33
  13 -10  -3    0.01   25.95
  13 -10  -3   -5.81   33.17
 -13  10  -3   37.43   22.84
  13  10   3   21.52   23.24
  13 -11   3   21.08   28.76
 -13  11   3   -0.42   27.19
 -13 -11  -3  -21.02   31.88
  13  11  -3   13.35   20.96
 -13 -11  -3   55.99   51.08
  13 -11  -3  -23.97   35.11
  13  11   3    5.36   24.60
  13 -11  -3   -4.34   28.79
  13  12  -3   14.18   23.39
 -13 -12  -3   26.64   39.10
  13 -12   3   29.08   30.21
 -13  12   3    9.49   30.14
  13 -12  -3  -23.98   31.95
  13  12   3   16.16   25.97
 -13  12  -3    9.66   25.23
  13 -13   3  -29.22   31.05
 -13  13   3   -5.22   33.14
  13  13  -3    1.95   23.18
 -13  13  -3   32.45   26.98
  13 -13  -3   -6.61   37.43
  13  13   3   19.80   27.52
  13   0   4    4.00   13.37
 -13   0  -4   -8.72   12.74
 -13   0  -4   10.62   17.15
 -13   0  -4    1.12   18.88
 -13  -1  -4  147.19   22.37
 -13  -1  -4   95.68   19.02
  13   1  -4  116.47   14.99
 -13   1  -4  120.04   15.91
 -13  -1   4   93.29   14.62
 -13   1  -4  128.80   22.47
  13   1   4  128.01   15.57
 -13  -2  -4  197.65   28.87
 -13  -2  -4  168.70   33.43
  13   2  -4  189.45   21.07
 -13   2   4  247.49   23.21
 -13   2  -4  181.69   22.20
  13  -2  -4  221.49   32.69
  13   2   4  231.22   22.35
 -13   2  -4  207.49   29.12
 -13   2  -4  190.45   21.99
 -13  -2   4  192.40   27.28
 -13   3   4  208.88   20.84
 -13  -3  -4  120.60   20.27
  13   3  -4  151.24   21.45
 -13  -3  -4  180.60   28.87
 -13   3  -4  180.17   29.72
  13   3   4  193.06   22.16
  13  -3  -4  178.47   35.09
 -13  -3   4  172.69   26.36
 -13   3  -4  143.38   21.38
 -13   3  -4  167.65   34.23
  13  -3  -4  197.89   23.14
 -13  -4  -4  239.58   31.05
 -13  -4  -4  269.62   36.32
  13   4  -4  210.39   23.66
 -13   4   4  231.84   23.67
 -13   4  -4  243.98   37.65
  13  -4  -4  246.43   37.58
 -13   4  -4  216.29   24.06
  13  -4  -4  259.72   27.67
 -13  -4   4  198.47   27.77
 -13   4  -4  216.66   32.46
  13  -5   4   84.67   21.86
  13  -5   4   15.26   18.19
 -13  -5  -4   23.22   19.18
  13   5  -4   56.06   14.72
 -13  -5  -4   47.08   30.12
 -13   5   4   35.22   15.57
 -13  -5   4   26.41   12.75
  13  -5  -4   16.40   18.48
 -13   5  -4   42.41   19.79
  13  -5  -4   65.00   18.88
 -13   5  -4   52.87   22.40
 -13   5  -4   25.81   15.42
  13   5   4   60.56   16.20
  13   6  -4   15.45   14.84
 -13  -6  -4   21.31   24.81
 -13   6   4  -11.74   16.34
 -13  -6  -4   16.18   19.94
  13  -6   4   48.69   24.20
  13  -6   4   14.77   20.97
 -13   6  -4   -2.39   22.10
  13   6   4   27.54   16.87
  13  -6  -4   52.87   19.90
 -13   6  -4    9.49   19.67
  13  -6  -4    5.88   18.27
 -13   6  -4   -4.65   14.65
 -13   7   4   -0.84   18.45
  13  -7   4    6.32   21.69
  13  -7   4   -1.73   19.46
 -13  -7  -4   24.54   29.28
 -13   7  -4    2.74   19.12
  13  -7  -4   13.50   21.81
  13   7   4    7.62   18.61
 -13  -8  -4  -11.40   23.70
  13  -8   4  -28.73   23.67
 -13   8   4   14.26   20.63
  13  -8   4    1.27   29.00
 -13  -8  -4   15.26   33.81
  13   8  -4   26.61   17.69
  13  -8  -4   34.55   32.89
 -13   8  -4   63.99   22.56
 -13   8  -4   28.45   20.26
  13  -8  -4   -1.41   23.08
 -13   8  -4   12.00   19.05
  13  -9   4    8.29   24.39
 -13   9   4    4.62   22.93
 -13  -9  -4  -16.98   25.93
  13   9  -4   19.86   17.50
 -13  -9  -4   21.50   38.73
  13   9   4    3.65   23.66
  13  -9  -4  -19.64   24.66
  13  -9  -4   16.80   30.62
 -13   9  -4   -2.29   20.30
 -13  10   4    2.57   27.07
  13 -10   4   39.52   26.62
  13  10  -4   36.93   18.80
 -13 -10  -4   67.96   35.19
 -13 -10  -4   24.01   29.03
  13  10   4   62.56   26.75
 -13  10  -4   34.03   22.85
  13 -10  -4   29.81   33.53
  13 -10  -4   25.16   26.49
 -13 -11  -4   22.88   32.56
  13  11  -4   17.54   20.40
  13 -11   4   -2.70   27.44
 -13  11   4   67.72   30.35
 -13  11  -4   20.07   24.01
  13 -11  -4   26.74   36.47
  13 -11  -4   -5.10   29.22
  13  11   4   22.69   27.69
 -13 -12  -4   -3.53   36.87
 -13  12   4   -8.76   32.70
  13  12  -4   10.91   22.22
  13  12   4   40.76   28.71
  13 -12  -4    3.12   38.04
 -13  12  -4   44.43   25.40
  13 -12  -4  -30.44   34.00
  13   0  -5  610.50   38.28
 -13   0  -5  612.42   43.85
  13   0   5  601.80   39.43
 -13   0  -5  625.04   47.37
 -13  -1  -5  153.38   24.36
  13   1  -5  154.53   19.70
  13   1   5  147.13   17.38
 -13   1  -5  149.09   23.03
  13  -1  -5  161.71   31.61
 -13  -2  -5  212.73   35.71
 -13  -2  -5  240.45   31.42
  13   2  -5  236.37   23.11
  13   2   5  243.76   23.94
  13  -2  -5  269.67   24.78
 -13   2  -5  290.02   30.58
 -13   2  -5  256.82   36.38
 -13   2  -5  252.25   23.02
  13  -2  -5  251.16   34.46
 -13  -3  -5  323.96   34.01
 -13  -3  -5  317.87   39.17
  13   3  -5  336.00   26.95
 -13   3  -5  332.77   27.01
  13   3   5  364.39   28.44
 -13   3  -5  327.65   33.97
  13  -3  -5  354.02   29.68
  13  -3  -5  374.37   39.78
 -13   3  -5  363.00   40.12
 -13  -4  -5  109.26   23.78
  13   4  -5  115.37   19.88
 -13   4  -5   98.29   22.75
 -13   4  -5   75.80   20.12
  13  -4  -5   83.19   19.29
  13  -4  -5  110.19   18.79
 -13   4  -5   95.46   16.60
  13   4   5   82.92   17.67
  13  -5   5  115.82   23.34
  13  -5   5   57.31   19.33
 -13  -5  -5   97.70   24.54
 -13  -5  -5   58.05   20.00
  13   5  -5   75.73   15.65
 -13   5  -5   80.32   19.85
  13   5   5   91.62   17.83
  13  -5  -5   52.78   19.34
 -13   5  -5   91.42   22.52
 -13   5  -5   57.14   16.31
  13  -5  -5   75.15   18.93
 -13   6   5   -3.29   13.05
 -13  -6  -5   -5.86   32.32
  13  -6   5    0.57   21.02
 -13  -6  -5    5.12   25.27
  13   6  -5   23.17   14.54
 -13   6  -5    9.30   23.68
 -13   6  -5   26.79   19.56
  13   6   5   27.15   17.74
 -13   6  -5   10.61   16.50
  13  -6  -5    1.90   20.46
  13  -6  -5   16.66   20.18
  13  -7   5   -0.21   23.18
 -13  -7  -5   36.38   28.73
 -13  -7  -5   -2.78   21.86
  13   7  -5   81.63   17.30
  13  -7   5   27.00   22.80
 -13   7  -5   39.17   21.97
  13  -7  -5   34.00   21.64
 -13   7  -5   49.71   16.74
  13  -7  -5   79.29   28.68
 -13   7  -5   80.22   24.40
  13   7   5   47.68   19.95
 -13   8   5  -31.08   15.61
  13  -8   5  -12.52   27.44
 -13  -8  -5  -39.21   33.05
  13   8  -5   26.39   16.50
 -13   8  -5  -13.73   17.72
  13  -8  -5   18.07   26.07
 -13   8  -5   -3.47   21.29
 -13   8  -5   20.19   22.87
  13   9  -5   58.19   18.73
 -13  -9  -5   40.36   26.85
  13  -9   5   90.27   26.58
  13  -9  -5   52.95   25.45
  13  -9  -5  132.43   30.94
  13   9   5   52.09   25.37
 -13   9  -5   75.97   20.84
 -13 -10  -5   27.28   48.22
  13 -10   5    6.08   25.67
 -13  10   5  -22.82   22.84
 -13 -10  -5  -12.86   27.91
  13  10  -5   26.09   18.55
  13  10   5   -3.71   27.03
  13 -10  -5   25.65   27.25
  13 -10  -5    7.34   33.59
 -13  10  -5   -7.49   21.26
 -13 -11  -5   -7.15   31.04
 -13  11   5  -24.77   23.05
 -13 -11  -5   49.53   49.30
  13  11  -5   34.63   19.89
  13  11   5    5.69   29.34
  13 -11  -5   12.36   36.15
  13 -11  -5    5.22   30.08
 -13  11  -5   65.90   23.49
 -13  12   5    8.74   26.72
  13  12  -5    3.25   21.13
 -13 -12  -5   -3.31   35.10
 -13 -12  -5   51.76   67.42
  13 -12  -5   16.63   39.27
 -13  12  -5    1.79   24.89
  13  12   5   42.52   32.81
  13 -12  -5  -22.95   35.54
 -13   0  -6  -21.52   16.72
  13   0  -6   10.87   16.32
 -13   0  -6   -2.84   20.41
  13   0   6   -6.44   12.66
 -13  -1  -6  509.01   45.06
  13   1  -6  534.51   33.82
 -13  -1  -6  516.29   40.53
 -13   1  -6  544.29   40.37
  13   1   6  473.65   34.89
  13  -1  -6  525.40   43.93
 -13   1  -6  507.17   45.15
 -13  -2  -6   88.69   20.31
  13   2  -6  149.71   19.56
 -13  -2  -6  140.19   24.19
  13   2   6  154.05   21.96
 -13   2  -6  152.58   27.62
 -13   2  -6  107.76   19.68
  13  -2  -6  127.11   20.27
  13  -2  -6  184.78   23.50
 -13  -3  -6   94.74   24.36
 -13  -3  -6   64.96   20.61
  13   3  -6  136.82   18.76
  13   3   6   98.39   18.03
 -13   3  -6   82.35   19.99
 -13   3  -6  110.66   15.87
  13  -3  -6   89.51   19.19
 -13   3  -6  113.01   22.33
  13  -3  -6  114.26   18.46
 -13  -4  -6  200.49   37.74
  13   4  -6  203.97   22.32
 -13  -4  -6  172.22   30.18
  13   4   6  193.42   24.69
  13  -4  -6  210.64   27.16
 -13   4  -6  186.84   22.46
  13  -4  -6  224.24   36.57
 -13   4  -6  258.57   37.52
 -13   4  -6  198.27   30.15
  13  -5   6    9.45   19.53
  13   5  -6   53.43   15.26
 -13  -5  -6   -2.57   20.81
  13  -5   6    1.40   18.51
 -13  -5  -6   24.80   23.60
  13   5   6   31.69   18.61
 -13   5  -6   24.05   15.99
  13  -5  -6   34.32   18.77
  13  -5  -6   41.02   19.06
 -13   5  -6   24.31   22.12
 -13   5  -6   16.15   20.67
 -13  -6  -6  -14.79   24.85
  13  -6   6   17.68   23.17
 -13  -6  -6  -23.52   21.48
  13  -6   6    0.20   21.97
 -13   6  -6   32.95   21.24
  13   6   6  -18.82   18.36
  13  -6  -6    7.48   23.85
 -13   6  -6   -4.41   40.85
  13  -6  -6   -1.83   22.14
 -13   6  -6  -12.60   16.64
  13  -7   6   -5.46   22.92
  13   7  -6   25.10   15.99
 -13   7   6  -34.47   18.00
 -13  -7  -6  -34.44   22.12
 -13  -7  -6    2.43   37.95
  13   7   6  -19.08   20.40
  13  -7  -6   35.77   23.86
  13  -7  -6  -20.78   22.25
 -13   7  -6  -21.65   22.16
 -13   7  -6   21.33   23.56
 -13   7  -6  -26.96   16.08
  13  -8   6   59.29   28.79
 -13  -8  -6   89.94   37.88
  13   8  -6   71.14   17.63
 -13   8  -6  103.95   24.65
  13  -8  -6   92.72   24.06
  13  -8  -6  107.47   27.85
  13   8   6   47.12   30.13
 -13   8  -6   80.44   18.07
 -13   9   6   -3.74   20.09
  13   9  -6    3.82   17.21
 -13  -9  -6  -31.39   24.51
 -13  -9  -6  -43.38   39.63
  13  -9   6  -32.62   24.76
  13   9   6  -10.29   26.21
 -13   9  -6   -4.57   18.59
  13  -9  -6   -6.96   24.79
 -13   9  -6   23.50   22.90
  13  -9  -6   -1.30   29.58
  13  10  -6   50.74   19.20
 -13 -10  -6   15.83   27.91
 -13 -10  -6   62.81   50.00
  13 -10  -6  122.02   33.66
  13  10   6   38.78   29.19
 -13  10  -6   88.37   21.91
  13 -10  -6   45.88   29.06
  13  11  -6   10.14   20.21
 -13 -11  -6  -13.89   30.76
 -13 -11  -6   57.28   45.42
  13  11   6   57.83   31.08
  13 -11  -6    0.58   36.36
 -13  11  -6   30.40   22.87
  13 -11  -6  -26.03   31.97
  13  12  -6   14.83   21.58
 -13 -12  -6  -12.68   33.61
  13  12   6    0.16   33.87
 -13  12  -6   -2.82   25.35
  13 -12  -6  -24.91   34.63
  13   0  -7  363.40   39.83
 -13   0  -7  369.83   40.80
 -13   0  -7  375.80   35.14
  13   1  -7   20.73   27.87
 -13  -1  -7   18.00   20.21
 -13  -1  -7   20.61   22.47
  13   1  -7   27.18   13.84
  13   1   7   -2.93   15.69
 -13   1  -7    1.15   20.53
  13  -1  -7   47.28   15.81
  13  -1  -7   16.51   17.95
 -13   1  -7    3.91   18.77
 -13  -2  -7  118.98   22.80
 -13  -2  -7  163.33   25.00
  13   2  -7  160.79   19.62
 -13   2  -7  146.04   23.91
  13  -2  -7  199.33   35.17
 -13   2  -7  113.85   20.90
  13  -2  -7  167.06   23.82
 -13  -3  -7  138.86   25.79
 -13  -3  -7   84.81   22.37
  13   3  -7  141.48   19.64
  13  -3  -7  176.75   35.10
 -13   3  -7  170.79   28.46
 -13   3  -7   99.33   20.75
  13  -3  -7  168.13   24.51
 -13  -4  -7   62.04   24.17
  13   4  -7   60.00   15.65
 -13  -4  -7   21.01   22.46
 -13   4  -7   71.04   22.15
 -13   4  -7   59.98   17.34
  13  -4  -7   53.27   19.56
  13   4   7   24.24   15.99
 -13   4  -7   62.87   20.52
  13  -4  -7   72.71   23.20
  13  -5   7   -8.80   23.16
 -13  -5  -7   45.89   32.07
 -13  -5  -7   19.19   38.08
  13  -5   7   46.11   22.12
  13   5   7   46.73   19.46
  13  -5  -7   54.70   20.52
 -13   5  -7   53.44   16.75
 -13   5  -7   54.60   21.81
  13  -5  -7   87.65   20.69
  13  -6   7  -27.93   22.14
 -13  -6  -7  -17.33   28.63
  13   6  -7   -2.88   16.02
 -13   6  -7  -26.17   22.60
  13  -6  -7  -10.31   31.81
 -13   6  -7   -9.42   16.36
  13   6   7  -17.58   19.96
  13  -6  -7    7.65   21.48
 -13   6  -7    3.63   25.82
 -13  -7  -7   33.08   30.70
 -13   7   7  -23.43   30.36
  13   7  -7   39.34   15.47
  13  -7   7   30.10   26.82
 -13  -7  -7   -2.54   22.25
  13   7   7   20.23   22.24
 -13   7  -7   28.42   24.14
  13  -7  -7   25.52   23.35
  13  -7  -7   83.67   25.53
 -13   7  -7   49.46   24.59
 -13   7  -7   15.92   16.43
 -13  -8  -7  -24.69   33.32
 -13  -8  -7  -23.74   24.62
 -13   8   7   48.90   25.12
  13   8  -7   12.66   16.10
 -13   8  -7  -16.14   16.49
  13   8   7  -16.97   26.39
  13  -8  -7   32.41   27.14
 -13   8  -7    6.93   24.09
  13  -8  -7   19.68   24.97
 -13   8  -7  -18.86   24.31
 -13   9   7    2.04   26.12
  13   9  -7   52.00   17.51
 -13  -9  -7   94.35   43.03
 -13  -9  -7   49.58   26.78
  13  -9  -7  133.12   31.77
  13   9   7   52.92   29.32
 -13   9  -7  112.37   25.09
 -13   9  -7   64.86   18.12
 -13 -10  -7   16.78   28.00
 -13 -10  -7    1.43   46.80
  13  10  -7    0.63   18.09
 -13  10  -7    4.95   19.73
  13 -10  -7    8.15   30.14
  13 -10  -7   -1.66   33.43
  13  10   7   19.37   31.16
  13  11  -7   27.65   20.35
 -13 -11  -7  -15.50   30.37
 -13 -11  -7   31.88   60.09
  13  11   7   18.19   34.29
  13 -11  -7   36.13   36.16
  13 -11  -7   20.80   32.95
 -13  11  -7   26.08   22.02
  13   0  -8   14.40   15.70
 -13   0  -8    4.23   24.52
 -13   0  -8  -16.40   19.39
 -13  -1  -8  109.48   23.84
  13   1  -8  231.72   38.21
 -13  -1  -8  149.26   26.97
 -13   1  -8  120.22   21.73
 -13   1  -8  168.92   25.45
  13  -1  -8  188.84   37.11
  13  -1  -8  178.23   23.78
 -13  -2  -8   41.05   30.88
  13   2  -8   92.18   20.60
  13   2  -8   77.49   15.77
 -13  -2  -8   30.19   22.04
  13  -2  -8   40.24   20.09
  13  -2  -8   90.34   18.55
 -13   2  -8   62.70   21.08
 -13   2  -8   62.85   23.98
  13   2   8   83.97   20.24
  13   3  -8   96.05   21.15
 -13  -3  -8   18.93   23.53
  13   3  -8   58.05   19.69
  13   3   8    0.66   17.10
 -13   3  -8   39.98   20.84
  13  -3  -8   92.14   20.64
  13  -3  -8   87.42   29.83
  13   4  -8   97.33   24.40
 -13  -4  -8   62.18   27.15
  13  -4  -8   71.94   21.57
 -13   4  -8   99.02   24.31
 -13   4  -8   92.06   22.82
  13  -4  -8  107.58   20.16
 -13  -5  -8   16.68   26.55
  13   5  -8   10.31   15.66
 -13  -5  -8  -41.42   22.28
  13  -5   8  -11.79   23.14
  13  -5  -8   21.83   22.81
 -13   5  -8   -3.11   21.63
 -13   5  -8    6.65   15.65
  13  -5  -8   13.29   19.79
 -13  -6  -8   12.03   27.58
  13  -6   8   13.62   23.08
 -13  -6  -8   14.08   23.53
  13   6  -8   20.00   15.85
  13  -6  -8  -17.72   23.70
 -13   6  -8   12.70   16.43
 -13   6  -8   14.77   23.62
  13   6   8   -5.60   17.67
 -13   6  -8  -25.32   23.70
  13  -6  -8   41.96   23.79
 -13  -7  -8   -6.38   23.32
 -13  -7  -8  -27.31   29.67
  13   7  -8   -9.23   16.39
  13  -7  -8    3.54   25.91
  13  -7  -8   14.82   23.13
 -13   7  -8  -13.57   24.33
 -13   7  -8  -32.79   16.50
  13   7   8    1.76   17.57
 -13   7  -8   -2.34   24.92
 -13  -8  -8   44.49   26.45
 -13  -8  -8   40.91   35.07
  13   8  -8   61.13   16.93
 -13   8  -8   56.44   26.38
  13  -8  -8  100.98   29.81
 -13   8  -8   47.07   27.85
 -13   8  -8   50.60   17.68
  13  -8  -8   45.10   25.27
 -13  -9  -8   24.68   27.14
  13   9  -8   14.73   17.18
 -13  -9  -8   -8.86   38.72
 -13   9  -8   50.97   25.93
  13  -9  -8    0.52   28.54
  13  -9  -8   86.13   32.03
 -13   9  -8   33.11   17.13
  13   9   8   22.57   23.79
 -13 -10  -8   22.83   27.56
  13  10  -8    9.94   18.22
 -13 -10  -8  -14.18   45.05
  13  10   8    2.87   25.94
  13 -10  -8  -32.10   30.93
  13 -10  -8   77.62   34.30
 -13  10  -8   38.14   19.88
  13  11  -8    7.06   20.28
 -13 -11  -8   12.21   30.19
  13  11   8  -16.38   28.94
 -13  11  -8    1.56   21.12
  13 -11  -8  -49.92   33.11
 -13   0  -9   81.51   23.75
  13   0  -9   95.53   23.46
 -13   0  -9  103.22   27.01
  13   0  -9  140.30   25.16
 -13  -1  -9  -38.43   23.57
  13   1  -9   17.29   17.23
 -13  -1  -9  -27.16   24.44
  13   1  -9   -2.84   20.76
  13  -1  -9   34.59   41.89
 -13   1  -9  -13.24   20.75
 -13   1  -9  -15.14   23.29
  13   2  -9   91.12   23.22
  13   2  -9  128.87   22.70
 -13  -2  -9   83.11   27.27
  13  -2  -9   97.72   22.96
  13  -2  -9  106.77   20.12
 -13   2  -9  111.30   24.51
 -13   2  -9   84.34   23.74
 -13  -3  -9   -5.67   25.25
  13   3  -9   82.64   25.58
  13   3  -9   25.06   14.13
  13  -3  -9   24.94   22.04
  13  -3  -9   29.38   18.63
 -13   3  -9   17.91   22.22
 -13   3  -9   21.15   22.24
  13   4  -9   21.06   14.08
 -13  -4  -9   -2.44   27.35
  13  -4   9    3.82   23.96
 -13  -4  -9  -13.09   24.50
  13  -4  -9   16.72   22.36
 -13   4  -9   10.06   35.08
 -13   4  -9   27.61   21.70
  13  -4  -9   10.60   19.72
 -13  -5  -9   -5.66   26.01
  13   5  -9   34.07   14.82
  13  -5   9   23.29   25.51
 -13  -5  -9   17.86   27.37
  13  -5  -9   20.17   22.07
 -13   5  -9  -18.03   21.95
 -13   5  -9   11.37   24.49
  13  -5  -9    1.30   34.11
 -13   5  -9    7.37   16.03
  13   5   9   70.28   23.95
  13   6  -9  -19.03   16.21
 -13  -6  -9  -14.44   29.88
 -13  -6  -9   -2.59   25.30
  13  -6  -9    4.60   24.80
 -13   6  -9    2.61   25.60
  13   6   9   -9.33   22.89
 -13   6  -9  -24.00   16.25
 -13   6  -9  -37.33   23.35
  13  -6  -9  -21.75   24.19
 -13  -7  -9   47.67   28.88
 -13  -7  -9   25.76   31.38
 -13   7  -9   23.60   17.22
 -13   7  -9   67.64   27.57
  13  -7  -9   23.01   25.29
 -13   7  -9   28.64   26.22
  13   7   9    0.91   23.92
  13  -7  -9   99.61   27.35
 -13  -8  -9   27.40   34.37
 -13  -8  -9   35.75   27.40
 -13   8  -9   23.23   16.85
 -13   8  -9   49.38   27.14
 -13   8  -9  -32.52   29.23
  13  -8  -9   -1.47   27.81
  13  -8  -9   59.43   29.53
 -13  -9  -9   23.73   28.57
 -13  -9  -9   49.86   41.30
  13   9  -9   10.51   17.85
 -13   9  -9   15.03   17.21
 -13   9  -9    1.87   26.95
  13   9   9  -45.12   28.96
  13  -9  -9  -22.38   28.70
  13  -9  -9   44.72   31.74
 -13 -10  -9   18.68   29.77
  13  10  -9   -7.13   18.00
 -13 -10  -9   -4.59   44.75
  13 -10  -9  -18.95   32.82
  13  10   9    3.66   34.27
 -13  10  -9   10.29   18.74
  13 -10  -9    6.82   32.32
  13   0 -10   45.29   18.71
 -13   0 -10  -10.68   24.89
 -13   0 -10   -8.28   27.32
  13   0 -10   -9.10   23.15
 -13  -1 -10   98.06   28.45
  13   1 -10  123.88   21.21
 -13  -1 -10   52.83   27.35
 -13   1 -10   99.17   25.72
  13  -1 -10  113.60   20.57
 -13   1 -10   94.32   25.20
  13  -1 -10   72.90   25.12
 -13  -2 -10   -2.37   26.22
  13   2 -10   25.35   23.11
  13  -2 -10    5.99   30.76
 -13   2 -10   12.81   24.09
 -13   2 -10    4.46   23.40
  13  -2 -10   37.99   19.19
 -13  -3 -10    9.61   29.40
 -13  -3 -10    9.79   28.58
 -13   3 -10    6.10   22.87
 -13   3 -10   19.22   25.08
  13  -3 -10   25.97   23.92
  13  -3 -10   11.51   19.57
 -13  -4 -10  -12.36   29.29
  13   4 -10   39.91   14.56
 -13  -4 -10   22.56   28.72
  13  -4 -10  -35.75   43.71
 -13   4 -10   34.25   25.39
 -13   4 -10   27.33   22.61
  13  -4 -10   42.85   22.24
 -13  -5 -10    3.14   29.11
 -13  -5 -10   -8.03   27.03
 -13   5 -10  -20.31   23.11
  13  -5 -10   29.76   23.76
 -13   5 -10  -12.17   15.50
 -13   5 -10  -11.47   26.11
  13  -5 -10   -6.95   25.01
 -13  -6 -10   14.51   31.16
 -13  -6 -10   15.27   26.68
 -13   6 -10   17.51   16.62
  13  -6 -10   54.11   26.20
  13  -6 -10   -5.26   25.57
 -13   6 -10   37.39   28.89
 -13   6 -10  -19.10   24.96
 -13  -7 -10   19.33   33.75
 -13  -7 -10    2.46   29.54
 -13   7 -10   -1.37   16.77
 -13   7 -10  -35.02   26.64
 -13   7 -10   43.35   37.44
  13  -7 -10   30.81   27.76
  13  -7 -10   26.56   27.51
 -13  -8 -10    6.08   28.58
 -13  -8 -10   34.43   37.19
  13  -8 -10    2.15   31.04
 -13   8 -10    1.96   16.97
 -13   8 -10   -8.98   27.96
  13  -8 -10   11.95   29.79
 -13  -9 -10   -3.66   29.01
 -13  -9 -10   17.40   39.29
  13  -9 -10   23.87   31.68
 -13   9 -10    5.99   16.90
  13  -9 -10   -8.45   31.40
 -13   9 -10    6.23   28.67
  13   0 -11   50.04   28.48
 -13   0 -11   59.96   28.84
  13   0 -11   90.66   20.79
  13   1 -11   53.41   20.36
 -13  -1 -11   43.46   28.45
 -13  -1 -11   46.25   31.78
  13  -1 -11   84.23   28.39
  13  -1 -11   72.94   21.05
 -13   1 -11   32.15   29.94
 -13   1 -11   43.89   26.30
 -13  -2 -11   18.60   30.58
 -13  -2 -11   39.20   29.54
  13   2 -11   52.24   20.70
  13  -2 -11   47.43   21.15
 -13   2 -11   64.26   27.97
  13  -2 -11    5.79   27.38
 -13   2 -11   75.59   25.56
 -13  -3 -11   93.14   32.41
  13   3 -11  117.34   21.96
 -13  -3 -11   59.54   33.67
 -13   3 -11   85.57   25.78
 -13   3 -11  129.47   28.66
  13  -3 -11  117.62   24.33
  13  -3 -11  101.60   31.95
 -13  -4 -11  -10.68   32.36
  13   4 -11   47.11   22.07
 -13  -4 -11   -1.85   29.66
 -13   4 -11   13.35   28.30
 -13   4 -11   18.14   23.39
  13  -4 -11   18.07   27.92
  13  -4 -11   22.84   24.30
  13   5 -11   84.21   22.99
 -13  -5 -11   34.78   32.62
 -13  -5 -11   25.98   31.39
 -13   5 -11    9.84   30.56
 -13   5 -11   37.39   25.02
  13  -5 -11   32.05   28.12
  13  -5 -11   54.40   25.81
 -13  -6 -11    0.23   30.23
 -13  -6 -11   15.02   32.62
  13   6 -11   -9.82   24.58
 -13   6 -11   -8.81   16.64
 -13   6 -11   12.96   26.06
  13  -6 -11   28.38   30.12
  13  -6 -11   34.47   27.48
 -13  -7 -11   19.46   33.82
 -13  -7 -11    2.02   36.20
 -13   7 -11    2.11   17.03
 -13   7 -11  -21.28   28.76
  13  -7 -11    8.97   32.23
  13  -7 -11   17.38   28.50
 -13  -8 -11  -27.52   30.85
 -13  -8 -11  -12.70   38.23
  13  -8 -11  -47.89   32.74
 -13   8 -11  -15.11   29.01
 -13   8 -11    8.56   17.63
  13  -8 -11   -3.63   31.70
 -13   0 -12  -10.87   32.20
 -13   0 -12   37.19   29.92
  13   0 -12    6.99   21.84
 -13  -1 -12   12.36   30.31
  13   1 -12   42.82   22.37
 -13  -1 -12   25.28   34.26
 -13   1 -12   46.77   27.71
  13  -1 -12   68.35   22.78
 -13   1 -12   51.22   40.95
  13  -1 -12   58.59   32.40
 -13  -2 -12   80.94   32.37
  13   2 -12  135.52   23.98
 -13  -2 -12   61.57   34.75
  13  -2 -12  108.20   24.51
  13  -2 -12   77.28   34.23
 -13   2 -12   87.07   27.20
 -13  -3 -12  -11.48   32.90
  13   3 -12   31.61   23.52
 -13  -3 -12   35.10   35.83
 -13   3 -12   -6.81   25.25
 -13   3 -12   72.31   41.06
  13  -3 -12   38.48   24.48
  13  -3 -12   17.93   35.72
  13   4 -12  132.12   25.06
 -13  -4 -12   31.98   36.31
 -13  -4 -12   79.83   33.92
  13  -4 -12   93.94   27.40
  13  -4 -12   91.68   31.56
 -13   4 -12   86.71   26.51
 -13   4 -12  175.73   35.67
  13   5 -12    7.93   26.74
 -13  -5 -12   25.71   33.80
 -13  -5 -12   33.10   37.13
  13  -5 -12   21.32   31.38
 -13   5 -12  -11.45   26.11
  13  -5 -12   41.72   27.69
 -13  -6 -12   11.19   34.43
 -13  -6 -12  -26.24   36.24
  13   6 -12   32.99   27.74
  13  -6 -12   59.72   29.23
 -13   6 -12  -23.03   16.87
 -13   6 -12  -16.39   27.77
  13  -6 -12   19.14   32.17
 -13  -7 -12   20.14   37.47
 -13  -7 -12   -7.35   35.11
  13  -7 -12    1.83   32.77
  13  -7 -12    0.58   30.33
 -13   7 -12  -24.83   30.78
 -13   7 -12  -10.48   17.42
  13   0 -13   61.65   25.19
 -13   0 -13    2.18   32.05
 -13   0 -13   18.73   37.11
 -13  -1 -13  -42.99   32.00
 -13  -1 -13   29.37   36.75
  13   1 -13   67.59   25.01
 -13   1 -13   55.28   37.86
  13  -1 -13   25.22   25.28
 -13   1 -13    0.11   28.52
 -13  -2 -13   11.70   32.38
  13   2 -13   76.70   25.42
 -13  -2 -13   39.94   39.84
  13  -2 -13   48.35   26.00
 -13   2 -13    1.39   27.50
 -13   2 -13   42.28   37.71
  13   3 -13  116.65   27.26
 -13  -3 -13   71.85   41.29
 -13  -3 -13   99.23   34.80
 -13   3 -13   98.04   29.09
  13  -3 -13  170.05   39.18
  13  -3 -13  119.96   28.15
 -13   3 -13   50.70   42.29
 -13  -4 -13  -10.27   40.02
  13   4 -13   -5.68   26.87
 -13  -4 -13   -5.52   37.29
  13  -4 -13   40.07   27.79
 -13   4 -13   11.51   26.89
  13  -4 -13   45.82   37.00
  13   5 -13  -14.69   28.41
 -13  -5 -13   -2.17   37.45
 -13  -5 -13   41.04   41.43
 -13   5 -13   -6.92   28.68
  13  -5 -13   29.25   36.35
  13  -5 -13   33.89   28.77
 -13   0 -14   42.50   34.56
  13   0 -14    1.25   26.58
 -13   0 -14    1.32   42.80
  13   1 -14   25.18   27.04
 -13  -1 -14  -20.06   33.05
 -13  -1 -14   82.64   44.20
 -13   1 -14   21.75   42.78
  13  -1 -14   35.82   27.47
 -13   1 -14   36.51   31.11
 -13  -2 -14   55.19   35.09
 -13  -2 -14   66.49   45.25
  13   2 -14    8.55   26.43
 -13   2 -14   93.25   47.85
 -13   2 -14    9.81   30.15
  13  -2 -14   90.09   28.72
 -13   3 -14  -26.21   29.86
  13  -3 -14  113.31   44.79
  14   0   0   46.83   13.45
 -14   0   0   37.56   17.42
 -14   0   0   45.48   21.37
 -14   0   0   47.36   14.82
 -14  -1   0   11.74   15.12
 -14  -1   0   14.66   13.72
 -14   1   0   20.94   14.94
  14   1   0   25.97   13.05
  14  -1   0   23.21   13.54
 -14  -1   0   17.74   22.30
 -14   1   0  -15.04   16.52
 -14   1   0   15.93   21.86
 -14  -2   0   38.94   21.40
 -14  -2   0   35.78   14.35
 -14   2   0   17.42   17.46
 -14   2   0   39.19   16.01
  14   2   0   31.94   14.53
 -14  -2   0    7.58   16.49
 -14   2   0   57.62   21.74
 -14   3   0  970.35   63.86
 -14  -3   0  992.12   62.28
 -14   3   0  936.10   57.14
  14   3   0  911.18   56.37
 -14   3   0  983.15   60.83
 -14  -3   0  985.79   61.41
 -14  -4   0  100.93   25.42
  14   4   0  131.25   21.02
 -14  -4   0   66.00   17.86
  14  -4   0   63.35   18.43
 -14   4   0  114.04   19.53
 -14   5   0  180.72   34.43
 -14   5   0  184.80   24.35
 -14  -5   0  175.78   28.22
  14  -5   0  121.49   22.54
  14   5   0  135.64   22.50
 -14   5   0  139.63   21.45
  14  -5   0  173.07   28.72
 -14  -6   0  -15.30   17.14
  14  -6   0  -19.87   20.43
 -14  -6   0  -38.81   26.81
  14   6   0  -27.43   16.40
 -14   6   0   -3.01   18.69
  14  -6   0    3.27   21.92
  14  -7   0    7.74   35.59
 -14  -7   0   34.94   24.39
 -14   7   0   48.38   20.24
 -14  -7   0   35.66   19.53
  14  -7   0   52.81   24.38
  14   8   0   25.52   20.00
 -14   8   0  -14.16   25.59
  14  -8   0   77.55   27.09
 -14  -8   0   42.31   31.81
  14  -8   0  -26.99   22.44
 -14   9   0  226.12   32.83
 -14  -9   0  254.85   46.16
  14  -9   0  257.07   46.77
  14  -9   0  283.72   36.83
  14 -10   0   26.11   26.43
  14  10   0    9.64   22.79
  14 -10   0    6.45   22.24
 -14 -10   0   13.64   26.85
 -14  10   0   67.83   25.59
  14 -11   0   54.16   28.93
 -14 -11   0   76.06   31.82
 -14  11   0   76.69   26.76
  14  11   0   41.83   23.61
 -14  12   0   50.11   28.66
  14  12   0   20.70   24.09
  14 -12   0  -10.47   32.20
  14   0  -1   13.31   12.51
 -14   0   1   -9.80   15.76
 -14   0   1   30.07   14.81
 -14   0  -1    0.08   12.53
 -14   0  -1  -10.19   16.60
 -14   0  -1  -19.62   20.53
  14   0   1    3.55   13.03
 -14   0   1  -21.36   21.58
 -14  -1  -1   28.21   20.19
 -14   1   1   20.08   21.08
 -14   1   1   23.23   15.87
 -14  -1  -1    0.44   15.46
 -14   1   1   17.48   16.43
 -14  -1  -1   22.26   13.03
  14  -1   1   16.65   13.52
  14   1  -1    9.50   13.11
  14   1   1   15.52   13.00
 -14   1  -1   13.86   18.21
 -14  -1   1   23.30   21.84
 -14   1  -1   -3.12   13.24
 -14  -1   1    7.04   16.34
  14  -1  -1   30.61   13.49
 -14   1  -1   10.28   21.52
 -14  -2  -1  173.48   24.84
 -14   2   1  181.40   28.68
 -14  -2  -1  115.58   19.99
 -14   2   1  151.47   22.44
 -14  -2  -1  168.81   20.98
 -14   2   1  142.77   20.17
  14   2  -1  129.95   20.59
  14   2   1  155.38   20.80
 -14  -2   1  117.20   19.18
 -14  -2   1  186.83   24.88
 -14   2  -1  157.39   25.83
 -14   2  -1  142.96   17.69
 -14  -2   1  175.76   21.18
 -14  -3  -1   82.36   17.59
  14   3  -1   82.04   16.60
 -14  -3   1   65.50   16.96
 -14  -3   1   89.63   25.09
  14  -3  -1   67.02   17.40
 -14   3  -1  110.91   24.35
 -14   3  -1   85.51   17.19
 -14   3  -1   76.78   19.28
 -14  -4  -1  423.99   38.48
 -14   4   1  370.01   30.98
  14   4  -1  377.17   30.69
 -14  -4  -1  388.64   38.05
 -14   4   1  434.21   35.46
  14  -4   1  399.01   41.66
 -14   4   1  470.90   39.51
 -14   4  -1  432.94   41.29
 -14   4  -1  348.68   31.16
  14  -4  -1  339.85   40.68
 -14   4  -1  399.35   42.18
  14  -4  -1  364.20   32.26
 -14  -4   1  428.70   37.59
 -14  -4   1  358.09   37.84
  14   4   1  375.63   30.54
  14  -5   1   -7.85   20.81
 -14   5   1   10.48   16.54
  14   5  -1   15.48   15.71
  14  -5   1   26.90   19.99
 -14  -5  -1   12.22   24.41
 -14  -5  -1   11.66   17.49
 -14   5  -1   -2.29   18.63
 -14   5  -1   19.16   18.61
 -14  -5   1    3.39   16.27
  14   5   1   28.81   15.80
  14  -5  -1   19.89   19.44
 -14  -5   1   -1.34   24.27
  14  -5  -1   16.03   19.72
 -14   5  -1   13.41   21.45
  14  -6   1  -13.61   21.23
 -14  -6  -1  -41.34   27.06
  14  -6   1  -21.63   21.95
 -14  -6  -1  -27.73   18.45
  14   6  -1  -15.57   16.26
 -14   6   1  -12.59   17.67
  14  -6  -1  -12.21   21.36
  14  -6  -1   -0.89   20.89
 -14   6  -1   12.28   16.98
 -14   6  -1   -6.16   20.50
 -14  -6   1   -4.97   16.84
  14   6   1  -16.46   16.67
 -14   6  -1   -3.67   18.67
  14  -7   1   20.77   24.75
 -14   7   1  -19.65   19.50
 -14  -7  -1  -17.98   20.70
 -14  -7  -1   26.38   28.69
  14  -7  -1   -3.50   26.15
  14  -7  -1  -12.93   22.97
 -14  -7   1  -25.63   18.12
 -14   7  -1  -41.87   20.07
  14   7   1    5.67   19.61
  14   8  -1  172.82   26.27
  14  -8   1  131.23   25.07
 -14  -8  -1   30.31   28.97
 -14  -8  -1   85.99   24.96
  14  -8  -1  116.48   24.83
 -14  -8   1   80.88   21.82
 -14   8  -1  158.71   26.34
  14   8   1  103.50   22.06
 -14  -9  -1   96.42   37.82
  14  -9   1   26.17   24.91
  14  -9   1   24.69   21.69
 -14   9   1   33.37   23.80
  14   9  -1   17.21   21.04
 -14  -9  -1   35.67   26.25
 -14  -9   1   21.29   27.48
  14  -9  -1    4.65   24.95
  14   9   1   12.46   22.38
 -14   9  -1   46.02   23.44
  14  -9  -1   60.01   31.80
 -14 -10  -1   52.94   28.79
  14  10  -1   40.81   22.72
 -14  10   1   73.52   25.83
  14 -10   1   64.66   26.80
  14  10   1   28.82   24.11
  14 -10  -1   77.30   37.75
  14 -10  -1   50.22   26.63
 -14  10  -1   56.62   25.26
 -14 -10   1   57.28   26.66
 -14  11   1   72.60   27.46
  14 -11   1   67.46   28.94
 -14 -11  -1   29.14   32.34
  14  11  -1    7.14   22.40
 -14  11  -1   39.57   26.45
  14  11   1   49.81   24.86
  14 -11  -1   51.06   28.96
 -14  12   1    9.52   28.85
 -14 -12  -1   11.78   36.43
  14 -12   1  -17.35   32.52
  14  12  -1   -6.90   22.93
  14  12   1   22.51   25.49
  14 -12  -1   -6.82   32.70
 -14  12  -1   20.14   27.34
 -14   0  -2  -15.25   16.27
 -14   0   2   22.65   19.28
 -14   0  -2  -24.89   14.27
  14   0   2    2.73   13.13
 -14   0  -2   -8.35   19.60
 -14   0   2    6.27   15.75
  14   0  -2   -6.38   12.50
 -14   0   2   20.51   25.72
  14  -1   2   53.32   14.44
 -14   1   2   65.05   16.11
 -14  -1  -2   61.75   17.88
 -14   1   2   59.76   13.18
  14   1  -2   55.78   13.58
 -14   1   2   73.79   21.14
 -14  -1  -2   54.34   20.90
 -14  -1  -2   46.69   15.11
 -14   1  -2    4.17   21.30
 -14  -1   2   74.14   21.59
  14   1   2   52.79   14.04
 -14  -1   2   36.84   16.22
  14  -1  -2   76.90   14.45
 -14  -1   2   45.36   12.30
 -14   2   2  200.39   28.13
 -14  -2  -2  129.17   19.25
 -14   2   2  151.93   19.76
 -14  -2  -2  160.07   29.41
 -14   2   2  181.87   31.52
 -14  -2  -2  189.34   22.37
  14   2  -2  138.12   17.92
 -14   2  -2  168.10   26.54
  14   2   2  164.91   21.49
 -14   2  -2  109.73   22.21
 -14  -2   2  197.74   25.79
 -14   2  -2  130.80   17.77
 -14  -3  -2   37.19   16.46
 -14  -3  -2   57.02   21.44
 -14   3   2   35.23   14.37
 -14  -3  -2   11.20   16.61
  14   3  -2    6.57   15.40
  14   3   2   51.23   15.64
  14  -3  -2    9.53   16.12
 -14  -3   2  -15.87   15.44
 -14   3  -2  -27.39   18.03
 -14   3  -2   -9.35   21.70
 -14   3  -2  -28.67   14.01
 -14  -3   2    7.84   23.05
  14  -4   2   17.31   17.59
 -14  -4  -2   57.33   15.63
 -14  -4  -2   67.23   23.46
  14   4  -2   35.34   16.08
 -14   4   2   48.37   15.79
 -14  -4  -2   46.04   17.84
 -14   4  -2   21.59   23.57
 -14  -4   2   36.05   24.14
 -14   4  -2   22.96   18.49
 -14   4  -2   28.96   15.86
  14  -4  -2   44.37   20.05
  14  -4  -2   81.27   18.24
 -14  -4   2   28.08   16.34
  14   4   2   75.24   16.60
  14  -5   2  -21.99   20.60
 -14  -5  -2  -22.08   17.85
  14   5  -2   -5.79   14.85
  14  -5   2   -9.01   19.19
 -14   5   2   -0.13   16.73
 -14  -5  -2    7.43   24.38
 -14   5  -2  -14.35   18.94
  14   5   2   12.11   15.51
 -14  -5   2  -15.67   16.22
  14  -5  -2   -2.32   19.22
 -14  -5   2   -1.72   19.28
 -14   5  -2  -28.95   15.93
 -14   5  -2    7.04   21.78
  14  -5  -2   18.64   18.86
 -14  -6  -2   11.72   27.63
 -14   6   2  -16.31   17.45
  14  -6   2   21.57   22.99
  14   6  -2  -15.86   16.56
  14  -6   2  -30.41   21.40
 -14  -6  -2  -15.26   19.64
  14  -6  -2   -1.58   20.45
 -14  -6   2   -3.81   23.95
 -14   6  -2  -19.51   18.77
 -14   6  -2  -32.09   17.29
  14  -6  -2  -32.94   21.76
 -14   6  -2    3.46   22.93
  14   6   2   -7.25   16.94
 -14  -6   2  -26.43   16.31
 -14  -7  -2   57.50   32.11
  14   7  -2   39.14   19.27
  14  -7   2   97.13   26.10
  14  -7   2   48.71   37.28
 -14   7   2   64.81   19.95
  14  -7  -2   69.93   23.14
 -14   7  -2   89.35   26.08
  14   7   2   40.60   19.52
  14  -7  -2   39.51   24.40
 -14   7  -2   62.01   19.88
 -14  -7   2   37.53   17.44
 -14   7  -2   53.23   20.88
  14   8  -2    8.19   18.74
  14  -8   2    9.88   23.56
 -14   8   2    0.59   20.61
 -14  -8  -2   14.15   23.67
  14  -8   2   40.16   23.23
 -14  -8   2   11.17   18.57
 -14   8  -2   12.81   22.76
  14   8   2   35.34   20.94
  14  -8  -2   38.84   27.29
  14  -8  -2   -7.69   22.04
 -14   9   2   38.78   25.22
 -14  -9  -2   70.06   35.99
  14  -9   2   -3.33   22.17
  14  -9   2   25.97   25.14
 -14  -9  -2    7.76   26.65
  14   9  -2    3.10   20.97
 -14   9  -2   27.62   23.12
  14  -9  -2   30.28   25.55
  14   9   2   35.20   22.77
  14  -9  -2   27.08   35.62
 -14  10   2   48.69   26.38
  14  10  -2   26.05   21.23
 -14 -10  -2  105.13   45.83
  14 -10   2   16.31   26.35
 -14 -10  -2   48.59   29.85
  14  10   2   35.53   24.54
  14 -10  -2   27.00   34.08
  14 -10  -2   53.46   27.41
 -14  10  -2   45.61   24.97
 -14  11   2   -3.87   27.20
 -14 -11  -2  -22.69   32.45
  14 -11   2   -1.81   28.34
  14  11  -2    6.40   21.97
  14  11   2   12.47   25.73
  14 -11  -2  -31.03   28.07
 -14  11  -2  -12.76   25.56
  14 -12   2   28.00   32.51
  14  12  -2   15.16   22.53
 -14  12   2    1.95   30.09
 -14 -12  -2   24.16   39.25
  14 -12  -2  -31.48   32.56
 -14  12  -2    4.65   26.58
  14  12   2   19.01   26.91
 -14   0  -3   13.61   14.98
  14   0   3   45.31   13.87
 -14   0   3   14.83   19.68
 -14   0  -3   20.44   20.62
 -14  -1  -3  164.28   28.23
  14   1  -3  131.68   20.35
 -14  -1  -3  171.53   22.13
 -14   1   3   96.02   18.58
 -14  -1  -3  160.85   32.32
 -14   1   3  196.71   29.30
  14  -1   3  127.18   21.26
 -14  -1   3  141.23   26.54
  14   1   3  148.07   20.61
 -14   1  -3  155.95   24.77
 -14   1  -3  145.90   18.44
 -14  -1   3  123.86   17.66
 -14   1  -3   90.90   21.05
 -14   2   3  144.78   19.52
 -14  -2  -3  142.35   21.94
  14   2  -3  125.58   16.92
 -14  -2  -3  102.85   19.43
 -14  -2  -3  137.77   23.15
 -14   2  -3  170.10   18.37
 -14   2  -3   87.23   19.25
 -14  -2   3  178.63   24.07
 -14   2  -3  150.51   24.67
  14   2   3  144.61   20.68
 -14  -2   3   97.45   17.68
  14  -2  -3  106.38   19.89
 -14  -3  -3  152.16   23.92
 -14   3   3  130.59   16.41
 -14  -3  -3   93.13   19.78
  14   3  -3   98.37   17.80
 -14  -3   3   99.56   23.31
 -14   3  -3   90.71   23.70
 -14  -3   3   56.92   16.26
  14  -3  -3   64.52   17.70
 -14   3  -3  103.82   16.77
 -14   3  -3   63.26   20.71
 -14   4   3  215.57   22.08
  14   4  -3  173.39   23.36
 -14  -4  -3  231.84   30.53
 -14  -4   3  128.47   21.50
 -14   4  -3  170.66   27.54
 -14   4  -3  151.00   24.11
  14  -4  -3  172.65   23.10
 -14   4  -3  152.39   22.40
 -14  -5  -3  -10.95   23.15
 -14  -5  -3  -18.18   18.12
 -14  -5  -3   41.60   15.18
  14   5  -3   -4.12   15.45
  14  -5   3  -12.64   20.92
  14  -5   3  -25.54   18.02
 -14   5   3    4.99   15.31
 -14  -5   3   29.55   28.32
  14  -5  -3    0.38   18.79
 -14  -5   3  -12.50   14.88
  14   5   3    1.20   16.31
 -14   5  -3  -27.50   22.28
  14  -5  -3  -21.04   20.32
 -14   5  -3  -12.63   19.87
 -14   5  -3  -31.88   15.00
 -14   6   3   -8.30   17.22
 -14  -6  -3   11.35   20.79
 -14  -6  -3   46.55   27.26
  14  -6   3   10.15   22.50
  14   6  -3    3.46   16.07
  14  -6   3    1.80   23.90
 -14   6  -3   18.78   23.63
  14  -6  -3   42.54   20.05
 -14   6  -3   -3.35   16.98
  14  -6  -3    7.48   21.64
 -14  -6   3   -8.26   15.42
  14   6   3   35.82   17.60
 -14   6  -3    3.17   20.18
 -14  -7  -3   29.01   31.05
  14  -7   3   45.42   24.76
  14   7  -3   -5.84   16.83
 -14   7   3   14.13   18.99
  14  -7   3   -1.06   28.87
 -14  -7  -3  -12.72   22.49
 -14   7  -3    0.36   23.40
 -14   7  -3  -34.21   34.35
  14  -7  -3   -0.39   22.16
  14  -7  -3   19.64   23.48
  14   7   3   18.39   19.73
 -14  -7   3    3.20   15.75
 -14   7  -3   -7.92   20.22
  14   8  -3    0.97   17.61
  14  -8   3    0.97   21.16
 -14   8   3   -4.43   21.26
 -14  -8  -3  -39.19   35.48
  14  -8   3  -30.67   23.54
 -14  -8  -3  -28.60   24.01
  14   8   3  -20.88   21.65
 -14   8  -3  -14.38   20.93
  14  -8  -3  -15.77   30.84
  14  -8  -3  -14.26   21.74
  14  -9   3   -5.80   24.47
  14  -9   3    4.52   25.06
 -14  -9  -3  -22.59   31.58
 -14  -9  -3  -12.74   27.26
  14   9  -3   23.84   20.08
  14  -9  -3  -14.19   25.00
  14  -9  -3   11.61   31.06
 -14   9  -3    0.27   23.16
  14   9   3   36.58   23.07
  14  10  -3    9.46   21.38
 -14 -10  -3  -51.56   29.14
  14 -10   3  -25.18   26.26
 -14 -10  -3   80.33   43.65
 -14  10   3  -15.13   26.33
  14 -10  -3  -48.56   33.53
  14  10   3   24.62   26.13
 -14  10  -3  -15.64   23.50
  14 -10  -3  -17.93   27.19
  14  11  -3   28.58   22.36
 -14 -11  -3    2.63   35.07
  14 -11   3    3.39   29.04
 -14  11   3   -5.03   28.77
 -14  11  -3   28.86   25.89
  14  11   3   22.44   27.47
  14 -11  -3  -48.24   35.07
  14 -11  -3   -1.35   29.48
  14 -12   3   -2.68   31.82
  14  12  -3   -6.95   22.50
 -14 -12  -3    7.32   36.71
  14 -12  -3  -40.62   33.55
 -14  12  -3    3.23   26.40
  14  12   3    6.19   28.86
 -14   0  -4  488.09   44.01
  14   0  -4  512.85   33.60
 -14   0  -4  485.26   40.04
 -14   0  -4  522.60   34.25
  14   0   4  472.76   34.09
 -14  -1  -4  161.29   25.06
  14   1  -4  159.49   21.06
 -14  -1  -4  190.98   34.60
 -14  -1  -4  142.71   21.12
 -14   1  -4  147.38   18.70
 -14   1  -4  149.32   23.73
  14   1   4  128.52   17.30
 -14  -1   4  152.69   27.12
 -14  -2  -4  180.56   35.03
 -14  -2  -4  224.93   30.39
  14   2  -4  171.56   21.88
 -14  -2  -4  214.94   22.10
 -14   2  -4  188.54   22.92
 -14   2  -4  167.39   30.70
 -14  -2   4  141.22   28.55
  14  -2  -4  193.64   34.77
 -14   2  -4  144.64   22.59
  14   2   4  197.07   22.13
  14   3  -4  388.74   30.67
 -14  -3  -4  463.33   41.89
 -14  -3  -4  431.84   37.34
  14  -3  -4  393.48   32.84
 -14  -3   4  351.70   35.24
 -14   3  -4  397.74   30.92
  14  -3  -4  399.40   43.31
  14   3   4  460.05   31.67
 -14   3  -4  413.53   43.45
 -14   3  -4  408.28   38.04
 -14  -4  -4  -18.43   17.76
  14   4  -4    0.28   15.56
 -14  -4  -4  -24.22   22.30
 -14   4   4   20.18   11.69
  14  -4  -4    1.60   18.73
 -14   4  -4  -15.44   21.84
 -14   4  -4  -20.48   19.39
 -14  -4   4   -1.86   13.04
 -14   4  -4  -12.22   15.22
  14  -4  -4    3.21   18.11
  14   4   4  -26.03   16.30
  14  -5   4  228.57   30.01
 -14  -5  -4  218.22   37.80
  14  -5   4  109.19   22.55
  14   5  -4  153.97   23.95
 -14  -5  -4  216.39   32.38
 -14   5  -4  208.00   39.10
  14  -5  -4  135.40   23.16
  14  -5  -4  238.70   28.42
 -14  -5   4  168.83   27.25
 -14   5  -4  186.21   33.35
 -14   5  -4  164.63   23.20
  14  -6   4   24.96   24.03
 -14   6   4   -2.17   17.10
 -14  -6  -4   15.27   28.66
  14  -6   4  -13.68   23.68
 -14   6  -4  -24.53   17.34
 -14   6  -4   14.03   21.01
  14  -6  -4  -14.03   24.36
  14   6   4   11.73   18.08
  14  -6  -4   24.23   20.58
  14  -7   4    0.80   25.21
 -14  -7  -4    0.37   23.32
 -14   7   4    4.72   19.53
  14   7  -4   35.57   17.43
  14  -7   4   46.55   22.07
 -14  -7  -4   45.55   32.12
 -14   7  -4   38.60   24.18
 -14   7  -4    5.67   20.43
  14  -7  -4    5.19   21.77
  14  -7  -4   17.04   25.45
  14   7   4   13.72   20.31
  14   8  -4    0.07   18.36
  14  -8   4   28.08   24.43
 -14   8   4  -20.48   21.49
 -14  -8  -4  -13.18   36.25
 -14  -8  -4  -26.22   24.64
  14  -8   4  -31.71   23.44
  14  -8  -4  -22.54   23.96
 -14   8  -4  -11.30   21.62
  14   8   4   -3.16   22.87
 -14   8  -4    1.30   23.50
 -14   8  -4  -33.55   19.78
  14  -8  -4  -12.16   26.92
 -14  -9  -4  -13.59   26.89
  14   9  -4   23.48   18.66
 -14  -9  -4   72.13   43.82
 -14   9   4   -5.79   24.24
  14  -9   4    0.66   25.04
  14  -9  -4  -36.07   25.17
  14   9   4   -7.97   24.63
 -14   9  -4    7.91   21.61
  14  -9  -4   -1.11   30.76
  14  10  -4   24.74   20.54
 -14  10   4  -18.17   27.91
 -14 -10  -4   -6.83   30.30
  14 -10   4  -13.64   27.96
  14 -10  -4   -4.93   26.53
  14 -10  -4  -22.36   34.09
 -14  10  -4  -10.71   24.05
  14  10   4    1.64   26.17
  14  11  -4   -2.51   21.94
 -14 -11  -4   87.94   55.20
 -14  11   4   -7.21   30.81
  14 -11   4   -4.80   29.12
 -14 -11  -4   -9.73   32.55
  14 -11  -4   -6.37   30.14
  14 -11  -4  -27.62   36.09
  14  11   4   19.77   28.66
 -14  11  -4   -8.07   25.08
  14 -12   4    1.63   30.37
  14  12  -4  -18.62   22.59
 -14  12   4  -11.12   34.59
 -14 -12  -4   -0.58   37.69
 -14  12  -4  -20.48   26.34
  14 -12  -4  -50.55   33.88
  14 -12  -4   -0.39   39.45
  14  12   4   30.48   31.29
  14   0  -5   16.65   14.06
 -14   0  -5  -29.30   20.64
  14   0   5    9.55   14.88
 -14   0  -5  -17.97   17.99
  14   1  -5  441.74   30.33
 -14  -1  -5  397.78   41.81
 -14  -1  -5  424.55   37.02
 -14   1  -5  431.84   37.03
  14   1   5  419.93   31.61
  14  -1  -5  396.98   41.09
 -14   1  -5  436.45   30.42
 -14   1  -5  372.94   41.89
 -14  -2  -5  182.64   36.42
 -14  -2  -5  220.42   30.62
  14   2  -5  186.04   22.04
  14   2   5  214.40   23.36
  14  -2  -5  206.52   24.08
 -14   2  -5  200.31   30.53
 -14   2  -5  198.13   36.93
 -14   2  -5  198.02   22.82
  14  -2  -5  194.42   35.61
  14   3  -5    9.83   15.08
 -14  -3  -5  -17.30   18.72
 -14  -3  -5  -18.11   21.37
 -14   3   5   -4.00   23.36
 -14   3  -5   13.36   21.54
  14  -3  -5   10.11   19.74
  14   3   5    2.98   16.46
 -14   3  -5   13.91   18.73
  14  -3  -5   22.63   17.32
 -14   3  -5   16.97   15.32
  14   4  -5  419.67   30.88
 -14  -4  -5  378.79   43.68
 -14  -4  -5  411.41   38.36
 -14   4  -5  374.20   30.80
  14  -4  -5  421.72   43.36
 -14   4  -5  465.65   44.32
 -14   4  -5  425.76   38.88
  14   4   5  366.50   32.11
  14  -4  -5  372.48   33.30
  14   5  -5   16.66   17.94
  14  -5   5   45.45   22.16
 -14  -5  -5   -1.54   25.57
 -14   5   5   12.27   14.13
 -14  -5  -5  -17.31   26.27
  14  -5   5  -13.16   19.73
  14  -5  -5    8.22   19.87
  14   5   5   -5.99   18.38
  14  -5  -5   -0.60   19.07
 -14   5  -5    0.05   16.45
 -14   5  -5    3.08   25.21
 -14   5  -5    9.51   19.56
  14  -6   5   68.68   41.31
  14  -6   5   18.35   20.79
 -14  -6  -5   38.47   23.55
 -14  -6  -5   69.93   28.26
 -14   6  -5   37.97   25.38
  14   6   5   83.00   20.12
 -14   6  -5   43.54   17.76
  14  -6  -5   79.94   23.96
 -14   6  -5   71.68   22.32
 -14   7   5   -5.23   15.41
 -14  -7  -5  -25.49   31.70
  14  -7   5  -21.17   24.82
  14  -7   5  -14.09   24.55
 -14  -7  -5   -9.88   24.80
  14   7  -5  -11.65   15.82
 -14   7  -5    0.92   23.92
  14  -7  -5    0.74   22.88
  14   7   5  -25.69   20.95
  14  -7  -5  -15.01   20.84
 -14   7  -5  -20.74   16.82
 -14   7  -5   -2.81   21.75
  14  -8   5    4.35   24.48
 -14   8   5  -19.63   16.06
  14   8  -5   19.46   17.67
  14  -8  -5  -10.50   23.97
  14   8   5   18.10   24.30
 -14   8  -5    3.20   19.53
 -14   8  -5   37.53   23.64
  14  -8  -5   51.44   26.78
 -14   8  -5   69.46   24.19
 -14  -9  -5  -51.07   27.24
  14  -9   5   19.97   26.08
  14   9  -5    0.17   18.96
 -14  -9  -5   -0.17   47.13
 -14   9  -5   -4.00   20.74
  14   9   5    6.92   26.38
  14  -9  -5   -1.07   24.34
  14  -9  -5    9.77   31.13
  14  10  -5   44.86   20.22
 -14 -10  -5   23.55   44.29
 -14  10   5  -30.93   22.64
 -14 -10  -5   16.57   30.68
  14 -10   5   60.25   27.32
  14  10   5   14.82   29.05
 -14  10  -5   16.93   22.59
  14 -10  -5   14.51   29.10
  14 -10  -5   26.32   34.35
  14 -11   5   21.75   28.06
 -14 -11  -5  -10.04   54.18
  14  11  -5   -8.08   20.68
 -14 -11  -5   -7.71   33.64
  14 -11  -5    1.14   37.33
  14 -11  -5  -18.67   29.33
  14  11   5    9.27   31.27
 -14  11  -5   -8.00   24.57
  14  12  -5   -8.29   22.74
 -14 -12  -5    9.29   36.08
 -14  12  -5   -6.28   26.82
  14  12   5    3.98   32.37
 -14   0  -6  381.47   35.88
 -14   0  -6  355.60   40.78
  14   0  -6  363.90   40.78
 -14  -1  -6   27.38   19.79
 -14  -1  -6   36.40   22.09
  14   1  -6   60.04   14.52
  14  -1  -6   62.41   17.88
 -14   1  -6   20.54   18.01
 -14   1  -6   53.28   21.61
  14   1   6   -4.22   12.15
 -14  -2  -6   92.38   23.86
  14   2  -6  113.57   20.16
 -14  -2  -6   86.29   21.15
  14  -2  -6  138.49   23.71
  14   2   6  100.04   17.19
  14  -2  -6  116.81   21.12
 -14   2  -6  133.86   17.25
 -14   2  -6  101.75   21.40
 -14   2  -6  128.37   23.78
 -14  -3  -6  300.95   40.37
 -14  -3  -6  285.11   33.84
  14   3  -6  243.30   24.66
  14  -3  -6  284.64   28.61
  14  -3  -6  291.87   39.55
 -14   3  -6  266.95   25.30
 -14   3  -6  241.43   33.05
 -14   3  -6  232.68   39.98
  14   3   6  231.98   26.55
 -14  -4  -6   23.40   23.93
  14   4  -6   38.00   18.14
 -14  -4  -6  -10.08   22.69
  14   4   6   17.56   18.71
 -14   4  -6   67.65   24.35
 -14   4  -6   38.45   20.64
  14  -4  -6   52.67   26.80
  14  -4  -6   37.67   20.69
 -14   4  -6   44.52   16.97
  14   5  -6  255.61   31.77
 -14  -5  -6  160.63   30.45
 -14  -5  -6  104.40   26.17
  14  -5   6  126.42   25.39
  14   5   6  166.22   26.47
 -14   5  -6  191.13   24.56
 -14   5  -6  235.67   36.21
  14  -5  -6  175.86   28.18
  14  -5  -6  198.23   39.57
 -14   5  -6  253.32   40.57
  14  -6   6  -18.53   38.86
 -14  -6  -6  -30.75   24.20
  14  -6   6    2.30   24.66
  14   6  -6    5.54   17.50
 -14   6  -6  -27.58   16.43
  14  -6  -6  -11.03   21.47
 -14   6  -6   -8.12   21.64
 -14   6  -6   -2.21   24.06
  14  -6  -6  -33.76   22.08
 -14  -7  -6  -15.08   25.04
  14  -7   6    6.78   25.28
 -14  -7  -6  -30.32   32.97
  14   7  -6   22.99   16.05
  14  -7  -6   49.08   24.61
 -14   7  -6   36.47   24.59
 -14   7  -6   20.28   23.46
 -14   7  -6    3.70   17.22
  14  -7  -6  -10.32   23.01
  14   7   6   -1.53   22.60
 -14   8   6  -20.98   20.95
  14   8  -6    8.73   17.22
 -14  -8  -6  -28.15   25.45
 -14  -8  -6  -18.42   37.09
 -14   8  -6   28.98   29.17
  14   8   6  -17.90   26.02
 -14   8  -6   17.11   23.80
 -14   8  -6   -9.99   18.25
  14  -8  -6    1.79   27.28
  14  -8  -6  -29.90   23.59
  14   9  -6   38.92   18.62
  14  -9   6   48.08   26.58
 -14  -9  -6   86.01   47.65
 -14  -9  -6    5.72   27.92
  14  -9  -6   71.61   31.58
  14  -9  -6   45.46   25.75
  14   9   6   40.28   27.78
 -14   9  -6   54.16   20.98
 -14 -10  -6   29.10   55.46
  14  10  -6   -1.24   19.54
 -14 -10  -6   -0.29   30.01
  14 -10  -6   -8.71   28.20
  14 -10  -6   25.41   34.15
 -14  10  -6   19.98   21.97
  14  10   6   18.70   30.21
 -14 -11  -6    8.73   32.46
 -14 -11  -6   46.70   51.91
 -14  11   6  -37.26   31.83
  14  11  -6  -11.70   20.37
 -14  11  -6   17.83   24.19
  14 -11  -6   -1.39   33.28
  14  11   6   -3.54   33.36
  14 -11  -6   32.95   38.56
 -14   0  -7  -13.18   22.58
  14   0  -7    4.61   18.46
 -14  -1  -7  189.67   38.65
 -14  -1  -7  178.37   27.09
  14   1  -7  204.46   22.75
 -14   1  -7  167.84   31.10
 -14   1  -7  153.74   23.80
  14  -1  -7  215.21   24.90
  14  -1  -7  213.98   38.50
 -14  -2  -7  180.77   32.55
 -14  -2  -7  123.15   24.63
  14   2  -7  170.03   24.99
 -14   2  -7  142.82   23.76
 -14   2  -7  189.02   27.78
  14  -2  -7  151.10   22.61
  14  -2  -7  175.81   25.90
 -14  -3  -7   93.37   41.67
  14  -3  -7   80.21   21.11
 -14   3  -7   61.52   21.68
  14  -3  -7   69.93   35.51
  14   4  -7  236.07   25.39
 -14  -4  -7  185.42   46.67
 -14   4  -7  241.82   33.50
  14  -4  -7  267.76   29.66
  14  -4  -7  242.99   40.69
 -14   4  -7  250.23   25.92
 -14   4  -7  303.10   41.79
 -14  -5  -7  -30.68   26.48
 -14  -5  -7  -34.58   23.33
  14   5  -7    1.04   17.07
  14  -5   7  -33.37   24.58
 -14   5  -7  -17.99   16.84
  14   5   7   20.61   16.14
  14  -5  -7   -3.21   19.46
 -14   5  -7  -12.20   21.92
  14  -5  -7  -23.24   38.95
 -14   5  -7  -26.92   23.64
 -14  -6  -7  -10.62   23.28
  14  -6   7   -3.88   25.75
 -14  -6  -7  -11.22   29.00
  14   6  -7   10.98   17.46
 -14   6  -7   -8.95   17.26
  14  -6  -7   40.53   22.08
 -14   6  -7   29.58   24.87
  14  -6  -7    5.07   22.70
  14   6   7  -16.54   19.46
 -14   6  -7    3.01   23.16
  14   7  -7   27.90   17.78
 -14  -7  -7    1.02   34.00
 -14  -7  -7  -31.40   25.09
  14  -7   7  -18.13   25.09
  14  -7  -7   -9.76   23.95
 -14   7  -7  -13.44   24.29
  14  -7  -7    2.82   24.96
 -14   7  -7    7.89   25.95
  14   7   7  -34.00   22.85
 -14   7  -7  -13.45   17.58
  14   8  -7   42.44   17.40
 -14  -8  -7  -16.06   25.44
 -14  -8  -7   22.30   39.05
  14  -8   7   23.18   25.90
  14  -8  -7   80.86   28.54
  14   8   7    5.67   28.44
 -14   8  -7   55.58   24.97
 -14   8  -7   24.24   17.64
 -14   8  -7   29.50   27.09
  14  -8  -7   54.00   24.91
  14   9  -7   14.96   18.42
 -14  -9  -7  -20.14   27.14
 -14  -9  -7   54.68   43.40
  14  -9  -7    8.53   27.09
  14   9   7  -32.33   30.07
  14  -9  -7   32.80   31.83
 -14   9  -7   19.08   19.33
 -14   9  -7   41.23   24.90
  14  10  -7   40.22   19.67
 -14 -10  -7    7.18   29.95
 -14 -10  -7   11.27   54.79
  14 -10  -7   54.31   35.13
  14 -10  -7   31.55   29.84
 -14  10  -7   36.68   21.49
  14  10   7   42.38   34.83
 -14 -11  -7  -35.81   32.76
  14  11  -7   11.94   21.22
  14  11   7   52.76   37.05
 -14  11  -7   -6.30   22.93
  14 -11  -7  -43.63   32.40
  14   0  -8  222.75   34.98
 -14   0  -8  214.91   32.29
 -14   0  -8  153.60   25.31
 -14  -1  -8   -7.92   21.92
 -14  -1  -8   24.41   27.31
  14   1  -8   38.30   21.52
  14  -1  -8   44.17   28.59
 -14   1  -8   11.11   23.62
  14  -1  -8   45.59   21.15
 -14   1  -8  -13.08   21.60
  14   2  -8  130.83   23.13
 -14  -2  -8  138.67   28.37
 -14  -2  -8  110.81   26.43
  14   2  -8  112.31   17.30
  14  -2  -8  105.39   23.33
 -14   2  -8   69.37   22.69
 -14   2  -8   59.89   24.83
  14  -2  -8  130.27   20.75
 -14  -3  -8  176.60   30.73
  14   3  -8  172.90   22.05
 -14  -3  -8   76.50   42.09
  14  -3  -8  165.05   22.13
  14  -3  -8  137.77   23.54
 -14   3  -8  172.73   26.06
 -14   3  -8  125.32   23.91
 -14  -4  -8  -14.69   26.11
  14   4  -8    0.71   15.44
 -14  -4  -8  -16.15   23.54
 -14   4  -8   -9.58   22.11
  14  -4  -8  -27.29   21.24
  14   4   8    7.00   18.81
  14  -4  -8    8.74   19.35
 -14   4  -8  -18.14   16.15
 -14   4  -8  -16.33   22.21
 -14  -5  -8   35.48   25.67
  14  -5   8   27.37   26.10
  14   5  -8   42.24   16.95
 -14  -5  -8   50.54   30.37
  14  -5  -8   27.83   25.22
 -14   5  -8   82.36   29.35
 -14   5  -8   53.18   17.82
  14  -5  -8   74.71   22.10
 -14   5  -8   55.22   23.79
 -14  -6  -8   -9.19   29.51
 -14  -6  -8  -28.52   24.30
  14  -6   8  -18.73   26.41
  14   6  -8  -10.38   17.80
  14   6   8    6.75   20.01
 -14   6  -8  -12.32   17.44
  14  -6  -8   25.13   23.77
 -14   6  -8  -23.59   23.93
 -14   6  -8   38.53   26.19
  14  -6  -8  -22.11   23.88
 -14  -7  -8   22.91   32.10
  14  -7   8  -12.74   26.03
  14   7  -8    6.32   17.78
 -14  -7  -8  -17.63   26.73
 -14   7  -8  -12.13   25.11
  14  -7  -8   22.66   24.14
  14  -7  -8   44.56   26.70
 -14   7  -8   36.99   27.01
 -14   7  -8    1.78   17.56
  14   7   8  -15.15   19.56
 -14  -8  -8  -16.36   25.80
  14   8  -8    2.45   18.55
 -14  -8  -8   32.38   36.13
  14   8   8  -42.66   24.80
 -14   8  -8   -8.90   30.64
 -14   8  -8   -2.59   17.44
  14  -8  -8   33.29   29.44
 -14   8  -8   12.42   25.77
  14  -8  -8    0.62   25.45
 -14  -9  -8   -5.07   28.04
  14   9  -8   13.72   17.64
 -14  -9  -8   34.44   45.02
 -14   9  -8   59.34   26.50
 -14   9  -8  -50.62   52.17
  14  -9  -8   15.30   32.07
  14   9   8    2.90   25.97
 -14   9  -8   -3.58   18.52
  14  -9  -8    0.07   28.78
 -14 -10  -8   -9.31   30.59
  14  10  -8   19.61   19.74
 -14 -10  -8  -24.74   49.34
  14 -10  -8  -37.06   31.77
 -14  10  -8    0.33   20.49
  14  10   8    5.32   28.61
  14 -10  -8  -41.99   34.70
 -14   0  -9    9.42   23.58
  14   0  -9   38.38   18.30
  14   0  -9   -5.40   23.54
 -14   0  -9   -9.45   25.62
  14   1  -9  119.56   24.80
 -14  -1  -9   80.09   30.40
 -14  -1  -9  115.62   29.72
  14   1  -9  142.10   24.54
  14  -1  -9  109.07   31.79
 -14   1  -9  133.15   26.68
 -14   1  -9   83.93   25.07
  14  -1  -9  142.19   25.56
  14   2  -9   30.30   23.87
 -14  -2  -9    9.19   27.35
  14   2  -9   20.07   19.87
 -14  -2  -9  -21.41   30.09
 -14   2  -9   12.25   23.94
 -14   2  -9    7.01   23.93
  14  -2  -9   37.46   22.69
  14  -2  -9   26.77   18.83
  14   3  -9   80.68   37.99
 -14  -3  -9   30.06   29.86
 -14  -3  -9   -0.29   26.44
  14   3  -9   25.69   15.74
 -14   3  -9   22.34   23.49
 -14   3  -9    7.63   23.20
  14  -3  -9  -16.00   23.27
  14  -3  -9   25.64   19.42
 -14  -4  -9   20.23   26.26
 -14  -4  -9   19.49   27.77
  14   4  -9   40.64   15.86
  14  -4   9   18.30   26.41
 -14   4  -9   42.52   17.04
  14  -4  -9   45.85   21.19
 -14   4  -9   17.64   22.89
  14  -5   9  -29.66   27.44
 -14  -5  -9  -10.85   29.83
 -14  -5  -9  -28.36   27.40
  14   5  -9    7.58   15.76
 -14   5  -9   16.60   25.93
  14  -5  -9    8.02   22.16
 -14   5  -9  -16.01   16.83
 -14   5  -9  -27.23   22.88
  14  -5  -9  -34.73   23.63
  14   6  -9    1.96   16.73
 -14  -6  -9   -9.48   30.57
 -14  -6  -9  -20.55   28.61
 -14   6  -9   15.63   27.79
  14  -6  -9  -15.58   26.08
 -14   6  -9    0.72   24.60
  14  -6  -9   35.11   25.32
 -14   6  -9  -15.48   17.57
  14   7  -9    1.31   18.49
 -14  -7  -9  -16.65   27.74
 -14  -7  -9   -1.98   34.12
 -14   7  -9   26.47   30.61
  14  -7  -9   35.13   26.76
 -14   7  -9   -1.14   17.93
  14   7   9   22.40   27.28
 -14   7  -9  -17.00   26.14
  14  -7  -9   25.56   25.56
 -14  -8  -9  -17.36   29.32
  14   8  -9   14.29   18.80
 -14  -8  -9   28.51   38.13
  14  -8  -9   -2.90   29.60
 -14   8  -9   11.91   17.99
 -14   8  -9   -4.45   26.86
  14  -8  -9   22.74   29.17
  14   9  -9  -36.31   19.69
 -14  -9  -9  -24.07   30.66
 -14  -9  -9   -8.19   43.73
 -14   9  -9   -3.91   17.41
  14  -9  -9  -52.83   29.21
  14  -9  -9   10.39   32.37
  14   9   9  -31.18   31.67
 -14   9  -9   14.66   27.79
 -14   0 -10   55.33   28.43
  14   0 -10  106.55   20.65
  14   0 -10   76.68   27.02
  14   1 -10   30.81   18.77
 -14  -1 -10  -23.07   30.31
  14  -1 -10   52.95   19.59
 -14   1 -10    8.47   25.41
 -14   1 -10   23.83   28.07
  14  -1 -10   39.06   26.02
 -14  -2 -10    5.23   29.08
 -14  -2 -10   11.58   29.63
  14   2 -10   74.67   20.41
 -14   2 -10   39.19   26.81
  14  -2 -10   20.07   27.38
  14  -2 -10   37.81   20.01
 -14   2 -10   56.09   25.47
 -14  -3 -10  -37.90   29.55
  14   3 -10   15.81   19.41
 -14  -3 -10  -49.19   28.10
 -14   3 -10   29.64   39.66
  14  -3 -10    0.66   27.91
 -14   3 -10   18.45   23.42
  14  -3 -10    6.08   20.39
  14  -4  10  -25.75   28.52
 -14  -4 -10   15.05   29.98
  14   4 -10   17.87   15.50
 -14  -4 -10  -10.70   29.22
  14   4 -10   22.23   19.34
 -14   4 -10    8.38   23.02
  14  -4 -10  -10.31   26.41
  14  -4 -10   27.46   22.56
 -14   4 -10   27.23   28.13
 -14  -5 -10   -3.50   30.07
 -14  -5 -10  -10.21   30.08
  14   5 -10    1.37   15.25
 -14   5 -10   -0.57   17.27
 -14   5 -10   37.42   29.27
 -14   5 -10  -24.18   23.41
  14  -5 -10   -6.88   25.60
  14  -5 -10   15.05   24.16
 -14  -6 -10  -12.91   32.68
 -14  -6 -10  -12.74   29.35
 -14   6 -10  -19.36   17.83
 -14   6 -10  -37.90   25.63
 -14   6 -10    9.36   32.85
  14  -6 -10    2.52   27.02
  14  -6 -10  -26.31   26.13
 -14  -7 -10   17.26   34.19
 -14  -7 -10    2.84   32.03
 -14   7 -10   18.56   18.15
 -14   7 -10  -19.51   27.73
  14  -7 -10   59.63   28.83
  14  -7 -10    3.32   27.50
 -14  -8 -10   -0.92   38.10
 -14  -8 -10  -26.43   29.66
  14  -8 -10  -14.65   30.53
  14  -8 -10   24.37   31.50
 -14   8 -10    6.73   17.28
 -14   8 -10   33.61   28.44
  14   9 -10    4.19   20.75
 -14   0 -11   -7.26   30.46
  14   0 -11   42.24   20.98
  14   0 -11   72.13   31.43
 -14   0 -11   28.64   28.31
  14   1 -11   75.41   21.23
 -14  -1 -11  102.22   32.10
  14  -1 -11   71.70   30.71
 -14   1 -11   17.82   27.53
  14  -1 -11   79.06   21.71
 -14   1 -11   51.72   31.18
 -14  -2 -11    4.97   31.96
 -14  -2 -11   -1.43   30.98
  14   2 -11   37.08   21.27
  14  -2 -11   59.64   30.45
  14  -2 -11   45.37   21.01
 -14   2 -11   33.82   26.27
 -14  -3 -11  -12.01   33.22
 -14  -3 -11   16.99   31.85
  14   3 -11   53.98   21.50
 -14   3 -11   -7.08   24.38
  14  -3 -11  -37.16   32.22
  14  -3 -11   25.30   22.35
 -14  -4 -11   64.33   32.24
  14   4 -11   72.62   22.68
 -14  -4 -11   28.29   33.73
 -14   4 -11   32.93   24.61
  14  -4 -11   41.01   28.35
  14  -4 -11   34.36   24.83
  14   5 -11   22.56   22.94
 -14  -5 -11    9.72   33.02
  14   5 -11    1.24   16.07
 -14  -5 -11  -18.86   33.64
 -14   5 -11  -37.13   24.90
 -14   5 -11  -22.15   17.39
  14  -5 -11   22.86   26.67
  14  -5 -11  -13.38   29.36
 -14  -6 -11  -33.19   33.20
  14   6 -11    8.07   25.06
 -14  -6 -11   49.60   35.20
  14  -6 -11   52.99   31.26
 -14   6 -11   -9.07   18.16
 -14   6 -11    2.80   27.34
  14  -6 -11    6.91   28.02
  14   7 -11   42.41   26.82
 -14  -7 -11  -18.87   34.75
 -14  -7 -11   16.55   36.94
  14  -7 -11    7.65   31.82
 -14   7 -11  -28.97   28.54
 -14   7 -11   -2.24   17.97
  14  -7 -11   27.03   29.68
 -14   0 -12    6.99   29.28
  14   0 -12   66.76   23.16
 -14   0 -12    8.62   33.45
  14   1 -12   36.82   22.71
 -14  -1 -12  -13.98   35.33
 -14  -1 -12   -4.48   32.78
 -14   1 -12    9.09   28.86
  14  -1 -12   42.49   35.52
  14  -1 -12   59.23   23.27
 -14   1 -12   71.04   33.79
  14   2 -12   54.42   23.44
 -14  -2 -12   21.19   36.08
 -14  -2 -12   32.75   33.64
 -14   2 -12   59.65   36.59
 -14   2 -12    7.71   26.98
  14  -2 -12    6.38   53.03
  14  -2 -12   41.90   24.25
 -14  -3 -12   74.32   33.95
 -14  -3 -12   35.93   37.45
  14   3 -12  135.25   25.71
 -14   3 -12   84.53   27.06
  14  -3 -12   74.64   25.94
 -14   3 -12   77.33   37.06
  14  -3 -12   53.83   34.56
  14   4 -12   12.72   24.65
 -14  -4 -12   -2.78   33.72
 -14  -4 -12   -4.80   36.87
 -14   4 -12  -25.95   25.17
  14  -4 -12    4.26   31.92
  14  -4 -12   18.01   26.49
 -14  -5 -12   15.57   34.96
 -14  -5 -12   -4.64   38.45
  14   5 -12   33.17   26.73
 -14   5 -12   19.82   27.23
  14  -5 -12   48.04   28.04
  14  -5 -12    3.14   33.10
 -14   5 -12    6.83   17.57
 -14  -6 -12   21.07   39.11
  14   6 -12   26.59   28.64
 -14  -6 -12   17.76   37.18
 -14   6 -12   -9.00   28.74
  14  -6 -12   17.27   32.66
 -14   6 -12    4.89   18.48
  14  -6 -12   15.87   29.18
 -14   0 -13  -18.52   37.31
 -14   0 -13  -37.03   31.09
  14   0 -13   30.06   24.71
  14   1 -13   62.87   25.39
 -14  -1 -13  -15.38   39.10
 -14  -1 -13   -5.65   35.69
 -14   1 -13   86.17   38.59
  14  -1 -13   46.47   25.61
 -14   1 -13   20.85   30.26
  14   2 -13   54.32   25.25
 -14  -2 -13  -37.07   42.15
 -14  -2 -13  -20.00   34.09
 -14   2 -13   20.40   28.92
  14  -2 -13   39.76   43.32
  14  -2 -13   64.42   26.80
 -14   2 -13   52.71   38.94
 -14  -3 -13   39.07   43.30
 -14  -3 -13   14.09   36.42
  14   3 -13   25.38   25.51
  14  -3 -13   22.46   27.26
 -14   3 -13   15.52   27.66
 -14   3 -13   21.78   40.71
 -14  -4 -13   51.69   42.50
 -14  -4 -13   31.91   39.80
  14   4 -13   41.59   28.39
 -14   4 -13   22.08   27.44
  14  -4 -13   49.98   28.98
  14  -4 -13   58.11   37.01
 -15   0   0   -7.04   15.73
 -15   0   0   -9.56   17.05
  15   0   0   -2.22   13.73
 -15   0   0   -1.80   22.86
 -15  -1   0   17.63   23.90
 -15   1   0   40.34   16.73
  15   1   0   11.11   13.89
 -15  -1   0   16.30   16.18
 -15   1   0   -0.44   18.63
 -15  -1   0   20.18   17.42
  15  -1   0   36.33   14.62
 -15   1   0   35.85   23.10
 -15  -2   0  168.74   33.41
 -15   2   0  178.64   35.77
 -15   2   0  136.31   24.03
 -15   2   0  185.29   31.95
 -15  -2   0  203.23   32.45
  15   2   0  163.77   21.97
 -15   3   0  246.45   38.56
 -15   3   0  213.88   32.34
  15   3   0  193.80   24.28
 -15   3   0  140.43   25.87
 -15  -3   0  199.44   33.13
 -15  -3   0  218.13   34.37
  15  -4   0  137.63   22.39
 -15   4   0  235.16   31.56
 -15  -4   0  192.71   33.59
 -15  -4   0  189.03   34.34
 -15   4   0  173.03   26.53
  15   4   0  182.02   24.71
 -15   4   0  263.26   37.28
  15  -5   0  114.34   23.74
 -15   5   0  202.98   35.90
 -15  -5   0  197.43   30.68
  15  -5   0  174.93   29.53
 -15   5   0  185.56   30.57
  15   5   0  151.35   24.87
 -15   5   0  173.68   26.84
 -15  -6   0   62.30   25.79
 -15  -6   0    6.26   19.08
 -15   6   0  -17.67   20.09
  15  -6   0   -1.33   39.63
  15   6   0   27.86   19.55
  15  -6   0   26.95   23.50
 -15   7   0   -5.63   21.32
  15  -7   0  -25.16   24.14
 -15  -7   0   58.56   29.85
  15   7   0   -3.35   19.89
  15  -7   0    6.03   25.40
  15   8   0  220.92   31.40
  15  -8   0  336.58   37.96
 -15   8   0  236.41   32.65
 -15  -8   0  260.87   46.19
  15  -8   0  243.36   47.06
  15  -9   0   -9.19   38.30
 -15   9   0    0.48   24.87
 -15  -9   0    4.51   25.28
  15  -9   0  -24.94   24.57
  15   9   0   -6.79   22.55
 -15  10   0   89.31   27.43
 -15 -10   0   62.03   30.00
  15  10   0   40.08   23.72
  15 -10   0   71.60   28.14
  15 -10   0    2.54   27.12
  15 -11   0   22.53   29.90
 -15 -11   0   52.23   34.22
  15  11   0   24.45   24.92
 -15  11   0   19.54   28.00
 -15  12   0   64.26   30.45
  15 -12   0  -21.97   33.35
  15  12   0   10.06   26.28
 -15   0  -1   53.17   24.54
  15   0   1   37.18   14.37
 -15   0   1   20.54   17.86
 -15   0  -1   35.85   14.52
 -15   0   1   76.31   17.51
 -15   0   1   15.87   23.10
  15   0  -1   37.15   14.53
 -15   0  -1   29.79   19.18
 -15   1   1   14.34   21.86
 -15  -1  -1   11.65   14.01
 -15   1   1   17.26   18.11
 -15  -1  -1   -1.97   16.55
 -15   1   1   16.61   17.53
  15   1  -1   -7.16   14.00
 -15  -1  -1    6.49   22.61
  15  -1   1    6.26   14.55
 -15   1  -1  -16.77   14.60
  15  -1  -1   11.83   14.22
 -15   1  -1  -33.49   21.31
  15   1   1   -1.90   13.82
 -15  -1   1  -20.79   22.89
 -15  -1   1   -1.17   16.56
 -15  -1   1   34.71   15.01
 -15  -2  -1   97.06   24.42
 -15  -2  -1   47.40   17.61
  15   2  -1   67.70   16.34
 -15   2   1   59.94   18.35
 -15   2   1  127.52   23.23
 -15   2   1  106.64   18.89
 -15  -2  -1   91.75   15.61
 -15   2  -1   36.22   19.58
 -15   2  -1   58.79   17.26
  15   2   1   82.19   16.11
 -15   2  -1   86.30   26.01
 -15  -2   1   35.72   22.96
 -15  -2   1   89.22   24.85
  15   3  -1  196.02   23.99
 -15   3   1  235.42   36.02
 -15   3   1  147.91   24.79
 -15  -3  -1  212.63   33.47
 -15  -3  -1  113.06   18.26
 -15   3   1  211.74   31.13
 -15  -3  -1  169.09   34.60
 -15   3  -1  229.02   27.78
 -15   3  -1  153.72   24.94
 -15  -3   1  136.57   20.38
 -15   3  -1  180.01   36.35
 -15  -3   1  185.71   30.98
  15   3   1  184.12   23.61
  15  -3  -1  120.58   22.08
 -15   4   1  245.25   35.28
 -15  -4  -1  193.88   34.12
 -15  -4  -1  184.78   33.64
  15   4  -1  161.87   24.22
 -15   4   1  139.22   24.73
  15   4   1  167.05   24.20
 -15   4  -1  161.13   22.06
  15  -4  -1  199.24   26.71
 -15   4  -1  163.23   27.35
 -15   4  -1  221.27   38.81
 -15  -4   1  159.78   29.00
  15  -5   1   12.75   21.25
 -15   5   1   12.92   17.93
  15  -5   1   -2.06   21.71
 -15  -5  -1   13.11   18.33
 -15  -5  -1   27.94   27.10
  15   5  -1   17.63   18.39
 -15  -5   1   10.01   16.90
 -15  -5   1   19.71   24.98
 -15   5  -1   40.09   24.23
 -15   5  -1    5.03   19.15
  15  -5  -1   -1.53   20.57
  15  -5  -1    6.37   21.71
  15   5   1   12.85   18.22
 -15   5  -1   17.67   18.77
 -15  -6  -1  -14.28   22.30
  15  -6   1   13.12   24.15
 -15   6   1   46.06   19.71
 -15  -6  -1   22.45   30.39
 -15   6  -1   11.36   19.10
 -15   6  -1    9.15   21.02
  15   6   1   31.51   18.84
 -15  -6   1   54.14   25.77
  15  -6  -1   24.10   22.78
 -15  -6   1  -10.51   18.35
 -15  -7  -1   53.87   26.78
  15   7  -1   97.59   21.15
  15  -7   1  131.14   27.95
 -15   7   1  114.56   22.75
  15  -7   1   62.18   25.71
 -15  -7  -1   78.86   23.84
 -15   7  -1  126.59   27.15
  15  -7  -1  137.01   26.71
 -15  -7   1   85.54   21.51
  15  -7  -1   72.15   25.27
  15   7   1   96.39   22.42
  15  -8   1    6.12   28.89
 -15  -8  -1   18.48   24.90
 -15  -8  -1   85.63   34.25
  15  -8   1   -1.79   24.22
  15   8  -1    0.26   20.33
 -15   8  -1   -6.74   23.76
  15  -8  -1  -23.95   34.58
 -15  -8   1   -9.02   22.83
  15   8   1   -9.77   21.05
  15   9  -1   73.54   23.87
 -15  -9  -1  187.76   44.96
 -15  -9  -1  112.93   28.45
  15  -9   1  108.67   26.65
 -15   9   1  164.71   27.09
 -15  -9   1   90.13   26.74
 -15   9  -1  159.38   26.88
  15  -9  -1   75.15   27.92
  15   9   1   75.27   24.91
  15  10  -1    1.43   22.47
 -15  10   1   25.39   27.03
  15 -10   1    0.12   27.33
 -15 -10  -1   34.71   30.20
 -15 -10   1   24.90   27.80
 -15  10  -1    9.10   26.25
  15 -10  -1    2.74   27.24
  15 -10  -1   34.63   33.98
  15  10   1   10.23   24.08
  15 -11   1   46.04   30.10
  15  11  -1    9.60   25.34
 -15 -11  -1   52.48   34.34
 -15  11   1   37.58   29.28
  15 -11  -1   33.36   30.17
 -15  11  -1   35.91   28.40
  15  11   1   20.05   25.56
  15 -12   1   -0.53   33.82
 -15 -12  -1   34.90   40.25
  15  12  -1  -10.35   25.44
 -15  12   1   13.17   30.68
  15 -12  -1    6.19   33.78
  15  12   1   16.93   29.18
 -15  12  -1   -1.95   28.91
 -15   0   2   66.41   17.78
  15   0   2   24.67   14.24
 -15   0  -2   28.28   22.28
 -15   0  -2    5.46   18.51
 -15   0   2   46.01   21.62
  15   0  -2   42.10   14.65
 -15   0  -2    9.28   15.61
 -15   1   2   31.28   16.73
 -15  -1  -2   50.16   22.18
 -15   1   2   51.34   13.46
 -15  -1  -2   25.81   17.63
  15  -1   2   28.11   15.06
 -15  -1  -2   39.05   16.34
 -15   1   2   53.75   22.55
  15   1  -2   38.59   14.63
 -15  -1   2   16.79   23.69
 -15  -1   2   39.90   22.87
 -15   1  -2   15.04   23.03
 -15   1  -2    2.28   18.24
 -15  -1   2   40.10   12.62
 -15   1  -2   33.90   15.69
  15   1   2   39.44   14.49
 -15  -2  -2    6.64   21.43
 -15  -2  -2   -2.09   17.16
  15   2  -2  -16.06   15.17
 -15   2   2   15.00   21.29
 -15   2   2   21.14   14.84
 -15  -2  -2   29.89   16.63
 -15   2   2   35.54   16.89
 -15  -2   2  -26.59   16.85
 -15   2  -2  -28.40   18.76
 -15   2  -2   -0.94   22.90
 -15   2  -2  -21.03   14.44
  15   2   2    1.21   14.64
 -15  -2   2   -5.56   22.88
 -15  -3  -2  170.98   26.10
 -15  -3  -2  101.63   19.52
  15   3  -2  119.96   19.39
 -15  -3  -2  170.92   23.09
 -15   3   2  153.33   21.56
 -15   3  -2  135.49   18.31
  15   3   2  161.53   27.70
 -15   3  -2  115.09   23.39
 -15  -3   2  191.89   27.27
 -15   3  -2  127.03   27.25
  15  -3  -2  116.18   20.21
 -15  -4  -2   -3.47   24.07
 -15   4   2   20.88   16.90
 -15  -4  -2   16.91   18.07
  15   4  -2  -21.78   16.67
  15  -4   2  -13.87   17.72
  15   4   2    2.48   17.30
  15  -4  -2   22.68   20.62
 -15  -4   2   -9.84   16.40
  15  -4  -2   25.04   18.33
 -15   4  -2   -1.75   18.39
 -15  -4   2    7.10   22.29
 -15   4  -2   -4.21   16.38
 -15   4  -2  -23.67   23.42
  15  -5   2    3.80   22.37
 -15   5   2    3.70   17.71
 -15  -5  -2    2.08   26.74
  15   5  -2   15.08   18.22
 -15  -5  -2   -2.63   19.18
  15  -5   2    2.69   20.96
 -15  -5   2  -15.83   17.26
 -15   5  -2   -1.23   20.13
 -15   5  -2    3.95   23.30
 -15  -5   2   20.40   21.86
 -15   5  -2   12.16   17.97
  15   5   2   15.50   18.23
  15  -5  -2   -5.10   21.14
  15  -5  -2   36.73   20.17
  15  -6   2   49.19   25.33
 -15  -6  -2   22.49   30.32
  15  -6   2    0.32   29.98
 -15   6   2    8.72   19.10
  15   6  -2    2.78   19.40
 -15  -6  -2   -1.07   28.05
  15  -6  -2   31.62   22.32
 -15   6  -2  -11.86   19.50
 -15   6  -2    0.50   19.45
  15  -6  -2    7.68   34.88
 -15  -6   2  -15.93   25.48
 -15   6  -2   27.07   35.92
 -15  -6   2  -14.52   17.89
  15   6   2   18.46   19.06
 -15   7   2    0.62   20.61
  15  -7   2  -37.03   24.47
 -15  -7  -2   54.88   34.71
  15   7  -2  -37.89   18.99
 -15  -7  -2  -25.33   23.09
  15  -7   2   19.57   27.44
  15  -7  -2   41.04   35.96
  15  -7  -2  -21.65   22.66
 -15   7  -2  -22.63   23.97
 -15  -7   2  -31.15   19.21
  15   7   2    3.45   20.88
 -15  -8  -2   31.72   25.23
  15  -8   2   33.32   25.23
 -15   8   2   46.06   23.19
 -15  -8  -2   64.47   31.84
  15   8  -2   67.91   20.70
 -15   8  -2   53.82   24.55
  15   8   2   61.33   22.82
  15  -8  -2   15.10   24.74
  15  -8  -2  111.44   30.01
 -15  -8   2   61.50   22.84
 -15   9   2   13.10   25.77
  15  -9   2   16.10   23.45
 -15  -9  -2   80.99   39.16
  15   9  -2    7.11   21.45
 -15  -9  -2   12.78   27.67
  15  -9   2    1.32   24.76
  15  -9  -2  -22.21   26.03
 -15   9  -2   25.94   23.99
  15   9   2   20.31   24.36
  15  -9  -2   69.79   32.31
 -15 -10  -2   -0.10   32.52
  15 -10   2    4.89   27.41
  15 -10   2  -50.87   26.97
 -15  10   2   29.89   27.72
  15  10  -2   -5.50   21.57
  15 -10  -2    7.27   27.38
  15 -10  -2    4.61   34.49
  15  10   2   12.91   24.91
 -15 -11  -2   13.32   33.87
  15  11  -2   -1.31   23.29
 -15  11   2   21.44   29.06
  15 -11   2  -42.57   30.02
  15  11   2   -1.98   26.20
  15 -11  -2    0.14   29.64
 -15  11  -2   31.85   27.42
  15 -12   2   14.19   33.44
 -15  12   2  -60.85   31.10
  15  12  -2    3.37   24.35
 -15 -12  -2    6.30   41.33
  15  12   2   -1.07   27.28
  15 -12  -2  -27.27   33.90
 -15  12  -2   -0.56   28.21
 -15   0   3  319.66   31.88
 -15   0  -3  297.79   34.43
 -15   0   3  336.10   36.18
 -15   0  -3  273.18   38.60
  15   0  -3  282.18   25.69
  15   0   3  265.09   26.26
 -15   0  -3  293.40   27.47
 -15  -1  -3   25.66   16.83
 -15  -1  -3   21.53   21.58
 -15   1   3   59.95   16.43
 -15  -1  -3   22.99   18.06
  15   1  -3   20.07   14.74
 -15   1  -3  -15.23   15.92
 -15   1  -3   -4.61   19.30
 -15   1  -3  -14.05   21.65
  15   1   3   46.87   15.33
 -15  -1   3   15.85   15.51
 -15  -1   3  -13.32   21.46
 -15  -2  -3  136.66   23.70
 -15  -2  -3  101.91   18.82
 -15  -2  -3  105.22   23.29
  15   2  -3   88.22   16.84
 -15   2  -3   60.42   20.43
 -15  -2   3   55.64   17.22
  15   2   3  103.42   16.83
 -15   2  -3   76.70   17.28
 -15   2  -3   88.86   24.84
  15  -2  -3   44.13   18.22
 -15  -2   3   82.12   24.25
 -15  -3  -3  227.38   26.42
 -15  -3  -3  178.90   35.76
  15   3  -3  155.05   22.61
 -15  -3  -3  214.67   32.26
 -15   3  -3  205.69   27.79
 -15  -3   3  170.12   31.79
  15  -3  -3  128.18   20.89
 -15   3  -3  152.04   23.19
 -15   3  -3  150.35   22.76
  15   3   3  177.60   23.24
 -15  -4  -3   33.33   15.42
  15  -4   3  -13.43   18.05
 -15   4   3   18.77   15.57
 -15  -4  -3   -8.17   18.80
  15   4  -3   -0.57   16.81
 -15  -4  -3   -1.02   24.84
 -15   4  -3   -1.31   15.58
 -15  -4   3    4.14   16.04
  15   4   3    8.37   17.66
 -15   4  -3   -1.82   20.76
  15  -4  -3  -22.75   19.16
  15  -4  -3    8.95   19.02
 -15   4  -3   -5.89   23.68
 -15  -5  -3  120.00   28.70
  15  -5   3  102.52   23.88
 -15   5   3   79.19   17.88
 -15  -5  -3   56.21   19.61
  15   5  -3   53.54   22.21
  15  -5   3   62.43   22.92
 -15   5  -3   63.59   22.54
 -15  -5   3   52.35   23.14
  15  -5  -3   81.69   22.01
 -15   5  -3   36.60   17.61
 -15   5  -3   65.14   27.86
  15   6  -3  -21.35   18.14
 -15  -6  -3   12.73   30.52
 -15  -6  -3  -19.03   22.10
 -15   6   3   -9.85   18.12
  15  -6   3  -18.08   24.28
  15  -6   3   10.38   26.28
 -15   6  -3  -22.96   20.57
 -15  -6   3   -5.54   16.14
 -15   6  -3  -40.21   24.46
 -15   6  -3  -13.09   24.28
  15   6   3   -7.65   18.38
  15  -6  -3  -40.61   22.28
  15  -6  -3   -5.36   30.80
 -15   7   3   28.78   20.69
 -15  -7  -3    5.13   24.30
  15   7  -3   35.27   19.50
  15  -7   3   14.96   25.19
 -15  -7  -3   72.23   34.65
  15  -7   3   51.19   23.05
  15  -7  -3   26.54   22.87
 -15   7  -3   18.68   21.65
 -15  -7   3   41.20   17.52
 -15   7  -3   58.65   24.78
  15  -7  -3   58.79   25.55
  15   7   3   48.03   21.98
 -15   7  -3   44.16   21.81
  15   8  -3    3.29   19.68
 -15   8   3   19.19   22.80
  15  -8   3   -0.38   22.80
 -15  -8  -3   35.53   37.96
  15  -8   3  -11.64   24.70
 -15  -8  -3   12.84   25.39
  15  -8  -3   15.65   27.12
  15   8   3    0.90   23.15
 -15   8  -3    0.57   22.40
  15  -8  -3  -17.95   22.25
 -15  -9  -3  -22.24   26.85
 -15   9   3  -15.33   26.62
  15  -9   3   -4.53   26.50
  15   9  -3    1.32   20.43
 -15  -9  -3   90.19   38.00
  15  -9   3  -15.99   24.69
  15   9   3  -30.37   24.39
  15  -9  -3   -4.11   31.81
 -15   9  -3   -8.61   24.22
 -15 -10  -3   -2.12   31.65
  15  10  -3   -5.06   20.91
 -15  10   3    8.14   28.25
  15 -10   3  -21.29   27.67
 -15 -10  -3  -17.09   49.63
  15 -10  -3    1.63   27.15
  15  10   3   -8.67   26.33
  15 -10  -3    4.34   34.44
 -15  10  -3  -27.30   25.45
  15  11  -3   -1.55   22.59
 -15  11   3  -24.88   30.28
 -15 -11  -3   -5.43   34.85
  15 -11   3    8.16   30.39
 -15  11  -3   -0.37   26.75
  15 -11  -3    7.13   29.70
  15  11   3    9.66   27.83
  15 -11  -3  -18.91   36.17
  15 -12   3  -11.53   32.54
 -15  12   3  -31.91   33.41
  15  12  -3  -12.41   23.89
 -15  12  -3   -3.05   27.62
  15  12   3   22.36   30.74
  15 -12  -3   -0.43   35.14
  15   0  -4    0.90   14.79
 -15   0  -4    2.41   16.46
 -15   0  -4  -17.81   18.51
  15   0   4  -12.59   15.14
 -15   0  -4   -8.29   22.12
 -15  -1  -4  286.23   26.95
 -15  -1  -4  317.93   38.89
 -15  -1  -4  287.26   32.95
  15   1  -4  304.01   26.08
 -15   1  -4  275.68   39.60
 -15  -1   4  283.15   31.81
 -15   1  -4  266.84   27.05
 -15   1  -4  261.08   34.02
  15   1   4  287.02   26.30
 -15  -2  -4  132.05   23.17
 -15   2   4   56.28   26.53
 -15  -2  -4  128.79   24.77
  15   2  -4  108.30   17.49
 -15   2  -4   75.85   21.10
 -15   2  -4  124.78   24.65
 -15   2  -4  132.32   18.52
  15  -2  -4   97.86   19.62
  15   2   4  135.58   17.58
 -15  -2   4   96.93   16.47
  15   3  -4   -0.89   16.12
 -15   3   4    9.41   12.25
 -15  -3  -4    5.71   19.64
 -15  -3  -4  -11.59   18.50
 -15  -3  -4    4.83   23.59
 -15   3  -4  -20.71   19.30
 -15  -3   4   10.37   14.53
  15   3   4  -13.71   16.64
  15  -3  -4   14.87   17.09
  15  -3  -4   -0.90   17.94
 -15   3  -4  -17.31   16.14
 -15   3  -4  -19.24   23.00
  15   4  -4  458.35   35.61
 -15  -4  -4  575.22   47.32
 -15  -4  -4  540.31   42.50
 -15  -4  -4  529.92   36.64
  15   4   4  532.23   36.27
 -15   4  -4  484.47   43.38
 -15   4  -4  417.82   34.94
  15  -4  -4  517.72   39.07
  15  -4  -4  450.23   48.29
 -15   4  -4  467.56   47.79
 -15  -4   4  404.60   39.24
  15   5  -4   -3.09   23.98
 -15  -5  -4  -16.50   25.84
  15  -5   4   62.04   24.70
 -15   5   4    2.90   12.39
 -15  -5  -4   49.42   17.16
 -15  -5  -4   -5.66   22.50
 -15   5  -4  -25.03   16.22
 -15   5  -4   -5.88   21.66
 -15   5  -4   -3.14   32.64
  15   5   4  -10.36   19.27
 -15  -5   4   -5.92   14.49
  15  -5  -4  -21.54   22.51
  15  -6   4  127.28   27.42
  15   6  -4  104.94   21.44
  15  -6   4  183.85   29.34
 -15  -6  -4  169.56   27.07
 -15   6  -4  134.22   25.85
 -15   6  -4  100.64   20.63
 -15   6  -4  146.26   27.79
  15   7  -4   -7.66   18.18
  15  -7   4    6.49   25.23
  15  -7   4   32.26   22.99
 -15  -7  -4  -13.41   23.21
 -15   7   4   -8.42   14.26
 -15  -7  -4    6.36   35.59
  15  -7  -4   -9.37   22.47
 -15   7  -4    0.27   22.93
  15  -7  -4   21.19   24.87
  15   7   4    2.19   24.30
 -15   7  -4   29.49   24.49
 -15   7  -4  -12.96   20.11
  15  -8   4  -44.34   26.14
 -15  -8  -4  -53.14   41.51
 -15   8   4  -27.45   16.12
  15  -8   4  -15.66   24.76
  15   8  -4   25.23   19.88
 -15  -8  -4  -19.84   25.82
 -15   8  -4   -0.18   42.01
  15  -8  -4  -11.09   23.18
  15  -8  -4   42.97   28.10
 -15   8  -4   16.59   24.17
  15   8   4    0.24   24.70
 -15   8  -4  -36.40   21.25
 -15  -9  -4  -13.28   27.80
 -15  -9  -4  -14.81   49.01
  15   9  -4  -12.90   19.71
  15  -9   4  -10.15   26.36
 -15   9   4  -23.16   25.85
  15  -9  -4  -32.34   26.79
 -15   9  -4  -12.07   22.98
  15   9   4  -10.63   25.99
  15  -9  -4    8.36   31.85
 -15  10   4  -28.45   21.63
 -15 -10  -4  121.68   50.84
 -15 -10  -4  -15.98   30.70
  15  10  -4    1.52   21.19
  15 -10   4  -20.18   27.93
  15  10   4   16.67   29.75
  15 -10  -4  -21.23   27.44
  15 -10  -4   -4.15   34.69
 -15  10  -4  -11.37   25.08
  15 -11   4  -42.60   29.94
 -15 -11  -4  -35.68   34.18
  15  11  -4   16.64   23.01
 -15  11   4  -23.19   24.43
 -15 -11  -4   51.77   66.70
  15  11   4   10.82   31.52
 -15  11  -4   25.19   26.81
  15 -11  -4   -3.46   36.50
  15 -11  -4  -18.12   29.47
 -15   0  -5  220.19   38.57
 -15   0  -5  277.45   33.11
  15   0  -5  292.52   25.25
 -15   0  -5  243.59   25.14
  15   1  -5   74.56   16.16
 -15  -1  -5   87.34   24.83
 -15  -1  -5   27.78   20.34
 -15  -1  -5   73.62   17.15
 -15   1  -5   66.56   16.98
 -15   1  -5   52.47   19.38
  15   1   5   68.58   17.47
  15  -1  -5   45.12   19.00
 -15   1  -5   79.73   22.58
 -15  -2  -5   86.47   18.26
 -15  -2  -5   58.83   21.32
  15   2  -5   86.80   16.66
 -15  -2  -5  100.98   24.55
 -15   2  -5   71.04   20.07
 -15   2  -5   90.84   17.64
  15   2   5   68.07   17.29
 -15   2  -5   97.48   23.68
  15  -2  -5  108.43   18.18
  15  -2  -5   52.73   19.85
 -15  -3  -5  532.84   47.99
 -15  -3  -5  483.64   41.71
  15   3  -5  499.07   35.13
 -15   3  -5  477.18   35.71
 -15   3  -5  480.83   42.33
  15   3   5  451.99   35.47
  15  -3  -5  489.84   38.28
  15  -3  -5  502.49   48.55
 -15   3  -5  541.78   47.59
 -15  -4  -5   -5.43   25.72
 -15   4   5   -3.05   16.59
  15   4   5  -14.14   18.48
 -15   4  -5  -22.40   16.85
  15  -4  -5   -7.42   19.88
 -15   4  -5   -5.79   20.97
 -15  -5  -5  570.45   45.57
  15  -5   5  497.78   52.78
 -15  -5  -5  589.88   50.66
  15   5  -5  530.17   37.33
 -15   5  -5  520.99   50.97
 -15   5  -5  451.30   45.42
  15  -5  -5  414.97   72.05
  15  -5  -5  526.20   40.62
  15   5   5  524.83   38.78
 -15   5  -5  465.79   38.05
  15   6  -5  -15.25   18.95
 -15  -6  -5  -29.28   36.87
 -15  -6  -5  -25.87   23.91
  15  -6   5   -2.83   25.14
 -15   6   5    9.00   17.28
  15  -6   5   17.66   22.94
  15  -6  -5   28.42   22.56
  15  -6  -5   10.44   21.64
  15   6   5  -21.67   21.51
 -15   6  -5    0.46   22.88
 -15   6  -5    5.13   17.60
 -15   6  -5   23.36   25.42
 -15  -7  -5   25.91   47.34
  15  -7   5   23.49   25.73
  15   7  -5   53.92   20.00
 -15  -7  -5    7.94   24.69
  15  -7   5    1.21   26.87
 -15   7  -5   75.59   26.05
 -15   7  -5   21.35   19.49
 -15   7  -5   57.72   26.49
  15   7   5   75.66   32.92
  15  -7  -5   30.82   23.87
  15  -7  -5   81.17   25.59
  15   8  -5    2.62   18.33
 -15  -8  -5  -10.33   44.75
 -15  -8  -5  -40.05   26.47
  15  -8  -5   19.65   27.55
  15   8   5  -14.91   25.47
 -15   8  -5   31.31   43.98
 -15   8  -5   21.90   24.72
 -15   8  -5   -5.40   20.71
 -15  -9  -5  -18.26   49.95
  15  -9   5   23.90   27.85
  15   9  -5   -7.84   19.39
 -15  -9  -5  -25.25   28.81
  15  -9  -5   34.25   31.82
 -15   9  -5  -26.74   22.70
  15  -9  -5  -16.67   25.72
  15   9   5  -36.57   27.86
  15 -10   5  -44.66   28.04
  15  10  -5    3.12   20.19
 -15 -10  -5  -13.12   32.68
 -15 -10  -5  -26.83   47.62
 -15  10   5  -21.47   24.78
 -15  10  -5  -18.48   24.24
  15 -10  -5   -3.65   35.32
  15 -10  -5  -27.53   28.66
  15  10   5    9.90   30.27
 -15 -11  -5  -26.35   64.28
 -15 -11  -5  -40.17   33.73
  15 -11   5   28.61   29.51
  15  11  -5   17.73   22.37
  15  11   5   18.40   32.12
  15 -11  -5  -16.96   37.25
  15 -11  -5   -9.35   30.40
 -15  11  -5   12.37   25.82
 -15   0  -6   -7.48   22.92
  15   0  -6   -8.49   18.92
 -15   0  -6  -28.68   19.77
  15   0   6    8.50   16.40
 -15  -1  -6  116.53   22.87
  15   1  -6  145.36   23.87
 -15  -1  -6  205.66   32.01
 -15   1  -6  113.54   23.78
 -15   1  -6  142.59   21.70
  15  -1  -6  198.46   37.76
 -15   1  -6  158.43   26.09
 -15  -2  -6  362.91   37.26
 -15  -2  -6  351.43   43.93
 -15   2  -6  312.23   29.15
 -15   2  -6  353.97   47.92
  15  -2  -6  377.25   44.14
  15  -2  -6  361.38   45.86
 -15   2  -6  364.31   43.87
  15   3  -6    8.67   20.46
 -15  -3  -6   -4.82   27.59
 -15   3  -6    9.87   18.45
  15  -3  -6    0.62   20.25
  15   3   6   -1.52   15.99
 -15   3  -6  -16.30   20.29
  15  -3  -6   32.95   20.88
 -15   3  -6   -0.28   28.77
  15   4  -6  624.58   41.46
 -15  -4  -6  713.85   55.89
  15  -4  -6  571.35   44.61
 -15   4  -6  606.78   48.53
 -15   4  -6  592.80   42.69
  15  -4  -6  630.03   53.91
 -15   4  -6  686.04   54.92
  15   4   6  586.36   42.30
  15   5  -6    5.26   18.95
  15  -5   6  -12.29   22.04
 -15  -5  -6  -23.60   31.51
  15  -5   6  -28.92   22.27
 -15  -5  -6  -40.81   22.35
 -15   5  -6   -3.95   24.48
 -15   5  -6   13.77   22.41
 -15   5  -6   -1.28   18.05
  15  -5  -6   -9.31   25.25
  15   5   6  -20.98   20.86
  15  -5  -6   33.82   21.24
  15   6  -6   94.83   20.39
  15  -6   6   81.68   27.80
 -15  -6  -6   29.53   24.97
 -15  -6  -6  113.80   34.62
 -15   6  -6   72.97   27.04
  15  -6  -6   98.87   23.78
 -15   6  -6   58.39   19.34
  15  -6  -6   44.37   24.48
 -15   6  -6   84.67   24.27
  15   6   6   61.83   23.98
 -15  -7  -6   -4.20   37.70
 -15  -7  -6  -27.33   24.50
 -15   7   6   43.94   24.30
  15  -7   6   11.17   26.04
  15   7  -6   11.88   19.55
 -15   7  -6   -2.35   18.13
 -15   7  -6   18.26   25.33
  15  -7  -6  -12.90   22.74
  15  -7  -6   43.32   24.50
 -15   7  -6   13.37   26.17
 -15  -8  -6  -44.03   27.73
 -15  -8  -6  -21.43   44.06
  15   8  -6   12.82   17.82
  15  -8   6  -17.55   26.99
  15  -8  -6   -2.35   24.24
 -15   8  -6   28.54   40.77
  15   8   6  -12.97   28.06
 -15   8  -6   17.04   19.04
  15  -8  -6   44.12   28.02
 -15   8  -6   63.93   25.88
  15   9  -6   -7.37   18.79
  15  -9   6    2.32   28.36
 -15  -9  -6  -14.62   29.86
 -15  -9  -6   -2.86   49.55
  15   9   6    3.81   30.20
 -15   9  -6   -3.43   21.73
  15  -9  -6   11.49   27.59
  15  -9  -6   26.63   31.84
  15 -10   6   47.90   28.03
 -15 -10  -6  -13.70   56.00
  15  10  -6   12.27   21.30
 -15 -10  -6  -13.67   31.46
 -15  10   6   -9.17   31.14
  15  10   6    5.71   33.28
  15 -10  -6    2.34   29.35
 -15  10  -6   -0.99   22.92
  15 -10  -6  -25.44   35.00
 -15 -11  -6  -14.63   33.45
  15  11  -6   15.42   22.50
 -15  11  -6  -23.65   25.79
  15  11   6    0.00   36.00
  15 -11  -6  -26.30   33.41
 -15   0  -7  166.10   28.00
 -15   0  -7  142.03   23.99
  15   0  -7  209.88   40.93
 -15  -1  -7   64.59   26.41
 -15  -1  -7   35.73   22.99
 -15   1  -7   52.83   22.08
  15  -1  -7  105.61   21.35
  15  -1  -7   92.74   23.13
  15   1   7    6.10   17.93
 -15   1  -7   74.26   25.28
  15   2  -7   33.90   16.99
 -15  -2  -7   48.90   27.62
  15  -2  -7   82.87   20.49
 -15   2  -7   27.42   25.52
 -15   2  -7   27.52   22.14
  15  -2  -7   75.10   22.23
 -15   2  -7   21.53   22.27
 -15  -3  -7  435.65   42.27
 -15  -3  -7  426.70   48.39
  15   3  -7  400.73   31.71
 -15   3  -7  377.33   32.61
 -15   3  -7  412.70   47.81
  15  -3  -7  401.45   47.71
  15  -3  -7  408.17   35.21
 -15   3  -7  408.34   39.73
  15   4  -7   -1.07   16.86
 -15  -4  -7  -26.56   23.15
 -15  -4  -7    3.96   30.66
 -15   4  -7   22.84   22.79
  15  -4  -7   23.71   19.75
  15   4   7    3.01   15.53
 -15   4  -7    7.17   17.60
  15  -4  -7    1.61   26.71
 -15   4  -7   -7.11   23.20
 -15  -5  -7  123.75   28.96
  15   5  -7  194.43   24.10
  15  -5   7  117.60   28.00
 -15  -5  -7  207.42   38.02
 -15   5  -7  187.81   35.08
 -15   5  -7  205.14   26.23
  15  -5  -7  124.76   27.38
 -15   5  -7  155.95   27.29
  15   6  -7   22.62   18.80
 -15  -6  -7  -27.22   31.48
  15  -6   7   -6.95   26.82
 -15  -6  -7  -33.63   25.73
 -15   6  -7    6.11   18.14
  15  -6  -7   28.50   22.90
  15  -6  -7    7.40   24.49
  15   6   7   44.89   18.73
 -15   6  -7   -5.28   25.91
 -15   6  -7   22.98   25.55
  15  -7   7    7.60   26.97
  15   7  -7   -5.18   19.53
 -15  -7  -7  -37.99   35.56
 -15  -7  -7  -11.25   28.06
 -15   7  -7  -11.25   18.17
 -15   7  -7   23.41   25.64
  15  -7  -7   -8.86   25.47
  15   7   7  -33.90   24.36
  15  -7  -7   14.12   25.46
 -15  -8  -7   22.47   41.54
  15   8  -7   26.29   20.19
  15  -8   7   24.44   27.41
 -15  -8  -7    6.36   28.15
  15   8   7   -1.28   27.77
 -15   8  -7    0.24   18.41
 -15   8  -7   63.78   25.92
 -15   8  -7    0.22   30.15
  15  -8  -7   26.15   27.07
  15  -8  -7    6.18   29.32
 -15  -9  -7   -5.42   29.08
  15   9  -7    9.48   19.98
 -15  -9  -7   23.38   46.49
 -15   9  -7   22.47   25.69
  15  -9  -7   -5.36   28.56
  15  -9  -7   42.47   32.46
  15   9   7   -8.92   30.26
 -15   9  -7   -4.09   20.57
  15  10  -7    0.39   19.85
 -15 -10  -7   -7.61   33.13
 -15 -10  -7   16.92   56.84
 -15  10  -7  -32.50   22.11
  15 -10  -7   35.14   35.80
  15  10   7   18.49   34.82
  15 -10  -7   -4.70   31.11
  15   0  -8   24.01   18.59
  15   0  -8    9.46   31.30
 -15   0  -8  -30.84   26.39
 -15   0  -8  -32.83   24.83
  15   1  -8   73.31   24.27
 -15  -1  -8   55.33   28.80
 -15   1  -8   79.22   26.56
  15  -1  -8  119.94   21.18
  15  -1  -8   98.07   23.77
 -15   1  -8   65.10   25.20
 -15  -2  -8   79.49   27.62
  15   2  -8  154.42   23.51
 -15  -2  -8  178.13   31.44
  15   2  -8  124.20   25.80
  15  -2  -8  146.85   27.08
 -15   2  -8  124.90   25.61
 -15   2  -8  125.28   26.55
  15  -2  -8  128.59   25.51
 -15  -3  -8    3.41   29.16
  15   3  -8    0.28   15.99
  15   3  -8   16.56   24.31
 -15  -3  -8   17.65   24.62
  15   3   8   69.18   23.91
 -15   3  -8   -9.76   17.33
 -15   3  -8   -4.95   23.32
 -15   3  -8  -13.70   23.16
  15  -3  -8   -4.38   19.26
  15  -3  -8   -2.70   24.49
  15   4  -8  217.34   24.92
 -15  -4  -8  193.55   33.46
  15  -4   8  147.90   27.86
 -15   4  -8  194.88   33.51
  15  -4  -8  190.78   29.70
 -15   4  -8  238.85   44.29
  15  -4  -8  126.39   38.28
 -15   4  -8  202.60   25.42
 -15  -5  -8  -34.01   28.16
  15   5  -8    3.15   16.92
 -15  -5  -8    8.96   30.65
  15   5   8  -20.82   19.88
 -15   5  -8   -4.24   26.17
 -15   5  -8   -2.08   25.54
  15  -5  -8  -13.41   23.17
  15  -5  -8   23.25   22.49
 -15   5  -8   -7.05   18.20
  15  -6   8   10.63   27.87
 -15  -6  -8  -10.42   32.27
 -15  -6  -8  -13.69   27.62
  15   6  -8   24.76   18.92
 -15   6  -8   61.88   31.53
 -15   6  -8   16.76   18.73
 -15   6  -8   14.10   24.82
  15  -6  -8   59.86   24.20
  15   6   8    4.03   21.59
  15  -6  -8  -10.02   26.24
 -15  -7  -8   12.29   38.45
  15   7  -8   22.16   19.62
  15  -7   8    7.01   27.93
 -15  -7  -8   11.62   29.01
 -15   7  -8   12.53   25.63
  15  -7  -8   45.08   27.09
 -15   7  -8    5.05   18.43
  15  -7  -8   -9.97   25.42
  15   7   8    9.47   23.03
 -15  -8  -8   18.21   42.97
 -15  -8  -8  -18.66   28.23
  15   8  -8   -9.30   20.34
  15   8   8    4.24   26.64
 -15   8  -8  -19.87   31.20
  15  -8  -8    9.98   26.50
  15  -8  -8   14.11   29.43
 -15   8  -8   19.18   26.83
 -15   8  -8   -2.83   18.26
  15   9  -8    8.93   20.97
 -15  -9  -8   19.16   47.36
 -15  -9  -8   -2.09   29.52
  15   9   8   -6.87   29.15
 -15   9  -8    0.04   19.13
  15  -9  -8   -1.12   32.55
 -15   9  -8   13.50   33.16
 -15   9  -8   22.91   26.43
  15  -9  -8  -27.13   28.15
  15  10  -8   -1.52   21.70
  15  10   8   -9.53   32.39
  15   0  -9   89.27   20.18
 -15   0  -9   38.70   30.11
 -15   0  -9   27.81   27.41
  15   0  -9   74.71   26.53
 -15  -1  -9   14.49   28.54
  15   1  -9   29.93   19.00
  15   1  -9   15.19   25.52
 -15  -1  -9   -2.50   27.50
  15  -1  -9   15.21   26.73
 -15   1  -9  -19.23   25.61
  15  -1  -9   45.07   19.59
  15   2  -9   95.30   28.28
  15   2  -9   65.56   18.87
 -15  -2  -9   31.93   28.28
 -15  -2  -9   26.43   29.95
 -15   2  -9   16.22   25.52
 -15   2  -9    9.38   32.14
  15  -2  -9   46.34   24.79
  15  -2  -9   48.73   20.00
 -15  -3  -9   88.45   31.07
 -15  -3  -9    6.80   28.14
  15   3  -9   73.28   17.93
 -15   3  -9   69.50   18.46
 -15   3  -9   79.31   30.04
 -15   3  -9   78.05   24.75
  15  -3  -9   82.12   36.94
  15  -3  -9   72.48   22.28
  15  -4   9  -23.28   26.63
 -15  -4  -9  -38.91   28.29
 -15  -4  -9  -48.83   29.26
  15   4  -9    8.12   15.88
 -15   4  -9   -0.60   17.93
  15  -4  -9    2.97   21.09
 -15   4  -9   -5.79   24.33
 -15  -5  -9   19.06   31.65
  15   5  -9   35.09   16.80
 -15  -5  -9  -13.46   28.12
  15  -5   9   27.52   29.32
  15  -5  -9   49.63   22.64
 -15   5  -9   30.41   19.20
  15  -5  -9    6.33   26.12
 -15   5  -9   35.82   24.81
 -15  -6  -9  -16.59   29.44
 -15  -6  -9   33.32   33.79
  15  -6   9   -3.65   28.85
  15   6  -9   -4.54   17.31
  15  -6  -9    1.95   25.71
  15  -6  -9   -9.47   26.04
 -15   6  -9  -12.34   25.25
 -15   6  -9   -5.54   18.59
  15   7  -9   -3.03   19.28
 -15  -7  -9   40.17   37.63
 -15  -7  -9  -26.96   28.00
 -15   7  -9   -0.15   26.69
 -15   7  -9    6.81   32.44
 -15   7  -9    4.43   19.05
  15  -7  -9  -13.52   27.06
  15  -7  -9   26.15   28.68
 -15  -8  -9  -26.99   41.18
  15   8  -9   15.33   20.97
 -15  -8  -9  -10.52   31.82
 -15   8  -9   -7.79   18.41
  15  -8  -9    7.36   30.06
 -15   8  -9  -13.62   33.45
  15   8   9   25.04   37.74
 -15   8  -9   32.01   28.34
  15  -8  -9  -20.45   28.87
 -15  -9  -9   -2.51   33.33
  15   9  -9   17.51   21.53
 -15   9  -9   -0.12   28.03
  15  -9  -9   -6.26   30.62
 -15   9  -9   -9.15   18.98
  15   9   9    5.42   34.97
 -15   0 -10   17.56   28.77
  15   0 -10   37.18   20.10
  15   0 -10   12.13   28.68
 -15   0 -10  -15.30   28.20
  15   1 -10   88.28   30.46
  15   1 -10   71.90   20.74
 -15  -1 -10   10.50   28.29
 -15  -1 -10   11.38   29.73
 -15   1 -10   20.33   29.61
  15  -1 -10   46.28   20.54
 -15   1 -10   37.46   26.54
  15  -1 -10   78.18   28.62
  15   2 -10   -1.10   20.46
 -15  -2 -10    8.18   31.59
 -15  -2 -10  -46.93   29.62
 -15   2 -10  -16.86   28.52
  15  -2 -10    2.31   20.45
 -15   2 -10  -19.94   25.06
  15  -2 -10   -4.56   30.31
  15   3 -10   27.63   20.87
 -15  -3 -10  -18.01   31.79
 -15   3 -10    3.23   24.05
  15  -3 -10   18.36   22.05
 -15   3 -10   37.97   34.28
  15  -3 -10   21.76   28.35
 -15  -4 -10  -20.13   34.47
  15  -4  10  -23.51   30.22
  15   4 -10   13.11   20.39
  15   4 -10   24.88   17.44
 -15  -4 -10  -16.74   29.94
 -15   4 -10   31.27   24.93
  15  -4 -10    2.52   21.91
  15  -4 -10    3.59   26.91
 -15   4 -10   -2.62   18.42
 -15   4 -10    9.34   35.88
  15  -5  10   -3.13   31.19
  15   5 -10    7.65   16.31
 -15  -5 -10  -27.13   34.46
 -15  -5 -10  -43.63   32.60
 -15   5 -10  -18.28   18.31
 -15   5 -10   52.47   35.09
  15  -5 -10   17.72   24.78
 -15   5 -10  -45.76   24.55
  15  -5 -10  -25.25   26.67
 -15  -6 -10  -31.63   32.03
 -15  -6 -10    1.36   36.87
  15   6 -10    9.09   17.11
 -15   6 -10   17.98   19.34
  15  -6 -10   33.05   27.49
 -15   6 -10   57.47   33.75
 -15   6 -10    7.41   26.39
  15  -6 -10  -14.53   27.69
 -15  -7 -10    3.15   33.37
 -15  -7 -10    4.77   36.55
  15   7 -10  -10.34   18.44
 -15   7 -10  -55.25   34.90
  15  -7 -10   -5.05   29.59
  15  -7 -10   23.50   29.38
 -15   7 -10  -22.24   27.65
 -15   7 -10  -19.59   18.71
 -15  -8 -10  -11.70   41.11
 -15  -8 -10   -1.33   32.89
  15   8 -10   17.70   20.58
 -15   8 -10    8.75   18.82
 -15   8 -10   18.49   28.90
  15  -8 -10   33.74   33.38
  15   0 -11   73.48   33.60
  15   0 -11   59.76   21.66
 -15   0 -11    3.25   29.58
 -15   0 -11   46.77   30.94
  15   1 -11   34.44   21.26
 -15  -1 -11  -27.87   30.07
 -15  -1 -11  -13.59   32.32
 -15   1 -11   21.60   31.40
  15  -1 -11   34.46   21.09
 -15   1 -11   -1.13   28.22
  15  -1 -11   33.24   33.80
 -15  -2 -11  -41.04   32.94
 -15  -2 -11   -6.95   33.83
  15   2 -11   13.09   21.75
 -15   2 -11  -20.70   30.17
  15  -2 -11   24.34   21.89
  15  -2 -11   43.64   40.35
 -15   2 -11  -14.67   25.85
 -15  -3 -11  -13.20   32.50
 -15  -3 -11   -6.17   34.39
  15   3 -11   46.32   22.40
 -15   3 -11   38.90   32.80
  15  -3 -11   22.54   23.17
 -15   3 -11   13.05   25.86
  15  -3 -11   -0.23   29.30
  15   4 -11   16.13   22.60
 -15  -4 -11  -17.30   34.20
 -15  -4 -11  -45.43   34.52
  15  -4 -11   24.55   25.03
 -15   4 -11    6.06   18.43
  15  -4 -11  -11.84   28.76
 -15   4 -11   -1.90   33.61
 -15   4 -11    8.69   25.18
 -15  -5 -11   11.05   35.80
  15   5 -11    3.30   23.71
 -15  -5 -11   10.71   36.54
  15  -5 -11   -0.18   30.26
 -15   5 -11   -3.05   34.06
  15  -5 -11   30.52   26.91
 -15   5 -11  -45.68   24.79
 -15   5 -11    1.82   18.79
  15   6 -11  -19.99   17.61
  15   6 -11  -12.29   26.09
 -15  -6 -11  -25.87   36.93
 -15  -6 -11  -34.13   35.62
  15  -6 -11   -8.40   31.61
 -15   6 -11  -10.76   19.11
 -15   6 -11  -11.31   27.70
 -15   6 -11   45.26   41.28
  15  -6 -11   22.50   28.95
 -15  -7 -11  -15.11   36.52
 -15   7 -11   14.84   18.95
 -15   0 -12    9.27   30.85
  15   0 -12   46.87   23.69
 -15   0 -12   39.07   36.07
 -15  -1 -12  -18.01   35.51
 -15  -1 -12   14.14   32.68
  15   1 -12   19.09   22.74
 -15   1 -12    7.54   35.25
 -15   1 -12   14.85   28.92
  15  -1 -12   40.83   23.40
 -15  -2 -12   -5.86   36.67
  15   2 -12   52.64   24.11
 -15  -2 -12   40.71   36.33
  15  -2 -12  109.28   36.43
 -15   2 -12   -3.71   27.94
 -15   2 -12  -15.06   35.61
  15  -2 -12   51.61   24.44
  15   3 -12   13.81   24.65
 -15  -3 -12  -32.68   39.10
 -15  -3 -12  -20.86   34.75
  15  -3 -12   33.90   34.09
  15  -3 -12   25.33   25.36
 -15   3 -12    0.90   26.76
 -15   3 -12   24.05   34.93
 -15  -4 -12   -1.69   38.28
  15   4 -12   38.85   25.31
 -15  -4 -12  -56.80   37.78
 -15   4 -12   23.11   27.05
 -15   4 -12   44.46   19.80
  15  -4 -12   21.12   33.42
 -15   4 -12   49.42   36.68
  15  -4 -12   11.64   27.45
  15   5 -12   42.79   28.05
 -15  -5 -12   24.65   38.73
 -15  -5 -12  -17.93   40.78
 -15   5 -12   12.11   19.66
 -15   5 -12  -19.10   27.18
  15  -5 -12   16.27   29.03
  15  -5 -12    6.72   34.33
  15   0 -13   39.94   25.79
 -15   0 -13   42.40   40.82
 -15   0 -13    1.78   32.59
 -15  -1 -13  -26.17   39.64
 -15  -1 -13   -5.91   35.35
  15   1 -13   28.38   25.62
  15  -1 -13   51.61   26.55
 -15   1 -13  -15.95   30.90
 -15   1 -13   41.76   42.37
 -15  -2 -13    3.66   42.09
  15   2 -13  -24.05   25.57
 -15  -2 -13   -8.36   38.93
  15  -2 -13   75.03   44.03
 -15   2 -13   27.91   40.23
 -15   2 -13   -0.85   28.91
  15  -2 -13   11.13   26.75
  16   0   0  763.69   47.23
 -16   0   0  733.05   53.60
 -16   0   0  810.65   56.12
 -16   0   0  749.11   48.09
 -16  -1   0   42.34   12.59
 -16   1   0   42.81   18.14
 -16  -1   0   13.82   19.04
 -16  -1   0   25.18   24.24
 -16   1   0   11.49   19.38
 -16   1   0    0.29   24.45
  16   1   0    8.65   15.26
 -16   2   0  103.34   20.20
 -16   2   0  101.74   26.14
  16   2   0   74.60   17.04
 -16   2   0   68.04   21.76
 -16  -2   0   94.06   27.38
 -16  -2   0  122.86   20.02
 -16  -2   0   55.39   19.14
 -16  -3   0  159.15   29.88
  16   3   0  138.17   20.05
 -16   3   0  107.24   21.95
 -16  -3   0  106.72   20.77
 -16   3   0  200.44   32.45
 -16   3   0  163.19   22.68
  16   4   0  212.37   26.55
 -16   4   0  208.07   28.76
 -16   4   0  286.19   39.94
 -16   4   0  250.94   34.60
 -16  -4   0  202.58   38.39
 -16  -4   0  236.83   36.99
 -16  -5   0   63.89   30.65
  16  -5   0  -12.15   26.76
 -16   5   0   15.26   21.68
 -16   5   0   56.24   27.64
 -16   5   0   31.44   22.26
  16  -5   0   27.49   22.76
 -16  -5   0   -2.78   23.32
  16   5   0   30.75   24.35
 -16  -6   0   30.04   21.61
 -16   6   0   62.33   21.85
  16  -6   0   20.81   26.51
  16  -6   0   51.67   25.84
  16   6   0   55.99   21.65
 -16  -6   0   64.86   27.15
 -16   7   0  170.25   40.67
  16   7   0  136.02   23.60
 -16  -7   0  103.19   24.37
 -16  -7   0   83.66   33.86
  16  -7   0   90.00   26.24
  16  -8   0   -0.54   41.50
  16   8   0    0.47   22.40
 -16  -8   0   -4.89   24.38
  16  -8   0  -24.05   26.35
 -16   8   0  -13.96   25.87
  16   9   0   96.66   25.05
 -16   9   0  135.83   28.38
 -16  -9   0   95.41   28.16
  16  -9   0   81.15   26.95
 -16  10   0   32.24   28.08
  16 -10   0  -35.02   26.48
 -16 -10   0   11.25   30.47
  16  10   0  -30.17   24.29
  16 -10   0   -9.76   28.82
 -16 -11   0   41.43   36.56
 -16  11   0   45.03   30.37
  16  11   0   -2.55   29.90
  16 -11   0    5.81   30.95
  16   0   1   16.38   15.29
 -16   0  -1   14.81   25.09
 -16   0  -1    4.71   19.64
 -16   0   1  -10.16   24.11
 -16   0   1   -2.12   18.90
  16   0  -1   11.84   15.20
 -16   0  -1    2.58   16.06
 -16  -1  -1   31.45   15.91
 -16  -1  -1   13.01   17.51
 -16   1   1   34.97   19.49
  16   1  -1   27.14   15.27
 -16  -1  -1   36.30   24.61
 -16   1   1   45.50   23.00
 -16   1  -1   25.97   16.94
 -16   1  -1   -2.02   19.17
 -16  -1   1   25.26   18.84
 -16  -1   1   25.64   25.00
  16   1   1   31.45   15.39
 -16   1  -1   18.28   24.50
 -16   2   1   47.93   23.68
 -16   2   1   58.21   19.51
 -16  -2  -1   40.87   11.63
 -16   2   1   -0.66   18.09
  16   2  -1   27.95   16.18
 -16  -2  -1   29.13   24.15
  16   2   1    9.67   15.78
 -16  -2   1   44.30   25.78
 -16   2  -1   19.27   17.80
 -16  -2   1   18.89   18.20
 -16   2  -1   17.82   24.59
 -16   3   1  118.52   21.35
 -16   3   1  113.99   20.36
 -16  -3  -1  129.14   27.76
 -16   3   1  150.73   25.73
  16   3  -1   86.90   19.24
 -16   3  -1  100.88   22.28
 -16   3  -1  126.62   27.70
 -16  -3   1  144.40   28.32
 -16  -3   1   71.63   20.00
  16   3   1  101.94   19.49
 -16   3  -1  145.03   21.29
  16   4  -1   83.62   20.08
 -16   4   1   74.14   19.38
 -16  -4  -1   97.09   29.67
 -16  -4  -1   40.56   20.37
 -16   4   1   82.39   19.13
 -16  -4   1  117.75   27.85
 -16   4  -1   97.83   26.45
  16   4   1   82.56   19.85
  16  -4  -1   33.57   21.01
 -16  -4   1   44.75   19.32
 -16   4  -1   71.20   20.81
  16  -4  -1   72.01   20.45
 -16   4  -1   94.79   21.67
  16  -5   1   50.26   26.64
 -16   5   1   94.95   20.97
 -16  -5  -1  140.81   32.65
  16  -5   1  131.30   25.22
 -16   5  -1  121.80   23.74
  16   5   1   84.61   21.70
  16  -5  -1   82.74   30.12
  16  -5  -1  133.66   24.69
 -16   5  -1  126.13   23.27
 -16  -5   1   64.56   20.64
  16  -6   1  -11.72   24.72
 -16  -6  -1   36.52   33.54
 -16   6   1   15.51   21.44
 -16  -6  -1   22.11   21.38
  16   6  -1   37.30   21.53
  16  -6   1   32.89   25.89
 -16   6  -1   43.64   38.89
 -16   6  -1   79.86   24.74
  16  -6  -1   77.34   27.15
  16  -6  -1   -7.81   23.75
 -16   6  -1   12.49   23.38
 -16  -6   1   51.59   26.41
  16   6   1    8.53   21.60
 -16  -7  -1    5.17   22.34
  16   7  -1    4.57   20.98
 -16   7   1  -17.19   22.96
 -16  -7  -1   37.12   31.40
  16  -7   1  -12.93   25.18
  16  -7   1   -3.50   28.37
  16   7   1   30.21   22.28
 -16   7  -1  -10.12   24.61
  16  -7  -1  -21.37   24.52
 -16  -7   1  -11.03   21.71
  16  -7  -1    7.90   32.98
 -16  -8  -1   46.19   38.98
 -16   8   1  145.53   27.18
  16   8  -1   99.55   23.74
  16  -8   1   95.32   27.06
  16  -8   1  173.59   34.78
 -16  -8  -1  102.81   25.88
  16  -8  -1   68.99   27.31
 -16  -8   1   81.32   24.74
 -16   8  -1  154.52   27.14
  16   8   1  103.08   25.02
  16   9  -1    7.82   23.53
 -16  -9  -1    9.91   26.87
  16  -9   1   -5.35   34.77
 -16   9   1   25.78   26.40
 -16  -9   1    6.07   26.07
  16  -9  -1   13.29   33.78
  16   9   1  -20.66   23.76
  16  -9  -1  -29.85   25.00
 -16   9  -1  -19.96   26.88
  16 -10   1   67.13   29.35
  16  10  -1   31.92   23.90
 -16  10   1   85.98   29.08
  16 -10   1    6.15   28.87
 -16 -10  -1   35.03   31.45
 -16 -10   1   56.68   31.30
  16  10   1   17.14   25.30
  16 -10  -1   20.94   28.49
  16 -10  -1   58.22   32.46
 -16  10  -1   47.84   28.60
  16 -11   1  -10.62   30.47
  16  11  -1   -3.46   27.64
 -16  11   1    4.69   30.89
 -16 -11  -1   16.61   35.59
  16  11   1   -7.74   27.09
  16 -11  -1  -17.16   30.88
 -16  11  -1   10.66   29.00
 -16   0  -2   10.31   19.32
  16   0   2   36.64   15.82
  16   0  -2   53.10   15.43
 -16   0   2   30.54   23.45
 -16   0  -2   30.44   16.08
 -16   0   2   33.15   18.44
 -16   0  -2    4.62   23.44
 -16   1   2  -11.32   23.18
 -16  -1  -2    0.55   18.43
 -16   1   2   13.61   17.82
 -16  -1  -2   25.96   16.85
 -16  -1  -2   -4.79   23.73
  16   1  -2   -6.71   15.41
 -16   1  -2  -19.85   24.15
 -16   1  -2  -18.38   18.60
 -16  -1   2    6.00   17.59
  16   1   2    0.22   15.24
 -16  -1   2  -40.15   22.04
 -16   1  -2    1.19   15.27
 -16   2   2    7.27   17.89
 -16  -2  -2   27.98   17.54
  16   2  -2  -12.68   15.93
 -16  -2  -2  -19.99   23.72
 -16  -2  -2  -16.05   18.59
 -16   2   2   33.19   11.31
 -16   2   2   10.19   22.45
 -16  -2   2  -41.46   23.85
 -16   2  -2  -18.09   15.96
 -16  -2   2  -29.69   17.63
  16   2   2  -10.75   15.69
 -16   3   2   29.21   15.02
 -16  -3  -2   14.90   25.69
 -16   3   2   24.70   17.38
  16   3  -2   -6.79   17.24
 -16  -3  -2  -13.59   18.30
  16   3   2    2.78   17.18
 -16   3  -2  -17.15   17.15
 -16  -3   2   -1.23   25.83
 -16   3  -2  -26.02   24.68
 -16   3  -2  -22.05   20.61
 -16  -3   2  -32.12   17.84
  16  -3  -2  -26.14   19.84
 -16  -4  -2   22.38   30.11
 -16  -4  -2   18.58   27.87
 -16   4   2   30.28   18.52
  16  -4   2   -8.43   28.07
  16   4  -2   42.67   20.04
 -16   4  -2   57.93   25.87
  16  -4  -2   40.60   20.32
 -16   4  -2   17.26   20.10
  16  -4  -2   20.88   22.96
  16   4   2   38.80   19.24
 -16  -4   2   16.54   18.01
 -16  -4   2  -10.39   20.47
 -16   4  -2   27.71   19.15
 -16  -5  -2   37.79   30.15
 -16   5   2   -0.39   19.14
 -16  -5  -2  -13.14   20.95
  16  -5   2  -21.41   23.34
  16   5  -2   -2.32   20.52
  16  -5   2   22.34   24.81
 -16  -5   2   27.40   24.69
 -16  -5   2   -2.64   18.51
  16   5   2   16.27   20.73
 -16   5  -2  -10.97   26.83
  16  -5  -2   49.72   23.97
  16  -5  -2  -20.57   28.70
 -16   5  -2  -18.47   20.16
 -16   5  -2    5.34   21.35
  16   6  -2  -18.98   20.87
 -16  -6  -2  -25.38   33.56
 -16  -6  -2  -17.88   22.15
 -16   6   2    8.91   20.39
  16  -6   2   14.19   27.15
  16  -6   2  -37.74   25.23
 -16  -6   2  -14.44   20.08
 -16  -6   2   40.76   36.81
  16   6   2   -3.76   24.54
 -16   6  -2  -12.66   24.95
  16  -6  -2    6.41   24.49
  16  -6  -2   -1.30   30.57
  16  -7   2   52.31   26.76
 -16  -7  -2   57.06   34.39
 -16  -7  -2   36.93   24.52
  16   7  -2   62.35   21.22
 -16   7   2   91.86   22.90
  16  -7   2   85.19   30.00
  16   7   2   70.67   22.89
  16  -7  -2   74.24   25.06
 -16  -7   2   49.23   37.32
 -16   7  -2   85.77   22.11
  16  -7  -2   90.78   28.00
 -16   7  -2   74.35   25.57
 -16   8   2   -8.34   30.25
 -16  -8  -2   86.23   36.56
 -16  -8  -2  -13.90   25.14
  16  -8   2  -30.21   25.39
  16   8  -2  -33.15   21.25
  16  -8   2  -11.11   23.01
  16  -8  -2  -18.25   24.56
  16   8   2    1.12   23.17
  16  -8  -2    5.77   29.72
 -16   8  -2  -11.82   24.97
 -16  -9  -2   75.52   48.53
  16  -9   2   39.16   26.06
  16   9  -2   38.76   23.02
 -16   9   2   67.63   28.03
  16  -9   2   25.14   25.71
 -16  -9  -2    6.03   27.92
  16  -9  -2   18.55   26.27
 -16   9  -2   81.24   27.26
  16  -9  -2   73.41   34.05
  16   9   2   23.08   25.90
  16 -10   2  -37.50   28.67
 -16  10   2   10.38   29.42
  16 -10   2  -64.92   36.28
 -16 -10  -2   -0.32   32.52
  16  10  -2  -11.70   22.73
  16 -10  -2  -16.78   27.95
  16  10   2   -7.17   26.62
  16 -10  -2   54.32   35.48
 -16  10  -2    4.09   27.82
 -16 -11  -2  -24.56   37.41
 -16  11   2   23.00   31.64
  16 -11   2  -39.56   31.43
  16  11  -2   -5.64   24.24
 -16  11  -2   33.08   28.97
  16  11   2  -14.49   30.59
  16 -11  -2  -27.01   30.25
 -16   0  -3    3.84   17.77
  16   0  -3   12.75   16.06
 -16   0  -3   -8.41   18.10
 -16   0  -3  -14.57   23.56
 -16   0   3   31.88   17.35
  16   0   3   19.66   15.65
  16   1  -3   47.01   15.97
 -16   1   3   54.75   16.92
 -16  -1  -3   24.23   19.12
 -16  -1  -3   54.52   18.77
 -16  -1  -3   36.40   23.62
 -16   1  -3   15.19   19.97
 -16  -1   3   37.58   17.32
  16   1   3   56.41   16.63
 -16   1  -3   20.75   17.23
 -16  -1   3   28.26   22.92
 -16   1  -3   27.39   22.92
 -16   2   3   23.11   12.97
 -16  -2  -3    2.58   18.13
  16   2  -3   10.97   15.88
 -16  -2  -3   20.73   19.16
 -16  -2  -3   -2.68   23.97
 -16  -2   3    6.29   16.34
 -16   2  -3   -2.58   21.60
 -16   2  -3    9.03   16.67
 -16   2  -3    0.86   24.94
  16  -2  -3   -6.03   18.44
  16   2   3    3.48   16.07
 -16  -2   3   -6.91   24.02
 -16  -3  -3    8.14   20.04
 -16   3   3   16.00   12.27
  16   3  -3    3.14   18.00
 -16  -3  -3    3.00   24.64
 -16   3  -3   -5.07   15.97
 -16   3  -3   -7.64   21.39
  16  -3  -3   -4.57   18.16
 -16  -3   3   -4.22   17.14
 -16   3  -3    0.10   24.45
  16   3   3  -11.18   17.47
  16  -3  -3  -29.86   18.17
 -16  -4  -3  197.04   34.89
 -16   4  -3  151.28   20.35
  16  -4  -3  145.05   24.82
 -16   4  -3  111.84   23.88
 -16  -4   3   95.49   19.69
  16   5  -3    2.51   19.82
 -16  -5  -3  -26.67   29.92
 -16   5   3    7.07   12.62
 -16  -5  -3  -34.97   22.16
  16  -5   3   -1.19   25.23
  16   5   3  -43.85   20.40
  16  -5  -3  -10.49   23.96
 -16   5  -3   18.48   26.80
 -16  -5   3   -1.13   17.26
 -16   5  -3  -12.42   23.08
 -16   5  -3  -13.48   19.06
  16  -5  -3  -19.75   23.52
 -16  -6  -3   57.14   23.57
 -16  -6  -3  128.34   35.26
  16   6  -3   52.02   21.36
  16  -6   3  122.23   29.16
  16  -6   3   50.79   26.11
 -16   6   3   19.53   15.04
 -16   6  -3  100.93   26.46
 -16  -6   3   53.66   19.40
 -16   6  -3   85.90   22.94
  16  -6  -3   89.28   25.03
 -16  -7  -3   -4.01   37.98
  16  -7   3    5.28   22.35
  16   7  -3   -4.89   21.13
 -16  -7  -3  -44.49   24.30
  16  -7   3  -37.93   25.94
 -16   7   3    4.84   18.69
  16  -7  -3  -21.63   24.68
 -16   7  -3  -21.87   22.73
  16  -7  -3    6.55   26.15
 -16   7  -3  -16.57   23.95
  16   7   3  -13.54   23.98
 -16   7  -3   -1.73   25.51
 -16  -7   3  -11.46   19.50
  16   8  -3   32.61   21.41
 -16   8   3   27.86   24.68
  16  -8   3   23.77   26.16
 -16  -8  -3   -4.43   26.66
 -16  -8  -3   82.98   35.61
  16  -8   3  -20.38   25.71
  16   8   3   21.58   25.10
 -16   8  -3   16.59   24.41
  16  -8  -3   87.78   29.48
  16  -8  -3    9.26   25.24
 -16  -9  -3   34.17   45.92
 -16  -9  -3  -22.06   29.00
  16  -9   3  -11.66   28.29
 -16   9   3  -24.50   27.40
  16  -9   3    2.64   25.92
  16   9  -3  -32.77   21.50
 -16   9  -3  -36.73   25.24
  16  -9  -3   10.46   32.97
  16  -9  -3  -22.14   25.95
  16   9   3  -35.14   26.63
  16  10  -3   -7.02   22.09
 -16 -10  -3  153.01   85.93
  16 -10   3  -44.84   28.77
 -16 -10  -3    8.25   32.30
 -16  10   3   -0.39   29.33
  16  10   3  -16.17   28.53
  16 -10  -3   -0.79   27.62
 -16  10  -3   -8.82   26.93
  16 -10  -3   49.35   36.09
  16  11  -3   -2.77   23.48
 -16 -11  -3   -7.00   36.04
  16 -11   3  -33.83   32.16
 -16  11   3  -16.56   31.67
  16  11   3   -7.04   32.61
  16 -11  -3  -15.49   30.87
 -16  11  -3  -61.09   27.92
  16 -11  -3  -22.95   36.82
  16   0   4  142.88   19.65
  16   0  -4  156.25   23.21
 -16   0  -4  164.03   21.78
 -16   0  -4  138.95   25.67
 -16  -1  -4   19.19   23.02
 -16  -1  -4    6.18   18.97
 -16  -1  -4   13.70   18.83
  16   1  -4   19.35   16.08
  16   1   4   15.82   16.96
 -16   1  -4   -3.99   24.11
 -16   1  -4   14.08   17.67
 -16   1  -4    2.00   20.31
 -16  -2  -4   13.73   19.29
 -16  -2  -4   37.05   24.75
 -16  -2  -4   59.16   21.77
  16   2  -4   27.10   16.71
  16  -2  -4   23.42   20.64
 -16   2  -4    7.60   24.33
 -16   2  -4   21.09   20.92
  16   2   4    9.40   16.92
 -16  -2   4   20.53   15.46
 -16   2  -4   29.82   17.75
 -16  -3  -4  397.92   33.40
 -16  -3  -4  388.14   38.73
  16   3   4  355.57   29.67
  16  -3  -4  343.02   46.37
 -16   3  -4  301.52   30.17
 -16  -3   4  287.44   35.44
 -16   3  -4  322.12   45.04
 -16   4   4   18.24   15.02
 -16  -4  -4  -23.05   27.00
  16   4  -4    0.98   19.08
 -16  -4  -4  -18.08   21.22
  16   4   4  -31.71   19.81
 -16   4  -4   -3.75   17.52
 -16   4  -4  -32.13   26.12
  16  -4  -4    5.86   21.35
 -16  -4   4    1.92   15.57
 -16   4  -4  -11.52   21.58
  16  -4  -4  -33.58   25.78
 -16  -5  -4  474.23   44.45
 -16  -5  -4  534.54   48.72
  16  -5   4  317.39   49.88
  16  -5   4  385.13   39.30
  16   5  -4  330.91   34.75
  16   5   4  482.30   35.80
 -16   5  -4  384.34   48.22
  16  -5  -4  489.81   38.97
 -16   5  -4  366.97   43.74
 -16  -5   4  435.74   38.17
 -16   5  -4  319.93   34.33
  16  -5  -4  472.55   50.10
 -16  -6  -4    4.61   35.06
  16  -6   4   -4.44   21.82
 -16   6   4    7.20   15.55
  16   6  -4   -6.42   20.26
  16  -6  -4   -7.15   22.28
 -16   6  -4  -19.18   19.45
 -16   6  -4    9.08   26.38
  16  -6  -4   37.19   22.80
 -16   6  -4   -3.44   41.72
  16   7  -4   93.92   23.14
 -16  -7  -4   82.92   27.34
  16  -7   4   61.13   27.38
 -16   7  -4   92.75   25.78
  16   7   4   87.47   27.02
 -16   7  -4   63.41   23.00
  16  -7  -4   50.82   25.67
 -16   7  -4  113.04   27.67
 -16   8   4  -26.06   17.38
  16  -8   4  -28.91   25.97
  16   8  -4  -19.17   19.43
 -16  -8  -4    9.27   49.08
  16  -8   4   -3.17   28.18
 -16  -8  -4   -1.41   27.92
 -16   8  -4  -12.58   23.32
  16   8   4   -5.08   26.36
 -16   8  -4   38.77   25.29
 -16   8  -4  -10.88   23.49
  16  -8  -4  -28.44   23.98
  16  -8  -4   55.29   29.08
 -16  -9  -4  -34.45   30.19
 -16   9   4   -5.72   21.70
  16  -9   4  -43.73   26.69
  16   9  -4  -11.17   21.41
 -16  -9  -4   38.98   46.38
  16  -9  -4  -49.65   31.97
  16  -9  -4  -20.04   26.80
 -16   9  -4  -35.41   24.65
  16   9   4  -24.32   28.12
 -16 -10  -4   -9.30   33.80
  16  10  -4    6.88   23.30
  16 -10   4   -9.61   29.72
 -16 -10  -4   35.55   60.72
  16  10   4  -49.05   29.56
  16 -10  -4  -39.01   35.31
  16 -10  -4   -5.42   30.00
 -16  10  -4  -21.76   26.26
  16 -11   4  -51.10   31.27
 -16 -11  -4   14.29   36.85
  16  11  -4   27.07   24.49
  16 -11  -4    2.25   29.97
  16  11   4   -2.45   32.40
 -16  11  -4  -19.97   28.15
 -16   0  -5   -5.46   24.57
 -16   0  -5  -12.90   18.25
  16   0   5   -1.45   14.07
 -16   0  -5   -6.69   21.02
 -16  -1  -5  118.55   22.77
 -16  -1  -5  174.28   32.00
 -16  -1  -5  159.00   24.70
 -16   1  -5  141.14   33.17
  16  -1  -5  133.08   23.94
 -16   1  -5  159.39   24.77
 -16   1  -5   90.42   22.01
 -16  -2  -5  313.08   29.08
 -16  -2  -5  339.14   37.27
  16   2  -5  248.83   31.56
 -16  -2  -5  369.76   66.80
 -16   2  -5  232.87   43.37
  16  -2  -5  296.81   36.08
 -16   2  -5  278.01   52.10
  16   2   5  280.43   27.40
 -16   2  -5  299.32   28.51
  16  -2  -5  233.24   42.79
 -16  -3  -5  -34.85   27.46
 -16  -3  -5  -21.21   21.84
 -16  -3  -5   13.79   22.31
  16   3  -5   -1.09   17.59
 -16   3  -5  -35.50   24.83
  16  -3  -5  -16.03   21.87
  16   3   5   -6.84   18.07
 -16   3  -5  -21.53   18.09
 -16   3  -5  -20.32   21.50
  16  -3  -5   15.35   20.16
  16   4  -5  673.72   44.39
 -16  -4  -5  750.39   58.27
  16  -4  -5  677.08   47.23
 -16   4  -5  563.66   45.96
 -16   4  -5  630.66   51.70
 -16   4  -5  706.52   57.87
  16   4   5  651.80   44.79
  16   5  -5   -5.04   20.32
 -16   5   5   70.49   20.20
 -16  -5  -5  -19.87   23.18
  16  -5   5  -21.25   20.26
 -16  -5  -5    8.38   41.54
  16  -5   5  -22.12   22.99
 -16   5  -5   18.99   25.61
  16  -5  -5  -18.36   22.81
  16  -5  -5   32.02   22.22
  16   5   5    8.24   22.47
 -16   5  -5   34.37   18.91
 -16   5  -5   34.38   26.87
  16  -6   5  251.40   50.70
 -16  -6  -5  225.77   33.10
 -16  -6  -5  311.53   47.38
  16   6  -5  271.22   30.45
 -16  -6  -5  289.24   44.82
  16  -6  -5  260.81   45.93
 -16   6  -5  217.80   39.15
  16  -6  -5  329.85   35.35
 -16   6  -5  242.19   29.65
  16   6   5  302.87   37.26
 -16   7   5   -2.84   20.10
  16   7  -5    2.26   21.33
  16  -7   5   -4.74   28.31
 -16  -7  -5  -17.85   39.41
 -16  -7  -5   17.34   25.41
  16  -7   5   17.67   27.51
  16   7   5   10.70   27.52
  16  -7  -5   74.66   25.83
 -16   7  -5   26.26   26.21
 -16   7  -5   15.74   25.39
  16  -7  -5    1.67   23.84
 -16   7  -5   18.12   20.67
 -16  -8  -5  -59.18   45.34
 -16  -8  -5  -22.08   26.98
  16   8  -5  -13.15   20.96
  16  -8   5   -6.40   27.40
 -16   8   5  -13.15   21.94
  16  -8  -5   -7.84   25.01
  16   8   5   17.39   29.12
 -16   8  -5   25.20   25.59
 -16   8  -5  -18.22   25.27
  16  -8  -5   17.07   28.48
 -16   8  -5  -24.73   22.22
  16  -9   5   -6.60   28.78
 -16  -9  -5  -54.00   51.61
 -16  -9  -5  -40.63   28.86
  16   9  -5   -5.55   21.24
  16  -9  -5  -21.39   27.87
  16   9   5  -39.55   30.07
  16  -9  -5   11.04   33.12
 -16   9  -5    4.58   23.86
  16  10  -5   19.26   22.60
 -16 -10  -5   -6.20   32.19
 -16  10   5  -21.90   29.19
  16 -10   5  -11.61   30.92
 -16 -10  -5   16.58   54.22
  16  10   5    0.60   33.37
 -16  10  -5    2.06   26.29
  16 -10  -5    3.96   36.63
  16 -10  -5  -47.03   27.70
 -16   0  -6  162.97   28.05
 -16   0  -6  155.13   23.52
 -16   0  -6  119.02   25.05
  16   0  -6  154.66   24.57
  16   1  -6  108.67   19.21
 -16  -1  -6   86.24   27.68
 -16  -1  -6  100.19   20.18
  16  -1  -6   91.53   22.46
 -16   1  -6  104.61   26.31
 -16   1  -6   88.21   19.69
 -16  -2  -6    2.70   22.77
 -16  -2  -6   43.99   28.07
  16   2  -6   14.05   17.38
 -16  -2  -6   36.99   19.84
 -16   2  -6   14.18   22.49
  16   2   6   -0.73   14.67
 -16   2  -6   27.96   24.79
  16  -2  -6   41.24   24.09
  16  -2  -6   56.65   20.26
 -16  -3  -6  621.54   54.20
 -16  -3  -6  603.10   47.93
  16   3  -6  534.89   39.09
  16  -3  -6  605.79   54.83
  16  -3  -6  573.65   42.49
 -16   3  -6  538.65   54.02
 -16   3  -6  500.18   40.23
 -16   3  -6  570.00   47.17
  16   4  -6   28.84   18.28
 -16  -4  -6    1.45   30.10
 -16  -4  -6  -11.05   22.66
 -16   4  -6   17.74   26.11
 -16   4  -6   45.40   24.98
 -16   4  -6   26.54   19.23
  16  -4  -6   23.29   21.20
  16   4   6   16.53   17.07
  16  -4  -6    8.10   28.50
 -16  -5  -6  438.34   46.11
  16   5  -6  461.65   34.97
 -16  -5  -6  464.99   50.62
  16  -5   6  447.00   52.16
  16  -5  -6  437.03   50.89
 -16   5  -6  405.36   34.90
  16  -5  -6  489.17   39.06
  16   5   6  371.12   36.15
 -16   5  -6  387.64   43.61
 -16   5  -6  385.56   65.28
  16   6  -6   55.96   21.02
  16  -6   6   49.92   27.57
 -16  -6  -6   85.57   24.81
  16  -6   6   10.64   27.89
 -16  -6  -6   21.84   36.43
 -16  -6  -6   -3.15   24.35
  16   6   6   45.90   26.03
  16  -6  -6   86.22   23.82
 -16   6  -6   50.80   27.91
 -16   6  -6   27.66   19.28
  16  -6  -6   24.18   24.07
 -16   6  -6   11.54   40.31
  16   7  -6   46.00   21.86
 -16  -7  -6   13.96   26.72
  16  -7   6   58.05   29.30
 -16  -7  -6   85.51   41.20
  16  -7  -6   18.46   24.16
  16   7   6    5.85   29.30
 -16   7  -6   42.67   27.58
 -16   7  -6   73.94   27.80
  16  -7  -6   74.64   25.20
 -16   7  -6   27.15   19.51
  16  -8   6  -19.69   28.00
  16   8  -6  -16.91   21.23
 -16  -8  -6   15.97   46.94
 -16  -8  -6  -42.48   27.51
  16  -8  -6  -13.11   26.93
  16   8   6  -18.02   31.65
  16  -8  -6   26.96   29.77
 -16   8  -6    4.27   21.54
 -16   8  -6    8.39   25.89
 -16   8  -6    4.34   27.18
  16   9  -6   24.15   22.12
  16  -9   6   38.52   30.51
 -16  -9  -6   17.82   55.54
 -16  -9  -6  -23.46   29.41
  16   9   6    5.35   33.81
 -16   9  -6    2.14   23.03
  16  -9  -6  -10.92   28.35
  16  -9  -6   41.40   32.86
 -16 -10  -6  -38.76   32.08
  16  10  -6    2.75   21.47
 -16 -10  -6   86.02   50.66
  16 -10   6   36.40   30.38
 -16  10  -6  -28.05   24.46
  16  10   6   -3.42   37.16
  16 -10  -6  -14.99   36.53
  16 -10  -6   -0.70   29.94
  16   0  -7  -14.55   22.23
 -16   0  -7  -27.84   26.03
 -16  -1  -7   62.08   26.92
 -16  -1  -7   35.10   25.30
  16   1  -7   45.72   43.77
 -16   1  -7   42.45   19.94
  16  -1  -7   66.76   25.11
  16  -1  -7   98.67   20.37
 -16   1  -7   45.36   26.59
 -16  -2  -7  308.70   38.42
 -16  -2  -7  288.50   46.36
  16   2  -7  262.32   27.72
 -16   2  -7  192.63   33.95
  16  -2  -7  287.15   46.67
 -16   2  -7  209.15   27.69
  16  -2  -7  286.79   31.60
 -16   2  -7  281.50   36.03
 -16  -3  -7   10.55   24.94
 -16  -3  -7   13.91   29.65
  16   3  -7  -15.02   17.60
  16  -3  -7    4.56   20.47
  16  -3  -7  -36.06   30.34
 -16   3  -7  -13.23   19.21
  16   3   7   21.86   17.79
 -16   3  -7  -20.52   29.26
 -16   3  -7  -12.68   24.43
 -16  -4  -7  567.53   47.58
  16   4  -7  484.78   37.05
 -16  -4  -7  582.16   54.83
  16  -4  -7  499.84   40.43
 -16   4  -7  464.12   37.78
 -16   4  -7  503.01   45.50
  16  -4  -7  492.99   53.95
 -16  -5  -7   -1.11   25.83
 -16  -5  -7   24.10   35.36
  16  -5   7   10.55   28.47
  16   5  -7   44.56   19.46
  16  -5   7    4.70   26.55
 -16   5  -7   31.97   19.76
 -16   5  -7   21.76   25.28
  16  -5  -7   72.48   22.07
  16   5   7    5.84   17.62
  16  -5  -7   27.68   23.81
  16   6  -7   92.67   21.24
  16  -6   7   81.34   30.00
 -16  -6  -7   73.15   38.21
 -16  -6  -7   10.79   28.42
  16  -6  -7   65.54   24.52
 -16   6  -7   76.21   27.93
 -16   6  -7   65.14   20.08
 -16   6  -7   97.33   28.65
  16  -6  -7   78.71   24.78
 -16  -7  -7   28.86   39.89
 -16  -7  -7  -34.48   27.12
  16   7  -7   33.42   20.96
  16  -7   7   13.52   28.80
  16  -7  -7    0.83   25.01
 -16   7  -7   32.51   27.82
  16  -7  -7   16.16   26.83
  16   7   7    4.54   23.37
 -16   7  -7   45.44   26.71
 -16   7  -7   20.07   19.27
  16  -8   7   -0.72   28.99
 -16  -8  -7  -40.59   29.72
  16   8  -7    3.68   22.08
 -16  -8  -7   -6.59   45.02
 -16   8  -7   16.09   26.16
  16  -8  -7  -12.02   26.58
 -16   8  -7    7.03   20.46
  16  -8  -7   18.31   30.01
  16   8   7   26.87   25.34
 -16   8  -7   12.51   28.37
 -16  -9  -7  -52.28   56.28
  16  -9   7    5.99   29.68
  16   9  -7    1.92   22.66
 -16  -9  -7  -20.45   30.72
  16  -9  -7  -32.47   33.08
  16  -9  -7  -21.79   28.59
 -16   9  -7   -5.69   22.52
  16   9   7  -22.91   30.13
 -16   9  -7    3.38   25.82
 -16   0  -8   13.04   25.96
  16   0  -8   47.27   28.03
  16   0  -8   64.38   20.16
 -16   0  -8   42.15   28.38
 -16  -1  -8   34.04   29.15
 -16  -1  -8   29.57   25.20
  16   1  -8   50.31   26.48
 -16   1  -8    5.39   18.50
  16  -1  -8   68.51   20.89
 -16   1  -8   29.90   26.28
  16  -1  -8   38.09   24.80
 -16   1  -8   13.47   25.34
  16   2  -8   61.88   26.83
 -16  -2  -8    8.22   26.78
 -16  -2  -8  -16.70   27.95
  16   2  -8  -35.30   18.05
 -16   2  -8  -18.12   25.43
  16  -2  -8   37.01   20.58
 -16   2  -8  -31.80   30.70
  16  -2  -8   -8.20   27.13
 -16   2  -8  -19.49   19.13
  16   3  -8  338.48   54.95
 -16  -3  -8  355.64   40.95
 -16  -3  -8  383.75   50.46
  16   3  -8  320.91   30.01
 -16   3  -8  339.44   38.22
 -16   3  -8  316.89   63.20
 -16   3  -8  302.10   29.89
  16  -3  -8  236.37   38.78
  16  -3  -8  309.67   33.06
 -16  -4  -8   -4.85   25.78
 -16  -4  -8    3.84   32.82
  16  -4   8  -31.55   24.96
  16   4  -8    3.50   17.74
  16  -4  -8   26.04   21.86
 -16   4  -8   -5.26   19.33
 -16   4  -8    5.83   24.46
  16  -4  -8  -15.54   25.46
 -16   4  -8    0.52   29.72
  16  -5   8   82.19   30.22
 -16  -5  -8  144.20   35.38
  16   5  -8  147.93   24.46
 -16  -5  -8   56.07   30.00
  16  -5  -8   82.02   27.11
 -16   5  -8  123.02   30.56
  16  -5  -8  183.41   31.47
 -16   5  -8  124.11   21.53
 -16   5  -8  113.41   28.20
 -16  -6  -8  -43.75   29.51
  16   6  -8   26.56   19.84
  16  -6   8   17.09   29.99
 -16  -6  -8   17.24   37.66
  16  -6  -8   -2.18   25.16
  16  -6  -8   40.15   24.38
  16   6   8  -14.53   23.64
 -16   6  -8    1.56   19.57
 -16   6  -8   36.18   29.42
 -16   6  -8   -7.67   26.95
 -16  -7  -8    9.63   39.68
 -16  -7  -8  -23.50   28.84
  16  -7   8  -24.55   29.82
  16   7  -8   -1.37   20.71
  16  -7  -8   21.17   27.76
  16  -7  -8  -25.04   27.80
 -16   7  -8  -17.33   30.42
  16   7   8  -34.51   26.67
 -16   7  -8    3.19   26.84
 -16   7  -8   -3.86   19.18
 -16  -8  -8   16.50   45.76
 -16  -8  -8   -7.69   31.29
  16   8  -8  -14.04   21.82
  16   8   8   -9.34   30.44
 -16   8  -8   -1.37   27.07
 -16   8  -8   -0.32   19.47
 -16   8  -8    9.73   30.42
  16  -8  -8   17.82   30.20
  16  -8  -8  -12.44   28.88
 -16  -9  -8   41.01   51.43
 -16  -9  -8    1.68   32.39
  16   9  -8    4.31   22.66
 -16   9  -8  -37.20   21.47
  16   9   8   -3.81   32.75
 -16   9  -8   -9.69   32.72
 -16   9  -8   31.19   27.11
  16  -9  -8  -18.54   28.56
 -16   0  -9  -19.91   27.47
  16   0  -9   17.33   20.20
 -16   0  -9  -28.90   27.55
  16   0  -9  -43.71   27.35
 -16  -1  -9  -12.51   28.02
 -16  -1  -9    2.11   29.79
  16   1  -9  -22.76   28.13
  16   1  -9   29.59   20.20
  16  -1  -9    1.13   27.68
  16  -1  -9   49.07   20.74
 -16   1  -9  -23.69   26.66
 -16   1  -9  -26.95   26.85
  16   2  -9  108.32   31.60
 -16  -2  -9   66.47   30.91
 -16  -2  -9   38.11   30.38
  16   2  -9  108.10   21.01
 -16   2  -9   76.26   28.37
 -16   2  -9   39.22   19.46
  16  -2  -9   74.61   21.23
 -16   2  -9   61.99   27.08
 -16  -3  -9  -32.97   32.48
  16   3  -9  -22.70   17.73
 -16  -3  -9  -17.37   28.89
  16  -3  -9    1.11   20.87
 -16   3  -9   14.20   28.02
 -16   3  -9  -17.69   24.89
 -16   3  -9  -22.09   19.17
  16  -3  -9   -1.27   27.08
  16  -4   9   61.10   29.78
 -16  -4  -9   48.92   35.86
 -16  -4  -9   49.20   30.75
  16   4  -9   47.35   18.15
 -16   4  -9   67.06   29.08
  16  -4  -9   82.03   23.86
 -16   4  -9   72.03   20.84
  16  -4  -9   21.82   27.22
 -16   4  -9   57.94   26.30
  16   5  -9  -13.45   17.86
 -16  -5  -9   46.54   35.63
  16  -5   9   -4.32   30.76
 -16  -5  -9  -24.96   28.67
  16  -5  -9   32.05   23.34
  16  -5  -9   13.34   27.19
 -16   5  -9  -20.90   25.99
 -16   5  -9   -6.89   19.79
 -16   5  -9  -15.78   29.91
  16   6  -9   16.52   19.04
  16  -6   9   27.21   31.42
 -16  -6  -9  -37.42   30.06
 -16  -6  -9    2.74   38.20
 -16   6  -9   17.35   20.16
 -16   6  -9  -23.32   25.73
 -16   6  -9   43.05   32.81
  16  -6  -9   -0.85   26.84
  16  -6  -9   13.71   27.13
 -16  -7  -9   28.07   38.74
 -16  -7  -9    1.72   32.27
  16   7  -9   11.07   20.47
 -16   7  -9   10.53   19.51
  16  -7  -9   24.93   29.21
 -16   7  -9  -10.67   31.96
  16  -7  -9   21.53   30.57
 -16   7  -9   -0.78   27.19
  16   8  -9    2.79   21.47
 -16  -8  -9   19.45   44.13
 -16  -8  -9   -1.17   32.59
 -16   8  -9    5.52   33.65
  16  -8  -9   -4.52   32.61
 -16   8  -9   -8.27   28.07
  16  -8  -9  -17.58   28.93
 -16   8  -9    2.41   19.30
 -16   0 -10  -17.86   30.01
  16   0 -10   17.69   20.57
 -16   0 -10  -45.90   29.21
  16   0 -10   41.63   31.81
 -16  -1 -10  -20.89   29.91
 -16  -1 -10  -12.65   31.13
  16   1 -10   26.59   21.14
  16   1 -10   37.10   32.77
 -16   1 -10  -21.64   28.41
 -16   1 -10  -20.87   28.43
  16  -1 -10   55.31   34.58
  16  -1 -10   12.29   20.54
 -16  -2 -10   -1.30   31.26
  16   2 -10    2.36   21.35
 -16  -2 -10    1.05   31.30
 -16   2 -10    2.94   29.56
  16  -2 -10   -5.59   21.70
  16  -2 -10  -22.97   30.51
 -16   2 -10  -20.22   26.55
 -16  -3 -10   -8.21   34.50
  16   3 -10   21.41   21.87
 -16  -3 -10  -15.28   31.06
 -16   3 -10   12.99   25.01
 -16   3 -10  -31.27   28.79
  16  -3 -10   20.08   22.17
 -16   3 -10    1.12   19.93
  16  -3 -10    4.04   27.95
  16   4 -10    9.98   21.68
 -16  -4 -10  -35.55   32.33
  16  -4  10  -13.54   31.60
  16   4 -10    4.42   18.09
 -16  -4 -10  -37.81   35.80
 -16   4 -10    3.23   19.92
 -16   4 -10   33.64   29.62
  16  -4 -10   -8.58   28.39
 -16   4 -10   18.41   26.33
  16  -4 -10   14.73   22.93
 -16  -5 -10  -50.14   34.25
  16  -5  10    7.58   33.99
 -16  -5 -10    7.61   39.58
  16   5 -10   26.99   18.76
 -16   5 -10    6.09   20.04
 -16   5 -10   -7.82   32.96
  16  -5 -10  -19.54   28.53
  16  -5 -10   38.39   26.39
 -16   5 -10  -13.94   26.95
  16   6 -10   -7.31   18.07
 -16  -6 -10  -25.16   37.39
 -16  -6 -10    3.16   34.99
 -16   6 -10  -15.14   19.54
  16  -6 -10   -2.09   27.54
  16  -6 -10   12.01   29.91
 -16   6 -10  -32.61   26.68
 -16   6 -10   54.66   35.13
 -16  -7 -10   33.45   41.30
 -16  -7 -10   -3.79   34.63
  16   7 -10  -13.68   19.03
 -16   7 -10  -21.72   28.51
  16  -7 -10   34.12   30.94
  16  -7 -10   -9.97   31.13
 -16   7 -10  -63.21   34.70
 -16   7 -10  -10.25   19.34
 -16   0 -11   -4.95   30.54
  16   0 -11   43.30   22.82
  16   0 -11   45.90   38.04
 -16   0 -11   67.96   34.99
 -16  -1 -11  -21.14   34.08
  16   1 -11   12.19   21.87
 -16  -1 -11  -13.90   31.51
 -16   1 -11  -12.05   29.29
 -16   1 -11  -37.11   33.60
  16  -1 -11   19.48   43.09
  16  -1 -11   17.98   22.01
  16   2 -11   -3.89   22.26
 -16  -2 -11  -40.62   33.18
 -16  -2 -11  -24.40   33.31
  16  -2 -11   14.32   22.71
 -16   2 -11  -31.09   26.37
  16  -2 -11   62.77   34.19
 -16   2 -11   36.93   32.64
 -16  -3 -11   13.99   36.86
 -16  -3 -11  -25.69   35.31
  16   3 -11   -2.27   22.72
 -16   3 -11    2.67   20.03
 -16   3 -11    0.83   33.49
  16  -3 -11   16.75   32.39
 -16   3 -11    5.19   26.55
  16  -3 -11    4.52   23.12
 -16  -4 -11  -30.99   35.27
 -16  -4 -11    5.47   40.12
  16   4 -11   24.87   23.47
  16  -4  11  -32.93   37.31
 -16   4 -11   41.18   33.81
  16  -4 -11    8.12   30.86
 -16   4 -11    2.18   20.16
  16  -4 -11   14.20   25.28
 -16   4 -11  -10.09   26.45
 -16  -5 -11   25.50   39.90
  16   5 -11   14.55   24.63
 -16  -5 -11    4.62   37.94
  16  -5 -11   -6.18   30.41
 -16   5 -11   -5.60   27.00
  16  -5 -11   -5.86   27.04
 -16   5 -11   32.69   36.31
 -16   5 -11   -0.62   21.23
  16   6 -11   -8.27   18.82
 -16  -6 -11  -56.59   37.65
 -16   6 -11   23.62   20.75
  16   0 -12   38.55   24.16
 -16   0 -12   46.11   37.93
 -16   0 -12   23.17   32.62
 -16  -1 -12   51.35   38.42
 -16  -1 -12    5.52   33.69
  16   1 -12   15.77   24.22
  16  -1 -12   18.43   23.84
 -16   1 -12  -33.98   30.44
  16  -1 -12   22.56   46.30
 -16   1 -12   13.59   36.81
 -16  -2 -12  -26.19   35.27
 -16  -2 -12  -42.52   39.57
  16   2 -12   36.47   24.93
 -16   2 -12    9.47   28.93
  16  -2 -12   42.22   24.94
  16  -2 -12   22.83   36.45
 -16   2 -12   63.25   39.63
  16   3 -12    5.39   25.31
 -16  -3 -12  -20.38   39.95
 -16  -3 -12  -38.03   38.53
 -16   3 -12  -21.18   27.71
  16  -3 -12   45.67   26.64
  16  -3 -12   51.90   35.39
 -16   3 -12   -6.05   21.09
 -16   3 -12   23.66   36.85
 -16  -4 -12  -35.26   42.50
  17   0   0   16.47   16.12
 -17   0   0  -23.99   25.70
 -17   0   0    1.52   20.95
 -17   1   0  295.03   30.89
 -17   1   0  454.36   45.35
 -17  -1   0  381.58   44.00
 -17  -1   0  345.10   40.51
  17   1   0  373.38   30.44
 -17   1   0  354.87   40.18
  17   2   0   27.82   17.48
 -17  -2   0   14.29   22.52
 -17   2   0   56.44   26.09
 -17  -2   0    6.66   27.08
 -17   2   0   38.75   23.78
 -17   2   0   14.97   21.84
 -17  -3   0   37.56   29.25
 -17   3   0   73.46   25.84
 -17   3   0   49.95   36.78
 -17   3   0   64.62   22.99
  17   3   0   37.43   19.33
  17  -4   0  142.60   24.77
 -17   4   0  202.66   49.23
 -17  -4   0  164.15   34.65
 -17  -4   0  101.21   23.29
  17  -4   0  104.24   23.95
 -17   4   0  126.22   25.76
 -17   4   0  163.51   28.46
 -17  -5   0   85.67   29.14
 -17   5   0  123.78   23.58
  17   5   0   80.58   23.71
  17  -5   0  128.96   35.11
 -17   5   0  127.74   24.83
 -17   6   0   18.56   24.04
  17  -6   0   49.62   32.36
  17   6   0   10.46   23.69
  17  -6   0    0.16   27.26
 -17  -6   0   80.51   30.14
 -17  -6   0   18.31   22.51
  17   7   0    0.60   24.77
 -17  -7   0   13.96   23.45
  17  -7   0   27.99   31.57
 -17   7   0    1.99   26.10
  17  -7   0    0.54   26.30
  17  -8   0  124.03   35.83
 -17  -8   0   82.44   27.54
  17  -8   0   85.52   27.76
  17   8   0  112.36   25.56
 -17   9   0  -17.88   28.24
 -17  -9   0  -20.87   28.75
  17   9   0   -4.81   24.75
  17  -9   0  -18.40   33.33
  17  -9   0  -39.49   26.46
  17 -10   0   -2.92   29.26
 -17  10   0   60.84   30.32
  17 -10   0  -21.08   27.47
 -17 -10   0   36.52   34.06
  17  10   0   -5.07   28.73
  17  11   0  -24.27   27.70
 -17  11   0   24.63   31.76
  17 -11   0  -13.80   31.82
 -17 -11   0    3.86   38.82
 -17   0  -1  400.68   34.29
  17   0  -1  456.11   33.28
 -17   0   1  463.55   41.55
 -17   0   1  453.80   44.43
 -17   0  -1  425.86   42.38
 -17   0  -1  493.15   47.50
  17   0   1  400.69   33.11
 -17  -1  -1   34.66   13.71
 -17   1   1   44.99   21.54
  17   1  -1   34.83   16.81
 -17   1   1   22.67   25.35
 -17  -1  -1   -1.27   26.63
 -17  -1  -1   16.91   20.74
 -17   1  -1   34.01   21.89
 -17  -1   1   17.66   20.66
 -17   1  -1   27.20   19.61
  17   1   1   15.46   16.67
 -17  -1   1   13.61   26.71
 -17   1  -1   28.66   27.12
  17   2  -1   29.79   17.30
 -17   2   1   28.97   30.10
 -17  -2  -1   64.83   15.93
 -17  -2  -1   -6.91   23.10
 -17   2   1   23.12   13.76
 -17   2   1   36.47   25.98
 -17  -2  -1   16.38   27.61
  17   2   1   35.55   17.70
 -17   2  -1   11.57   21.92
 -17   2  -1   43.13   27.26
 -17  -2   1   17.66   20.17
 -17  -2   1  -10.22   26.93
 -17   2  -1   23.37   20.41
  17   3  -1   56.68   20.01
 -17  -3  -1   12.80   37.71
 -17   3   1   90.35   25.69
 -17  -3  -1   92.66   29.53
 -17   3   1   79.72   20.05
 -17   3  -1   98.93   27.33
 -17   3  -1   59.09   21.92
  17  -3  -1   30.64   28.80
 -17  -3   1   46.56   29.20
  17   3   1   34.19   19.03
 -17   3  -1   71.12   30.10
 -17  -4  -1   43.31   21.84
 -17  -4  -1   96.91   32.01
  17   4  -1   50.34   23.75
 -17   4   1   73.30   21.31
 -17   4   1   67.85   20.58
 -17   4  -1   82.54   29.81
 -17   4  -1   77.11   23.60
  17  -4  -1   21.74   22.32
 -17  -4   1   41.78   24.70
  17   4   1   55.27   22.30
 -17   4  -1  107.99   36.97
  17  -4  -1   76.58   44.82
 -17   5   1    7.14   21.02
  17  -5   1  -22.32   25.78
 -17  -5  -1  -26.68   33.39
 -17  -5  -1  -12.25   21.41
  17   5  -1    3.70   21.96
  17  -5  -1  -33.22   24.51
 -17   5  -1  -10.87   23.79
 -17  -5   1   -3.34   21.66
  17  -5  -1   -0.68   28.88
 -17  -5   1   65.28   26.58
 -17   5  -1    6.60   22.32
  17   5   1  -12.24   22.43
 -17   5  -1   11.24   26.05
  17  -6   1   67.34   38.61
 -17  -6  -1   22.60   23.14
 -17   6   1   51.63   23.79
  17   6  -1    3.91   23.15
 -17  -6  -1   55.60   29.50
  17   6   1   42.85   24.15
 -17  -6   1   85.95   31.04
  17  -6  -1   70.24   27.42
  17  -6  -1    2.79   25.07
 -17  -6   1   33.20   22.62
 -17   6  -1   51.99   21.53
  17  -7   1  101.49   40.67
  17   7  -1   89.63   25.90
 -17  -7  -1   63.88   25.70
  17  -7   1   51.59   27.79
 -17  -7  -1   83.06   36.23
 -17   7  -1  102.34   27.93
  17   7   1   69.52   26.30
  17  -7  -1   93.65   31.17
 -17  -7   1   76.08   25.15
  17  -7  -1   48.87   26.11
 -17   8   1    0.68   26.74
 -17  -8  -1   11.51   26.05
  17  -8   1  -37.36   26.80
  17  -8   1  -11.97   35.21
  17   8  -1   -5.76   22.69
  17  -8  -1  -29.87   25.30
 -17  -8   1   -5.37   26.06
  17   8   1   16.70   24.24
  17  -8  -1   31.88   32.45
 -17   8  -1   -7.06   26.94
  17  -9   1  -14.53   26.70
 -17   9   1  112.99   29.34
  17  -9   1   41.08   26.82
 -17  -9  -1   48.94   30.07
  17   9  -1   62.52   25.86
 -17   9  -1  113.70   29.87
  17  -9  -1   31.83   27.57
 -17  -9   1   80.22   30.29
  17  -9  -1   65.85   35.69
  17   9   1   41.99   26.80
  17 -10   1   38.99   32.14
 -17  10   1   14.17   30.67
  17 -10   1   -0.55   29.81
 -17 -10  -1   -3.07   33.17
  17  10  -1  -16.85   25.23
 -17 -10   1   -4.18   31.21
  17 -10  -1  -23.06   29.88
 -17  10  -1  -14.70   29.50
  17 -10  -1   12.05   30.04
  17  10   1  -14.57   27.26
 -17  11   1   -6.30   32.88
  17  11  -1   -1.60   29.70
  17 -11   1  -10.52   31.23
 -17 -11  -1   -3.89   39.13
  17 -11  -1   26.53   31.97
  17  11   1   18.23   31.61
 -17  11  -1   34.61   31.08
 -17   0  -2  -16.16   26.06
  17   0  -2   23.13   17.02
  17   0   2   10.83   16.44
 -17   0  -2   14.94   17.03
 -17   0   2   26.85   25.13
 -17   0   2   10.03   19.74
 -17   0  -2    3.54   22.06
  17   1  -2   68.18   17.65
 -17   1   2   91.35   26.82
 -17  -1  -2   74.15   18.16
 -17  -1  -2   40.44   22.29
 -17   1   2   51.77   21.59
 -17  -1  -2   19.46   25.20
 -17  -1   2   79.57   21.29
 -17   1  -2   72.66   26.97
 -17  -1   2   65.33   26.24
  17   1   2   38.68   17.76
 -17   1  -2   72.72   18.12
 -17   1  -2   22.87   21.49
  17   2  -2   -3.61   17.21
 -17   2   2   30.12   23.93
 -17   2   2   19.56   13.30
 -17  -2  -2   11.32   27.22
  17   2   2   -9.89   17.30
 -17   2  -2  -15.23   22.69
 -17  -2   2   -7.25   19.17
 -17  -2   2  -27.75   24.09
 -17   2  -2  -24.23   26.62
 -17   2  -2  -10.06   18.21
 -17  -3  -2  -18.47   21.45
 -17  -3  -2   -0.08   28.73
 -17   3   2    5.06   19.92
 -17   3   2   25.75   13.46
  17   3   2  -13.57   18.33
 -17   3  -2   -9.01   27.35
 -17  -3   2  -27.20   22.50
 -17   3  -2    0.49   46.87
 -17   3  -2  -13.86   19.75
  17  -3  -2  -41.44   23.06
 -17  -3   2   15.57   22.05
 -17  -4  -2   -1.02   30.15
 -17  -4  -2   10.43   21.81
  17   4  -2    0.40   20.81
 -17   4   2   10.62   13.63
  17  -4   2  -20.39   21.91
  17   4   2   18.77   21.14
 -17  -4   2   30.25   23.56
  17  -4  -2   35.80   23.68
  17  -4  -2  -14.61   23.33
 -17   4  -2   16.11   27.03
 -17   4  -2  -16.51   20.46
 -17  -5  -2   -6.37   33.85
  17   5  -2   30.77   22.39
 -17   5   2   13.53   15.00
  17  -5   2  -22.08   26.35
  17  -5   2  -44.62   23.83
 -17  -5  -2    3.12   21.64
 -17   5  -2   34.11   25.78
  17  -5  -2  -30.58   24.67
 -17   5  -2  -21.99   23.94
 -17  -5   2   41.84   27.99
 -17  -5   2   24.04   21.58
 -17   5  -2   19.52   22.76
  17   5   2   24.69   25.65
  17  -5  -2   30.19   24.25
  17   6  -2   81.24   24.34
 -17  -6  -2   55.07   38.70
 -17  -6  -2   34.67   23.20
  17  -6   2   84.23   30.77
 -17   6   2   68.86   20.43
  17  -6   2   17.03   27.99
 -17   6  -2   43.27   26.12
  17  -6  -2   51.48   27.26
  17  -6  -2   72.18   26.78
  17   6   2   49.64   25.16
 -17  -6   2   33.36   22.57
 -17   6  -2   85.34   24.85
 -17   6  -2  116.69   27.32
 -17  -7  -2  -21.86   24.07
 -17   7   2    5.66   23.41
 -17  -7  -2   38.60   33.63
  17  -7   2    2.32   34.56
  17   7  -2  -12.39   23.79
  17  -7   2  -20.42   26.66
 -17   7  -2  -29.30   26.35
  17   7   2  -10.37   25.49
  17  -7  -2   35.30   28.59
  17  -7  -2  -23.58   26.00
 -17  -7   2  -27.63   23.02
  17  -8   2   50.59   27.85
 -17  -8  -2   62.50   42.01
 -17  -8  -2   77.23   27.44
 -17   8   2   96.37   28.42
  17   8  -2   86.20   25.24
 -17  -8   2   36.96   26.11
  17  -8  -2   39.39   28.45
  17  -8  -2  123.76   32.84
 -17   8  -2  101.00   28.65
  17   8   2   90.62   27.97
  17  -9   2  -23.51   26.10
  17  -9   2    5.04   30.39
  17   9  -2    0.50   23.80
 -17   9   2   10.64   29.08
 -17  -9  -2  -21.81   28.52
  17   9   2  -16.18   26.59
 -17   9  -2  -24.26   27.97
  17  -9  -2   42.97   34.64
  17  -9  -2  -29.80   27.94
  17 -10   2  -14.68   29.77
  17  10  -2   -1.36   24.16
 -17  10   2    3.19   31.31
  17 -10   2  -57.39   31.64
 -17 -10  -2   33.49   35.21
  17  10   2  -14.73   28.97
  17 -10  -2   30.27   36.48
 -17  10  -2   51.41   30.08
  17 -10  -2   16.72   29.93
  17  11  -2  -10.21   25.99
 -17  11   2   28.37   33.53
 -17  11  -2   17.93   31.04
  17  11   2  -10.56   29.99
  17 -11  -2   -5.16   32.70
 -17   0  -3   -3.35   24.78
 -17   0  -3  -12.15   23.72
 -17   0  -3   25.02   18.75
  17   0   3   30.05   17.83
 -17   0   3    3.43   20.90
  17   0  -3  -10.95   17.09
 -17  -1  -3   40.75   20.63
  17   1  -3   35.55   17.85
 -17  -1  -3   14.40   25.97
  17   1   3   16.51   17.37
 -17   1  -3    6.30   18.02
 -17  -1   3   12.50   24.34
 -17  -1   3   16.62   18.65
 -17   1  -3  -10.38   25.38
 -17   1  -3    6.23   22.59
 -17  -2  -3  -19.79   25.39
 -17   2   3    9.92   14.82
 -17  -2  -3   19.51   19.50
 -17  -2  -3  -37.50   25.26
  17  -2  -3  -26.94   19.46
  17   2   3  -19.01   17.08
 -17  -2   3   -7.94   18.44
 -17   2  -3  -13.86   24.30
 -17   2  -3  -11.25   44.62
 -17   2  -3   14.51   17.67
  17   3  -3   58.41   19.82
 -17  -3  -3   72.74   17.38
 -17  -3  -3   54.53   21.50
 -17   3   3   25.03   14.91
 -17  -3  -3   49.70   28.91
 -17   3  -3   74.02   19.29
  17   3   3   61.05   19.68
  17  -3  -3   49.67   32.20
  17  -3  -3   75.88   20.51
 -17   3  -3   16.42   39.16
 -17   3  -3   72.32   28.71
 -17  -3   3   42.51   21.05
 -17  -4  -3  -34.99   29.57
 -17  -4  -3  -17.62   20.57
 -17   4   3    6.60   14.48
  17   4  -3    1.49   20.65
  17  -4  -3  -33.72   23.78
 -17   4  -3  -25.00   19.88
 -17   4  -3   10.77   27.46
  17  -4  -3   -6.49   21.91
 -17  -5  -3  134.45   35.14
  17   5  -3   78.20   23.63
  17  -5   3  149.17   29.96
  17  -5  -3  100.00   25.90
 -17   5  -3  126.56   29.87
 -17   5  -3  125.92   27.37
 -17   5  -3  114.48   24.45
 -17   6   3   11.30   15.45
 -17  -6  -3  -73.84   37.92
 -17  -6  -3  -39.03   24.27
  17   6  -3  -32.03   22.11
  17  -6   3    2.69   30.05
  17  -6   3  -46.51   26.25
  17  -6  -3  -32.64   25.80
 -17   6  -3  -18.93   23.72
 -17  -6   3  -28.78   21.49
  17   6   3  -46.99   25.60
  17  -6  -3  -12.30   23.51
 -17   6  -3    1.02   26.16
 -17   6  -3   16.85   23.87
  17   7  -3   94.63   25.05
 -17  -7  -3   62.20   26.41
  17  -7   3   68.80   28.75
 -17  -7  -3  192.77   49.51
  17  -7   3   47.43   24.05
 -17   7  -3   78.82   26.17
  17  -7  -3   87.77   26.82
  17   7   3   80.10   27.80
 -17   7  -3   99.87   25.12
 -17   7  -3  117.44   27.84
 -17  -7   3   91.24   23.35
  17  -8   3  -37.28   26.96
 -17   8   3    8.10   20.58
  17  -8   3  -32.10   26.89
  17   8  -3  -34.15   24.13
 -17  -8  -3  -29.22   27.11
  17  -8  -3  -30.66   24.10
  17  -8  -3   46.43   29.73
 -17   8  -3  -10.82   26.79
  17   8   3    8.98   28.10
  17  -9   3   34.78   37.81
 -17   9   3    6.16   21.43
  17   9  -3   -0.02   22.35
 -17  -9  -3   44.59   57.85
 -17  -9  -3    4.99   30.86
  17  -9   3   -1.05   27.15
 -17   9  -3   -0.46   27.94
  17  -9  -3  -14.93   27.17
  17  -9  -3   54.04   34.06
  17   9   3  -31.18   28.39
 -17  10   3   -4.62   23.40
  17  10  -3  -27.61   22.79
 -17 -10  -3  -32.44   32.97
  17 -10   3  -51.98   30.69
 -17  10  -3  -30.28   28.77
  17  10   3  -33.21   30.03
  17 -10  -3  -40.67   29.48
  17 -10  -3   11.36   36.65
 -17   0  -4  -17.84   33.64
 -17   0  -4    0.13   19.44
  17   0   4   16.55   14.70
 -17  -1  -4   65.81   21.53
 -17  -1  -4   60.94   28.89
  17   1  -4   37.02   19.85
 -17  -1  -4   23.25   24.84
  17  -1  -4    8.50   22.40
  17   1   4   58.68   18.69
 -17   1  -4   27.48   19.99
 -17  -2  -4  170.97   32.22
 -17  -2  -4  112.21   24.17
 -17  -2  -4  176.84   29.22
  17   2  -4  154.71   25.30
 -17   2  -4  153.62   30.11
 -17   2  -4  117.48   40.91
  17   2   4  174.75   24.66
 -17  -2   4  118.30   21.71
 -17   2  -4  161.67   25.79
  17  -2  -4  113.57   24.07
 -17  -3  -4   -5.11   34.40
  17   3  -4    4.44   18.82
 -17  -3  -4   13.61   17.51
 -17  -3   4   16.85   17.75
  17   3   4  -10.54   18.83
 -17   3  -4    6.10   19.03
 -17   3  -4  -23.81   26.07
  17  -3  -4    5.40   21.04
  17  -3  -4  -26.35   46.89
  17   4  -4  290.95   30.61
 -17  -4  -4  326.62   45.32
  17  -4  -4  363.11   34.98
 -17  -4   4  237.70   36.62
  17   4   4  315.31   31.87
  17  -4  -4  290.84   49.38
 -17   4  -4  259.01   31.99
 -17   4  -4  237.93   41.92
 -17   4  -4  329.16   56.79
 -17  -5  -4  -37.29   47.12
  17   5  -4   -8.88   22.17
  17  -5   4  -29.64   28.60
 -17  -5  -4  -19.72   23.22
  17  -5   4  -35.49   23.56
 -17   5   4    4.91   17.81
  17   5   4   19.92   26.87
 -17  -5   4    9.47   20.62
  17  -5  -4  -10.92   24.81
 -17   5  -4    5.99   27.00
 -17   5  -4   19.49   24.06
 -17   5  -4  -16.90   20.37
  17  -5  -4   45.65   22.96
  17  -6   4  129.41   30.47
 -17  -6  -4  193.07   44.37
  17   6  -4  176.16   30.58
 -17   6  -4  193.87   31.30
 -17   6  -4  186.58   31.78
 -17   6  -4  271.47   46.93
  17  -6  -4  282.43   48.28
  17  -7   4  -11.53   27.77
  17   7  -4   -5.09   23.06
 -17  -7  -4  -25.89   26.63
 -17  -7  -4  -55.86   47.04
  17  -7   4   -2.47   25.96
 -17   7   4    7.51   19.09
  17   7   4    5.11   28.03
 -17   7  -4  -11.49   24.53
 -17   7  -4   24.20   27.23
  17  -7  -4  -34.90   24.72
  17  -7  -4   27.45   26.19
 -17   7  -4  -30.34   23.38
 -17  -8  -4   -5.84   28.53
  17  -8   4  -20.05   29.42
  17  -8   4   -8.11   27.55
  17   8  -4   20.57   23.76
 -17   8   4  -38.68   21.50
 -17  -8  -4   33.98   49.15
  17  -8  -4  -15.09   24.66
 -17   8  -4   12.90   25.20
  17   8   4   -1.58   30.47
 -17  -9  -4  -24.46   31.38
  17   9  -4   10.33   24.20
 -17  -9  -4  118.74   52.34
 -17   9   4  -38.11   23.86
  17  -9   4  -23.82   28.05
  17  -9  -4  -18.59   28.48
  17  -9  -4    1.95   34.14
 -17   9  -4  -26.98   27.13
  17   9   4  -12.72   31.47
 -17 -10  -4   54.04   65.82
  17 -10   4   -4.57   32.17
  17  10  -4    5.56   24.30
 -17 -10  -4   -8.59   33.25
  17  10   4  -29.42   35.37
  17 -10  -4    7.87   36.55
  17 -10  -4    9.19   28.79
 -17  10  -4    2.13   27.94
 -17   0  -5   79.90   25.69
 -17   0  -5  104.73   26.96
 -17  -1  -5   85.33   27.58
 -17  -1  -5   40.55   21.59
  17   1  -5   57.51   19.39
 -17  -1  -5   60.32   22.93
 -17   1  -5   45.50   26.83
 -17   1  -5   43.97   30.60
  17  -1  -5   21.42   22.19
 -17   1  -5   79.90   21.06
  17   1   5   10.10   15.00
 -17  -2  -5   -7.21   21.20
  17   2  -5   -2.98   17.89
 -17  -2  -5   23.29   24.03
 -17  -2  -5  -13.93   26.30
 -17   2  -5   12.51   21.48
  17  -2  -5   -7.35   23.05
  17  -2  -5   15.72   19.28
  17   2   5    8.82   15.14
 -17   2  -5    2.18   26.30
 -17  -3  -5  411.40   35.29
  17   3  -5  372.75   32.80
 -17  -3  -5  439.69   48.54
 -17  -3  -5  441.89   43.64
  17  -3  -5  411.69   36.10
 -17   3  -5  318.26   33.92
  17   3   5  364.36   32.72
  17  -3  -5  336.45   43.52
 -17   3  -5  317.02   42.89
 -17   3  -5  368.82   74.52
 -17  -4  -5    3.51   31.28
  17   4  -5   26.36   19.68
 -17  -4  -5   12.20   22.69
  17  -4   5  -15.01   22.90
  17  -4  -5   58.44   22.85
 -17   4  -5   27.90   27.20
 -17   4  -5   32.01   20.27
  17   4   5   27.27   21.29
  17  -4  -5    7.03   26.11
 -17   4  -5   38.48   25.92
 -17  -5  -5  506.74   51.77
  17  -5   5  327.04   53.98
 -17  -5  -5  466.07   49.71
  17   5  -5  456.08   36.79
  17   5   5  468.53   38.65
 -17   5  -5  361.75   35.77
 -17   5  -5  515.47   52.29
  17  -5  -5  474.17   52.76
  17  -5  -5  475.21   40.47
 -17   5  -5  363.55   44.85
 -17  -6  -5    6.70   24.91
  17  -6   5   -1.09   27.51
  17   6  -5   42.16   22.43
  17  -6   5   -6.11   25.40
 -17  -6  -5   -1.81   38.33
 -17   6  -5   20.82   27.73
 -17   6  -5   10.37   26.74
  17  -6  -5   72.09   24.80
 -17   6  -5    6.97   20.59
  17   6   5   26.13   28.75
  17  -6  -5   17.26   24.58
  17   7  -5   89.73   24.02
 -17  -7  -5   48.21   45.57
  17  -7   5   73.43   29.16
 -17  -7  -5   59.85   28.04
  17  -7   5   22.98   31.85
  17   7   5   69.12   30.79
  17  -7  -5   85.28   27.61
 -17   7  -5   69.58   28.49
 -17   7  -5   97.74   27.02
 -17   7  -5   40.09   22.84
  17  -7  -5   32.35   26.98
 -17  -8  -5  -11.94   29.16
 -17  -8  -5  -29.53   52.83
  17   8  -5  -16.31   23.33
 -17   8   5  -23.48   26.56
  17  -8   5    2.19   28.34
  17   8   5   -2.66   31.94
  17  -8  -5   -9.13   26.58
 -17   8  -5   -8.52   26.74
  17  -8  -5   31.50   29.90
 -17   8  -5  -23.55   23.74
 -17   8  -5   15.28   26.24
 -17  -9  -5   -9.51   31.62
  17   9  -5   -6.85   24.45
 -17  -9  -5   36.48   49.06
  17  -9   5   -2.46   29.84
  17  -9  -5  -26.51   26.98
 -17   9  -5   -4.73   25.73
  17   9   5  -21.79   34.48
  17  -9  -5    3.59   34.27
 -17 -10  -5   84.27   63.15
 -17 -10  -5  -15.93   36.14
 -17  10   5  -59.33   35.26
  17  10  -5   22.94   25.12
  17 -10   5  -33.19   32.22
  17  10   5  -28.59   34.18
 -17  10  -5   -2.58   28.16
  17 -10  -5  -39.88   31.41
 -17   0  -6  -15.69   22.77
  17   0  -6  -13.61   23.22
 -17   0  -6   -1.56   22.12
 -17   0  -6   -9.54   26.17
 -17  -1  -6   54.44   22.58
 -17  -1  -6   42.46   22.60
 -17  -1  -6   48.65   26.54
  17   1  -6   60.84   19.49
 -17   1  -6   46.12   24.38
  17   1   6   14.68   18.33
 -17   1  -6   80.65   26.39
 -17   1  -6   39.98   27.31
  17  -1  -6   58.30   24.44
  17  -1  -6   71.58   19.98
 -17  -2  -6  242.46   38.48
 -17  -2  -6  317.72   45.32
 -17  -2  -6  269.42   29.76
  17   2  -6  255.25   28.55
  17  -2  -6  191.75   32.16
 -17   2  -6  198.02   29.45
  17  -2  -6  274.62   31.95
 -17   2  -6  196.32   37.76
 -17  -3  -6    1.68   25.16
 -17  -3  -6   -0.44   29.45
  17   3  -6   -6.22   18.89
 -17  -3  -6   -9.60   22.87
  17  -3  -6  -16.34   26.65
 -17   3  -6  -13.28   19.96
  17  -3  -6   17.18   21.92
 -17   3  -6  -15.21   25.61
 -17   3  -6    1.56   24.63
  17   3   6   11.79   15.83
 -17  -4  -6  624.09   51.04
  17   4  -6  580.35   41.24
  17  -4   6  467.20   56.42
 -17  -4  -6  636.12   55.31
 -17   4  -6  515.03   41.34
  17  -4  -6  609.58   58.19
 -17   4  -6  525.18   49.26
  17  -4  -6  566.31   44.32
 -17   4  -6  576.42   57.46
  17  -5   6   16.30   25.26
 -17  -5  -6    9.23   34.99
 -17  -5  -6   12.94   26.50
  17   5  -6   11.25   21.14
  17  -5   6   -1.55   26.90
  17  -5  -6   15.31   25.20
  17  -5  -6   68.03   23.13
  17   5   6    5.51   18.50
 -17   5  -6   31.84   28.39
 -17   5  -6   18.18   20.12
 -17   5  -6   39.07   27.66
  17   6  -6  188.88   28.60
 -17  -6  -6  103.25   28.88
 -17  -6  -6  119.76   32.04
  17  -6   6  141.49   31.45
 -17  -6  -6  177.36   40.62
 -17   6  -6  174.75   30.93
  17  -6  -6  234.20   33.99
 -17   6  -6  169.64   27.48
 -17   6  -6  146.52   29.61
  17   6   6  107.65   28.86
 -17  -7  -6   18.87   42.45
  17  -7   6   47.64   29.75
  17   7  -6   53.60   23.45
 -17  -7  -6   38.78   28.87
 -17   7  -6   65.29   28.01
  17   7   6   47.33   32.12
 -17   7  -6   46.65   22.09
 -17   7  -6   48.37   28.43
  17  -7  -6   30.82   25.33
  17  -7  -6  121.05   27.36
 -17  -8  -6   -5.33   28.33
  17  -8   6   -6.93   30.00
 -17  -8  -6  -21.45   48.71
  17   8  -6  -13.24   23.21
  17  -8  -6   76.44   30.16
  17  -8  -6    0.21   26.17
 -17   8  -6   -4.67   23.41
 -17   8  -6   20.31   27.09
 -17   8  -6  -22.58   27.82
  17   8   6    7.26   34.08
 -17  -9  -6    4.07   31.07
 -17  -9  -6  -11.24   60.47
  17  -9   6   -3.45   31.47
  17   9  -6   -0.67   24.05
  17  -9  -6  -23.93   27.37
  17  -9  -6  -12.51   34.71
  17   9   6   31.99   38.82
 -17   9  -6  -19.44   24.77
 -17   0  -7   35.59   21.92
  17   0  -7   36.69   25.35
 -17   0  -7   32.27   24.63
 -17   0  -7   29.34   26.41
  17   1  -7   54.04   28.55
 -17  -1  -7   49.82   28.85
 -17  -1  -7   45.22   22.97
 -17  -1  -7   43.05   24.90
  17  -1  -7   83.27   21.91
  17  -1  -7   55.24   27.22
 -17   1  -7   26.29   26.24
 -17   1  -7   31.52   25.53
 -17   1  -7   43.02   21.47
 -17  -2  -7   18.15   29.01
 -17  -2  -7   32.90   26.31
  17   2  -7  -40.65   19.33
  17   2  -7   19.80   26.72
 -17  -2  -7  -13.69   29.41
 -17   2  -7    1.33   26.84
  17  -2  -7   42.37   22.18
 -17   2  -7  -28.73   26.01
 -17   2  -7  -11.08   21.39
 -17  -3  -7  553.96   48.84
  17   3  -7  508.63   38.25
 -17  -3  -7  549.63   55.27
 -17   3  -7  518.29   55.14
  17  -3  -7  498.81   41.35
 -17   3  -7  513.43   46.45
  17  -3  -7  534.72   57.18
 -17   3  -7  475.27   39.40
 -17  -4  -7   10.11   30.91
 -17  -4  -7   -0.21   27.04
 -17  -4  -7   33.42   26.84
  17  -4   7   -9.44   24.40
  17   4  -7   12.17   18.92
 -17   4  -7   23.78   27.12
 -17   4  -7   25.75   20.39
  17   4   7   -9.59   19.52
  17  -4  -7   23.06   21.78
  17  -4  -7   19.51   25.28
 -17   4  -7  -28.92   27.10
 -17  -5  -7  210.61   38.82
  17  -5   7  171.94   31.95
 -17  -5  -7  261.66   49.15
  17   5  -7  245.59   28.44
 -17   5  -7  232.37   38.82
  17  -5  -7  253.84   34.16
 -17   5  -7  183.49   32.18
 -17   5  -7  247.48   29.07
  17  -5  -7  183.64   30.81
 -17  -6  -7   80.41   27.94
 -17  -6  -7   40.88   37.47
  17   6  -7   93.70   22.65
  17  -6   7   62.92   30.98
 -17  -6  -7   18.19   28.08
 -17   6  -7   83.50   29.18
  17  -6  -7  110.02   26.64
 -17   6  -7   87.95   21.22
  17   6   7    9.50   29.45
  17  -6  -7   73.32   28.01
 -17   6  -7   75.70   28.38
  17   7  -7  -11.76   22.33
  17  -7   7   21.55   31.11
 -17  -7  -7  -10.83   28.28
 -17  -7  -7  -23.90   44.49
 -17   7  -7   39.99   27.47
  17  -7  -7   69.96   27.51
  17   7   7   22.52   25.82
 -17   7  -7   -0.60   20.21
  17  -7  -7  -20.76   27.85
 -17   7  -7  -18.62   27.33
 -17  -8  -7   -9.47   30.56
  17   8  -7   28.55   23.42
  17  -8   7  -33.57   31.66
 -17  -8  -7  -26.13   51.05
  17   8   7    9.51   27.67
  17  -8  -7  -42.80   27.75
 -17   8  -7   37.17   28.09
 -17   8  -7  -26.64   30.07
  17  -8  -7   -1.62   30.87
 -17   8  -7  -10.53   21.98
  17   9  -7  -14.86   24.09
 -17  -9  -7  -24.69   32.62
 -17   9  -7  -30.49   24.06
  17   9   7   40.64   30.94
 -17   0  -8  -20.88   27.38
 -17   0  -8  -17.77   20.88
  17   0  -8   21.94   28.72
  17   0  -8    9.87   20.60
 -17   0  -8  -27.00   24.94
 -17  -1  -8   10.64   30.21
 -17  -1  -8   -5.83   25.48
  17   1  -8   44.00   28.81
 -17  -1  -8   -2.44   21.98
 -17   1  -8  -15.62   26.21
 -17   1  -8   -8.74   27.20
  17  -1  -8   -4.31   36.06
  17  -1  -8   24.48   21.54
 -17   1  -8   -7.60   20.57
 -17  -2  -8  122.60   29.59
  17   2  -8  162.62   32.56
 -17  -2  -8  227.76   38.75
 -17   2  -8  173.89   29.14
  17  -2  -8  260.99   51.96
  17  -2  -8  200.57   30.37
 -17   2  -8  175.67   27.85
 -17   2  -8  163.34   29.14
  17   3  -8   77.92   32.73
 -17  -3  -8  -21.41   25.37
  17   3  -8    7.63   19.24
 -17  -3  -8  -12.87   30.13
  17  -3  -8  -26.61   26.15
 -17   3  -8   12.31   26.87
 -17   3  -8  -34.42   26.11
  17  -3  -8   12.27   20.85
 -17   3  -8  -19.66   20.58
 -17  -4  -8  283.42   52.22
 -17  -4  -8  242.31   44.62
  17   4  -8  251.96   29.03
  17  -4   8  269.66   52.93
 -17   4  -8  246.16   30.51
  17  -4  -8  297.50   51.34
 -17   4  -8  290.90   51.81
 -17   4  -8  278.92   38.84
  17  -4  -8  259.35   33.67
 -17  -5  -8   38.23   35.80
  17   5  -8   65.03   19.69
 -17  -5  -8   36.69   29.00
  17  -5   8   23.94   30.78
  17  -5  -8   91.04   24.84
 -17   5  -8   66.00   29.72
  17  -5  -8   38.78   27.01
 -17   5  -8   70.05   21.68
 -17   5  -8   56.67   27.53
  17  -6   8    9.48   32.00
 -17  -6  -8    5.69   30.25
 -17  -6  -8   14.36   40.80
  17   6  -8   34.25   20.67
 -17   6  -8   24.02   20.87
  17  -6  -8   15.36   29.37
 -17   6  -8   42.79   28.42
 -17   6  -8   28.48   28.41
  17   6   8    1.88   31.35
  17  -6  -8   49.55   25.63
 -17  -7  -8  -20.68   28.55
  17   7  -8   12.43   22.18
 -17  -7  -8    1.00   41.68
  17  -7   8  -29.62   32.07
 -17   7  -8   19.76   28.20
 -17   7  -8   20.49   20.13
  17  -7  -8  -15.00   27.50
 -17   7  -8  -42.11   31.41
  17   7   8   10.04   29.62
  17  -7  -8   32.06   29.32
 -17  -8  -8   49.23   47.47
 -17  -8  -8  -14.92   32.55
  17  -8   8   42.94   32.19
  17   8  -8    5.36   23.87
 -17   8  -8   20.80   28.67
  17  -8  -8  -17.28   28.63
 -17   8  -8   46.39   32.30
  17   8   8    4.29   34.04
 -17   8  -8    0.46   21.72
  17  -8  -8   26.09   32.96
 -17   0  -9  -23.28   28.50
 -17   0  -9   -7.22   21.40
 -17   0  -9  -28.88   27.98
  17   0  -9   -3.11   21.04
  17   0  -9   -9.67   32.18
  17   1  -9   11.70   31.79
  17   1  -9   40.30   21.14
 -17  -1  -9    0.35   28.33
 -17  -1  -9   11.12   30.51
 -17   1  -9   -8.51   20.68
 -17   1  -9   16.78   29.19
  17  -1  -9  -12.00   46.59
  17  -1  -9   34.57   21.70
 -17   1  -9  -24.28   27.66
  17   2  -9   31.96   34.00
  17   2  -9   -1.54   20.21
 -17  -2  -9  -21.22   30.04
 -17  -2  -9   33.47   31.24
 -17   2  -9  -39.91   27.99
 -17   2  -9   -2.41   20.88
  17  -2  -9    3.04   20.86
  17  -2  -9   11.25   30.15
 -17   2  -9  -32.51   26.62
 -17  -3  -9   30.25   30.19
 -17  -3  -9  116.96   34.18
  17  -3  -9   72.42   29.46
 -17   3  -9   70.95   22.55
 -17   3  -9   66.79   29.39
  17  -3  -9   86.57   23.62
 -17   3  -9   52.82   28.31
  17   4  -9    5.65   18.78
  17  -4   9   -8.18   30.06
 -17  -4  -9   31.86   36.23
 -17  -4  -9  -20.64   30.63
  17  -4  -9   30.05   23.50
 -17   4  -9   43.69   21.78
 -17   4  -9  -11.17   27.23
  17  -4  -9    1.13   28.04
 -17   4  -9   36.39   30.12
  17   5  -9   35.86   19.54
  17  -5   9   18.69   33.58
 -17  -5  -9   25.09   29.68
 -17  -5  -9   71.54   37.57
 -17   5  -9   41.72   31.06
  17  -5  -9   50.06   24.19
 -17   5  -9   44.36   21.17
  17  -5  -9   25.57   28.92
 -17   5  -9   25.92   27.92
 -17  -6  -9    9.08   43.40
  17  -6   9   -4.40   33.70
  17   6  -9   -3.56   19.68
 -17  -6  -9  -23.22   30.20
 -17   6  -9  -22.72   28.22
 -17   6  -9   41.33   32.67
 -17   6  -9   -2.96   20.78
  17  -6  -9   20.63   27.92
  17  -6  -9   -0.69   30.19
 -17  -7  -9   22.20   43.93
  17   7  -9   -6.34   20.79
 -17  -7  -9    7.28   31.14
 -17   7  -9   -2.19   20.47
  17  -7  -9    0.55   28.86
 -17   7  -9   33.50   29.42
 -17   7  -9  -11.35   32.59
  17  -7  -9   -4.78   29.94
 -17   0 -10   -5.13   32.60
  17   0 -10   35.81   22.05
 -17   0 -10   -2.65   30.64
  17   1 -10   30.31   22.30
 -17  -1 -10  -20.12   32.93
 -17  -1 -10   -5.25   32.96
  17   1 -10  -13.76   37.36
 -17   1 -10  -15.75   31.03
  17  -1 -10    5.80   34.54
  17  -1 -10    6.82   21.50
 -17   1 -10   -5.29   21.25
 -17   1 -10  -22.30   28.14
 -17  -2 -10  -19.85   31.39
  17   2 -10   18.50   22.69
 -17  -2 -10    1.23   32.48
  17  -2 -10   27.24   30.82
 -17   2 -10  -18.81   31.30
 -17   2 -10  -21.12   27.30
  17  -2 -10   20.37   22.63
 -17   2 -10    0.56   21.46
  17   3 -10  -13.53   22.61
 -17  -3 -10   -7.66   35.58
 -17  -3 -10  -38.56   32.85
 -17   3 -10   -4.71   27.64
  17  -3 -10   20.15   23.53
 -17   3 -10   15.94   21.65
 -17   3 -10   -8.85   31.62
  17  -3 -10    6.29   30.09
 -17  -4 -10   -4.69   32.36
  17  -4  10   14.89   34.83
  17   4 -10   12.52   23.03
 -17  -4 -10   32.03   36.24
 -17   4 -10  -28.33   26.59
  17  -4 -10   18.91   30.63
 -17   4 -10   17.53   22.19
  17  -4 -10   19.06   23.50
 -17   4 -10   43.06   33.03
  17  -5  10   -1.77   36.22
 -17  -5 -10  -17.05   35.27
  17   5 -10   10.24   19.47
 -17  -5 -10    2.05   41.20
 -17   5 -10  -15.28   27.85
  17  -5 -10    8.66   26.23
 -17   5 -10    4.75   21.92
  17  -5 -10    0.08   29.97
 -17   5 -10   53.04   34.97
  17   6 -10    7.65   18.90
 -17  -6 -10  -15.28   41.95
 -17  -6 -10   45.66   36.37
 -17   6 -10   28.36   34.80
 -17   6 -10  -11.30   21.26
  17  -6 -10   -4.95   29.70
 -17   6 -10  -21.53   28.79
  17   0 -11   65.69   44.43
 -17   0 -11   -6.48   32.17
 -17   0 -11  -21.96   35.19
  17   0 -11   47.69   23.68
  17   1 -11   18.04   23.18
 -17  -1 -11   26.89   33.28
 -17  -1 -11   13.78   35.03
  17  -1 -11   46.95   36.10
 -17   1 -11   21.17   35.85
  17  -1 -11   30.50   23.20
 -17   1 -11   -2.74   29.48
  17   2 -11    2.86   23.51
 -17  -2 -11   -7.98   34.88
 -17  -2 -11   21.38   36.33
  17  -2 -11   86.84   35.43
 -17   2 -11  -16.27   21.94
 -17   2 -11    7.47   28.59
 -17   2 -11   -9.22   32.86
  17  -2 -11   36.27   24.07
 -17  -3 -11    4.19   39.44
  17   3 -11   23.37   24.19
 -17  -3 -11    8.06   36.12
  17  -3  11  -19.97   36.94
 -17   3 -11   -3.08   27.40
  17  -3 -11   28.08   24.59
 -17   3 -11    1.45   22.46
  17  -3 -11   72.78   33.69
 -17   3 -11   15.02   35.32
 -17  -4 -11  -19.34   39.65
 -17  -4 -11    3.06   37.05
  17  -4  11  -58.54   39.66
  17   4 -11   16.07   25.21
 -17   4 -11    5.68   35.18
  17  -4 -11    4.60   26.85
 -17   4 -11    0.42   27.48
  17  -4 -11  -13.04   32.53
 -17   4 -11   -3.12   22.45
 -17   0 -12  -24.83   34.70
 -17  -1 -12    5.14   35.27
 -17   1 -12   19.79   32.05
 -18   0   0 1040.15   68.60
  18   0   0  926.83   57.76
 -18   0   0  894.98   64.84
 -18  -1   0   89.72   24.02
 -18   1   0  122.12   30.14
 -18   1   0  123.57   21.28
 -18  -1   0  113.72   31.38
  18   1   0  111.99   20.06
 -18  -1   0  164.60   25.98
 -18   1   0   69.40   22.75
 -18   2   0  230.64   45.02
 -18  -2   0  232.32   34.76
  18   2   0  202.19   27.16
 -18   2   0  212.81   37.96
 -18  -2   0  231.34   42.26
  18  -3   0   30.80   24.77
 -18  -3   0   62.87   23.05
 -18  -3   0   95.80   32.31
 -18   3   0  113.97   46.55
 -18   3   0   77.91   24.21
  18   3   0   64.16   27.30
 -18   4   0   13.33   22.52
 -18  -4   0  -13.54   31.06
  18  -4   0   22.10   24.25
  18  -4   0  -32.14   24.19
  18   4   0   -3.77   22.41
 -18  -4   0   -6.07   21.87
 -18   4   0   17.73   24.47
 -18   4   0   25.16   27.72
 -18  -5   0   -0.38   22.63
 -18   5   0   -9.52   23.16
  18   5   0   -0.76   23.96
 -18   5   0   18.21   21.50
  18  -5   0  -14.63   27.62
 -18  -5   0   32.91   28.12
  18   6   0   45.32   25.55
  18  -6   0   -3.96   27.98
 -18  -6   0   32.14   23.09
 -18   6   0   60.97   34.04
 -18  -6   0   20.88   33.55
  18  -6   0   45.15   30.86
  18  -7   0   63.68   28.16
 -18  -7   0   57.64   25.84
  18   7   0   37.00   26.85
  18  -7   0   69.13   33.55
 -18   7   0   68.22   29.11
 -18  -8   0    5.64   27.48
  18   8   0    2.54   28.08
  18  -8   0  -31.30   26.99
  18  -8   0   20.13   36.15
 -18   8   0   -6.35   29.35
 -18  -9   0   43.52   31.25
  18   9   0   53.03   28.68
  18  -9   0    0.87   31.39
  18  -9   0   38.09   27.63
 -18   9   0   80.61   30.66
  18  10   0    2.03   27.23
  18 -10   0   20.37   30.25
 -18 -10   0    0.71   36.53
  18 -10   0   -1.46   31.01
 -18  10   0   13.11   31.56
 -18   0  -1   74.18   29.94
  18   0   1   67.69   19.55
 -18   0  -1   26.01   22.08
 -18   0   1   48.48   22.98
  18   0  -1   49.92   19.22
 -18   0  -1   54.11   15.69
 -18   0   1   66.22   27.63
 -18  -1  -1  626.36   53.91
 -18  -1  -1  505.31   49.12
 -18   1   1  529.03   47.32
  18   1  -1  579.92   40.51
 -18   1   1  582.27   52.75
 -18   1  -1  563.15   49.90
 -18  -1   1  558.01   48.09
 -18  -1   1  602.40   51.45
 -18   1  -1  620.97   55.20
  18   1   1  547.56   40.00
 -18  -2  -1   50.46   32.05
 -18   2   1   72.82   16.51
 -18   2   1   48.08   22.31
 -18  -2  -1   23.80   21.84
 -18   2   1   66.92   28.76
 -18  -2   1   89.07   30.81
 -18   2  -1  119.28   51.97
  18   2   1   65.48   19.99
 -18   2  -1   29.71   23.65
 -18   2  -1  102.87   23.47
 -18  -2   1   26.39   22.76
 -18   3   1   42.15   14.86
 -18  -3  -1  -40.37   32.94
 -18   3   1   -0.96   33.42
  18   3  -1    8.91   20.54
 -18   3   1  -33.37   20.91
 -18   3  -1   -7.43   23.64
 -18   3  -1    9.26   28.56
 -18  -3   1   -6.16   21.25
 -18  -3   1    9.62   30.55
  18   3   1  -24.33   24.67
 -18   3  -1    2.69   23.79
 -18   4   1   21.74   21.75
  18  -4   1   -3.77   22.74
 -18  -4  -1   15.39   21.75
 -18  -4  -1   39.36   35.07
 -18   4   1   47.35   15.09
  18   4  -1   31.68   22.16
 -18   4  -1   35.61   24.02
  18  -4  -1   40.17   24.26
 -18   4  -1   21.86   25.78
 -18   4  -1   72.21   28.96
  18   4   1   31.47   23.01
 -18  -4   1   26.38   25.23
 -18  -4   1   -1.33   21.84
  18  -4  -1  -12.97   24.55
  18  -5   1  -31.34   26.01
 -18  -5  -1   37.59   36.19
  18   5  -1    9.32   24.31
  18  -5   1    6.45   29.30
 -18  -5  -1   -0.52   22.70
  18  -5  -1   11.47   26.69
 -18  -5   1   -5.97   22.27
 -18   5  -1   26.13   29.76
  18   5   1   -0.51   24.93
  18  -5  -1   -4.43   26.42
 -18  -5   1   -1.04   27.84
 -18   5  -1   39.52   22.60
 -18   5  -1   55.86   27.64
 -18  -6  -1    4.15   23.85
 -18   6   1   30.57   25.02
  18  -6   1    6.41   29.30
  18   6  -1   17.91   25.04
 -18  -6  -1  104.82   32.83
  18  -6   1   55.44   32.52
  18  -6  -1   -1.40   26.79
  18  -6  -1   16.25   28.02
 -18   6  -1   67.38   21.76
 -18  -6   1    2.59   24.20
 -18  -6   1   37.28   34.44
 -18   6  -1   20.08   27.93
  18   6   1   33.35   25.77
  18  -7   1    7.29   34.74
 -18  -7  -1   16.80   25.59
 -18   7   1   49.32   28.25
 -18  -7  -1   90.04   41.08
  18  -7   1   -6.23   27.71
  18   7  -1   11.52   26.77
  18   7   1   28.31   27.40
  18  -7  -1  -30.12   26.37
  18  -7  -1   27.22   32.20
 -18   7  -1   34.35   28.50
 -18  -7   1   36.08   26.00
  18  -8   1   45.86   28.75
  18   8  -1   83.03   28.48
 -18  -8  -1  148.42   65.23
 -18  -8  -1   49.38   28.39
 -18   8   1  101.52   29.97
  18  -8   1  142.20   36.65
  18   8   1   31.69   29.70
  18  -8  -1   24.70   27.14
 -18  -8   1   57.32   29.07
  18  -8  -1   93.41   35.71
 -18   8  -1   93.79   30.18
  18  -9   1   23.56   28.37
 -18   9   1   39.09   30.84
  18  -9   1  -28.37   26.76
  18   9  -1  -15.13   27.48
 -18  -9  -1   12.97   32.08
 -18   9  -1   -1.39   30.63
  18   9   1  -28.10   28.86
 -18  -9   1  -11.90   31.42
  18  -9  -1   14.51   35.59
  18  -9  -1  -34.60   26.55
 -18 -10  -1    0.15   36.36
  18 -10   1    2.24   31.19
  18 -10   1   12.87   31.33
 -18  10   1   23.14   33.38
  18  10  -1   32.14   29.39
 -18 -10   1   39.21   33.24
 -18  10  -1   10.70   31.33
  18 -10  -1   -7.16   30.37
  18 -10  -1   -5.43   28.83
  18  10   1   -5.79   29.51
 -18   0   2  297.41   42.78
 -18   0  -2  245.03   29.38
 -18   0   2  279.94   37.39
  18   0  -2  318.31   30.79
 -18   0  -2  319.48   46.48
  18   0   2  275.97   28.92
 -18   0  -2  326.16   42.02
 -18  -1  -2   -0.01   20.68
 -18   1   2   21.65   26.57
 -18  -1  -2  -16.44   29.66
  18   1  -2   17.76   31.84
 -18   1   2   11.70   20.66
 -18  -1   2   -4.57   27.04
 -18   1  -2    4.68   20.46
 -18   1  -2   -5.93   23.12
 -18  -1   2   22.98   21.61
  18   1   2    4.14   18.50
  18   2  -2   76.85   20.07
 -18  -2  -2   44.80   29.98
 -18   2   2   34.42   17.58
 -18   2   2   45.43   22.17
 -18  -2  -2   12.83   22.09
 -18  -2  -2   56.38   17.11
 -18   2  -2   76.69   22.00
 -18  -2   2   62.25   26.85
  18  -2  -2   16.18   24.51
 -18  -2   2   51.32   21.69
 -18   2  -2  125.41   32.15
 -18   2  -2   51.88   24.25
  18   2   2   33.60   19.94
 -18   3   2   32.26   17.02
 -18  -3  -2  -41.89   30.86
  18   3  -2  -22.26   20.33
 -18  -3   2  -41.29   22.04
 -18  -3   2    8.30   21.10
  18  -3  -2  -33.92   23.69
 -18   3  -2   -8.78   21.68
 -18   3  -2   -2.80   23.72
  18   3   2  -11.48   20.60
 -18   3  -2  -14.31   27.61
 -18  -4  -2  -28.65   35.36
 -18  -4  -2  -31.34   21.70
  18   4  -2   13.52   22.11
 -18   4  -2   -7.73   24.17
 -18  -4   2   -5.32   21.87
  18   4   2  -21.80   23.66
 -18   4  -2   -8.09   24.41
 -18  -4   2   25.71   24.26
  18  -4  -2    7.99   24.20
 -18   4  -2   14.36   28.38
  18  -5   2   -9.08   34.91
 -18  -5  -2  -25.57   23.15
  18   5  -2   -0.72   24.02
 -18   5   2   24.54   15.79
 -18  -5  -2    0.23   39.45
  18   5   2   -3.10   25.19
  18  -5  -2  -28.00   25.44
 -18   5  -2    2.12   27.44
 -18   5  -2  -22.63   27.00
  18  -5  -2   37.01   25.98
 -18  -5   2  -22.11   22.69
 -18   5  -2    3.42   23.74
  18  -6   2   -1.51   33.93
  18   6  -2   27.87   25.03
 -18   6   2   35.61   16.68
 -18  -6  -2    3.65   24.56
  18  -6   2  -38.44   27.87
 -18  -6  -2   92.50   41.08
  18  -6  -2  -27.36   26.53
  18  -6  -2    6.18   27.44
 -18   6  -2   17.17   23.52
  18   6   2   -2.26   26.85
 -18   6  -2   35.59   27.40
 -18   6  -2  -24.18   27.99
 -18  -6   2  -17.65   24.01
  18  -7   2   13.34   28.76
 -18   7   2   17.68   23.19
  18   7  -2   77.57   27.14
 -18  -7  -2  106.70   40.80
 -18  -7  -2   47.13   27.04
  18  -7   2  132.37   36.82
 -18  -7   2   33.52   25.56
  18  -7  -2   53.03   28.71
  18   7   2   84.82   30.17
 -18   7  -2  101.52   30.08
  18  -7  -2   98.63   31.44
 -18  -8  -2  118.00   53.31
  18  -8   2   -0.59   28.68
  18   8  -2   -4.69   26.52
 -18   8   2   41.63   21.75
  18  -8   2   -9.33   28.00
 -18  -8  -2   -1.28   27.78
  18  -8  -2   10.85   33.41
 -18  -8   2  -33.51   26.51
 -18   8  -2  -33.28   28.39
  18   8   2  -44.08   29.38
  18  -8  -2  -37.33   27.73
  18  -9   2   11.01   28.03
  18   9  -2   24.00   27.15
 -18   9   2   24.18   25.79
 -18  -9  -2   30.54   31.54
  18  -9   2   59.52   31.23
  18  -9  -2   25.36   36.26
  18   9   2    5.11   30.99
  18  -9  -2  -10.53   28.25
 -18   9  -2   71.35   30.98
 -18 -10  -2    1.95   34.89
  18 -10   2   -0.49   31.86
  18  10  -2    1.97   27.68
  18 -10   2  -71.48   56.13
 -18  10   2   19.69   29.37
  18 -10  -2  -19.35   37.04
  18 -10  -2  -14.90   30.05
  18  10   2  -21.84   30.00
 -18  10  -2   18.83   31.52
 -18   0  -3   17.80   20.29
 -18   0  -3   -0.16   22.28
 -18   0   3   23.53   19.40
  18   0   3   27.21   19.11
 -18   0  -3    0.42   31.41
 -18  -1  -3   25.30   19.48
  18   1  -3   31.23   19.42
 -18  -1  -3  -18.47   22.98
 -18   1   3   10.92   19.09
 -18   1  -3   -8.28   28.91
 -18   1  -3    4.56   24.13
 -18   1  -3    5.35   18.66
  18   1   3    2.57   19.26
 -18  -1   3    4.16   20.32
 -18  -2  -3   -7.66   49.44
  18   2  -3   26.00   19.69
 -18  -2  -3  -18.43   21.23
 -18  -2  -3   50.97   16.65
  18   2   3  -21.60   19.46
 -18   2  -3   21.04   28.38
 -18   2  -3    7.37   19.66
  18  -2  -3  -13.03   27.69
 -18   2  -3    7.61   23.07
 -18  -2   3  -29.03   21.06
 -18  -2   3   20.24   20.50
  18   3  -3   14.66   19.65
 -18   3   3   38.46   17.29
 -18  -3  -3  -22.92   22.09
 -18  -3  -3  -44.50   54.31
 -18   3  -3   -2.01   29.47
  18  -3  -3  -29.97   23.57
 -18  -3   3   19.37   20.22
 -18  -3   3  -26.26   24.79
 -18   3  -3   16.01   24.84
  18  -3  -3   24.57   21.38
  18   3   3  -21.01   20.44
 -18   3  -3   -5.86   20.97
  18   4  -3   32.05   22.57
 -18  -4  -3   21.68   22.51
  18  -4   3   -3.19   23.57
 -18   4   3    0.64   17.20
  18  -4  -3   26.29   27.66
 -18   4  -3   63.58   29.51
  18  -4  -3  100.84   25.47
 -18  -4   3   27.49   20.89
 -18   4  -3   34.52   25.65
 -18  -4   3    3.12   28.00
 -18   4  -3   62.31   26.77
 -18   5   3   -7.85   17.62
  18   5  -3  -12.65   23.14
 -18  -5  -3  -17.36   23.79
  18  -5   3  -35.40   48.68
 -18   5  -3  -19.84   24.54
  18  -5  -3   -0.01   24.68
  18   5   3  -19.59   26.43
  18  -5  -3  -31.62   25.20
 -18   5  -3   -9.67   25.34
 -18   5  -3   -8.27   28.54
 -18  -5   3  -23.63   21.30
 -18  -6  -3  105.36   49.19
  18  -6   3   29.63   46.67
 -18   6   3   29.58   18.21
 -18  -6  -3   43.97   25.04
  18  -6   3   51.47   29.21
  18   6  -3   46.60   26.06
  18  -6  -3   88.58   26.05
 -18   6  -3  106.77   29.60
  18   6   3   73.43   28.56
 -18   6  -3   68.06   25.58
 -18   6  -3   48.61   26.38
  18  -6  -3   82.46   28.58
 -18  -6   3   49.00   22.73
 -18   7   3   34.32   19.88
  18   7  -3  -26.81   24.58
  18  -7   3   55.03   29.87
  18  -7   3  -29.93   28.52
 -18  -7  -3  -10.28   25.97
 -18  -7  -3   11.82   43.09
  18  -7  -3   15.73   26.29
  18   7   3  -27.52   29.56
 -18   7  -3  -16.49   24.28
  18  -7  -3   41.09   28.69
 -18  -7   3  -13.35   22.85
 -18   7  -3   34.17   27.81
 -18   7  -3  -23.30   27.53
  18  -8   3   10.39   28.27
 -18  -8  -3   75.28   51.70
  18   8  -3   -0.45   26.44
  18  -8   3    4.58   32.50
 -18   8   3  -33.97   22.61
 -18  -8  -3   18.89   28.27
  18  -8  -3   17.36   26.93
  18  -8  -3   70.09   32.34
 -18   8  -3   19.30   30.13
  18   8   3  -32.40   30.89
  18  -9   3  -83.71   43.09
  18  -9   3   13.20   28.36
 -18  -9  -3  -13.03   30.77
 -18   9   3   16.76   24.64
 -18  -9  -3  -34.32   62.15
  18   9  -3  -15.13   26.77
  18  -9  -3   68.35   36.75
  18  -9  -3  -27.01   29.26
  18   9   3   -9.43   33.77
 -18   9  -3    4.95   29.67
 -18 -10  -3  -28.42   34.54
  18  10  -3   29.48   27.92
 -18  10   3   -8.97   26.29
 -18  10  -3   12.28   31.66
  18  10   3  -41.64   34.44
 -18   0  -4   -7.93   22.33
 -18   0  -4  -16.21   27.41
 -18   0  -4   22.70   22.12
 -18  -1  -4    1.87   21.93
 -18  -1  -4   48.34   23.65
 -18  -1  -4   12.81   29.64
  18   1  -4   35.11   20.36
 -18   1  -4   14.56   27.61
  18   1   4   11.30   16.52
  18  -1  -4  -41.00   29.90
 -18   1  -4   22.00   22.12
 -18   1  -4   50.99   20.94
 -18  -2  -4  -17.29   22.49
 -18  -2  -4  -17.94   28.52
 -18  -2  -4   20.10   18.03
  18   2  -4   -7.32   19.01
 -18   2  -4  -23.81   24.46
 -18   2  -4  -40.46   27.96
 -18   2  -4    1.95   20.37
  18   2   4  -21.46   19.86
 -18  -3  -4  122.54   33.17
 -18  -3  -4  147.38   24.23
 -18  -3  -4   68.60   23.09
  18   3  -4   97.14   21.57
 -18  -3   4   71.97   20.44
 -18   3  -4   92.28   22.69
  18   3   4   77.89   22.60
 -18   3  -4   75.22   25.19
  18  -3  -4   58.72   27.06
 -18   3  -4  103.06   29.28
  18  -3  -4  123.61   24.24
 -18  -4  -4   33.90   34.89
 -18  -4  -4  -12.44   22.30
  18  -4   4  -18.86   24.46
  18   4  -4   11.64   21.34
 -18   4  -4   22.49   24.66
 -18  -4   4   -1.60   19.81
 -18   4  -4   14.30   21.60
  18  -4  -4   30.38   24.49
  18   4   4   27.91   24.49
 -18   4  -4   30.62   30.55
  18  -4  -4   -6.06   25.15
  18  -5   4  209.32   36.98
 -18  -5  -4  120.19   27.09
 -18  -5  -4  221.18   42.19
 -18   5   4  194.28   34.49
  18   5  -4  174.76   30.27
 -18   5  -4  128.64   26.08
 -18   5  -4  192.51   33.47
  18   5   4  206.23   33.78
  18  -5  -4  158.27   30.88
  18  -5  -4  263.19   34.92
 -18   5  -4  254.34   48.64
  18  -6   4    2.89   27.98
 -18  -6  -4  -18.48   25.96
 -18  -6  -4  -33.99   43.69
  18   6  -4  -13.30   24.19
  18  -6   4  -45.85   28.16
 -18   6   4   -2.88   21.22
 -18   6  -4    4.63   28.14
  18   6   4  -14.13   28.42
  18  -6  -4   -0.98   26.09
 -18   6  -4  -22.93   24.93
  18  -6  -4   15.88   25.96
 -18   6  -4   -1.94   26.53
  18  -7   4   42.56   39.84
  18  -7   4   52.15   30.03
 -18  -7  -4  111.04   51.90
 -18  -7  -4   32.80   27.54
  18   7  -4   36.72   25.41
  18  -7  -4   40.89   26.57
 -18   7  -4   72.87   27.13
 -18   7  -4   93.34   29.23
 -18   7  -4   20.69   26.25
  18   7   4   66.88   31.52
  18   8  -4  -37.21   25.32
 -18  -8  -4   -1.04   29.20
 -18  -8  -4   45.17   47.73
  18  -8   4  -21.73   28.99
 -18   8   4   34.69   28.79
  18   8   4  -25.11   31.87
 -18   8  -4  -19.34   28.04
  18  -8  -4  -19.69   27.00
  18  -8  -4   39.54   31.44
 -18   9   4   -3.37   27.38
  18  -9   4  -13.94   29.80
 -18  -9  -4  142.62   63.88
  18   9  -4   -5.43   27.00
 -18  -9  -4   -0.25   32.79
 -18   9  -4   16.41   29.86
  18   9   4  -25.23   36.57
  18  -9  -4   24.50   35.74
  18  -9  -4  -32.54   27.57
 -18   0  -5  -27.01   23.09
  18   0  -5  -16.41   24.69
 -18   0  -5   -6.57   23.69
 -18   0  -5  -25.36   27.86
 -18  -1  -5   45.73   24.43
 -18  -1  -5   -2.23   26.65
  18   1  -5   27.60   19.99
 -18  -1  -5   20.40   24.70
 -18   1  -5    1.49   23.92
  18   1   5   10.57   16.28
 -18   1  -5   10.19   27.97
 -18  -2  -5  191.66   32.81
 -18  -2  -5   91.87   24.28
 -18  -2  -5  176.89   28.62
  18   2  -5  179.68   27.30
 -18   2  -5  143.10   25.28
 -18   2  -5  142.42   30.02
  18  -2  -5  177.53   30.20
 -18   2  -5  123.32   26.24
  18  -2  -5  107.43   29.87
 -18  -3  -5  -22.30   30.95
 -18  -3  -5   32.25   21.86
  18   3  -5   14.32   20.25
 -18  -3  -5  -18.88   22.78
 -18   3  -5   13.74   28.48
 -18   3  -5    9.57   21.74
  18   3   5  -15.97   15.95
  18  -3  -5   -6.22   26.95
 -18   3  -5   10.95   24.97
  18  -3  -5   24.58   23.17
 -18  -4  -5  336.57   44.38
 -18  -4  -5  305.19   48.57
  18   4  -5  305.70   31.32
  18  -4  -5  316.41   36.26
 -18   4  -5  285.27   49.89
  18  -4  -5  299.72   52.49
 -18   4  -5  236.96   42.84
 -18   4  -5  224.23   31.28
  18   4   5  272.88   31.67
  18  -5   5    5.97   24.46
 -18  -5  -5   20.11   37.49
 -18  -5  -5  -16.87   25.40
  18  -5   5    0.70   27.38
  18   5  -5   44.20   23.06
  18  -5  -5   19.58   26.04
  18   5   5    8.39   27.20
 -18   5  -5   16.02   28.56
 -18   5  -5   16.16   21.44
 -18   5  -5   17.74   25.86
  18  -5  -5   66.39   25.19
  18  -6   5   83.92   31.31
  18   6  -5  154.98   26.91
 -18  -6  -5  146.64   43.87
 -18  -6  -5  117.41   28.28
 -18   6  -5  151.64   31.93
  18   6   5  138.83   32.00
  18  -6  -5  123.34   27.55
 -18   6  -5  108.20   29.34
 -18   6  -5  113.82   25.06
  18   7  -5   25.84   24.86
 -18  -7  -5   51.75   29.39
  18  -7   5   26.33   30.25
 -18  -7  -5   32.44   50.81
 -18   7  -5   46.42   25.15
  18  -7  -5   21.30   26.74
  18  -7  -5   88.47   29.44
 -18   7  -5   57.62   27.28
 -18   7  -5   11.06   29.15
  18   7   5   60.76   34.08
  18   8  -5   25.75   24.86
  18  -8   5   -3.56   30.04
 -18  -8  -5  -12.59   28.89
 -18  -8  -5   36.69   58.48
 -18   8  -5   45.62   27.47
 -18   8  -5   10.95   26.88
  18   8   5  -20.61   34.87
  18  -8  -5   42.98   31.94
 -18   8  -5   32.64   28.59
  18  -8  -5   -0.73   29.47
 -18  -9  -5   -7.79   31.19
  18   9  -5   -2.02   27.61
 -18  -9  -5  113.72   58.88
  18  -9   5    7.22   31.98
  18  -9  -5  -16.34   35.68
  18  -9  -5  -19.86   29.55
  18   9   5  -34.09   37.14
 -18   9  -5  -19.40   28.00
 -18   0  -6   61.22   26.07
  18   0  -6   37.95   29.65
 -18   0  -6   25.46   24.96
 -18   0  -6   57.37   27.57
 -18  -1  -6   26.61   25.53
 -18  -1  -6   90.76   30.00
  18   1  -6   30.55   26.62
  18  -1  -6   58.04   21.34
 -18   1  -6   58.33   24.11
 -18   1  -6   43.78   28.26
  18   1   6   62.08   21.05
 -18   1  -6   42.86   26.14
  18   2  -6  -11.38   19.69
 -18  -2  -6  -20.93   22.55
 -18  -2  -6  -18.70   28.98
 -18  -2  -6  -23.54   29.16
 -18   2  -6   -6.68   27.76
  18  -2  -6  -46.49   26.10
 -18   2  -6   -4.60   23.64
  18   2   6   -7.12   19.03
 -18   2  -6  -19.49   22.48
  18  -2  -6    1.73   22.45
  18   3  -6  362.92   32.20
 -18  -3  -6  386.30   51.24
 -18  -3  -6  341.65   43.67
 -18   3  -6  292.85   33.83
 -18   3  -6  309.60   43.41
  18  -3  -6  391.77   53.93
 -18   3  -6  282.06   52.23
  18  -3  -6  377.78   37.23
 -18  -4  -6   68.44   34.08
 -18  -4  -6   85.36   24.22
 -18  -4  -6  -22.99   23.93
  18   4  -6   13.99   20.45
  18  -4   6   -5.70   25.13
  18  -4  -6   54.54   23.84
 -18   4  -6   49.44   22.40
  18   4   6  -16.98   17.54
  18  -4  -6   10.78   27.84
 -18   4  -6   31.77   26.64
 -18   4  -6   23.34   27.92
 -18  -5  -6  127.55   33.71
  18   5  -6  224.88   29.87
 -18  -5  -6  211.51   40.70
  18  -5   6  137.06   31.27
 -18  -5  -6  255.65   50.09
 -18   5  -6  218.07   40.18
 -18   5  -6  166.10   31.24
 -18   5  -6  213.39   29.88
  18  -5  -6  179.03   30.81
 -18  -6  -6  100.71   42.45
  18   6  -6   91.72   24.60
 -18  -6  -6   60.37   28.30
  18  -6   6   58.02   30.99
 -18   6  -6   83.76   22.99
 -18   6  -6   55.84   29.48
 -18   6  -6   98.64   30.53
  18  -6  -6   55.06   28.33
  18  -6  -6  118.41   27.31
 -18  -7  -6   36.52   49.51
  18   7  -6    9.04   25.05
  18  -7   6   50.05   31.32
 -18  -7  -6    9.96   30.12
 -18   7  -6   32.23   28.58
  18  -7  -6   51.33   27.95
 -18   7  -6   21.48   28.51
  18  -7  -6   -7.11   27.18
  18   7   6   -1.38   28.11
 -18   7  -6   12.81   23.09
  18  -8   6  -51.56   31.10
 -18  -8  -6    1.26   31.50
 -18  -8  -6   41.78   59.05
  18   8  -6  -30.61   25.42
 -18   8  -6  -25.66   28.50
  18  -8  -6   44.36   32.43
 -18   8  -6    2.70   24.88
 -18   8  -6    4.64   27.36
  18   8   6  -48.59   34.64
  18  -8  -6   -2.32   28.74
  18   0  -7  -25.54   38.97
 -18   0  -7  -28.47   24.83
  18   0  -7   13.12   19.73
 -18   0  -7  -18.00   25.29
 -18   0  -7   -6.44   28.45
  18   1  -7   27.14   30.07
 -18  -1  -7   33.04   28.07
 -18  -1  -7   -2.84   24.39
 -18  -1  -7   25.93   26.47
 -18   1  -7   31.31   24.25
  18  -1  -7   48.50   22.08
 -18   1  -7    0.93   24.83
  18  -1  -7   -9.97   30.13
 -18   1  -7   -5.48   27.86
 -18  -2  -7  169.81   34.09
  18   2  -7  138.92   32.78
  18   2  -7  192.54   27.36
 -18  -2  -7  131.96   28.95
 -18  -2  -7  197.45   33.36
  18  -2  -7  182.45   31.74
 -18   2  -7  145.18   30.67
 -18   2  -7  180.88   29.60
  18  -2  -7  158.53   31.98
 -18   2  -7  130.33   30.58
 -18  -3  -7   18.58   31.16
 -18  -3  -7   39.57   33.33
 -18  -3  -7    2.65   25.30
  18   3  -7   -0.87   20.41
 -18   3  -7  -10.21   27.35
  18  -3  -7   10.72   22.81
 -18   3  -7  -17.60   27.74
 -18   3  -7    1.95   22.15
  18  -3  -7  -13.94   27.93
  18   3   7    2.18   23.09
 -18  -4  -7  357.10   45.51
 -18  -4  -7  369.26   52.54
  18   4  -7  301.03   32.83
  18  -4  -7  382.02   53.92
 -18   4  -7  328.67   53.50
  18  -4  -7  329.10   36.80
 -18   4  -7  275.91   42.42
 -18   4  -7  311.60   34.42
 -18  -5  -7  146.77   44.31
 -18  -5  -7   72.39   37.79
 -18  -5  -7   50.46   27.90
  18   5  -7   97.73   22.22
  18  -5   7   41.98   30.87
 -18   5  -7   79.90   31.01
  18  -5  -7  106.43   30.77
  18  -5  -7  119.47   26.37
 -18   5  -7   98.04   30.88
 -18   5  -7  115.47   23.43
 -18  -6  -7   -2.79   40.54
  18   6  -7   -1.51   22.03
 -18  -6  -7   28.60   29.06
  18  -6   7   36.80   31.93
  18   6   7   -4.51   26.27
  18  -6  -7   24.79   27.91
 -18   6  -7   20.69   21.13
  18  -6  -7   59.19   26.95
 -18   6  -7   12.75   29.21
 -18   6  -7   19.36   29.66
 -18  -7  -7   -1.13   29.72
 -18  -7  -7    2.07   46.71
  18   7  -7    8.66   23.85
  18  -7   7   27.87   33.07
  18   7   7    3.22   29.02
 -18   7  -7   -8.50   28.48
  18  -7  -7   11.31   28.01
  18  -7  -7   71.22   29.03
 -18   7  -7   16.89   22.84
 -18   7  -7    9.16   28.35
 -18  -8  -7    9.67   56.39
  18  -8   7  -21.09   33.20
  18   8  -7    4.63   25.30
 -18  -8  -7    2.62   32.03
 -18   8  -7    8.33   24.47
 -18   8  -7    1.24   28.18
 -18   8  -7  -16.55   31.89
  18   8   7  -16.46   30.34
  18  -8  -7  -35.35   28.16
 -18   0  -8   -0.30   28.83
 -18   0  -8  -32.63   28.60
 -18   0  -8  -19.22   24.27
  18   0  -8    7.82   52.98
  18   0  -8   10.98   21.93
 -18  -1  -8    4.89   29.92
  18   1  -8   46.39   41.42
  18   1  -8   48.61   20.84
 -18  -1  -8   -4.79   27.70
 -18  -1  -8   39.64   25.97
 -18   1  -8   28.20   24.61
 -18   1  -8   24.86   27.70
 -18   1  -8   12.47   27.87
  18  -1  -8   40.79   22.99
  18  -1  -8   11.73   30.10
  18   2  -8   33.55   34.46
 -18  -2  -8   -1.83   31.77
 -18  -2  -8   -8.09   27.47
 -18  -2  -8   11.22   27.03
  18  -2  -8   65.09   31.00
 -18   2  -8    9.44   23.56
 -18   2  -8  -35.30   27.63
  18  -2  -8   22.68   23.02
 -18   2  -8  -15.95   28.34
 -18  -3  -8  272.69   53.83
  18   3  -8  185.50   29.22
 -18  -3  -8  256.96   34.78
 -18  -3  -8  263.02   42.36
  18   3  -8  217.21   39.97
 -18   3  -8  224.89   29.90
  18  -3  -8  140.37   32.12
  18  -3  -8  205.70   32.28
 -18   3  -8  136.75   30.64
 -18   3  -8  177.57   32.11
  18  -4   8  -12.38   28.81
  18   4  -8   38.94   20.74
 -18  -4  -8   58.29   26.13
 -18  -4  -8    5.75   27.87
 -18  -4  -8   46.75   35.71
  18  -4  -8   -2.60   28.55
  18  -4  -8   52.74   24.08
 -18   4  -8    0.97   28.60
 -18   4  -8   45.77   22.88
 -18   4  -8   14.95   29.86
  18   5  -8   78.16   21.91
 -18  -5  -8   27.13   30.44
  18  -5   8   58.92   33.10
 -18  -5  -8   62.87   29.45
 -18  -5  -8  111.80   41.33
  18  -5  -8  130.27   27.31
 -18   5  -8   75.96   32.54
 -18   5  -8   86.30   29.40
  18  -5  -8   73.20   29.75
 -18   5  -8   80.77   22.74
  18   6  -8   23.44   20.48
 -18  -6  -8   -5.63   31.50
  18  -6   8  -13.63   33.93
 -18  -6  -8  -38.41   40.72
  18   6   8   52.02   32.92
 -18   6  -8   11.43   29.53
 -18   6  -8  -22.89   29.69
 -18   6  -8    7.13   21.48
  18  -6  -8   11.68   29.48
  18  -6  -8   59.65   27.31
 -18  -7  -8  -24.96   31.52
 -18  -7  -8   -4.18   45.77
  18   7  -8  -19.62   22.53
  18  -7   8    1.14   34.34
 -18   7  -8   -1.51   21.32
  18  -7  -8  -27.77   29.54
  18   7   8   10.16   31.86
 -18   7  -8  -49.78   31.17
  18  -7  -8   21.57   30.54
 -18   7  -8  -18.49   28.59
  18   0  -9   19.65   22.32
  18   0  -9    4.01   36.26
 -18   0  -9   11.26   30.88
 -18   0  -9    4.25   24.59
 -18   0  -9  -22.72   28.81
 -18  -1  -9    4.77   31.29
  18   1  -9   12.31   22.59
 -18  -1  -9    6.11   30.40
 -18  -1  -9   10.77   25.43
 -18   1  -9   -1.02   28.89
 -18   1  -9  -22.77   29.03
  18  -1  -9   11.43   32.00
 -18   1  -9    7.41   23.92
  18  -1  -9   18.48   22.57
 -18  -2  -9   29.16   31.01
 -18  -2  -9  117.10   34.01
  18   2  -9   60.78   41.01
 -18  -2  -9   77.74   28.37
  18   2  -9   79.36   23.18
 -18   2  -9   43.77   30.91
  18  -2  -9   36.42   31.30
 -18   2  -9   18.67   28.44
  18  -2  -9   58.47   22.80
 -18   2  -9   28.81   24.40
 -18  -3  -9   -6.14   33.73
 -18  -3  -9  -10.77   29.66
 -18  -3  -9   59.66   30.70
 -18   3  -9  -33.25   28.20
  18  -3  -9   -3.43   31.54
  18  -3  -9    0.17   23.41
 -18   3  -9   13.58   29.89
 -18   3  -9    3.47   23.06
 -18  -4  -9  115.28   35.53
  18  -4   9   58.66   32.83
  18   4  -9   74.35   21.85
 -18  -4  -9   46.31   37.64
 -18  -4  -9   21.46   31.83
 -18   4  -9   57.71   32.78
 -18   4  -9   55.43   30.21
  18  -4  -9  105.34   25.67
 -18   4  -9   71.01   23.74
  18  -4  -9   74.88   30.76
  18   5  -9   20.33   20.11
 -18  -5  -9   31.37   39.83
  18  -5   9   -6.65   35.58
 -18  -5  -9   83.87   29.74
 -18  -5  -9  -37.97   30.34
  18  -5  -9  -12.45   28.90
 -18   5  -9   17.04   32.21
  18  -5  -9   10.06   25.24
 -18   5  -9   -1.29   22.67
 -18   5  -9  -10.91   28.24
 -18  -6  -9   -5.86   43.62
  18  -6   9   -2.81   36.39
  18   6  -9    1.76   20.94
 -18  -6  -9  -42.37   30.33
  18  -6  -9    7.59   28.58
 -18   6  -9   11.78   30.23
  18  -6  -9   17.24   30.51
 -18   6  -9   36.36   34.07
 -18   6  -9   23.59   22.43
 -18   0 -10   30.39   24.93
  18   0 -10   50.55   37.12
 -18   0 -10   -8.51   31.19
  18   0 -10   48.67   23.27
 -18   0 -10   -4.96   31.91
 -18  -1 -10   30.52   26.78
 -18  -1 -10  -17.96   32.53
  18   1 -10   60.17   46.16
  18   1 -10   38.08   23.44
 -18  -1 -10  -31.51   33.38
  18  -1 -10   59.49   35.10
  18  -1 -10   26.55   22.82
 -18   1 -10   15.37   32.80
 -18   1 -10  -21.21   24.55
 -18   1 -10   -8.85   29.90
 -18  -2 -10  -18.68   33.69
  18   2 -10   21.06   24.05
 -18  -2 -10  -23.90   33.88
 -18  -2 -10   -8.68   27.97
  18  -2 -10   10.59   23.62
 -18   2 -10    9.92   28.50
  18  -2 -10    9.45   33.43
 -18   2 -10   20.46   32.65
 -18   2 -10  -22.45   23.61
 -18  -3 -10  -16.00   36.33
  18   3 -10    4.32   24.30
 -18  -3 -10  -20.99   35.75
 -18   3 -10   20.46   32.83
  18  -3 -10   28.98   24.65
  18  -3 -10   33.62   33.99
 -18   3 -10   33.02   28.96
 -18   3 -10   28.78   24.32
 -18  -4 -10  -28.63   36.69
  18  -4  10    8.08   37.38
  18   4 -10   -3.78   24.63
 -18  -4 -10   -1.23   34.86
  18  -4 -10   37.33   33.00
 -18   4 -10  -25.76   28.02
 -18   4 -10  -20.53   23.25
  18  -4 -10    5.68   24.91
 -18   4 -10   41.38   34.48
  18   5 -10    1.81   21.46
  18   0 -11   25.76   24.43
  18   0 -11  130.03   48.48
 -18   0 -11   19.62   36.34
 -18   0 -11    0.62   26.38
 -18   0 -11  -28.48   33.42
  18   1 -11   27.28   24.40
 -18  -1 -11   22.55   37.23
 -18  -1 -11   39.30   27.82
 -18  -1 -11   15.99   35.75
  18  -1 -11   78.05   38.60
 -18   1 -11   25.90   36.88
  18  -1 -11   54.30   24.64
 -18   1 -11   17.20   25.91
 -18   1 -11   30.92   32.91
 -18  -2 -11  -23.77   35.88
 -18  -2 -11  -22.03   39.05
  18  -2 -11    9.73   36.76
 -18   2 -11  -15.34   24.02
 -18   2 -11  -16.43   35.39
 -18   2 -11    2.89   30.18
 -19   0   0   32.87   31.88
  19   0   0   24.61   20.65
 -19  -1   0 1001.74   72.99
 -19   1   0 1161.62   75.84
 -19  -1   0 1089.00   75.64
 -19   2   0  173.06   23.56
 -19  -2   0   91.26   24.83
  19   2   0  123.78   24.37
 -19   2   0  159.03   33.91
 -19  -2   0  153.25   35.73
 -19   3   0   26.90   25.34
  19  -3   0  -11.05   25.29
 -19   3   0   33.01   31.04
  19   3   0   18.17   22.70
 -19  -3   0  -13.34   23.21
 -19  -3   0   14.86   34.90
 -19  -4   0   16.83   24.40
 -19   4   0   84.03   30.03
 -19   4   0   39.81   19.07
  19   4   0   56.03   24.29
 -19  -4   0   83.72   27.55
  19  -4   0   45.06   26.68
 -19   4   0   42.99   23.65
  19  -5   0  -24.47   27.15
 -19   5   0   31.87   26.96
 -19  -5   0   86.41   30.49
  19  -5   0   23.73   29.38
 -19  -5   0   24.37   25.03
 -19   5   0    6.45   22.11
  19   5   0   20.64   25.82
  19   6   0   13.86   28.20
  19  -6   0   -0.73   28.30
 -19   6   0   41.27   28.74
  19  -6   0    3.33   32.79
 -19  -6   0  118.71   37.27
 -19  -6   0   -7.04   25.18
  19  -7   0   23.09   35.22
 -19  -7   0   30.36   28.86
 -19   7   0   -1.02   29.90
  19   7   0   19.55   28.99
  19  -7   0    7.82   28.54
  19   8   0   35.61   31.46
 -19  -8   0   52.48   31.94
  19  -8   0   86.88   38.38
  19  -8   0   23.19   28.85
 -19   8   0   73.02   32.03
  19  -9   0   -9.51   28.08
 -19  -9   0   14.94   35.59
  19  -9   0  -12.38   30.10
  19   9   0   -6.35   32.15
 -19   9   0   46.23   32.92
 -19   0   1  930.70   66.43
 -19   0   1 1081.42   70.59
  19   0   1  908.59   60.46
 -19   0  -1 1051.06   72.28
 -19  -1  -1    7.47   37.78
 -19   1   1    3.70   23.54
  19   1  -1   57.18   21.64
 -19   1   1   86.83   19.25
 -19   1   1   66.18   31.09
 -19   1  -1   42.48   24.72
 -19  -1   1   62.72   23.57
 -19  -1   1   80.50   29.64
 -19   1  -1   44.54   32.60
  19   1   1   39.09   21.34
 -19   2   1  315.61   46.52
  19   2  -1  290.35   32.25
 -19  -2  -1  272.31   47.33
 -19   2   1  319.50   45.66
 -19  -2  -1  257.57   39.92
 -19   2  -1  340.50   44.28
 -19  -2   1  367.21   46.73
 -19   2  -1  366.46   48.39
 -19  -2   1  321.05   41.98
  19   2   1  222.63   36.51
 -19   3   1   29.52   22.82
  19  -3   1    5.49   22.82
  19   3  -1   62.91   21.67
 -19   3   1   55.29   17.26
 -19  -3  -1   23.67   37.16
 -19   3   1   74.42   31.17
 -19  -3  -1   -3.09   23.51
 -19   3  -1   45.78   24.41
 -19  -3   1   18.80   24.03
  19  -3  -1    5.74   24.85
  19   3   1   27.52   23.45
 -19  -3   1   10.93   26.00
 -19   3  -1  102.85   29.97
  19  -4   1   -8.52   26.59
 -19   4   1   26.23   16.75
 -19  -4  -1  -35.18   22.47
  19  -4   1  -40.26   24.04
 -19   4   1   -7.00   22.01
  19   4  -1  -20.48   22.57
  19  -4  -1  -42.32   25.40
 -19   4  -1   19.17   25.35
 -19   4  -1    7.75   28.94
 -19   4  -1   30.27   29.57
  19  -4  -1    8.56   25.58
 -19  -4   1    4.73   28.34
 -19  -4   1  -19.36   23.38
  19   5  -1  -10.77   24.98
 -19   5   1   38.08   17.93
  19  -5   1   -4.48   31.08
 -19  -5  -1  -16.71   23.35
 -19  -5  -1   46.64   32.91
 -19   5  -1   34.25   28.58
 -19  -5   1  -15.26   23.82
  19  -5  -1   11.24   28.90
 -19   5  -1  -18.43   31.48
 -19   5  -1   33.05   23.33
 -19  -5   1   10.54   32.63
  19  -5  -1  -48.79   28.56
  19   5   1   10.31   25.85
 -19   6   1   76.13   24.78
 -19  -6  -1    9.09   25.07
 -19  -6  -1   76.06   38.64
  19   6  -1   46.85   28.14
  19  -6   1   79.00   34.91
  19  -6   1  -32.69   28.36
 -19   6  -1   83.72   30.80
  19  -6  -1    2.58   29.59
  19   6   1   10.38   28.92
  19  -6  -1   27.08   30.97
 -19  -6   1   32.21   25.65
  19   7  -1   51.76   28.59
  19  -7   1    6.68   29.02
 -19  -7  -1    0.80   27.39
 -19   7   1   17.59   21.47
  19  -7   1   75.19   37.13
  19   7   1    6.89   29.93
 -19   7  -1   23.99   30.49
 -19  -7   1   15.70   27.71
  19  -7  -1   -9.81   28.37
  19  -7  -1   40.38   33.99
  19   8  -1   -9.40   29.95
 -19   8   1   28.50   27.44
 -19  -8  -1   -1.94   29.68
  19  -8   1   -1.69   29.22
  19  -8   1   11.92   33.90
 -19   8  -1   24.93   31.34
 -19  -8   1   20.09   30.83
  19  -8  -1   31.16   37.38
  19   8   1   12.51   32.11
  19  -8  -1  -22.95   27.51
  19  -9   1    0.33   28.76
  19   9  -1   36.60   30.51
  19  -9   1  -13.83   30.20
 -19  -9  -1   18.00   34.54
 -19   9   1   92.27   32.76
 -19  -9   1   54.08   34.91
  19   9   1    0.08   33.67
  19  -9  -1   13.08   29.02
  19  -9  -1    1.88   37.98
 -19   9  -1   14.20   32.83
 -19   0   2   63.90   23.57
 -19   0  -2   20.87   25.11
 -19   0  -2   73.86   18.21
 -19   0   2   17.78   29.07
 -19   0  -2   38.37   31.11
  19   0   2   43.17   21.03
 -19  -1  -2  260.27   41.11
  19   1  -2  323.99   32.17
 -19  -1  -2  304.83   47.41
 -19   1   2  325.23   44.78
 -19   1   2  278.86   40.14
 -19   1  -2  348.22   47.79
 -19  -1   2  256.63   38.82
 -19  -1   2  334.70   44.92
  19   1   2  274.08   31.65
 -19   1  -2  305.88   44.67
 -19  -2  -2   45.07   21.09
 -19  -2  -2  -37.74   22.31
 -19  -2  -2  -19.15   42.53
  19   2  -2   25.46   20.71
 -19   2   2  -14.43   22.25
  19  -2  -2  -28.23   22.89
 -19   2  -2  -21.64   24.81
 -19  -2   2    5.47   22.75
 -19   2  -2   18.94   30.86
  19   2   2  -13.27   23.58
 -19   2  -2   19.29   23.97
  19   3  -2   82.98   22.65
 -19  -3  -2   19.11   23.99
 -19   3  -2  103.79   27.44
  19   3   2   40.98   23.82
 -19   3  -2  110.57   32.15
  19  -3  -2   94.90   24.47
 -19   3  -2   70.67   25.07
 -19  -3   2   60.98   24.07
 -19   4   2   51.51   19.09
  19   4  -2  -11.96   22.54
 -19  -4  -2  -20.28   23.15
 -19  -4  -2  -81.80   69.35
  19  -4   2  -35.23   24.52
 -19   4  -2   12.32   29.60
 -19   4  -2   -0.34   25.17
  19   4   2  -28.04   24.65
 -19   4  -2    2.55   32.17
 -19  -4   2   -0.86   22.53
 -19  -4   2  -53.62   26.99
  19  -4  -2   17.39   26.01
 -19  -5  -2  -45.64   69.37
  19   5  -2   -1.47   24.81
  19  -5   2    2.33   32.94
 -19   5   2   37.88   18.34
 -19  -5  -2  -14.76   24.76
  19  -5  -2  -53.07   28.24
 -19  -5   2  -17.42   23.49
 -19   5  -2   -6.40   29.20
 -19   5  -2   29.61   24.69
  19  -5  -2   -3.05   27.32
 -19   5  -2  -13.26   30.22
 -19  -6  -2   -4.14   25.56
 -19   6   2   17.88   18.97
 -19  -6  -2   97.74   42.54
  19  -6   2   15.57   35.56
  19  -6   2  -36.69   28.53
  19   6  -2  -12.56   28.10
  19  -6  -2  -18.79   27.28
 -19   6  -2   60.49   29.03
  19  -6  -2    5.16   29.18
 -19   6  -2   26.10   30.71
 -19   6  -2   26.72   24.23
 -19  -6   2   24.26   24.95
  19   6   2  -14.65   29.35
 -19  -7  -2    3.00   27.47
  19  -7   2  -47.93   30.26
  19  -7   2   56.10   35.34
 -19   7   2  -10.77   21.86
 -19  -7  -2   86.21   48.76
  19   7  -2   21.43   28.26
 -19  -7   2   16.39   26.26
  19  -7  -2   12.49   29.12
  19   7   2  -20.17   30.27
 -19   7  -2   52.47   30.83
  19  -7  -2   43.95   32.34
  19  -8   2   -2.57   28.77
 -19   8   2   43.90   23.73
 -19  -8  -2  -15.55   29.82
  19   8  -2   37.07   29.27
  19  -8  -2   53.73   35.98
  19   8   2   20.93   32.96
 -19   8  -2   -6.00   31.38
 -19  -8   2   31.09   28.12
  19  -8  -2  -17.03   28.92
  19  -9   2  -19.27   29.09
 -19  -9  -2  -27.08   33.28
  19   9  -2    9.68   32.39
 -19   9   2   14.15   25.35
  19  -9   2   15.78   32.79
 -19   9  -2   32.57   32.38
  19   9   2  -13.59   34.16
  19  -9  -2   16.56   29.58
  19  -9  -2   20.39   38.17
 -19   0  -3   37.96   18.87
 -19   0   3   63.93   21.61
 -19   0  -3   75.34   33.35
 -19   0  -3   58.03   25.01
 -19  -1  -3   22.98   31.81
  19   1  -3    5.29   20.88
 -19  -1  -3  -11.50   21.89
 -19  -1  -3   54.57   16.73
 -19   1  -3   15.47   22.48
 -19   1  -3    3.48   25.44
  19   1   3   10.43   20.44
 -19   1  -3   13.84   29.38
 -19  -1   3   18.28   20.48
  19   2  -3   67.79   21.28
 -19  -2  -3   16.32   24.78
 -19  -2  -3   52.83   34.11
  19   2   3   39.50   22.72
 -19   2  -3   73.61   24.62
 -19   2  -3   33.11   31.20
 -19   2  -3   49.48   24.76
  19  -2  -3    6.60   27.35
 -19  -2   3   42.39   21.71
 -19  -3  -3  -30.98   35.69
 -19  -3  -3  -38.52   24.03
  19   3  -3    9.06   21.52
 -19   3  -3   -5.91   25.39
 -19  -3   3   -8.13   21.17
  19   3   3  -14.36   37.93
 -19   3  -3   -8.08   30.79
 -19   3  -3   -2.43   29.92
  19  -3  -3   -2.66   23.44
  19   4  -3    6.62   22.85
 -19  -4  -3  -41.83   23.21
  19  -4   3  -29.15   24.34
 -19  -4  -3  -22.95   40.10
 -19   4  -3   11.71   24.97
 -19  -4   3  -12.61   21.19
  19  -4  -3   26.24   25.87
 -19   4  -3    1.30   25.81
 -19   4  -3   54.25   30.36
  19   4   3  -26.77   24.97
 -19  -5  -3   -5.27   46.45
  19  -5   3    0.99   35.93
  19  -5   3  -24.87   27.65
  19   5  -3   18.66   24.98
 -19   5   3   39.30   20.82
 -19  -5  -3   -7.72   25.33
 -19  -5   3   12.02   23.04
  19  -5  -3   51.83   27.36
 -19   5  -3   27.72   29.96
 -19   5  -3   33.61   25.58
 -19   5  -3   32.07   28.06
  19  -5  -3   11.42   28.60
  19   5   3    9.82   27.05
  19  -6   3   19.50   34.24
 -19   6   3   68.48   22.54
  19   6  -3    3.11   26.21
 -19  -6  -3   -7.79   51.71
 -19  -6  -3  -39.67   25.42
 -19   6  -3  -19.66   29.64
 -19   6  -3   10.22   26.06
  19  -6  -3   -1.42   27.54
 -19   6  -3    1.51   29.00
  19   6   3  -17.91   30.24
  19  -6  -3  -34.31   27.83
 -19  -6   3  -12.40   23.36
 -19  -7  -3    8.71   27.62
  19  -7   3  -13.97   29.84
  19   7  -3   25.28   28.46
  19  -7   3   37.98   30.30
 -19  -7  -3   -1.33   45.78
 -19   7   3  -21.49   32.19
 -19   7  -3   38.32   25.89
 -19   7  -3   42.61   31.57
  19  -7  -3   93.32   30.98
  19  -7  -3    7.58   27.95
 -19  -7   3   11.90   26.27
  19   7   3   14.80   32.63
  19  -8   3   -7.60   35.84
 -19   8   3    3.48   25.99
  19  -8   3  -19.52   29.42
 -19  -8  -3    2.90   29.82
 -19  -8  -3   21.52   60.98
  19   8  -3   -5.55   27.61
  19  -8  -3  -26.08   27.44
  19  -8  -3   48.66   34.48
  19   8   3  -57.51   34.07
 -19   8  -3   18.92   31.39
  19  -9   3    1.36   29.15
  19   9  -3    2.86   29.85
 -19   9   3  -43.15   27.96
 -19  -9  -3    9.08   32.73
 -19   9  -3   29.08   32.67
  19   9   3  -11.37   37.24
  19  -9  -3   -5.45   30.63
 -19   0  -4   16.51   24.22
 -19   0  -4   -8.35   22.00
 -19   0  -4  -16.85   30.00
 -19  -1  -4  -30.16   23.50
 -19  -1  -4  -18.47   29.89
 -19  -1  -4   45.03   18.28
  19   1  -4   17.65   21.37
 -19   1  -4   21.59   23.23
  19   1   4   29.75   15.64
 -19   1  -4   12.79   23.76
  19  -1  -4  -35.87   26.01
 -19   1  -4  -13.32   30.53
  19   2  -4   60.03   21.97
 -19  -2  -4   54.30   32.75
 -19  -2  -4   29.61   23.68
  19  -2  -4   60.38   23.02
 -19   2  -4   68.16   24.31
  19   2   4   13.91   19.57
 -19   2  -4   32.40   25.97
 -19   2  -4   70.11   30.57
  19   3  -4   40.84   22.19
 -19  -3  -4  -13.97   23.87
 -19  -3  -4  -32.82   34.49
  19  -3  -4   10.51   24.67
 -19   3  -4   20.36   23.60
  19  -3  -4  -30.91   27.43
 -19   3  -4   -4.04   25.64
  19   3   4   16.21   25.42
 -19   3  -4   -5.05   31.20
 -19  -4  -4   16.69   38.55
  19   4  -4   47.51   22.36
 -19  -4  -4    6.64   23.59
  19  -4  -4   14.52   29.53
 -19   4  -4   38.23   25.22
 -19   4  -4   64.41   27.87
 -19   4  -4   66.13   30.67
  19   4   4    8.49   26.53
  19  -4  -4   67.35   25.63
  19   5  -4   -0.36   23.15
  19  -5   4   12.02   33.50
 -19  -5  -4   15.59   43.50
  19  -5   4  -48.04   27.29
 -19  -5  -4    0.80   25.20
  19  -5  -4   63.94   26.95
 -19   5  -4   47.13   26.21
  19   5   4  -14.02   27.29
 -19   5  -4   25.05   29.10
 -19   5  -4   23.09   30.26
  19  -5  -4   10.41   28.81
 -19  -6  -4   15.18   26.65
  19  -6   4   20.13   31.07
 -19  -6  -4   74.07   50.33
  19  -6   4  -37.57   29.91
  19   6  -4   71.71   27.39
 -19   6  -4   95.64   30.83
 -19   6  -4   65.04   29.02
  19  -6  -4   35.34   27.49
  19  -6  -4   91.65   27.90
 -19   6  -4    7.59   27.59
  19   6   4   38.11   30.64
  19   7  -4  -14.97   28.33
  19  -7   4  -18.75   30.63
  19  -7   4  -31.76   33.74
 -19  -7  -4   26.83   55.48
 -19  -7  -4  -13.99   27.61
  19   7   4   10.21   33.47
 -19   7  -4   16.61   29.16
  19  -7  -4   43.76   30.47
 -19   7  -4    4.97   27.31
  19  -7  -4  -11.48   27.18
 -19   7  -4   -2.88   29.40
 -19  -8  -4  -30.51   54.94
 -19  -8  -4   17.84   29.47
  19   8  -4    1.93   28.99
  19  -8   4  -27.62   30.08
  19  -8   4  -39.07   53.14
  19  -8  -4   23.33   29.36
  19  -8  -4   64.16   33.00
 -19   8  -4   21.11   31.14
  19   8   4   -3.09   35.96
  19   9  -4  -10.15   28.14
  19   9   4  -22.19   38.91
 -19   0  -5   -3.64   34.05
  19   0  -5  -44.00   26.98
 -19   0  -5  -14.36   29.14
 -19   0  -5   -9.31   23.96
 -19  -1  -5   17.63   23.34
 -19  -1  -5   53.80   28.53
 -19  -1  -5   53.84   31.74
 -19   1  -5   18.18   23.25
  19  -1  -5  -22.68   27.75
 -19   1  -5   73.38   26.35
 -19   1  -5   36.24   29.40
  19   1   5   -1.31   19.18
  19   2  -5   12.38   21.11
 -19  -2  -5  -48.29   30.41
 -19  -2  -5  -39.16   25.06
  19  -2  -5  -28.47   27.52
 -19   2  -5   -2.51   23.94
  19   2   5   23.91   17.51
 -19   2  -5  -11.39   25.04
  19  -2  -5   18.82   22.48
 -19   2  -5  -18.71   29.45
  19   3  -5  133.02   23.63
 -19  -3  -5  157.11   37.22
 -19  -3  -5  122.54   24.97
 -19  -3  -5   75.61   26.97
  19  -3  -5  169.80   26.63
 -19   3  -5   92.66   28.77
 -19   3  -5  105.65   24.63
  19  -3  -5  100.19   30.32
 -19   3  -5  109.15   31.41
 -19  -4  -5   61.15   37.38
 -19  -4  -5   18.21   24.55
  19   4  -5   36.62   22.26
  19  -4   5  -10.53   26.17
 -19  -4  -5  112.54   29.59
  19  -4  -5   74.06   26.15
  19   4   5   26.54   20.83
 -19   4  -5   45.18   23.46
 -19   4  -5   52.00   30.94
  19  -4  -5   18.47   27.86
 -19   4  -5   42.52   29.94
 -19  -5  -5  107.84   41.48
  19  -5   5   53.27   29.73
  19   5  -5   64.17   24.30
  19  -5   5    0.46   28.61
 -19  -5  -5   32.66   26.13
 -19   5  -5   80.40   30.20
  19  -5  -5   85.74   26.89
 -19   5  -5   77.95   31.49
 -19   5  -5   50.87   24.95
  19   5   5   62.25   27.33
  19  -5  -5   58.44   28.52
  19   6  -5   50.29   26.63
  19  -6   5   26.46   31.20
  19  -6   5    4.26   34.18
 -19  -6  -5   56.47   46.19
 -19  -6  -5   13.53   27.03
 -19   6  -5   44.33   28.41
  19  -6  -5   87.14   28.17
  19   6   5   29.97   31.85
 -19   6  -5   60.33   26.38
 -19   6  -5   66.97   31.43
  19  -6  -5   49.97   28.00
 -19  -7  -5    1.97   54.01
  19  -7   5   14.77   31.44
 -19  -7  -5   29.64   29.02
  19   7  -5   76.46   28.04
 -19   7  -5   20.35   29.91
 -19   7  -5   89.67   29.35
  19  -7  -5   55.31   31.07
 -19   7  -5   59.18   28.27
  19  -7  -5   -3.61   27.94
  19   7   5   39.36   34.63
 -19  -8  -5  -30.37   30.38
  19   8  -5   -5.03   28.96
 -19  -8  -5  -67.11   53.59
  19  -8   5  -15.75   31.93
  19  -8  -5  -18.18   30.46
 -19   8  -5   -0.86   29.40
  19   8   5    8.06   37.73
  19  -8  -5   19.01   33.48
  19   0  -6  -48.54   28.72
 -19   0  -6   -0.98   27.96
 -19   0  -6   -4.29   24.26
 -19   0  -6  -28.94   28.28
 -19  -1  -6   -4.57   23.92
 -19  -1  -6   -8.18   28.93
 -19  -1  -6   20.23   30.52
  19   1  -6    5.87   32.33
 -19   1  -6   26.89   26.15
  19  -1  -6  -12.96   28.02
 -19   1  -6  -10.40   24.24
 -19   1  -6    9.49   29.60
  19  -1  -6    3.61   21.58
  19   2  -6  104.13   23.34
 -19  -2  -6   51.18   26.34
 -19  -2  -6   65.09   30.32
 -19  -2  -6   86.36   31.50
 -19   2  -6  126.31   26.37
  19   2   6    3.23   21.47
  19  -2  -6   56.54   32.05
 -19   2  -6   68.61   27.44
 -19   2  -6  107.12   30.74
  19   3  -6   -7.02   21.84
 -19  -3  -6   -0.49   26.28
 -19  -3  -6   25.92   33.88
  19  -3  -6   27.14   24.10
 -19   3  -6   -9.66   27.43
  19  -3  -6    0.63   28.65
 -19   3  -6   30.69   24.00
 -19   3  -6  -45.33   29.09
  19   3   6    1.23   21.36
  19  -4   6   72.18   28.59
 -19  -4  -6  122.20   36.76
  19   4  -6  132.79   24.52
 -19  -4  -6   97.83   35.10
 -19  -4  -6   65.88   27.06
  19  -4  -6  115.47   30.28
 -19   4  -6  105.76   24.31
 -19   4  -6  115.71   32.19
 -19   4  -6  121.96   31.01
  19  -5   6   42.75   30.93
  19  -5   6   10.97   42.15
 -19  -5  -6   98.13   40.67
  19   5  -6   93.57   23.49
 -19  -5  -6   82.98   29.85
 -19   5  -6  121.61   32.65
  19  -5  -6  119.61   26.91
  19  -5  -6   57.25   29.42
 -19   5  -6   87.03   24.10
 -19   5  -6   78.65   28.72
 -19  -6  -6   42.04   29.37
  19  -6   6   13.19   32.15
 -19  -6  -6   86.95   45.48
  19   6  -6   16.84   24.32
  19  -6  -6  -12.73   29.43
 -19   6  -6   25.15   30.21
  19  -6  -6   60.67   27.90
  19   6   6  -24.42   23.88
 -19   6  -6   36.26   24.54
 -19   6  -6   14.70   29.13
  19   7  -6   -2.37   25.35
 -19  -7  -6   66.66   55.75
  19  -7   6   -4.15   33.21
 -19  -7  -6    5.06   28.95
 -19   7  -6   27.83   25.53
  19  -7  -6  -18.60   29.47
  19   7   6  -11.51   26.66
 -19   7  -6   26.05   28.96
 -19   7  -6   13.88   29.87
  19  -7  -6   64.15   29.74
  19   8  -6  -27.83   26.66
  19   8   6   -0.59   30.56
 -19   0  -7    7.47   29.63
  19   0  -7   42.03   21.74
  19   0  -7    5.16   31.08
 -19   0  -7   11.34   28.83
 -19   0  -7    7.03   26.71
 -19  -1  -7   33.72   28.26
 -19  -1  -7   30.27   30.88
 -19  -1  -7   37.48   32.11
  19   1  -7  -17.58   32.70
 -19   1  -7   40.80   26.90
  19  -1  -7  -37.46   31.72
  19  -1  -7   51.69   24.25
 -19   1  -7    9.33   27.39
 -19   1  -7  -25.44   28.56
 -19  -2  -7  -14.94   33.93
 -19  -2  -7   -6.25   32.20
 -19  -2  -7   -4.53   24.81
  19   2  -7   49.12   58.72
  19  -2  -7    1.63   29.78
  19  -2  -7   13.49   23.62
 -19   2  -7  -23.15   24.54
 -19   2  -7  -31.84   26.96
 -19   2  -7    5.32   28.71
 -19  -3  -7   93.33   29.09
  19   3  -7  132.46   24.61
 -19  -3  -7  138.59   37.20
 -19  -3  -7   96.68   27.53
 -19   3  -7  104.66   31.50
 -19   3  -7  132.60   26.44
  19  -3  -7  147.65   26.13
 -19   3  -7  106.62   32.60
  19  -3  -7  145.94   33.67
 -19  -4  -7   55.92   36.45
 -19  -4  -7   17.21   28.58
  19  -4   7  -17.93   45.35
 -19  -4  -7  111.36   34.96
  19  -4   7   -2.48   28.21
  19   4  -7   47.61   21.52
  19   4   7  117.49   27.94
 -19   4  -7   30.69   29.88
  19  -4  -7   49.12   25.19
  19  -4  -7   54.82   29.30
 -19   4  -7   21.46   24.05
 -19   4  -7   36.70   29.63
 -19  -5  -7  113.30   41.19
 -19  -5  -7   55.71   27.82
  19  -5   7   53.55   33.06
  19   5  -7   70.23   22.56
 -19  -5  -7  181.42   38.90
 -19   5  -7   73.14   23.83
 -19   5  -7   95.86   31.28
  19   5   7    7.00   27.00
 -19   5  -7   97.19   32.22
  19  -5  -7  107.05   32.08
  19  -5  -7  115.61   27.89
 -19  -6  -7   38.26   45.64
 -19  -6  -7   22.44   28.03
  19  -6   7   13.30   33.57
  19   6  -7   51.17   22.95
 -19   6  -7   56.46   31.22
 -19   6  -7    8.20   22.84
  19  -6  -7   68.68   28.53
 -19   6  -7   20.16   30.38
  19   6   7   32.36   29.83
  19  -6  -7   12.15   29.29
  19   7  -7    4.46   24.62
 -19  -7  -7    0.58   51.09
  19  -7   7   22.63   34.97
 -19  -7  -7  -13.76   29.87
 -19   7  -7    1.56   29.84
  19   7   7  -67.37   31.96
  19  -7  -7   -9.23   30.06
 -19   7  -7    7.04   30.17
 -19   7  -7    5.94   24.25
 -19   0  -8  -13.61   29.47
 -19   0  -8  -25.70   30.47
  19   0  -8   22.01   23.39
  19   0  -8   -9.85   32.26
 -19   0  -8  -16.99   27.92
 -19  -1  -8    4.94   30.76
 -19  -1  -8   -6.71   28.70
  19   1  -8   21.33   22.43
 -19  -1  -8  -26.03   31.18
  19   1  -8   30.36   36.32
  19  -1  -8    3.26   32.03
 -19   1  -8   -0.07   26.85
  19  -1  -8    8.80   23.38
 -19   1  -8    7.34   29.29
 -19   1  -8  -22.17   30.14
  19   2  -8  126.35   40.83
 -19  -2  -8   87.63   33.75
 -19  -2  -8   65.09   32.94
 -19  -2  -8   40.75   28.13
 -19   2  -8   29.06   30.81
  19  -2  -8   69.04   24.84
 -19   2  -8   47.84   31.73
 -19   2  -8   82.94   27.08
  19  -2  -8  102.68   33.50
 -19  -3  -8   24.30   29.09
  19   3  -8   23.61   71.03
 -19  -3  -8   15.09   33.95
 -19  -3  -8   54.75   32.19
  19  -3  -8   13.65   23.40
 -19   3  -8  -29.35   28.54
 -19   3  -8   13.78   24.84
  19  -3  -8  -43.26   29.57
 -19   3  -8   -8.53   30.64
  19   4  -8  135.73   24.32
 -19  -4  -8   90.42   30.19
 -19  -4  -8  111.00   31.39
 -19  -4  -8  155.81   40.69
  19  -4   8   98.44   32.53
 -19   4  -8  153.27   33.19
  19  -4  -8  207.13   33.99
 -19   4  -8  124.75   33.41
  19  -4  -8  102.95   32.36
 -19   4  -8  118.72   25.59
 -19  -5  -8   -4.54   29.55
 -19  -5  -8  -33.67   42.22
 -19  -5  -8   36.81   42.76
  19  -5   8   -5.52   34.67
  19   5  -8    9.47   21.26
  19  -5  -8    9.68   30.82
 -19   5  -8    2.63   31.34
 -19   5  -8   17.87   32.05
  19  -5  -8   50.78   27.52
 -19   5  -8   35.59   23.22
  19   6  -8   12.73   21.71
 -19  -6  -8    2.06   44.01
 -19  -6  -8   12.15   32.04
  19  -6   8  -30.30   36.39
 -19   6  -8    2.77   29.86
 -19   6  -8   -4.46   22.16
  19  -6  -8   -4.77   30.65
 -19   6  -8    2.23   31.41
  19   0  -9   22.35   23.78
 -19   0  -9  -30.07   31.82
 -19   0  -9   31.34   30.96
  19   0  -9  -17.49   35.65
 -19   0  -9    4.74   29.23
  19   1  -9   19.32   38.24
 -19  -1  -9    1.05   32.06
  19   1  -9   38.86   24.35
 -19  -1  -9  -12.47   31.79
 -19  -1  -9   10.38   30.03
 -19   1  -9   39.63   29.16
  19  -1  -9   14.88   23.33
 -19   1  -9    1.65   31.21
 -19   1  -9    7.92   30.28
  19  -1  -9   22.31   35.15
 -19  -2  -9   -3.99   30.92
 -19  -2  -9  -24.80   32.81
  19   2  -9   10.32   46.49
 -19  -2  -9   39.49   33.14
  19   2  -9   20.38   23.64
 -19   2  -9  -18.91   32.21
  19  -2  -9    3.05   23.41
 -19   2  -9    3.53   30.78
 -19   2  -9  -14.38   26.83
  19  -2  -9   38.34   34.30
 -19  -3  -9   72.12   37.37
 -19  -3  -9  116.22   37.44
 -19  -3  -9   58.84   33.02
  19   3  -9   76.01   24.46
  19  -3  -9   54.94   34.08
 -19   3  -9   47.77   25.73
  19  -3  -9   84.78   25.81
 -19   3  -9   56.13   32.32
 -19   3  -9   41.84   30.62
 -19  -4  -9  -10.57   32.51
 -19  -4  -9  -47.40   38.37
 -19  -4  -9   46.76   30.16
  19  -4   9  -53.38   33.18
  19  -4  -9   12.22   25.43
  19  -4  -9   -5.43   31.78
 -19   4  -9   -3.62   24.65
 -19   4  -9   -8.56   33.47
 -19   4  -9  -12.99   30.62
  19   5  -9    0.87   22.37
  19   0 -10  -22.39   38.52
 -19   0 -10   -9.36   35.72
 -19   0 -10  -55.75   33.38
 -19   0 -10  -22.88   28.52
  19   0 -10   23.29   24.15
  19   1 -10   31.25   49.77
 -19  -1 -10   31.15   33.86
 -19  -1 -10   42.42   31.21
 -19  -1 -10  -24.28   33.64
  19   1 -10   38.93   24.72
 -19   1 -10   32.25   35.82
 -19   1 -10   29.23   28.10
  19  -1 -10   53.87   37.64
 -19   1 -10   15.66   32.46
  19  -1 -10   39.32   24.56
 -19  -2 -10  -50.13   34.93
 -19  -2 -10   -5.91   36.95
 -19  -2 -10   52.03   34.51
 -19   2 -10  -44.24   30.98
 -19   2 -10    2.93   26.89
 -19   2 -10   -5.75   33.61
  19  -2 -10   45.37   36.71
 -20   0   0  984.85   68.61
 -20   0   0  797.57   66.66
 -20   1   0   41.61   33.66
 -20   1   0    7.32   25.17
 -20  -1   0   15.87   25.30
 -20  -1   0   42.47   47.82
  20   1   0   36.84   23.45
 -20  -2   0  583.41   55.97
 -20   2   0  497.06   55.06
 -20  -2   0  581.02   83.26
 -20   2   0  548.04   51.53
  20   2   0  435.94   41.06
 -20  -3   0   40.73   26.16
  20  -3   0    7.15   28.45
 -20   3   0   88.63   21.32
  20   3   0   65.44   25.26
 -20   3   0  116.48   33.13
 -20   3   0   65.55   25.06
 -20  -3   0   95.30   37.39
 -20  -4   0  -33.34   25.33
 -20   4   0   -6.99   30.85
 -20  -4   0   56.14   30.03
  20   4   0   -7.29   25.35
 -20   4   0   -5.12   23.17
  20  -4   0    7.15   28.51
  20  -4   0  -38.28   26.88
 -20  -5   0    8.97   26.51
  20  -5   0    8.64   30.08
 -20   5   0   48.34   20.73
  20  -5   0   62.03   32.59
  20   5   0    2.52   27.70
 -20  -5   0   -9.97   35.32
 -20  -6   0   66.82   29.24
  20   6   0   62.85   30.46
  20  -6   0   22.36   32.82
  20  -6   0   90.12   34.70
 -20  -6   0   95.41   43.42
 -20   6   0   63.41   22.48
  20  -7   0    8.53   37.46
 -20  -7   0   -8.86   30.11
  20  -7   0   -8.43   30.79
  20   7   0  -23.47   31.76
 -20   7   0   28.45   26.80
  20   8   0   49.75   33.42
  20  -8   0   21.27   40.73
 -20  -8   0    4.88   34.76
 -20   8   0   31.93   31.77
  20  -8   0  -24.65   30.38
 -20   0  -1    4.03   35.67
 -20   0  -1   10.60   25.27
 -20   0   1  -18.98   24.17
  20   1  -1  669.08   48.68
 -20  -1  -1  723.81   61.16
 -20   1   1  646.52   57.72
 -20  -1  -1  648.91   60.05
 -20   1   1  751.80   59.53
 -20  -1   1  793.67   61.27
 -20   1  -1  758.18   61.40
  20   1   1  649.91   48.93
 -20   1  -1  680.20   58.75
 -20  -1   1  617.80   56.57
 -20   2   1  112.25   33.29
 -20   2   1   42.27   25.89
 -20  -2  -1   36.74   25.95
 -20  -2  -1   39.56   39.83
  20   2  -1   38.17   22.90
  20  -2  -1   -2.43   24.77
  20   2   1   50.90   24.55
 -20  -2   1   56.57   25.19
 -20  -2   1   81.40   29.65
 -20   2  -1   66.69   28.68
 -20   2  -1  101.57   33.41
 -20   3   1   37.53   20.47
  20   3  -1   77.51   23.97
 -20  -3  -1   67.13   42.36
 -20  -3  -1   38.50   26.40
 -20   3   1   72.39   25.18
  20  -3   1   35.84   25.24
  20   3   1   81.81   25.71
  20  -3  -1   30.18   26.84
 -20   3  -1  138.41   33.04
 -20   3  -1  113.52   22.95
 -20   3  -1   71.74   27.18
 -20  -3   1   -7.77   28.44
 -20  -3   1   61.60   25.73
  20  -4   1   41.62   30.03
  20   4  -1   26.70   25.34
 -20   4   1   57.91   21.11
 -20  -4  -1   22.21   26.33
  20  -4   1    7.14   26.66
 -20  -4  -1   44.17   41.45
 -20   4  -1   61.68   31.18
  20  -4  -1   86.94   28.85
 -20   4  -1   60.33   25.10
  20  -4  -1  -22.01   28.88
 -20  -4   1   10.09   26.26
 -20  -4   1    9.74   31.14
  20   4   1   39.15   26.55
 -20   4  -1   69.96   30.72
  20   5  -1   -0.68   27.14
 -20  -5  -1    2.91   41.27
 -20  -5  -1   -5.69   26.17
 -20   5   1   61.32   21.19
  20  -5   1  -10.76   33.04
 -20   5  -1   -1.84   30.26
 -20   5  -1   64.42   30.67
 -20  -5   1   14.46   26.72
 -20   5  -1   45.91   24.61
  20  -5  -1  -10.63   29.72
  20   5   1   17.34   28.33
  20  -5  -1   39.70   30.90
  20   6  -1   -0.29   28.91
 -20  -6  -1    0.48   27.39
 -20  -6  -1   -0.19   55.07
  20  -6   1  -19.17   35.80
 -20   6   1   47.31   23.62
 -20  -6   1    8.39   28.91
  20   6   1   -7.57   30.77
 -20   6  -1   11.66   31.20
  20  -6  -1  -18.79   32.17
  20  -7   1   35.08   32.11
  20   7  -1   35.03   31.80
 -20  -7  -1   35.69   28.36
  20  -7   1   22.08   39.54
 -20   7   1   -6.89   23.01
 -20  -7   1   15.89   31.34
 -20   7  -1   79.51   32.40
  20  -7  -1   35.46   35.95
  20   7   1   -4.73   32.46
  20  -7  -1    0.60   31.57
 -20  -8  -1  -16.84   31.16
  20  -8   1  -13.93   32.61
 -20   8   1   27.43   24.06
  20   8  -1   16.78   33.16
  20  -8   1  -26.12   30.56
 -20  -8   1    4.08   33.53
  20  -8  -1  -34.35   38.12
  20  -8  -1  -42.57   29.09
  20   8   1   17.94   34.54
 -20   8  -1   -2.43   33.66
 -20   0  -2  456.26   52.95
 -20   0   2  581.98   51.64
 -20   0  -2  524.76   56.03
 -20   0   2  495.90   48.29
 -20  -1  -2   -3.99   25.11
 -20  -1  -2   12.09   34.53
  20   1  -2   39.19   23.23
 -20   1   2   14.33   22.47
  20   1   2   39.80   42.56
 -20   1  -2   32.16   27.52
 -20   1  -2    9.87   33.35
 -20  -1   2    0.13   22.91
 -20   1  -2   55.57   19.71
  20   2  -2  227.61   31.65
 -20  -2  -2  237.91   41.48
 -20  -2  -2  148.26   27.69
 -20   2   2  170.93   26.41
 -20   2  -2  272.23   47.83
  20   2   2  176.27   28.10
 -20  -2   2  223.51   42.82
  20  -2  -2  111.63   29.29
 -20   2  -2  273.39   43.37
  20  -3   2  -27.31   23.51
  20   3  -2   17.56   23.52
 -20  -3  -2    5.82   24.47
 -20  -3  -2   -8.26   43.02
 -20  -3   2  -15.44   23.99
  20  -3  -2   14.05   23.92
  20   3   2    9.21   25.73
 -20   3  -2   78.37   42.14
 -20   3  -2   40.42   28.20
  20  -3  -2    0.61   25.80
 -20   3  -2   33.39   31.57
 -20  -4  -2  -28.13   24.96
 -20  -4  -2  -48.08   45.52
  20  -4   2  -30.61   26.54
  20   4  -2  -13.10   24.57
  20  -4   2  -16.59   30.80
  20  -4  -2  -30.26   30.47
 -20   4  -2   22.87   24.78
 -20  -4   2  -50.46   31.10
  20   4   2  -25.82   26.49
  20  -4  -2   16.07   27.71
 -20   4  -2   20.92   30.76
 -20  -4   2    8.93   25.02
 -20   4  -2   16.39   33.62
  20  -5   2  -25.71   35.30
 -20   5   2   34.42   22.55
 -20  -5  -2   12.96   45.80
  20  -5   2  -52.64   29.92
  20   5  -2   16.67   25.66
 -20  -5  -2  -39.42   24.78
  20   5   2  -49.28   28.16
 -20   5  -2    1.32   34.46
  20  -5  -2  -28.94   29.19
  20  -5  -2   -8.69   29.19
 -20   5  -2   36.69   31.33
 -20   5  -2   31.01   27.59
 -20  -5   2   -3.93   26.13
  20   6  -2   15.99   28.27
  20  -6   2   16.34   38.22
 -20   6   2  -12.05   26.98
 -20  -6  -2  -42.74   26.42
  20  -6   2  -17.62   30.87
  20   6   2   20.60   31.08
  20  -6  -2  -19.12   30.48
 -20   6  -2   -1.47   33.39
  20  -6  -2   31.74   30.91
 -20  -6   2   17.56   27.23
 -20   6  -2   11.93   24.60
  20  -7   2   24.69   33.05
  20   7  -2  -12.57   30.11
  20  -7   2  -12.44   30.72
 -20  -7  -2  -18.74   29.11
 -20   7   2    2.81   25.42
  20  -7  -2   -8.03   34.59
 -20  -7   2    0.02   28.93
 -20   7  -2   18.26   32.38
  20  -7  -2  -15.45   28.75
  20   7   2    4.27   34.15
  20   8  -2    8.16   31.39
  20  -8   2  -46.78   33.45
 -20   8   2   52.18   28.43
 -20  -8  -2    0.08   31.96
  20  -8   2  -26.55   30.47
  20  -8  -2  -22.39   31.34
  20   8   2  -29.23   36.14
 -20  -8   2   10.80   32.78
 -20   8  -2   59.06   33.59
  20  -8  -2   53.96   37.57
 -20   0  -3   65.41   19.57
 -20   0   3   30.18   20.98
 -20   0  -3    7.41   25.03
 -20   0  -3    4.69   31.74
 -20  -1  -3   58.83   26.18
 -20  -1  -3   92.64   21.86
 -20  -1  -3  110.20   38.41
  20   1   3   53.61   20.35
  20  -1  -3   76.31   29.29
 -20  -1   3   86.90   22.59
 -20   1  -3   68.60   19.99
 -20   1  -3  102.22   28.14
 -20   1  -3  117.79   33.86
  20   2  -3   25.98   23.07
 -20  -2  -3  -41.86   22.57
 -20  -2  -3  -26.82   36.49
 -20   2  -3   17.99   32.35
 -20   2  -3    1.32   27.29
  20   2   3    7.22   25.76
  20  -2  -3  -38.30   27.93
 -20  -2   3   -2.06   21.47
 -20   2  -3   -8.59   34.04
 -20  -3  -3    7.20   23.92
  20   3  -3   33.85   23.37
 -20  -3  -3   36.54   39.46
  20  -3  -3   25.16   30.74
 -20   3  -3   56.39   25.48
 -20  -3   3   33.44   23.97
  20  -3  -3   65.85   25.76
 -20   3  -3   63.63   29.79
 -20   3  -3   62.34   32.33
  20   3   3   46.29   27.35
  20   4  -3   -3.51   23.68
 -20  -4  -3  -17.88   44.06
  20  -4   3  -43.16   33.46
 -20  -4  -3  -29.65   26.08
  20  -4   3  -42.21   25.78
  20   4   3  -31.00   26.73
 -20   4  -3   -3.60   30.28
  20  -4  -3  -17.65   30.18
 -20   4  -3   13.53   32.01
 -20   4  -3    2.57   27.67
 -20  -4   3   -7.48   22.87
  20  -4  -3   20.70   27.75
 -20  -5  -3  -24.19   25.26
 -20  -5  -3  -45.18   49.15
  20   5  -3   16.04   25.57
  20  -5   3  -11.36   36.58
 -20   5  -3   16.31   30.17
  20  -5  -3  -10.95   29.05
  20   5   3   -6.07   28.50
  20  -5  -3    1.73   28.12
 -20   5  -3  -36.24   31.48
 -20   5  -3   38.91   26.38
 -20  -5   3  -20.04   24.24
  20  -6   3    6.39   31.84
  20   6  -3  -12.65   27.71
 -20  -6  -3  -12.33   26.92
 -20  -6  -3   62.79   45.88
 -20   6  -3   54.02   31.12
  20  -6  -3  -51.84   29.07
 -20   6  -3   33.94   27.05
 -20  -6   3   -9.61   24.79
 -20   6  -3  -31.38   32.86
  20  -6  -3    7.78   29.93
  20   6   3   -6.09   31.27
  20   7  -3  -15.39   28.84
 -20  -7  -3  -43.29   29.01
  20  -7   3  -14.92   31.77
 -20  -7  -3  106.43   52.97
  20  -7   3  -12.61   33.14
 -20   7  -3    5.16   34.80
 -20  -7   3  -42.72   27.52
  20   7   3   -5.80   35.96
  20  -7  -3    8.29   32.92
  20  -7  -3    5.88   31.14
  20  -8   3   -1.54   31.07
 -20   8   3  -17.06   33.78
 -20  -8  -3  169.82   66.85
  20   8  -3  -23.72   32.20
 -20  -8  -3  -18.34   31.08
  20  -8  -3  -12.41   28.88
  20   8   3    0.47   37.20
 -20   8  -3   16.15   33.20
 -20   0  -4   20.74   25.50
 -20   0  -4    7.01   32.26
 -20   0  -4   26.58   20.73
 -20  -1  -4    7.86   24.68
 -20  -1  -4   -1.57   34.29
 -20   1  -4   24.40   26.61
 -20   1  -4   -2.65   25.39
 -20   1  -4   37.41   32.15
  20   1   4    4.84   17.72
  20  -1  -4  -32.91   28.39
 -20  -2  -4    3.28   36.53
  20   2  -4   19.35   22.73
 -20  -2  -4  -15.63   25.50
 -20   2  -4   12.30   26.94
 -20   2  -4  -17.92   32.03
  20   2   4   27.86   21.33
  20  -2  -4   16.26   23.10
 -20   2  -4  -17.58   25.62
 -20  -3  -4   -7.38   37.74
 -20  -3  -4    6.57   25.79
  20   3  -4   14.31   23.12
  20  -3  -4   -5.25   28.32
  20  -3  -4   57.02   26.80
 -20   3  -4    4.87   28.82
 -20   3  -4    2.36   27.36
 -20   3  -4   62.01   33.63
  20   3   4   42.53   23.65
  20  -4   4   48.90   37.26
 -20  -4  -4   28.00   25.86
  20   4  -4   45.68   24.21
  20  -4   4   -7.69   28.12
 -20  -4  -4    0.32   43.42
 -20   4  -4   52.48   27.33
 -20   4  -4   50.98   28.22
 -20   4  -4   81.39   32.58
  20   4   4   42.81   28.60
  20  -4  -4   41.97   29.41
  20  -4  -4   75.16   28.27
 -20  -5  -4  -40.39   48.70
  20  -5   4  -54.24   29.41
  20   5  -4    3.98   24.89
  20  -5   4   31.48   30.71
 -20  -5  -4  -30.30   27.38
 -20   5  -4   -1.82   26.84
  20  -5  -4  -15.50   29.03
  20  -5  -4   32.96   27.87
 -20   5  -4    2.60   31.35
 -20   5  -4  -13.89   29.27
  20   5   4  -32.51   29.19
 -20  -6  -4   15.21   54.47
 -20  -6  -4   15.74   28.74
  20  -6   4   50.73   32.77
  20   6  -4   37.19   28.34
  20  -6   4  -22.14   31.32
 -20   6  -4  -16.21   31.75
  20  -6  -4   55.22   30.26
  20  -6  -4    4.47   28.70
 -20   6  -4   43.49   28.03
 -20   6  -4   53.79   31.76
  20   6   4   13.99   32.19
 -20  -7  -4  -26.43   51.33
  20  -7   4  -34.89   38.29
 -20  -7  -4   16.54   29.12
  20  -7   4    6.66   31.98
  20   7  -4   -1.75   29.10
  20   7   4   22.74   36.52
  20  -7  -4  -45.74   29.29
 -20   7  -4   30.96   30.45
  20  -7  -4   52.79   32.26
 -20   7  -4   32.26   33.08
 -20   7  -4   41.02   28.67
  20   8  -4   12.65   30.28
  20   8   4  -18.46   38.88
 -20   0  -5  -14.03   23.56
 -20   0  -5   23.23   29.54
  20   0  -5    2.51   29.85
 -20   0  -5  -15.27   32.14
 -20  -1  -5  -22.16   26.10
 -20  -1  -5   57.87   23.16
 -20   1  -5  -15.19   26.54
  20  -1  -5  -47.99   28.34
 -20   1  -5   19.56   25.23
 -20   1  -5  -15.42   31.69
  20   2  -5   45.76   24.01
 -20  -2  -5   19.15   25.09
 -20  -2  -5  121.85   29.68
 -20  -2  -5   68.72   35.07
 -20   2  -5   30.24   26.98
  20  -2  -5   57.14   25.35
  20   2   5   43.82   21.24
 -20   2  -5   69.94   25.72
 -20   2  -5   66.53   32.17
  20   3  -5   32.55   23.56
 -20  -3  -5  -12.83   36.69
 -20  -3  -5  -17.88   25.05
  20  -3  -5   30.23   26.15
  20   3   5   -9.14   23.97
 -20   3  -5    8.92   30.04
 -20   3  -5    5.52   32.65
  20  -3  -5    2.16   31.13
 -20   3  -5   29.68   25.22
  20   4  -5   27.34   24.22
  20  -4   5   34.33   30.02
  20  -4   5  -27.20   27.51
 -20  -4  -5    1.13   27.55
 -20  -4  -5  -56.14   39.40
  20  -4  -5  -26.04   32.17
  20  -4  -5   55.92   27.53
 -20   4  -5   34.51   27.17
 -20   4  -5   17.88   26.19
  20   4   5  -17.44   22.83
 -20   4  -5   39.55   33.52
 -20  -5  -5   85.19   46.39
  20  -5   5   19.95   31.02
  20   5  -5   68.71   25.15
  20  -5   5   74.29   32.05
 -20  -5  -5   65.74   27.57
  20   5   5   20.42   23.92
  20  -5  -5   48.92   33.26
 -20   5  -5   95.55   30.31
  20  -5  -5  133.72   28.11
 -20   5  -5   91.15   28.73
 -20   5  -5  107.23   33.44
  20   6  -5    6.05   26.28
 -20  -6  -5   47.27   54.89
  20  -6   5   -8.85   35.35
 -20  -6  -5   30.99   27.19
 -20   6  -5   14.27   30.61
 -20   6  -5   30.10   29.76
  20  -6  -5   32.97   30.25
 -20   6  -5   34.08   28.85
  20   6   5   29.00   29.49
  20  -6  -5   20.98   31.07
 -20  -7  -5   17.97   28.90
  20   7  -5   -0.10   29.12
 -20  -7  -5  -20.04   61.76
  20  -7   5    0.81   32.96
  20  -7  -5  -25.98   29.98
  20  -7  -5    2.25   31.88
  20   7   5   37.61   36.58
 -20   7  -5   36.83   32.04
 -20   7  -5   39.26   28.70
 -20   7  -5   15.21   30.46
 -20   0  -6   10.21   25.93
 -20   0  -6  -30.81   31.40
 -20   0  -6   11.49   32.13
  20   0  -6  -11.53   30.64
 -20  -1  -6   45.57   31.17
 -20  -1  -6  -33.78   31.72
 -20  -1  -6    4.66   26.83
  20   1  -6  -53.75   31.17
  20  -1  -6   34.07   23.88
 -20   1  -6   34.73   28.70
 -20   1  -6    8.97   26.50
  20  -1  -6  -55.00   31.66
 -20   1  -6  -12.48   30.66
 -20  -2  -6    6.52   32.35
 -20  -2  -6  -14.43   26.69
  20  -2  -6  -25.06   30.67
  20   2   6   -7.11   34.02
 -20   2  -6   11.11   28.83
  20  -2  -6    5.44   25.06
 -20   2  -6   -9.37   26.18
 -20   2  -6   -1.15   31.65
 -20  -3  -6   76.89   36.22
 -20  -3  -6  128.64   32.25
  20   3  -6   51.17   23.91
 -20  -3  -6   19.62   27.16
  20  -3  -6   70.70   27.50
 -20   3  -6   60.36   32.18
  20  -3  -6   60.01   32.84
 -20   3  -6   39.34   25.39
 -20   3  -6   50.76   29.51
  20   3   6   27.32   27.80
 -20  -4  -6   27.00   27.12
  20  -4   6   17.32   28.59
  20  -4   6  -37.25   32.61
 -20  -4  -6   44.84   39.65
  20   4  -6   49.26   23.13
  20  -4  -6   72.52   27.64
 -20   4  -6   34.52   33.14
  20  -4  -6   19.74   31.85
 -20   4  -6   28.68   24.99
  20   4   6   15.28   27.79
 -20   4  -6    7.91   31.12
 -20  -5  -6   69.39   44.56
  20  -5   6   32.09   35.64
  20   5  -6   25.89   23.83
  20  -5   6  -22.20   31.92
 -20  -5  -6   50.16   28.27
  20  -5  -6  100.28   28.73
 -20   5  -6   35.75   30.84
 -20   5  -6   37.79   26.63
  20   5   6    1.66   27.08
  20  -5  -6    5.74   29.10
 -20   5  -6   31.68   32.07
  20  -6   6  -18.38   33.04
 -20  -6  -6   21.54   29.32
 -20  -6  -6   19.16   49.90
  20   6  -6   18.71   24.41
 -20   6  -6   43.06   31.90
  20   6   6  -22.74   27.69
  20  -6  -6   14.46   30.44
 -20   6  -6   48.23   30.82
 -20   6  -6   39.16   27.35
  20  -6  -6   69.17   29.66
 -20   0  -7   22.05   31.33
 -20   0  -7  -18.59   32.60
  20   0  -7   21.30   23.64
 -20   0  -7  -25.60   28.25
  20   0  -7  -39.24   32.11
 -20  -1  -7   14.98   34.89
 -20  -1  -7    4.42   26.74
 -20  -1  -7    0.84   31.95
  20   1  -7   33.15   33.92
 -20   1  -7    2.36   28.87
 -20   1  -7   38.92   30.04
  20  -1  -7   36.37   25.22
 -20   1  -7    8.25   30.82
  20  -1  -7  -30.27   32.39
 -20  -2  -7   83.54   30.58
 -20  -2  -7   28.47   33.33
  20   2  -7   -3.21   38.41
 -20  -2  -7   21.90   27.71
 -20   2  -7   25.66   29.50
 -20   2  -7   27.07   28.72
  20  -2  -7   13.34   33.72
 -20   2  -7   36.67   32.32
  20  -2  -7   50.96   26.01
 -20  -3  -7   30.19   37.85
 -20  -3  -7   12.62   27.30
 -20  -3  -7  102.13   33.15
  20   3  -7    8.45   38.78
  20   3  -7   -2.78   23.35
 -20   3  -7   21.87   26.86
 -20   3  -7   -7.97   32.00
  20  -3  -7   -2.45   31.24
  20  -3  -7   27.47   25.82
 -20   3  -7  -35.81   30.05
 -20  -4  -7  119.24   40.50
  20   4  -7   74.93   24.94
 -20  -4  -7   75.34   28.62
  20  -4   7   25.43   30.33
 -20  -4  -7  104.57   39.31
  20  -4  -7   81.87   32.63
 -20   4  -7   64.89   31.49
 -20   4  -7   72.31   25.99
  20  -4  -7  105.22   27.34
 -20   4  -7   51.79   32.79
 -20  -5  -7    4.84   28.30
  20  -5   7  -17.63   32.89
 -20  -5  -7   29.46   42.13
  20   5  -7   24.86   23.79
  20  -5  -7   47.18   27.16
  20   5   7   74.68   37.78
 -20   5  -7   46.07   30.92
 -20   5  -7   17.67   24.79
  20  -5  -7    6.06   31.67
 -20   5  -7   12.74   31.77
  20   0  -8   34.34   25.32
  20   0  -8   39.22   36.13
 -20   0  -8    1.05   33.26
 -20   0  -8  -27.58   31.13
 -20   0  -8  -46.37   31.61
 -20  -1  -8  -10.18   29.05
 -20  -1  -8    2.11   32.01
  20   1  -8   24.53   24.12
  20   1  -8   84.61   39.45
 -20  -1  -8   50.95   37.07
 -20   1  -8  -12.64   31.08
 -20   1  -8  -28.87   31.26
 -20   1  -8   21.69   29.86
  20  -1  -8   -9.15   34.26
  20  -1  -8   25.79   25.46
 -20  -2  -8   37.81   38.72
 -20  -2  -8    9.99   30.83
 -20  -2  -8   -6.06   34.65
  20   2  -8  100.15   40.98
 -20   2  -8  -10.48   29.73
 -20   2  -8  -57.43   30.56
  20  -2  -8   12.60   33.73
 -20   2  -8    6.15   31.78
  20  -2  -8    6.34   24.83
 -20  -3  -8   51.20   36.77
  20   3  -8  108.07   46.14
 -20  -3  -8   46.00   30.76
 -20  -3  -8  124.51   33.94
 -20   3  -8   11.29   32.16
 -20   3  -8   40.64   27.10
  20  -3  -8   60.30   26.17
 -20   3  -8   45.63   32.79
  20  -3  -8   73.43   33.56
  20   4  -8   10.05   24.57
  20  -4   8  -27.58   31.10
 -20  -4  -8   -0.62   29.90
 -20  -4  -8   15.84   39.73
  20  -4  -8   13.93   34.76
  20  -4  -8   18.88   26.54
 -20   4  -8   -9.82   31.39
 -20   4  -8  -30.78   32.06
 -20   4  -8   44.40   26.82
  20   0  -9    5.66   38.57
  20   0  -9   32.31   25.59
 -20   0  -9   21.38   33.95
 -20   0  -9   -5.45   32.50
 -20   0  -9   20.07   33.66
 -20  -1  -9   15.02   39.71
  20   1  -9  -46.92   40.05
 -20  -1  -9    5.79   34.23
 -20  -1  -9   -7.36   32.94
  20   1  -9   24.70   25.47
 -20   1  -9  -15.87   33.65
  20  -1  -9    0.78   25.18
 -20   1  -9  -16.51   32.52
 -20   1  -9   -7.99   32.16
  20  -1  -9  -22.94   37.87
 -20  -2  -9   41.93   43.57
 -20  -2  -9   17.14   32.32
 -20  -2  -9    6.62   36.86
  20   2  -9  -19.57   50.18
 -20   2  -9   21.16   29.29
 -20   2  -9    3.90   32.12
 -20   2  -9   42.75   32.22
  20  -2  -9   33.39   35.44
 -21   0   0  -27.94   35.33
 -21   0   0    4.45   27.61
 -21  -1   0  584.40   60.43
 -21   1   0  582.26   56.47
 -21  -1   0  724.30   60.73
  21   1   0  613.34   48.13
 -21   1   0  690.02   60.25
 -21   2   0  103.80   28.86
 -21  -2   0   72.33   28.56
 -21   2   0  191.26   30.67
 -21  -2   0  181.36   44.25
  21   2   0  124.49   27.95
 -21   2   0  180.31   37.28
 -21  -3   0   45.17   28.28
  21   3   0  116.33   27.78
 -21   3   0  101.94   26.51
 -21  -3   0   40.62   34.40
 -21   3   0  101.11   34.63
  21  -3   0   45.37   29.93
 -21   3   0   70.78   24.49
 -21   4   0   78.09   24.82
 -21  -4   0   29.02   37.93
  21   4   0   80.86   28.24
  21  -4   0   26.76   29.57
  21  -4   0  116.30   32.62
 -21  -4   0   49.75   28.35
 -21  -5   0   52.41   49.88
  21   5   0   47.75   29.72
  21  -5   0  -15.35   33.72
  21  -5   0   77.55   35.62
 -21  -5   0   11.46   28.15
 -21  -6   0   28.57   29.96
  21  -6   0   29.42   32.03
  21   6   0   23.60   32.33
  21  -6   0   -2.49   36.44
 -21  -7   0   18.67   32.32
  21  -7   0   51.36   40.96
  21  -7   0   48.00   32.48
 -21   7   0   92.45   26.31
  21   7   0   38.77   34.06
 -21   0   1  541.98   56.95
 -21   0  -1  560.41   58.36
 -21   0  -1  703.03   61.41
 -21   0   1  698.05   59.41
 -21   1   1   46.95   26.35
 -21   1   1   31.29   35.55
 -21  -1  -1   23.38   27.84
 -21  -1  -1   18.74   40.32
  21   1  -1   58.04   25.78
 -21  -1   1   39.56   37.80
  21   1   1   37.20   26.41
 -21   1  -1   40.75   27.83
 -21  -1   1   33.48   25.25
 -21   1  -1   19.00   36.44
 -21  -2  -1  403.62   54.84
 -21  -2  -1  368.76   52.84
 -21   2   1  400.63   50.88
  21   2  -1  342.28   38.39
 -21   2  -1  398.19   48.84
 -21  -2   1  459.47   53.33
 -21   2  -1  430.61   54.09
  21  -2  -1  300.86   57.40
  21   2   1  344.10   39.95
 -21  -3  -1   25.94   27.39
  21   3  -1   81.96   27.02
  21  -3   1   44.77   28.76
 -21   3   1   86.85   25.79
 -21  -3  -1  139.80   45.98
  21   3   1  102.98   28.52
 -21   3  -1   94.70   34.49
 -21   3  -1   81.85   26.83
 -21  -3   1   83.77   27.53
 -21   3  -1  134.09   37.10
  21  -3  -1   39.19   28.51
 -21  -3   1    1.58   50.97
  21  -3  -1  132.09   29.41
 -21  -4  -1  -48.60   27.21
  21  -4   1  -21.92   32.17
  21   4  -1  -23.83   26.38
  21  -4   1  -47.99   27.49
 -21   4   1   60.29   25.69
 -21  -4  -1   48.35   36.09
  21  -4  -1  -23.30   32.96
  21   4   1   -3.12   28.26
 -21  -4   1   -3.48   26.17
  21  -4  -1   18.89   30.56
 -21   4  -1   29.54   32.53
 -21  -4   1    8.04   33.13
 -21   4  -1   34.91   24.68
 -21   4  -1    1.25   25.69
  21  -5   1   -6.12   32.42
 -21  -5  -1   18.64   28.71
  21   5  -1   49.35   29.21
 -21   5   1   34.83   28.60
 -21  -5  -1   21.81   41.42
  21  -5   1   20.70   36.83
  21  -5  -1   -4.59   30.97
 -21   5  -1   84.19   24.32
 -21  -5   1   34.20   27.59
  21  -5  -1   81.42   34.23
 -21   5  -1   32.47   26.21
  21   5   1   41.93   30.52
  21  -6   1   62.44   40.44
 -21   6   1   20.61   25.98
 -21  -6  -1   45.21   48.14
  21   6  -1   68.84   31.78
  21  -6   1   30.10   32.06
 -21  -6  -1   43.87   30.76
 -21   6  -1   48.07   25.01
  21  -6  -1   34.07   33.61
 -21  -6   1   37.86   30.02
  21   6   1   53.28   32.36
  21  -6  -1  104.62   36.81
  21   7  -1   21.91   32.61
  21  -7   1   -0.25   32.44
 -21  -7  -1   -7.36   32.61
  21  -7   1   37.58   41.63
 -21   7   1    4.72   26.84
 -21  -7   1    6.11   31.77
  21  -7  -1  -31.93   30.63
  21   7   1  -10.04   34.41
 -21   7  -1   67.02   31.84
  21  -7  -1  -44.93   37.91
 -21   0   2   46.18   24.96
 -21   0  -2   36.78   36.87
 -21   0  -2   26.65   26.86
 -21  -1  -2  312.23   52.00
  21   1  -2  344.28   37.78
 -21   1   2  393.30   49.36
 -21  -1  -2  325.52   53.10
 -21  -1   2  385.47   49.31
  21   1   2  374.31   38.19
 -21   1  -2  396.29   53.85
 -21   1  -2  344.56   49.77
 -21  -2  -2  -53.62   38.88
 -21  -2  -2  -30.64   26.67
  21   2  -2   12.98   24.75
  21   2   2  -12.63   27.01
 -21   2  -2   16.44   33.98
 -21  -2   2    0.60   24.82
  21  -2  -2  -17.21   27.87
 -21   2  -2   17.01   26.43
 -21  -3  -2    2.06   41.98
  21   3  -2   71.02   26.02
 -21  -3  -2   12.26   27.99
  21  -3   2    9.24   27.01
  21  -3  -2    8.64   30.07
  21  -3  -2   95.52   27.70
  21   3   2   21.40   28.44
 -21  -3   2   21.90   24.88
 -21   3  -2  102.51   27.43
 -21   3  -2   76.55   33.89
 -21   3  -2   51.57   27.26
  21   4  -2   56.79   26.66
 -21  -4  -2   19.38   48.60
  21  -4   2   53.26   34.51
 -21  -4  -2   35.79   27.08
 -21  -4   2    4.69   25.62
  21   4   2   41.16   28.98
  21  -4  -2   72.85   31.10
 -21   4  -2  122.26   28.50
  21  -4  -2   27.61   32.25
 -21   4  -2   62.26   28.67
 -21   4  -2   72.58   33.89
  21   5  -2    3.77   27.65
  21  -5   2   -0.29   37.90
 -21  -5  -2   55.94   45.32
 -21  -5  -2    2.41   26.44
  21  -5   2  -33.29   32.65
 -21   5  -2   35.25   31.93
 -21  -5   2    4.45   27.41
  21  -5  -2  -16.07   33.48
 -21   5  -2   60.80   36.85
  21   5   2  -13.57   30.47
  21  -5  -2   25.97   31.35
 -21   5  -2   50.51   27.43
 -21  -6  -2   16.98   28.64
 -21  -6  -2   70.65   53.66
 -21   6   2   -4.39   35.18
  21  -6   2    0.42   32.82
  21   6  -2   12.63   30.75
  21  -6   2   -7.76   42.70
  21  -6  -2   25.17   33.70
  21   6   2    4.76   32.94
  21  -6  -2    4.34   31.37
 -21   6  -2   -1.43   34.23
 -21   6  -2    4.33   26.01
 -21  -6   2   17.49   29.27
  21   7  -2  -20.91   31.56
  21  -7   2  -23.10   32.76
 -21  -7  -2    5.12   30.08
 -21   7   2   -3.11   29.93
  21  -7   2    7.98   33.11
  21  -7  -2   19.86   37.87
  21  -7  -2   -7.53   30.92
 -21  -7   2  -15.54   31.23
  21   7   2    3.18   36.11
 -21   7  -2    9.50   35.02
 -21   0  -3   56.56   26.93
 -21   0  -3   61.47   35.53
 -21  -1  -3   47.45   28.96
 -21  -1  -3   11.45   35.40
 -21  -1  -3    0.12   27.77
 -21  -1   3   23.65   22.16
 -21   1  -3   -4.27   35.25
 -21   1  -3   32.15   29.15
  21  -1  -3  -34.49   28.79
 -21   1  -3   22.10   28.16
  21   1   3   26.78   20.48
  21   2  -3   56.68   26.08
 -21  -2  -3   13.33   27.18
 -21  -2  -3    1.20   41.53
 -21   2  -3   49.56   30.11
 -21   2  -3   52.70   33.79
 -21  -2   3   55.56   23.28
 -21   2  -3  114.15   24.46
  21  -2  -3  -21.36   30.59
  21   2   3   41.28   24.12
 -21  -3  -3  -27.73   24.87
  21  -3   3  -45.87   26.32
  21   3  -3   25.43   24.30
 -21  -3  -3   -8.91   45.70
 -21   3  -3   -8.76   32.13
 -21   3  -3    8.68   30.79
  21   3   3  -16.56   28.83
 -21   3  -3  -11.02   28.21
  21  -3  -3  -28.32   31.95
  21  -3  -3   23.33   27.79
 -21  -3   3   -6.14   23.46
  21  -4   3   43.22   37.04
 -21  -4  -3  -25.66   48.74
  21  -4   3  -40.16   27.22
  21   4  -3   12.54   24.69
 -21  -4  -3  -20.60   26.07
  21  -4  -3  -39.96   32.09
  21   4   3   27.80   30.52
 -21   4  -3   83.38   35.84
  21  -4  -3   28.09   30.25
 -21   4  -3   13.80   32.45
 -21  -4   3   -4.35   24.76
 -21   4  -3    3.83   26.53
  21  -5   3  -27.35   30.71
 -21  -5  -3   34.05   53.94
  21  -5   3    6.01   39.20
  21   5  -3   12.77   26.26
 -21  -5  -3  -10.63   27.07
 -21   5  -3   -9.33   32.10
 -21   5  -3   37.41   28.62
 -21  -5   3   -0.72   25.90
  21   5   3   26.40   31.59
 -21   5  -3   55.40   37.06
  21  -5  -3   44.32   31.17
  21  -5  -3  -13.31   33.21
  21  -6   3   -2.22   32.23
 -21  -6  -3  -14.07   28.30
  21   6  -3  -11.44   28.30
  21  -6   3  -26.60   34.02
 -21   6  -3   11.64   27.52
 -21   6  -3   36.20   32.03
 -21   6  -3   16.02   37.78
  21  -6  -3  -48.26   32.57
  21   6   3  -17.91   33.57
 -21  -6   3  -19.85   27.55
  21  -6  -3   21.85   31.87
  21   7  -3   20.98   31.20
 -21  -7  -3  -11.55   31.64
 -21  -7  -3  138.12   64.42
 -21   7  -3   52.41   35.84
  21   7   3  -45.01   36.14
 -21   0  -4    2.83   33.86
  21   0  -4  -13.74   29.82
 -21   0  -4   15.84   28.88
 -21  -1  -4  -20.17   37.03
 -21  -1  -4   63.49   28.82
 -21  -1  -4  -24.06   25.56
 -21   1  -4   -6.70   26.96
  21  -1  -4  -18.20   31.12
 -21   1  -4   55.51   22.56
 -21   1  -4  -16.83   32.60
  21   2  -4   24.65   25.29
 -21  -2  -4    6.49   24.73
 -21  -2  -4    4.98   38.07
 -21  -2  -4   89.44   27.67
  21  -2  -4   41.07   25.38
  21  -2  -4   -1.54   30.49
  21   2   4   24.74   22.88
 -21   2  -4    6.49   34.59
 -21   2  -4   52.98   32.24
 -21   2  -4  -19.28   28.09
 -21  -3  -4   29.98   42.11
  21   3  -4   20.96   25.42
 -21  -3  -4   -5.29   25.25
  21  -3  -4  -10.16   32.54
  21  -3  -4   40.57   28.11
  21   3   4   20.58   21.99
 -21   3  -4   -5.20   31.11
 -21   3  -4   23.80   33.76
 -21   3  -4   18.14   28.38
 -21  -4  -4  -40.75   46.42
 -21  -4  -4  -29.98   27.82
  21  -4   4    1.26   39.39
  21   4  -4   16.26   26.12
  21  -4   4  -47.35   28.53
  21   4   4   15.53   25.87
  21  -4  -4   24.76   29.41
  21  -4  -4  -15.01   33.83
 -21   4  -4   -0.92   34.09
 -21   4  -4   24.03   30.18
 -21   4  -4   32.04   32.50
 -21  -5  -4   10.76   54.46
  21  -5   4   40.30   31.64
  21  -5   4  -18.83   31.74
 -21  -5  -4   31.30   28.23
  21   5  -4   50.83   26.78
  21   5   4   51.53   33.02
 -21   5  -4   52.69   32.51
 -21   5  -4   51.29   33.49
  21  -5  -4   68.28   30.98
 -21   5  -4   50.49   29.32
  21  -5  -4   41.80   34.74
  21  -6   4  -40.03   33.01
 -21  -6  -4   48.40   58.09
  21   6  -4   15.96   28.36
  21  -6   4   34.82   35.03
 -21  -6  -4  -14.43   29.25
  21  -6  -4    1.24   32.18
  21   6   4   -5.63   35.03
 -21   6  -4   45.79   35.88
 -21   6  -4   36.21   29.25
  21  -6  -4   13.42   31.76
 -21   6  -4   54.28   33.01
 -21   0  -5  -12.93   34.30
  21   0  -5  -17.99   32.17
 -21   0  -5   65.50   22.01
 -21   0  -5    5.73   28.23
 -21  -1  -5  -14.12   25.07
  21   1  -5   -3.91   33.36
 -21  -1  -5   68.53   25.79
 -21  -1  -5  -25.33   35.47
 -21   1  -5  -22.46   33.08
  21  -1  -5   -6.54   32.17
 -21   1  -5  -21.99   27.23
 -21   1  -5   11.95   28.76
  21  -1  -5   13.80   24.04
 -21  -2  -5  -11.19   36.69
 -21  -2  -5  -39.94   25.62
 -21   2  -5  -18.60   33.71
 -21   2  -5    5.50   27.72
  21  -2  -5   -2.36   27.16
  21  -2  -5  -25.99   31.74
 -21   2  -5   20.12   29.49
  21   2   5   28.32   26.43
  21   3  -5   13.02   24.84
 -21  -3  -5   12.46   40.54
 -21  -3  -5   -7.42   25.93
  21  -3   5  -22.54   26.95
  21  -3  -5  -19.49   33.56
  21   3   5  -16.99   25.93
  21  -3  -5   24.30   28.77
 -21   3  -5   26.50   34.30
 -21   3  -5   26.68   30.03
 -21   3  -5    6.33   31.15
  21  -4   5  -21.29   31.42
 -21  -4  -5   14.80   45.31
 -21  -4  -5   12.80   27.65
  21  -4   5  -16.46   28.91
  21   4  -5   31.77   25.15
  21  -4  -5   63.03   29.66
  21   4   5   -1.77   26.72
 -21   4  -5   32.31   29.35
  21  -4  -5   -0.51   31.81
 -21   4  -5   13.67   33.72
 -21   4  -5   16.62   29.88
  21  -5   5    7.78   34.44
  21   5  -5  -10.90   24.78
 -21  -5  -5  -12.68   27.79
 -21  -5  -5  -64.40   50.51
 -21   5  -5   16.72   31.69
  21   5   5   22.45   26.58
  21  -5  -5  -16.86   31.93
 -21   5  -5   10.79   30.95
 -21   5  -5   20.03   33.31
  21  -5  -5    2.40   28.54
 -21  -6  -5   37.78   29.52
  21   6  -5   20.67   26.39
 -21   6  -5   28.06   30.17
 -21   6  -5   42.12   32.97
  21   6   5   16.19   28.35
  21   0  -6   14.56   24.42
  21   0  -6   53.09   35.31
 -21   0  -6   -5.11   27.99
 -21   0  -6   51.30   31.47
 -21   0  -6    2.43   33.90
 -21  -1  -6  -32.14   26.11
 -21  -1  -6  -31.84   34.70
  21   1  -6  -15.88   35.10
 -21   1  -6   -3.29   30.42
 -21   1  -6  -41.45   34.31
 -21   1  -6   61.96   30.28
  21  -1  -6   19.01   25.70
  21  -1  -6  -12.77   34.97
 -21  -2  -6    4.50   37.97
 -21  -2  -6    7.94   26.59
  21   2  -6   44.84   36.85
 -21   2  -6   42.27   28.71
 -21   2  -6   -7.15   32.12
  21  -2  -6   26.71   27.27
  21  -2  -6   -6.43   32.55
 -21   2  -6   15.45   31.29
 -21  -3  -6  -43.03   39.14
 -21  -3  -6   -7.72   27.29
  21   3  -6   16.88   25.24
  21   3   6   57.85   32.36
  21  -3  -6   16.07   33.64
 -21   3  -6  -15.93   33.81
  21  -3  -6   34.98   27.11
 -21   3  -6  -17.39   30.89
 -21   3  -6   22.83   27.74
  21  -4   6  -28.76   37.08
 -21  -4  -6   32.70   43.14
  21  -4   6    8.11   29.88
 -21  -4  -6  -22.23   29.86
  21   4  -6   14.02   25.46
  21  -4  -6  -28.59   32.92
 -21   4  -6   -2.87   29.88
  21   4   6   37.53   30.34
  21  -4  -6   52.29   27.87
 -21   4  -6   26.63   29.12
 -21   4  -6  -20.99   34.24
  21   5  -6   64.20   26.07
 -21  -5  -6   40.16   29.28
 -21  -5  -6   61.93   48.95
  21  -5   6  -33.11   33.14
 -21   5  -6   71.81   30.10
  21  -5  -6   36.55   34.37
 -21   5  -6   28.44   31.40
 -21   5  -6   52.31   34.24
  21   5   6   19.79   33.36
 -21   0  -7  -40.10   32.79
  21   0  -7  -47.91   34.94
 -21   0  -7   -3.90   27.77
 -21   0  -7   25.85   35.69
  21   0  -7   47.49   25.83
 -21  -1  -7  -15.36   30.10
  21   1  -7   59.07   38.80
 -21  -1  -7  -28.67   34.14
  21   1  -7   33.94   24.72
 -21  -1  -7   96.67   31.32
 -21   1  -7   14.19   29.67
  21  -1  -7   -0.36   34.55
 -21   1  -7  -10.42   32.61
 -21   1  -7   10.97   33.26
  21  -1  -7   10.09   26.35
  21   2  -7  -25.49   39.88
 -21  -2  -7  -14.71   30.51
 -21  -2  -7  -32.49   35.01
  21  -2  -7   16.01   26.93
  21  -2  -7    1.39   34.27
 -21   2  -7   25.66   34.73
 -21   2  -7  -11.99   30.44
 -21   2  -7  -33.33   30.59
  21   3  -7   55.95   42.68
 -21  -3  -7   13.94   31.53
 -21  -3  -7  -13.13   38.52
  21  -3   7  -15.06   28.63
 -21   3  -7   -1.76   27.13
 -21   3  -7   11.05   33.80
  21  -3  -7   27.96   26.95
  21  -3  -7   47.36   35.59
 -21   3  -7   17.74   32.14
  21   4  -7   24.31   26.76
 -21   4  -7    9.81   27.46
 -21   0  -8   -6.40   34.12
 -21   0  -8   26.12   36.81
  21   0  -8   43.55   40.11
 -21   0  -8  -21.21   31.06
  21   1  -8   36.71   42.47
 -21  -1  -8   -4.40   37.52
 -21  -1  -8   42.72   41.67
 -21  -1  -8    3.17   33.21
 -21   1  -8    2.94   34.54
 -21   1  -8   -6.67   31.11
 -21   1  -8   38.28   35.63
  21  -1  -8  -39.58   37.77
 -22   0   0  765.63   63.49
 -22   0   0  574.41   59.77
 -22  -1   0   32.05   40.34
 -22   1   0   37.07   38.00
 -22  -1   0   29.14   28.25
 -22   1   0   24.55   27.80
 -22  -2   0  274.93   52.51
 -22   2   0  229.35   41.42
  22   2   0  240.43   37.16
 -22   2   0  295.41   51.59
  22   3   0  119.95   29.95
 -22   3   0  125.79   29.09
  22  -3   0  148.89   33.61
  22  -3   0   66.35   31.39
 -22  -3   0   73.98   28.89
  22  -4   0  -20.68   32.08
  22   4   0   -7.23   30.25
  22  -4   0   24.38   35.30
 -22  -4   0  -27.57   41.67
 -22  -4   0   -5.45   29.93
  22  -5   0   -4.08   35.36
  22   5   0   65.32   31.66
 -22  -5   0   51.87   32.12
  22  -5   0   86.59   38.94
 -22   5   0  112.46   29.36
 -22  -5   0  -37.58   49.65
  22   6   0   96.39   35.06
 -22  -6   0   59.75   33.65
  22  -6   0   56.73   34.71
 -22   6   0   60.93   29.32
 -22   0   1   21.35   26.30
 -22   0   1   -1.95   38.31
 -22   0  -1   18.33   26.79
 -22   0  -1   22.28   40.56
 -22  -1  -1  463.17   56.41
 -22   1   1  454.46   53.10
 -22  -1  -1  323.30   55.35
 -22   1   1  307.03   51.64
 -22  -1   1  449.65   53.70
 -22   1  -1  358.91   51.68
 -22   1  -1  471.58   57.33
  22   2  -1  101.11   29.20
 -22   2   1   27.70   26.48
 -22  -2  -1   87.30   45.62
 -22   2  -1   36.94   27.27
  22  -2  -1   17.13   32.53
  22   2   1   78.08   28.95
 -22   2  -1   91.20   36.43
 -22  -2   1   30.53   27.62
  22  -3   1  -21.49   31.58
 -22  -3  -1  -35.24   28.06
  22   3  -1   26.61   28.46
 -22  -3  -1  -14.71   39.70
 -22   3  -1   47.67   36.47
  22  -3  -1   24.95   31.87
  22   3   1   23.39   28.98
 -22   3  -1   35.65   28.40
  22  -3  -1   67.92   29.80
 -22  -3   1  -20.55   37.42
 -22  -3   1   31.57   28.79
  22   4  -1   70.80   30.99
 -22  -4  -1   56.16   29.57
  22  -4   1   90.98   37.70
 -22  -4  -1   21.01   39.68
  22  -4  -1   66.46   36.39
  22  -4  -1  100.08   34.84
 -22  -4   1   66.92   30.80
  22   4   1   22.66   31.55
 -22   4  -1   81.02   29.88
 -22   4  -1   93.16   28.37
 -22   4  -1  105.73   35.28
 -22  -4   1   11.25   40.31
 -22  -5  -1    4.29   30.59
  22  -5   1  114.14   41.32
 -22  -5  -1   80.00   46.96
  22   5  -1   46.03   30.75
  22  -5   1   13.90   34.28
  22  -5  -1   91.52   36.53
  22  -5  -1   50.92   34.79
 -22  -5   1   34.36   31.22
 -22   5  -1  108.39   28.48
  22   5   1   59.10   33.00
 -22   6   1   78.66   36.00
  22   6  -1   51.89   33.57
  22  -6   1   55.45   34.10
 -22  -6  -1   12.02   31.88
 -22  -6  -1  179.99   71.61
  22  -6  -1   30.63   34.03
 -22   6  -1   92.20   27.59
 -22  -6   1   28.06   34.15
  22   6   1   -1.11   35.08
 -22   0  -2  173.20   41.90
 -22   0  -2  122.37   31.26
 -22   0   2  243.59   45.23
 -22  -1  -2   -0.97   40.84
 -22  -1  -2  -11.32   28.65
 -22   1   2   33.84   23.89
  22  -1  -2  -15.91   30.97
 -22  -1   2    6.20   24.87
 -22   1  -2  -19.82   38.08
 -22   1  -2   45.20   28.03
 -22  -2  -2  141.57   45.63
 -22  -2  -2   47.98   28.48
  22   2  -2  103.19   28.93
 -22   2  -2   77.74   29.42
 -22  -2   2   57.67   26.23
  22  -2  -2   42.92   33.15
  22   2   2   76.25   30.38
 -22   2  -2   58.93   36.42
  22  -3   2  -32.54   30.31
 -22  -3  -2    8.24   28.19
 -22  -3  -2    4.30   46.35
  22   3  -2   28.47   28.44
 -22   3  -2   33.25   36.61
  22  -3  -2  -13.08   32.71
 -22   3  -2   -6.49   27.27
  22  -3  -2   50.30   30.38
 -22  -3   2   18.75   27.05
  22   3   2   29.42   30.47
  22   4  -2   15.80   28.09
 -22  -4  -2  -24.57   42.73
  22  -4   2  -51.96   27.96
  22  -4   2   58.70   38.66
 -22  -4  -2  -21.28   28.28
  22  -4  -2   39.21   32.77
 -22   4  -2    1.12   34.55
  22  -4  -2  -26.73   33.68
 -22   4  -2   30.60   27.20
 -22   4  -2   52.77   31.32
  22   4   2  -34.61   32.07
 -22  -4   2   -7.45   27.74
  22   5  -2   39.63   29.59
 -22  -5  -2   29.87   30.51
 -22  -5  -2   70.06   44.16
  22  -5   2   69.23   42.15
  22  -5   2   34.21   35.86
 -22  -5   2   31.02   29.90
  22   5   2   71.14   33.60
 -22   5  -2   95.80   34.62
 -22   5  -2   40.40   27.41
  22  -5  -2   29.82   34.83
  22  -5  -2   81.34   35.47
  22   6  -2   20.45   30.98
  22   6   2   45.97   35.81
 -22   0  -3    2.52   27.52
 -22   0  -3   16.69   38.34
 -22  -1  -3  -35.78   39.45
 -22  -1  -3   -6.76   27.44
 -22   1  -3   -1.72   29.91
  22  -1  -3  -29.83   31.13
 -22   1  -3  -24.30   37.97
 -22  -2  -3    9.70   27.56
  22   2  -3  -11.09   27.43
 -22  -2  -3  -17.40   42.10
 -22   2  -3  -21.20   28.56
  22  -2  -3   36.70   27.13
  22   2   3   21.52   23.03
 -22   2  -3  -13.87   36.23
  22  -2  -3  -59.81   31.82
 -22  -3  -3  -16.38   28.79
  22   3  -3   15.62   27.78
 -22  -3  -3   21.43   44.41
  22  -3   3  -38.42   28.77
  22   3   3  -28.73   27.43
 -22  -3   3    2.65   24.25
  22  -3  -3   25.35   29.63
 -22   3  -3   79.06   29.48
  22  -3  -3  -54.25   33.77
 -22   3  -3  -18.19   34.63
 -22   3  -3   33.88   30.65
  22  -4   3  -41.25   28.87
 -22  -4  -3   32.70   28.44
  22  -4   3   24.90   40.90
  22   4  -3   10.64   27.38
 -22  -4  -3    1.84   51.52
  22  -4  -3   12.33   31.10
 -22   4  -3    8.86   34.13
  22   4   3  -14.14   33.43
 -22   4  -3  -10.66   30.01
  22  -4  -3   -7.57   33.87
 -22  -4   3   14.07   26.94
  22  -5   3   -5.02   42.71
 -22  -5  -3   80.49   51.78
  22  -5   3  -38.05   33.07
 -22  -5  -3    8.53   27.51
  22   5  -3   18.78   28.13
  22  -5  -3  -41.65   32.75
  22   5   3   -8.28   35.35
  22  -5  -3   12.13   33.28
 -22   5  -3   10.44   29.42
 -22  -5   3   -3.54   27.45
 -22   5  -3   35.37   33.80
 -22   5  -3   58.78   38.39
 -22   0  -4   84.48   32.72
 -22   0  -4  -35.12   28.02
 -22   0  -4  -42.81   36.92
  22   0  -4  -11.21   33.04
 -22  -1  -4  -39.36   38.18
 -22  -1  -4    0.25   29.35
 -22   1  -4  -34.82   36.08
 -22   1  -4   -1.59   29.88
  22  -1  -4  -13.18   34.52
 -22  -2  -4   -3.41   28.33
 -22  -2  -4  -35.92   42.96
 -22   2  -4  -16.16   28.61
  22  -2  -4  -19.76   33.93
  22  -2  -4   17.64   28.49
  22   2   4    3.85   25.49
 -22   2  -4  -28.96   36.10
  22  -3   4  -42.78   28.30
 -22  -3  -4   -9.01   26.33
  22   3  -4   19.71   27.14
 -22  -3  -4   40.07   47.90
 -22   3  -4   10.54   29.35
 -22   3  -4   41.21   31.51
 -22   3  -4   16.76   35.37
  22  -3  -4   14.98   36.19
  22  -3  -4   41.97   29.46
  22   3   4   11.43   25.58
 -22  -4  -4   18.98   51.94
 -22  -4  -4   -6.91   27.08
  22  -4   4  -43.31   28.96
  22   4  -4    2.09   27.41
  22  -4   4   28.31   43.01
  22  -4  -4  -54.13   35.00
 -22   4  -4   -3.90   30.37
  22   4   4   54.07   27.36
  22  -4  -4   14.74   29.68
 -22   4  -4   -9.18   34.12
 -22   4  -4   49.79   37.43
 -22  -5  -4    0.52   28.71
  22   5  -4   22.55   29.15
  22   5   4  -52.54   28.68
 -22   5  -4   50.33   39.90
 -22   5  -4   13.10   30.25
 -22   0  -5   -5.78   35.68
 -22   0  -5   -4.07   29.45
 -22  -1  -5    7.39   40.19
  22   1  -5    2.51   36.42
 -22  -1  -5   -7.84   29.05
  22  -1  -5   40.23   26.91
 -22   1  -5    6.62   35.30
  22  -1  -5   18.73   35.86
 -22   1  -5  -17.38   29.41
 -22  -2  -5   21.50   42.11
 -22  -2  -5   17.21   27.33
  22  -2  -5   16.56   29.35
  22   2   5  -41.43   34.38
 -22   2  -5   88.65   33.68
 -22   2  -5  -10.88   30.34
  22  -2  -5    6.56   35.93
 -22   2  -5   16.69   36.16
  22  -3   5  -20.10   28.59
 -22  -3  -5   35.94   44.29
  22   3  -5    2.87   27.47
 -22  -3  -5  -14.45   28.94
 -22   3  -5  -11.82   29.90
  22  -3  -5   30.81   30.50
 -22   3  -5   28.01   34.38
 -22   3  -5   11.05   34.29
  22   3   5   43.19   29.23
  22  -3  -5   -5.23   35.24
  22  -4   5  -27.28   29.72
  22   4  -5    9.80   27.55
 -22  -4  -5  -36.36   48.63
 -22  -4  -5  -11.39   28.21
 -22   4  -5   20.81   35.25
  22  -4  -5  -38.02   34.45
 -22   4  -5   40.15   33.93
 -22   4  -5   39.17   35.60
  22   4   5  -27.51   29.27
  22   0  -6   78.90   38.99
 -22   0  -6   -1.23   37.85
 -22   0  -6  -15.32   28.76
 -22   0  -6   69.37   25.66
  22   0  -6   33.10   26.41
 -22  -1  -6   10.16   29.81
  22   1  -6  -46.02   38.68
 -22  -1  -6  -27.94   37.14
  22  -1  -6   16.72   28.10
 -22   1  -6    0.70   32.61
  22  -1  -6  -41.50   38.43
 -22   1  -6   27.43   30.04
 -22   1  -6  -39.95   33.70
 -22  -2  -6  -14.42   40.56
  22   2  -6   21.23   41.09
 -22  -2  -6  -21.22   30.50
  22  -2  -6  -26.17   36.28
 -22   2  -6   62.87   33.78
 -22   2  -6   -7.78   36.85
 -22   2  -6   16.89   33.48
  22  -2  -6   17.66   30.14
 -23   0   0   21.57   27.07
 -23   0   0   69.58   42.28
 -23  -1   0  122.07   30.75
 -23  -1   0  201.70   44.69
 -23   1   0  298.73   52.32
 -23   1   0  222.67   43.74
 -23  -2   0   42.42   30.14
 -23   2   0   20.68   38.92
  23  -2   0  -24.27   31.30
  23   2   0   26.70   30.76
 -23   2   0   27.20   28.53
 -23  -2   0  -31.80   34.33
 -23  -3   0    3.67   29.41
  23  -3   0  -20.03   30.97
  23   3   0   28.42   31.42
  23  -3   0   -6.35   33.64
 -23  -3   0  -38.72   38.42
 -23   3   0    9.50   25.24
  23  -4   0   20.20   35.61
  23   4   0   43.64   33.51
 -23  -4   0   59.78   31.12
 -23  -4   0   -9.56   44.02
 -23   0  -1  216.62   43.30
 -23   0  -1  149.53   31.74
 -23   0   1   75.86   40.44
 -23  -1  -1   -0.41   28.50
 -23  -1  -1    5.78   45.57
 -23   1   1   22.61   26.15
 -23  -1   1   -4.48   26.83
 -23   1  -1   -8.80   27.07
  23  -1  -1  -32.38   30.22
 -23   1  -1   25.75   39.75
 -23  -2  -1   -0.82   28.15
 -23   2   1   54.14   25.71
  23   2  -1   62.03   31.27
  23  -2   1   15.68   30.72
 -23  -2  -1   50.12   47.99
  23  -2  -1   21.02   32.90
 -23   2  -1   54.07   30.92
  23   2   1   67.22   32.69
 -23   2  -1   61.17   39.00
 -23  -2   1   18.92   28.28
 -23  -3  -1   -1.56   39.81
 -23  -3  -1   34.23   30.98
  23  -3   1   63.97   36.21
  23  -3   1  -13.99   31.01
  23   3  -1   31.19   31.54
  23  -3  -1  -27.58   35.27
 -23   3  -1  102.44   38.49
 -23   3  -1   75.09   28.36
  23  -3  -1   65.00   33.98
 -23  -3   1   19.50   28.70
  23   3   1   98.08   32.87
 -23  -4  -1  -12.58   31.68
 -23  -4  -1  -14.58   45.80
  23  -4   1  -42.98   34.03
  23   4  -1   15.76   31.25
  23   4   1   21.76   33.93
  23  -4  -1    5.11   37.71
 -23   4  -1   20.91   27.15
 -23  -4   1    4.10   30.37
 -23   0  -2   -3.99   27.63
 -23   0   2   -6.57   24.36
 -23   0  -2   19.03   42.71
 -23  -1  -2    0.03   43.96
 -23  -1  -2    6.30   29.73
 -23  -1   2   38.22   26.41
  23  -1  -2   33.38   33.74
 -23   1  -2    8.65   39.90
 -23   1  -2   29.78   30.46
 -23  -2  -2   37.06   30.43
 -23  -2  -2   42.74   48.02
  23  -2   2   -4.51   29.83
  23   2  -2   33.49   30.69
  23   2   2   39.42   28.33
  23  -2  -2  -19.55   33.44
  23  -2  -2   53.66   30.73
 -23  -2   2   39.80   26.83
 -23   2  -2   49.94   37.64
 -23   2  -2  -14.80   28.21
 -23  -3  -2   -6.58   30.39
 -23  -3  -2   14.35   49.34
  23   3  -2   -3.94   29.99
  23  -3   2  -34.45   30.56
 -23   3  -2  -19.73   30.98
 -23   3  -2   -7.41   37.54
  23  -3  -2  -41.57   36.37
  23  -3  -2    7.80   33.15
  23   3   2   44.96   33.37
 -23  -3   2  -16.18   28.42
  23   4  -2   14.23   31.37
 -23  -4  -2   59.32   30.53
  23   4   2   55.94   34.30
 -23   4  -2  137.23   32.27
 -23  -4   2    5.11   30.54
 -23   4  -2   22.25   30.62
  23   0  -3  -17.83   33.28
 -23   0  -3    4.27   42.13
 -23   0  -3    6.13   30.81
 -23  -1  -3   25.43   42.63
 -23  -1  -3   -2.36   29.21
 -23   1  -3   30.27   29.73
 -23   1  -3   48.33   40.19
 -23  -2  -3   32.46   45.78
 -23  -2  -3  -12.63   28.92
  23  -2  -3   17.76   30.77
 -23   2  -3  -19.55   38.23
 -23   2  -3  -11.65   31.35
  23   2   3  -12.85   26.92
  23  -2  -3   -5.49   35.64
 -23  -3  -3   21.66   48.72
  23   3  -3   58.31   31.88
 -23  -3  -3    9.44   30.13
  23  -3   3  -23.35   30.86
 -23   3  -3    4.76   37.03
  23   3   3    4.53   26.06
 -23   3  -3   10.53   29.05
  23  -3  -3    8.35   38.33
  23   0  -4  -16.36   38.02
 -23   0  -4   -9.92   39.94
 -23   0  -4   17.29   28.67
 -23   0  -4  102.92   38.75
  23   1  -4   -9.45   38.21
 -23  -1  -4  -51.58   41.81
 -23  -1  -4   -2.50   29.09
  23  -1  -4    1.75   28.39
  23  -1  -4  -39.81   33.91
 -23   1  -4  -18.22   39.08
 -23   1  -4  -37.70   32.33
 -23  -2  -4    3.21   44.47
 -23  -2  -4  -13.90   28.86
  23  -2  -4  -15.41   36.63
 -23   2  -4    2.61   38.97
 -23   2  -4   89.38   33.42
 -23   2  -4  -20.50   29.11


 _exptl_absorpt_process_details
)
 SADABS 2016/2: Krause, L., Herbst-Irmer, R., Sheldrick G.M. & Stalke D.,
 J. Appl. Cryst. 48 (2015) 3-10
)
 _exptl_absorpt_correction_type   multi-scan
 _exptl_absorpt_correction_T_max  0.7472
 _exptl_absorpt_correction_T_min  0.5021
 _exptl_special_details
)
 The following wavelength and cell were deduced by SADABS from the
 direction cosines etc. They are given here for emergency use only:
 CELL 1.54184   20.657   22.200   31.082   89.919   89.647   90.303
)

_computing_structure_solution     'SHELXT 2014/4 (Sheldrick, 2014)'
_computing_structure_solution     'SHELXT 2014/4 (Sheldrick, 2014)'
_computing_structure_solution     'SHELXT 2014/4 (Sheldrick, 2014)'
_computing_structure_solution     'SHELXT 2014/4 (Sheldrick, 2014)'
;
_shelx_hkl_checksum              56060
_olex2_submission_special_instructions 'No special instructions were received'
loop_
_space_group_symop_operation_xyz
'x, y, z'
'-x, -y, z'
'-x+1/2, y+1/2, -z+1/2'
'x+1/2, -y+1/2, -z+1/2'
'-x, -y, -z'
'x, y, -z'
'x-1/2, -y-1/2, z-1/2'
'-x-1/2, y-1/2, z-1/2'
loop_
_atom_site_label
_atom_site_type_symbol
_atom_site_fract_x
_atom_site_fract_y
_atom_site_fract_z
_atom_site_U_iso_or_equiv
_atom_site_adp_type
_atom_site_occupancy
_atom_site_site_symmetry_order
_atom_site_calc_flag
_atom_site_refinement_flags_posn
_atom_site_refinement_flags_adp
_atom_site_refinement_flags_occupancy
Zr1 Zr 0.42543(14) 0.4593(3) 0.5000 0.101(3) Uani 1 2 d S TU P
Zr2 Zr 0.51950(11) 0.4189(3) 0.57877(19) 0.115(3) Uani 1 1 d . U .
O4 O 0.1244(6) -0.0005(11) 0.9399(10) 0.095(9) Uani 1 1 d D U .
O3 O 0.0880(7) 0.0747(12) 0.8885(13) 0.142(12) Uani 1 1 d D U .
O5 O 0.4675(8) 0.4930(15) 0.5763(13) 0.119(9) Uani 1 1 d . U .
O2 O 0.4073(7) 0.3778(13) 0.5615(10) 0.141(11) Uani 1 1 d D U .
O7 O 0.5562(14) 0.4264(19) 0.5000 0.129(16) Uani 1 2 d S TU P
O8 O 0.5418(10) 0.3188(16) 0.5652(19) 0.215(19) Uani 1 1 d . . .
O6 O 0.4848(10) 0.4019(16) 0.5000 0.100(10) Uani 1 2 d S TU P
O9 O 0.5156(8) 0.441(2) 0.6761(13) 0.23(2) Uani 1 1 d . . .
C8 C 0.1242(6) 0.0456(10) 0.8993(8) 0.118(12) Uani 1 1 d D U .
O1 O 0.4678(7) 0.3510(18) 0.6113(14) 0.27(3) Uani 1 1 d D U .
C1 C 0.4264(8) 0.3420(10) 0.6027(10) 0.199(16) Uani 1 1 d D U .
C9 C 0.1637(6) 0.0627(8) 0.8680(8) 0.143(12) Uani 1 1 d D U .
N2 N 0.2884(8) 0.1648(13) 0.7511(12) 0.39(2) Uani 1 1 d D U .
C2 C 0.4014(8) 0.2948(9) 0.6367(8) 0.223(15) Uani 1 1 d D U .
C7 C 0.3558(8) 0.2959(14) 0.6310(14) 0.232(16) Uani 1 1 d D U .
H7 H 0.3423 0.3270 0.6056 0.278 Uiso 1 1 calc R . .
C6 C 0.3304(7) 0.2500(17) 0.6636(16) 0.242(17) Uani 1 1 d D U .
H6 H 0.2998 0.2504 0.6599 0.291 Uiso 1 1 calc R . .
C14 C 0.2027(7) 0.0321(13) 0.8858(12) 0.179(14) Uani 1 1 d D U .
H14 H 0.2027 0.0010 0.9175 0.215 Uiso 1 1 calc R . .
C4 C 0.3966(11) 0.2027(12) 0.7073(12) 0.223(15) Uani 1 1 d D U .
H4 H 0.4101 0.1717 0.7328 0.268 Uiso 1 1 calc R . .
C5 C 0.3509(10) 0.2036(12) 0.7017(11) 0.240(17) Uani 1 1 d D U .
C10 C 0.1632(7) 0.1090(12) 0.8208(11) 0.188(15) Uani 1 1 d D U .
H10 H 0.1369 0.1292 0.8092 0.225 Uiso 1 1 calc R . .
C11 C 0.2024(8) 0.1252(13) 0.7907(12) 0.224(17) Uani 1 1 d D U .
H11 H 0.2021 0.1563 0.7590 0.268 Uiso 1 1 calc R . .
C13 C 0.2419(6) 0.0482(15) 0.8559(14) 0.207(16) Uani 1 1 d D U .
H13 H 0.2682 0.0279 0.8678 0.248 Uiso 1 1 calc R . .
C3 C 0.4221(8) 0.2488(12) 0.6744(12) 0.219(15) Uani 1 1 d D U .
H3 H 0.4526 0.2485 0.6780 0.263 Uiso 1 1 calc R . .
C15 C 0.3298(8) 0.1604(14) 0.7329(14) 0.39(2) Uani 1 1 d D U .
C12 C 0.2419(7) 0.0949(13) 0.8081(12) 0.223(17) Uani 1 1 d D U .
N4 N 0.3136(10) 0.0706(15) 0.781(2) 0.42(2) Uani 1 1 d D U .
C16 C 0.2791(7) 0.1098(13) 0.7808(11) 0.39(2) Uani 1 1 d D U .
N3 N 0.3459(8) 0.1028(16) 0.7504(19) 0.42(2) Uani 1 1 d D U .
N1 N 0.266(2) 0.204(4) 0.744(3) 0.37(2) Uani 1 1 d . U .
loop_
_atom_site_aniso_label
_atom_site_aniso_U_11
_atom_site_aniso_U_22
_atom_site_aniso_U_33
_atom_site_aniso_U_23
_atom_site_aniso_U_13
_atom_site_aniso_U_12
Zr1 0.043(4) 0.209(8) 0.051(5) 0.000 0.000 0.000(4)
Zr2 0.057(3) 0.197(6) 0.091(4) 0.060(4) -0.008(2) -0.015(3)
O4 0.068(15) 0.12(2) 0.10(2) 0.023(15) 0.007(15) -0.021(14)
O3 0.130(14) 0.152(15) 0.145(15) -0.002(10) 0.007(10) 0.013(9)
O5 0.119(11) 0.126(12) 0.113(11) -0.006(9) -0.034(8) 0.009(9)
O2 0.09(2) 0.24(3) 0.09(2) 0.015(19) 0.036(19) -0.03(2)
O7 0.20(4) 0.13(4) 0.05(2) 0.000 0.000 -0.12(3)
O8 0.14(3) 0.14(3) 0.36(5) -0.05(3) 0.12(3) -0.09(2)
O6 0.100(11) 0.096(13) 0.103(14) 0.000 0.000 -0.003(9)
O9 0.08(3) 0.54(8) 0.06(2) 0.03(3) -0.016(18) -0.07(3)
C8 0.118(13) 0.120(15) 0.117(15) 0.018(9) -0.004(9) -0.001(9)
O1 0.12(2) 0.52(7) 0.16(4) 0.20(4) 0.04(2) 0.12(3)
C1 0.191(18) 0.204(17) 0.202(18) 0.002(9) 0.002(10) -0.004(10)
C9 0.132(13) 0.148(15) 0.148(15) 0.017(9) 0.015(9) -0.002(9)
N2 0.39(2) 0.39(2) 0.39(2) 0.004(9) 0.006(9) -0.004(8)
C2 0.20(2) 0.24(3) 0.22(3) 0.035(16) 0.01(2) -0.008(19)
C7 0.20(2) 0.26(3) 0.23(3) 0.08(3) 0.03(3) 0.00(2)
C6 0.22(2) 0.26(4) 0.24(4) 0.10(3) 0.04(3) 0.00(2)
C14 0.125(17) 0.18(3) 0.23(3) 0.09(2) 0.05(2) 0.00(2)
C4 0.223(18) 0.221(17) 0.226(17) 0.017(9) 0.004(10) -0.003(9)
C5 0.221(19) 0.24(3) 0.26(3) 0.08(2) 0.02(3) 0.01(2)
C10 0.13(2) 0.21(3) 0.22(3) 0.09(2) 0.04(2) 0.01(2)
C11 0.14(3) 0.25(3) 0.28(4) 0.11(3) 0.06(3) 0.00(3)
C13 0.130(17) 0.23(4) 0.26(4) 0.10(3) 0.06(3) -0.02(3)
C3 0.216(16) 0.220(17) 0.222(17) 0.015(9) 0.002(9) -0.001(9)
C15 0.39(2) 0.39(2) 0.40(2) 0.008(10) 0.008(9) 0.004(9)
C12 0.13(2) 0.25(4) 0.29(4) 0.12(3) 0.06(3) -0.02(3)
N4 0.40(3) 0.42(3) 0.43(4) 0.04(2) 0.05(3) 0.021(18)
C16 0.39(2) 0.39(2) 0.39(2) 0.006(9) 0.005(9) 0.004(9)
N3 0.42(3) 0.41(3) 0.43(4) 0.05(3) 0.06(3) 0.023(19)
N1 0.37(3) 0.38(3) 0.38(3) 0.010(18) 0.025(19) -0.023(16)
loop_
_atom_type_symbol
_atom_type_description
_atom_type_scat_dispersion_real
_atom_type_scat_dispersion_imag
_atom_type_scat_source
C C 0.0181 0.0091 'International Tables Vol C Tables 4.2.6.8 and 6.1.1.4'
H H 0.0000 0.0000 'International Tables Vol C Tables 4.2.6.8 and 6.1.1.4'
O O 0.0492 0.0322 'International Tables Vol C Tables 4.2.6.8 and 6.1.1.4'
N N 0.0311 0.0180 'International Tables Vol C Tables 4.2.6.8 and 6.1.1.4'
Zr Zr -0.1862 2.2449 'International Tables Vol C Tables 4.2.6.8 and 6.1.1.4'
I I -0.3257 6.8362 'International Tables Vol C Tables 4.2.6.8 and 6.1.1.4'
Co Co -2.3653 3.6143 'International Tables Vol C Tables 4.2.6.8 and 6.1.1.4'
loop_
_geom_angle_atom_site_label_1
_geom_angle_atom_site_label_2
_geom_angle_atom_site_label_3
_geom_angle
_geom_angle_site_symmetry_1
_geom_angle_site_symmetry_3
Zr2 Zr1 Zr2 60.02(16) . 6_556
Zr2 Zr1 Zr2 90.76(15) 5_666 .
Zr2 Zr1 Zr2 60.83(18) 2_665 .
Zr2 Zr1 Zr2 60.07(18) 2_665 5_666
Zr2 Zr1 Zr2 60.83(18) 5_666 6_556
Zr2 Zr1 Zr2 90.76(15) 2_665 6_556
O4 Zr1 Zr2 112.2(7) 8_665 2_665
O4 Zr1 Zr2 167.4(6) 3_556 6_556
O4 Zr1 Zr2 111.7(6) 8_665 6_556
O4 Zr1 Zr2 112.2(7) 3_556 5_666
O4 Zr1 Zr2 76.7(5) 3_556 2_665
O4 Zr1 Zr2 167.4(6) 8_665 .
O4 Zr1 Zr2 111.7(6) 3_556 .
O4 Zr1 Zr2 76.7(5) 8_665 5_666
O4 Zr1 O4 74.7(11) 8_665 3_556
O4 Zr1 O5 80.4(9) 3_556 .
O4 Zr1 O5 80.4(9) 8_665 6_556
O4 Zr1 O5 138.5(10) 8_665 .
O4 Zr1 O5 138.5(10) 3_556 6_556
O4 Zr1 O2 74.5(9) 3_556 .
O4 Zr1 O2 74.5(9) 8_665 6_556
O4 Zr1 O2 118.4(8) 3_556 6_556
O4 Zr1 O2 118.4(8) 8_665 .
O4 Zr1 O7 78.5(10) 3_556 5_666
O4 Zr1 O7 78.5(10) 8_665 5_666
O5 Zr1 Zr2 28.3(7) 6_556 5_666
O5 Zr1 Zr2 82.8(8) . 5_666
O5 Zr1 Zr2 88.1(7) . 6_556
O5 Zr1 Zr2 28.3(7) . 2_665
O5 Zr1 Zr2 38.1(7) . .
O5 Zr1 Zr2 82.8(8) 6_556 2_665
O5 Zr1 Zr2 88.1(7) 6_556 .
O5 Zr1 Zr2 38.1(7) 6_556 6_556
O5 Zr1 O5 98.0(14) 6_556 .
O5 Zr1 O7 64.2(10) . 5_666
O5 Zr1 O7 64.2(10) 6_556 5_666
O2 Zr1 Zr2 164.9(6) . 5_666
O2 Zr1 Zr2 74.1(6) 6_556 6_556
O2 Zr1 Zr2 164.8(6) 6_556 2_665
O2 Zr1 Zr2 109.8(7) 6_556 .
O2 Zr1 Zr2 110.6(7) 6_556 5_666
O2 Zr1 Zr2 110.6(7) . 2_665
O2 Zr1 Zr2 74.1(6) . .
O2 Zr1 Zr2 109.8(7) . 6_556
O2 Zr1 O5 85.1(10) . .
O2 Zr1 O5 147.0(10) 6_556 .
O2 Zr1 O5 85.1(10) 6_556 6_556
O2 Zr1 O5 147.0(10) . 6_556
O2 Zr1 O2 75.5(14) 6_556 .
O2 Zr1 O7 142.0(7) 6_556 5_666
O2 Zr1 O7 142.0(7) . 5_666
O7 Zr1 Zr2 91.9(9) 5_666 .
O7 Zr1 Zr2 91.9(9) 5_666 6_556
O7 Zr1 Zr2 35.9(6) 5_666 2_665
O7 Zr1 Zr2 35.9(6) 5_666 5_666
O6 Zr1 Zr2 88.6(8) . 2_665
O6 Zr1 Zr2 88.6(8) . 5_666
O6 Zr1 Zr2 34.0(4) . 6_556
O6 Zr1 Zr2 34.0(4) . .
O6 Zr1 O4 142.4(6) . 3_556
O6 Zr1 O4 142.4(6) . 8_665
O6 Zr1 O5 71.2(9) . .
O6 Zr1 O5 71.2(9) . 6_556
O6 Zr1 O2 78.9(9) . 6_556
O6 Zr1 O2 78.9(9) . .
O6 Zr1 O7 109.0(15) . 5_666
Zr1 Zr2 Zr1 89.24(15) 5_666 .
Zr1 Zr2 Zr2 59.55(14) . 2_665
Zr1 Zr2 Zr2 59.96(9) 5_666 6_556
Zr1 Zr2 Zr2 59.99(8) . 6_556
Zr1 Zr2 Zr2 59.63(15) 5_666 2_665
Zr2 Zr2 Zr2 90.0 6_556 2_665
O3 Zr2 Zr1 159.2(6) 4_556 .
O3 Zr2 Zr1 70.1(6) 4_556 5_666
O3 Zr2 Zr2 105.5(7) 4_556 2_665
O3 Zr2 Zr2 108.9(7) 4_556 6_556
O5 Zr2 Zr1 81.5(8) . 5_666
O5 Zr2 Zr1 35.0(8) 2_665 5_666
O5 Zr2 Zr1 38.7(7) . .
O5 Zr2 Zr1 86.3(8) 2_665 .
O5 Zr2 Zr2 26.8(7) . 2_665
O5 Zr2 Zr2 32.6(7) 2_665 2_665
O5 Zr2 Zr2 88.6(7) . 6_556
O5 Zr2 Zr2 88.3(9) 2_665 6_556
O5 Zr2 O3 130.9(11) . 4_556
O5 Zr2 O3 75.3(10) 2_665 4_556
O5 Zr2 O5 59.3(12) 2_665 .
O5 Zr2 O7 77.6(13) 2_665 .
O5 Zr2 O8 147.4(10) 2_665 .
O5 Zr2 O6 104.5(13) 2_665 .
O5 Zr2 O9 80.8(14) 2_665 .
O5 Zr2 O1 140.5(12) 2_665 .
O5 Zr2 O1 85.1(11) . .
O7 Zr2 Zr1 42.6(10) . 5_666
O7 Zr2 Zr1 91.0(11) . .
O7 Zr2 Zr2 96.7(12) . 2_665
O7 Zr2 Zr2 33.2(9) . 6_556
O7 Zr2 O3 75.7(12) . 4_556
O7 Zr2 O5 108.9(15) . .
O7 Zr2 O8 77.4(15) . .
O7 Zr2 O9 146.3(11) . .
O7 Zr2 O1 134.7(14) . .
O8 Zr2 Zr1 114.7(11) . .
O8 Zr2 Zr1 116.6(8) . 5_666
O8 Zr2 Zr2 172.0(12) . 2_665
O8 Zr2 Zr2 82.1(11) . 6_556
O8 Zr2 O3 78.5(12) . 4_556
O8 Zr2 O5 150.5(12) . .
O8 Zr2 O9 110.2(16) . .
O8 Zr2 O1 71.7(11) . .
O6 Zr2 Zr1 87.2(8) . 5_666
O6 Zr2 Zr1 35.9(9) . .
O6 Zr2 Zr2 32.9(8) . 6_556
O6 Zr2 Zr2 88.9(9) . 2_665
O6 Zr2 O3 140.3(11) . 4_556
O6 Zr2 O5 73.7(12) . .
O6 Zr2 O7 65.8(12) . .
O6 Zr2 O8 83.7(14) . .
O6 Zr2 O9 145.8(10) . .
O6 Zr2 O1 78.3(11) . .
O9 Zr2 Zr1 113.2(8) . .
O9 Zr2 Zr1 111.6(11) . 5_666
O9 Zr2 Zr2 77.7(11) . 2_665
O9 Zr2 Zr2 167.7(11) . 6_556
O9 Zr2 O3 73.9(10) . 4_556
O9 Zr2 O5 80.9(12) . .
O9 Zr2 O1 77.0(13) . .
O1 Zr2 Zr1 162.6(6) . 5_666
O1 Zr2 Zr1 73.4(6) . .
O1 Zr2 Zr2 109.9(9) . 2_665
O1 Zr2 Zr2 108.8(9) . 6_556
O1 Zr2 O3 127.3(9) . 4_556
C8 O4 Zr1 133.4(13) . 3_546
C8 O3 Zr2 141.8(16) . 4_456
Zr2 O5 Zr1 116.7(13) 2_665 .
Zr2 O5 Zr1 103.3(12) . .
Zr2 O5 Zr2 120.7(12) 2_665 .
C1 O2 Zr1 137.1(15) . .
Zr2 O7 Zr1 101.5(14) . 5_666
Zr2 O7 Zr1 101.5(14) 6_556 5_666
Zr2 O7 Zr2 113.5(19) . 6_556
Zr2 O6 Zr1 110.1(10) . .
Zr2 O6 Zr1 110.1(10) 6_556 .
Zr2 O6 Zr2 114.2(15) . 6_556
O4 C8 C9 120.3(14) . .
O3 C8 O4 117.8(14) . .
O3 C8 C9 122.0(15) . .
C1 O1 Zr2 137.7(16) . .
O2 C1 C2 119.8(15) . .
O1 C1 O2 117.6(14) . .
O1 C1 C2 122.6(16) . .
C14 C9 C8 118.4(11) . .
C10 C9 C8 120.7(11) . .
C10 C9 C14 120.9(7) . .
C16 N2 C15 107.1(6) . .
N1 N2 C15 129(4) . .
N1 N2 C16 124(4) . .
C7 C2 C1 118.2(12) . .
C3 C2 C1 120.9(12) . .
C3 C2 C7 120.9(7) . .
C2 C7 H7 120.2 . .
C2 C7 C6 119.7(7) . .
C6 C7 H7 120.2 . .
C7 C6 H6 120.1 . .
C5 C6 C7 119.8(7) . .
C5 C6 H6 120.1 . .
C9 C14 H14 120.2 . .
C9 C14 C13 119.6(7) . .
C13 C14 H14 120.2 . .
C5 C4 H4 120.1 . .
C5 C4 C3 119.8(7) . .
C3 C4 H4 120.1 . .
C4 C5 C6 120.3(7) . .
C15 C5 C6 123(2) . .
C15 C5 C4 116(2) . .
C9 C10 H10 120.1 . .
C9 C10 C11 119.7(7) . .
C11 C10 H10 120.1 . .
C10 C11 H11 119.9 . .
C10 C11 C12 120.1(7) . .
C12 C11 H11 119.9 . .
C14 C13 H13 119.9 . .
C14 C13 C12 120.2(7) . .
C12 C13 H13 119.9 . .
C2 C3 C4 119.5(7) . .
C2 C3 H3 120.2 . .
C4 C3 H3 120.2 . .
C5 C15 N2 126.2(15) . .
C5 C15 N3 124.8(14) . .
N3 C15 N2 109.0(6) . .
C11 C12 C13 119.5(7) . .
C16 C12 C11 121.2(11) . .
C16 C12 C13 119.3(11) . .
C16 N4 N3 107.0(6) . .
C12 C16 N2 126.9(13) . .
N4 C16 N2 109.6(6) . .
N4 C16 C12 123.5(13) . .
C15 N3 N4 107.3(6) . .
loop_
_geom_bond_atom_site_label_1
_geom_bond_atom_site_label_2
_geom_bond_distance
_geom_bond_site_symmetry_2
Zr1 Zr2 3.496(7) 2_665
Zr1 Zr2 3.498(6) 6_556
Zr1 Zr2 3.498(6) .
Zr1 Zr2 3.496(7) 5_666
Zr1 O4 2.201(18) 8_665
Zr1 O4 2.201(18) 3_556
Zr1 O5 2.25(3) .
Zr1 O5 2.25(3) 6_556
Zr1 O2 2.23(2) .
Zr1 O2 2.23(2) 6_556
Zr1 O7 2.41(4) 5_666
Zr1 O6 2.18(3) .
Zr2 Zr1 3.496(7) 5_666
Zr2 Zr2 3.541(10) 2_665
Zr2 Zr2 3.499(9) 6_556
Zr2 O3 2.25(2) 4_556
Zr2 O5 2.22(3) .
Zr2 O5 1.85(3) 2_665
Zr2 O7 2.09(2) .
Zr2 O8 2.19(3) .
Zr2 O6 2.084(18) .
Zr2 O9 2.21(3) .
Zr2 O1 2.24(3) .
O4 Zr1 2.201(18) 3_546
O4 C8 1.305(16) .
O3 Zr2 2.25(2) 4_456
O3 C8 1.295(15) .
O5 Zr2 1.85(3) 2_665
O2 C1 1.314(16) .
O7 Zr1 2.41(4) 5_666
O7 Zr2 2.09(2) 6_556
O6 Zr2 2.084(18) 6_556
C8 C9 1.451(9) .
O1 C1 1.311(16) .
C1 C2 1.452(9) .
C9 C14 1.420(8) .
C9 C10 1.414(8) .
N2 C15 1.349(9) .
N2 C16 1.339(9) .
N2 N1 1.09(8) .
C2 C7 1.418(8) .
C2 C3 1.415(8) .
C7 H7 0.9500 .
C7 C6 1.426(9) .
C6 H6 0.9500 .
C6 C5 1.423(9) .
C14 H14 0.9500 .
C14 C13 1.423(8) .
C4 H4 0.9500 .
C4 C5 1.420(9) .
C4 C3 1.432(9) .
C5 C15 1.301(13) .
C10 H10 0.9500 .
C10 C11 1.425(8) .
C11 H11 0.9500 .
C11 C12 1.428(8) .
C13 H13 0.9500 .
C13 C12 1.431(8) .
C3 H3 0.9500 .
C15 N3 1.340(9) .
C12 C16 1.337(11) .
N4 C16 1.337(9) .
N4 N3 1.373(9) .
