#------------------------------------------------------------------------------
#$Date: 2019-11-03 10:54:41 +0200 (Sun, 03 Nov 2019) $
#$Revision: 221196 $
#$URL: file:///home/coder/svn-repositories/cod/cif/4/12/80/4128065.cif $
#------------------------------------------------------------------------------
#
# This file is available in the Crystallography Open Database (COD),
# http://www.crystallography.net/
#
# All data on this site have been placed in the public domain by the
# contributors.
#
data_4128065
loop_
_publ_author_name
'Castillo-Blas, Celia'
'L\'opez-Salas, Nieves'
'Guti\'errez, Mar\'ia C'
'Puente-Orench, In\'es'
'Guti\'errez-Puebla, Enrique'
'Ferrer, M. Luisa'
'Monge, M \'Angeles'
'G\'andara, Felipe'
_publ_section_title
;
 Encoding Metal-Cation Arrangements in Metal-Organic Frameworks for
 Programming the Composition of Electrocatalytically Active Multimetal
 Oxides.
;
_journal_issue                   4
_journal_name_full               'Journal of the American Chemical Society'
_journal_page_first              1766
_journal_page_last               1774
_journal_paper_doi               10.1021/jacs.8b12860
_journal_volume                  141
_journal_year                    2019
_chemical_formula_moiety
'C17 H8 Ca0.04 Co0.06 F6 Mn0.46 O4 Zn0.44, 0.25(O2)'
_chemical_formula_sum            'C17 H8 Ca0.04 Co0.06 F6 Mn0.46 O4.5 Zn0.44'
_chemical_formula_weight         457.40
_space_group_crystal_system      hexagonal
_space_group_IT_number           179
_space_group_name_Hall           'P 65 2 (0 0 1)'
_space_group_name_H-M_alt        'P 65 2 2'
_symmetry_space_group_name_Hall  'P 65 2 (0 0 1)'
_symmetry_space_group_name_H-M   'P 65 2 2'
_atom_sites_solution_hydrogens   geom
_atom_sites_solution_primary     direct
_audit_creation_date             2018-05-16
_audit_creation_method
;
Olex2 1.2
(compiled 2018.04.26 svn.r3504 for OlexSys, GUI svn.r5492)
;
_cell_angle_alpha                90
_cell_angle_beta                 90
_cell_angle_gamma                120
_cell_formula_units_Z            12
_cell_length_a                   21.2232(6)
_cell_length_b                   21.2232(6)
_cell_length_c                   15.1771(6)
_cell_measurement_reflns_used    9954
_cell_measurement_temperature    250
_cell_measurement_theta_max      65.526
_cell_measurement_theta_min      2.404
_cell_volume                     5920.3(3)
_computing_cell_refinement       'SAINT v8.37A (Bruker, 2015)'
_computing_data_reduction        'SAINT v8.37A (Bruker, 2015)'
_computing_molecular_graphics    'Olex2 (Dolomanov et al., 2009)'
_computing_publication_material  'Olex2 (Dolomanov et al., 2009)'
_computing_structure_refinement  'XL (Sheldrick, 2008)'
_computing_structure_solution    'XS (Sheldrick, 2008)'
_diffrn_ambient_temperature      250
_diffrn_measured_fraction_theta_full 0.987
_diffrn_measured_fraction_theta_max 0.987
_diffrn_measurement_device_type  'Vantec 500'
_diffrn_measurement_method       '\f and \w scans'
_diffrn_radiation_type           CuK\a
_diffrn_radiation_wavelength     1.54178
_diffrn_reflns_av_R_equivalents  0.0776
_diffrn_reflns_av_unetI/netI     0.0374
_diffrn_reflns_Laue_measured_fraction_full 0.987
_diffrn_reflns_Laue_measured_fraction_max 0.987
_diffrn_reflns_limit_h_max       21
_diffrn_reflns_limit_h_min       -24
_diffrn_reflns_limit_k_max       25
_diffrn_reflns_limit_k_min       -24
_diffrn_reflns_limit_l_max       17
_diffrn_reflns_limit_l_min       -17
_diffrn_reflns_number            33724
_diffrn_reflns_point_group_measured_fraction_full 0.988
_diffrn_reflns_point_group_measured_fraction_max 0.988
_diffrn_reflns_theta_full        65.737
_diffrn_reflns_theta_max         65.737
_diffrn_reflns_theta_min         2.404
_diffrn_standards_number         0
_exptl_absorpt_coefficient_mu    4.530
_exptl_absorpt_correction_T_max  1.0000
_exptl_absorpt_correction_T_min  0.5924
_exptl_absorpt_correction_type   multi-scan
_exptl_absorpt_process_details
'SADABS-2016/2 (Bruker,2016/2) was used for absorption correction. wR2(int) was 0.1377 before and 0.0864 after correction. The Ratio of minimum to maximum transmission is 0.5924. The \l/2 correction factor is Not present.'
_exptl_crystal_colour            'bluish violet'
_exptl_crystal_colour_modifier   bluish
_exptl_crystal_colour_primary    violet
_exptl_crystal_density_diffrn    1.540
_exptl_crystal_description       needle
_exptl_crystal_F_000             2725
_exptl_crystal_size_max          0.14
_exptl_crystal_size_mid          0.06
_exptl_crystal_size_min          0.06
_refine_diff_density_max         0.834
_refine_diff_density_min         -0.586
_refine_diff_density_rms         0.134
_refine_ls_abs_structure_details
;
 Flack x determined using 1128 quotients [(I+)-(I-)]/[(I+)+(I-)]
 (Parsons, Flack and Wagner, Acta Cryst. B69 (2013) 249-259).
;
_refine_ls_abs_structure_Flack   0.033(6)
_refine_ls_extinction_method     none
_refine_ls_goodness_of_fit_ref   1.064
_refine_ls_hydrogen_treatment    constr
_refine_ls_matrix_type           full
_refine_ls_number_parameters     266
_refine_ls_number_reflns         3391
_refine_ls_number_restraints     0
_refine_ls_restrained_S_all      1.064
_refine_ls_R_factor_all          0.0706
_refine_ls_R_factor_gt           0.0589
_refine_ls_shift/su_max          0.000
_refine_ls_shift/su_mean         0.000
_refine_ls_structure_factor_coef Fsqd
_refine_ls_weighting_details
'w=1/[\s^2^(Fo^2^)+(0.1486P)^2^+4.1297P] where P=(Fo^2^+2Fc^2^)/3'
_refine_ls_weighting_scheme      calc
_refine_ls_wR_factor_gt          0.1717
_refine_ls_wR_factor_ref         0.1950
_reflns_Friedel_coverage         0.701
_reflns_Friedel_fraction_full    0.989
_reflns_Friedel_fraction_max     0.989
_reflns_number_gt                3050
_reflns_number_total             3391
_reflns_threshold_expression     'I > 2\s(I)'
_iucr_refine_instructions_details
;

    1.res created by SHELXL-2014/7

TITL 1_a.res in P6(5)22
REM Old TITL 1 in P6522 #179
REM SHELXT solution in P6(5)22
REM R1 0.165, Rweak 0.038, Alpha 0.005, Orientation as input
REM Flack x = 0.094 ( 0.007 ) from Parsons' quotients
REM Formula found by SHELXT: C34 O6 F14 Mn Zn
CELL 1.54178 21.2232 21.2232 15.1771 90 90 120
ZERR 12 0.0006 0.0006 0.0006 0 0 0
LATT -1
SYMM -Y,+X-Y,0.667+Z
SYMM +Y-X,-X,0.333+Z
SYMM -X,-Y,0.5+Z
SYMM +Y,-X+Y,0.167+Z
SYMM -Y+X,+X,0.833+Z
SYMM +Y,+X,0.667-Z
SYMM -Y+X,-Y,-Z
SYMM -X,-X+Y,0.333-Z
SYMM -Y,-X,0.167-Z
SYMM +Y-X,+Y,0.5-Z
SYMM +X,+X-Y,0.833-Z
SFAC C H Ca Co F Mn O Zn
UNIT 204 96 0.48 0.74 72 5.52 54 5.26
EADP Zn01 Co01
EADP Mn02 Ca02
 
L.S. 20
PLAN  10
SIZE 0.06 0.06 0.14
TEMP 23
BOND $H
list 4
fmap 2
acta
REM <olex2.extras>
REM <HklSrc "%.\\1.hkl">
REM </olex2.extras>
 
WGHT    0.148600    4.129700
FVAR       0.21310   0.87616   0.91991
PART 1
ZN01  8    1.282517    0.717483    0.083333    20.50000    0.02641    0.02641 =
         0.02729    0.00296    0.00296    0.01526
MN02  6    1.325113    0.650226    0.250000    30.50000    0.02142    0.02376 =
         0.02489    0.00000   -0.00285    0.01188
PART 0
O003  7    0.744306    0.374146    0.520968    11.00000    0.02856    0.02180 =
         0.04165   -0.00342   -0.00486    0.01089
O004  7    0.733007    0.424564    0.646010    11.00000    0.04119    0.02398 =
         0.04033    0.00117    0.00785    0.01413
F005  5    0.906053    0.704208    0.316869    11.00000    0.04751    0.07023 =
         0.08903    0.02771    0.01145    0.03660
O006  7    1.231013    0.655839    0.276058    11.00000    0.03405    0.04033 =
         0.04025   -0.00117    0.00789    0.01863
F007  5    1.047825    0.737851    0.571973    11.00000    0.04476    0.06816 =
         0.07241   -0.03000   -0.00023    0.01087
F008  5    0.988393    0.794271    0.555532    11.00000    0.06034    0.04160 =
         0.11332   -0.02449    0.04108    0.00734
F009  5    0.889301    0.748068    0.435301    11.00000    0.05319    0.07042 =
         0.13513    0.03139    0.04761    0.04470
O00A  7    1.203924    0.701195    0.158292    11.00000    0.04014    0.06006 =
         0.03850   -0.00102    0.00794    0.02642
F00B  5    0.984875    0.812598    0.357280    11.00000    0.06728    0.04396 =
         0.12900    0.03213    0.04907    0.03339
F00C  5    1.083902    0.824927    0.478637    11.00000    0.05749    0.03823 =
         0.11005   -0.01923    0.04173   -0.01096
C00D  1    0.920697    0.639640    0.476383    11.00000    0.02342    0.03086 =
         0.05131   -0.00026    0.01083    0.01280
C00E  1    1.195787    0.680288    0.237876    11.00000    0.02660    0.02949 =
         0.04913   -0.01157   -0.00219    0.01013
C00F  1    0.759399    0.430189    0.570364    11.00000    0.02410    0.02911 =
         0.04462   -0.00078   -0.00527    0.01274
C00G  1    0.834620    0.563729    0.588436    11.00000    0.03776    0.03183 =
         0.04168   -0.00198    0.01030    0.01589
AFIX  43
H00G  2    0.813414    0.559196    0.643420    11.00000   -1.20000
AFIX   0
C00H  1    0.896496    0.578122    0.423904    11.00000    0.03562    0.02952 =
         0.03669    0.00352    0.01165    0.01004
AFIX  43
H00H  2    0.916051    0.582418    0.367911    11.00000   -1.20000
AFIX   0
C00I  1    0.813217    0.502597    0.535944    11.00000    0.02340    0.04000 =
         0.02951   -0.00042   -0.00019    0.01448
C00J  1    1.102009    0.719115    0.248772    11.00000    0.03685    0.04554 =
         0.04867    0.00826    0.01691    0.02115
AFIX  43
H00J  2    1.112839    0.736198    0.191183    11.00000   -1.20000
AFIX   0
C00K  1    1.137076    0.684625    0.286963    11.00000    0.02288    0.02903 =
         0.03878   -0.00051    0.00641    0.00859
C00L  1    1.067331    0.667363    0.418707    11.00000    0.03064    0.04182 =
         0.05040    0.00598    0.01338    0.01585
AFIX  43
H00L  2    1.054428    0.648708    0.475447    11.00000   -1.20000
AFIX   0
C00M  1    0.843481    0.510361    0.454116    11.00000    0.02554    0.02996 =
         0.04356   -0.00525   -0.00131    0.01019
AFIX  43
H00M  2    0.828313    0.469710    0.418348    11.00000   -1.20000
AFIX   0
C00N  1    1.034165    0.702513    0.381697    11.00000    0.02678    0.02908 =
         0.05186   -0.00263    0.01269    0.00687
C00O  1    0.979845    0.713128    0.438431    11.00000    0.02670    0.03187 =
         0.05966   -0.00128    0.01232    0.01053
C00P  1    1.118906    0.659142    0.374075    11.00000    0.03030    0.03537 =
         0.05228    0.00220    0.00180    0.01577
AFIX  43
H00P  2    1.141855    0.636764    0.401307    11.00000   -1.20000
AFIX   0
C00Q  1    0.887825    0.631614    0.558388    11.00000    0.03512    0.02804 =
         0.04806   -0.00871    0.00817    0.00897
AFIX  43
H00Q  2    0.901746    0.672377    0.593550    11.00000   -1.20000
AFIX   0
C00R  1    1.051692    0.727679    0.296358    11.00000    0.03467    0.04240 =
         0.06939    0.01414    0.01471    0.02009
AFIX  43
H00R  2    1.029024    0.750891    0.270517    11.00000   -1.20000
AFIX   0
C00S  1    1.025364    0.768487    0.513153    11.00000    0.04620    0.03402 =
         0.09421   -0.01202    0.03228    0.00209
C00T  1    0.940111    0.745627    0.386506    11.00000    0.04352    0.03872 =
         0.10077    0.01756    0.03306    0.02464
PART 2
CO01  4    1.283876    0.716124    0.083333   -20.50000    0.02641    0.02641 =
         0.02729    0.00296    0.00296    0.01526
CA02  3    1.316027    0.632053    0.250000   -30.50000    0.02142    0.02376 =
         0.02489    0.00000   -0.00285    0.01188
 
PART 0
O1    7    0.967205    0.458993    0.149561    10.25000    0.14598
O0AA  7    0.976418    0.491282    0.214625    10.25000    0.15173
HKLF 4
 
REM  1_a.res in P6(5)22
REM R1 =  0.0589 for    3050 Fo > 4sig(Fo)  and  0.0706 for all    3391 data
REM    266 parameters refined using      0 restraints
 
END  
     
WGHT      0.1486      4.1297 

REM Highest difference peak  0.834,  deepest hole -0.586,  1-sigma level  0.134
Q1    1   0.9587  0.5198  0.2548  11.00000  0.05    0.83
Q2    1   0.9286  0.4343  0.0908  11.00000  0.05    0.70
Q3    1   1.2787  0.6407  0.2503  11.00000  0.05    0.62
Q4    1   0.9596  0.4706  0.0850  11.00000  0.05    0.61
Q5    1   0.9902  0.4429  0.2480  11.00000  0.05    0.55
Q6    1   1.3069  0.7637  0.0820  11.00000  0.05    0.53
Q7    1   0.9110  0.3849  0.0784  11.00000  0.05    0.51
Q8    1   0.9999  0.4525  0.1427  11.00000  0.05    0.51
Q9    1   1.1484  0.7455  0.2608  11.00000  0.05    0.44
Q10   1   0.6894  0.3301  0.5426  11.00000  0.05    0.42

  REM The information below was added by Olex2.
  REM
  REM R1 = 0.0589 for 3050 Fo > 4sig(Fo) and 0.0706 for all 33745 data
  REM n/a parameters refined using n/a restraints
  REM Highest difference peak 0.83, deepest hole -0.59
  REM Mean Shift 0, Max Shift 0.000.

  REM +++ Tabular Listing of Refinement Information +++
  REM R1_all = 0.0706
  REM R1_gt = 0.0589
  REM wR_ref = 0.1950
  REM GOOF = 1.064
  REM Shift_max = 0.000
  REM Shift_mean = 0
  REM Reflections_all = 33745
  REM Reflections_gt = 3050
  REM Parameters = n/a
  REM Hole = -0.59
  REM Peak = 0.83
  REM Flack = 0.033(6)

  
;
_cod_data_source_file            Zn0.46Mn0.34Co0.17Ca0.15(hfipbb).cif
_cod_data_source_block           1
_cod_original_cell_volume        5920.3(4)
_cod_original_formula_sum        'C17 H8 Ca0.04 Co0.06 F6 Mn0.46 O4.50 Zn0.44'
_cod_database_code               4128065
_shelx_shelxl_version_number     2014/7
_shelx_space_group_comment
;
The symmetry employed for this shelxl refinement is uniquely defined
by the following loop, which should always be used as a source of
symmetry information in preference to the above space-group names.
They are only intended as comments.
;
_shelx_estimated_absorpt_t_max   0.773
_shelx_estimated_absorpt_t_min   0.570
_olex2_refinement_description
;
1. Fixed Uiso
 At 1.2 times of:
  All C(H) groups
2. Uiso/Uaniso restraints and constraints
Uanis(Zn01) = Uanis(Co01)
Uanis(Mn02) = Uanis(Ca02)
3. Others
 Sof(Co01)=0.5*(1-FVAR(2))
 Sof(Zn01)=0.5*FVAR(2)
 Sof(Ca02)=0.5*(1-FVAR(3))
 Sof(Mn02)=0.5*FVAR(3)
 Fixed Sof: O1(0.25) O0AA(0.25)
4.a Aromatic/amide H refined with riding coordinates:
 C00G(H00G), C00H(H00H), C00J(H00J), C00L(H00L), C00M(H00M), C00P(H00P),
 C00Q(H00Q), C00R(H00R)
;
_olex2_submission_special_instructions 'No special instructions were received'
loop_
_space_group_symop_operation_xyz
'x, y, z'
'-y, x-y, z+2/3'
'-x+y, -x, z+1/3'
'-x, -y, z+1/2'
'y, -x+y, z+1/6'
'x-y, x, z+5/6'
'y, x, -z+2/3'
'x-y, -y, -z'
'-x, -x+y, -z+1/3'
'-y, -x, -z+1/6'
'-x+y, y, -z+1/2'
'x, x-y, -z+5/6'
loop_
_atom_site_label
_atom_site_type_symbol
_atom_site_fract_x
_atom_site_fract_y
_atom_site_fract_z
_atom_site_U_iso_or_equiv
_atom_site_adp_type
_atom_site_occupancy
_atom_site_site_symmetry_order
_atom_site_calc_flag
_atom_site_refinement_flags_posn
_atom_site_refinement_flags_adp
_atom_site_refinement_flags_occupancy
_atom_site_disorder_assembly
_atom_site_disorder_group
Zn01 Zn 1.28252(16) 0.71748(16) 0.0833 0.0258(5) Uani 0.88(2) 2 d S T P A 1
Mn02 Mn 1.3251(2) 0.6502(4) 0.2500 0.0231(10) Uani 0.92(4) 2 d S T P B 1
O003 O 0.7443(3) 0.3741(3) 0.5210(4) 0.0314(12) Uani 1 1 d . . . . .
O004 O 0.7330(3) 0.4246(3) 0.6460(4) 0.0361(14) Uani 1 1 d . . . . .
F005 F 0.9061(3) 0.7042(4) 0.3169(5) 0.0657(19) Uani 1 1 d . . . . .
O006 O 1.2310(3) 0.6558(3) 0.2761(4) 0.0382(14) Uani 1 1 d . . . . .
F007 F 1.0478(4) 0.7379(4) 0.5720(5) 0.069(2) Uani 1 1 d . . . . .
F008 F 0.9884(4) 0.7943(3) 0.5555(6) 0.080(3) Uani 1 1 d . . . . .
F009 F 0.8893(4) 0.7481(4) 0.4353(6) 0.080(3) Uani 1 1 d . . . . .
O00A O 1.2039(4) 0.7012(4) 0.1583(4) 0.0456(16) Uani 1 1 d . . . . .
F00B F 0.9849(4) 0.8126(4) 0.3573(6) 0.078(2) Uani 1 1 d . . . . .
F00C F 1.0839(4) 0.8249(4) 0.4786(6) 0.084(3) Uani 1 1 d . . . . .
C00D C 0.9207(4) 0.6396(5) 0.4764(6) 0.0355(19) Uani 1 1 d . . . . .
C00E C 1.1958(4) 0.6803(4) 0.2379(6) 0.037(2) Uani 1 1 d . . . . .
C00F C 0.7594(4) 0.4302(4) 0.5704(6) 0.0329(18) Uani 1 1 d . . . . .
C00G C 0.8346(5) 0.5637(5) 0.5884(7) 0.0378(19) Uani 1 1 d . . . . .
H00G H 0.8134 0.5592 0.6434 0.045 Uiso 1 1 calc R . . . .
C00H C 0.8965(5) 0.5781(5) 0.4239(6) 0.0367(19) Uani 1 1 d . . . . .
H00H H 0.9161 0.5824 0.3679 0.044 Uiso 1 1 calc R . . . .
C00I C 0.8132(4) 0.5026(5) 0.5359(5) 0.0316(17) Uani 1 1 d . . . . .
C00J C 1.1020(5) 0.7191(5) 0.2488(7) 0.043(2) Uani 1 1 d . . . . .
H00J H 1.1128 0.7362 0.1912 0.052 Uiso 1 1 calc R . . . .
C00K C 1.1371(4) 0.6846(5) 0.2870(6) 0.0322(17) Uani 1 1 d . . . . .
C00L C 1.0673(5) 0.6674(5) 0.4187(7) 0.042(2) Uani 1 1 d . . . . .
H00L H 1.0544 0.6487 0.4754 0.050 Uiso 1 1 calc R . . . .
C00M C 0.8435(4) 0.5104(5) 0.4541(6) 0.0347(18) Uani 1 1 d . . . . .
H00M H 0.8283 0.4697 0.4183 0.042 Uiso 1 1 calc R . . . .
C00N C 1.0342(5) 0.7025(5) 0.3817(6) 0.039(2) Uani 1 1 d . . . . .
C00O C 0.9798(5) 0.7131(5) 0.4384(7) 0.041(2) Uani 1 1 d . . . . .
C00P C 1.1189(5) 0.6591(5) 0.3741(7) 0.040(2) Uani 1 1 d . . . . .
H00P H 1.1419 0.6368 0.4013 0.048 Uiso 1 1 calc R . . . .
C00Q C 0.8878(5) 0.6316(5) 0.5584(6) 0.040(2) Uani 1 1 d . . . . .
H00Q H 0.9017 0.6724 0.5935 0.048 Uiso 1 1 calc R . . . .
C00R C 1.0517(5) 0.7277(6) 0.2964(8) 0.048(2) Uani 1 1 d . . . . .
H00R H 1.0290 0.7509 0.2705 0.058 Uiso 1 1 calc R . . . .
C00S C 1.0254(6) 0.7685(6) 0.5132(10) 0.066(4) Uani 1 1 d . . . . .
C00T C 0.9401(6) 0.7456(6) 0.3865(10) 0.059(3) Uani 1 1 d . . . . .
Co01 Co 1.2839(14) 0.7161(14) 0.0833 0.0258(5) Uani 0.12(2) 2 d S T P A 2
Ca02 Ca 1.316(2) 0.632(4) 0.2500 0.0231(10) Uani 0.08(4) 2 d S T P A 2
O1 O 0.967(4) 0.459(4) 0.150(6) 0.15(2) Uiso 0.25 1 d . . . . .
O0AA O 0.976(5) 0.491(4) 0.215(5) 0.15(2) Uiso 0.25 1 d . . . . .
loop_
_atom_site_aniso_label
_atom_site_aniso_U_11
_atom_site_aniso_U_22
_atom_site_aniso_U_33
_atom_site_aniso_U_23
_atom_site_aniso_U_13
_atom_site_aniso_U_12
Zn01 0.0264(7) 0.0264(7) 0.0273(8) 0.0030(5) 0.0030(5) 0.0153(6)
Mn02 0.0214(10) 0.024(2) 0.0249(10) 0.000 -0.0029(6) 0.0119(12)
O003 0.029(3) 0.022(3) 0.042(3) -0.003(2) -0.005(2) 0.011(2)
O004 0.041(3) 0.024(3) 0.040(4) 0.001(2) 0.008(3) 0.014(2)
F005 0.048(3) 0.070(4) 0.089(5) 0.028(4) 0.011(3) 0.037(3)
O006 0.034(3) 0.040(3) 0.040(4) -0.001(2) 0.008(2) 0.019(3)
F007 0.045(3) 0.068(4) 0.072(5) -0.030(4) 0.000(3) 0.011(3)
F008 0.060(4) 0.042(3) 0.113(6) -0.024(3) 0.041(4) 0.007(3)
F009 0.053(4) 0.070(4) 0.135(7) 0.031(4) 0.048(4) 0.045(3)
O00A 0.040(3) 0.060(4) 0.038(4) -0.001(3) 0.008(3) 0.026(3)
F00B 0.067(4) 0.044(3) 0.129(7) 0.032(4) 0.049(4) 0.033(3)
F00C 0.057(4) 0.038(3) 0.110(6) -0.019(4) 0.042(4) -0.011(3)
C00D 0.023(4) 0.031(4) 0.051(5) 0.000(4) 0.011(3) 0.013(3)
C00E 0.027(4) 0.029(4) 0.049(6) -0.012(4) -0.002(3) 0.010(3)
C00F 0.024(4) 0.029(4) 0.045(5) -0.001(3) -0.005(3) 0.013(3)
C00G 0.038(4) 0.032(4) 0.042(5) -0.002(4) 0.010(4) 0.016(4)
C00H 0.036(4) 0.030(4) 0.037(5) 0.004(4) 0.012(4) 0.010(3)
C00I 0.023(4) 0.040(4) 0.030(4) 0.000(3) 0.000(3) 0.014(3)
C00J 0.037(5) 0.046(5) 0.049(5) 0.008(5) 0.017(4) 0.021(4)
C00K 0.023(4) 0.029(4) 0.039(4) -0.001(3) 0.006(3) 0.009(3)
C00L 0.031(4) 0.042(5) 0.050(6) 0.006(4) 0.013(4) 0.016(4)
C00M 0.026(4) 0.030(4) 0.044(5) -0.005(3) -0.001(3) 0.010(3)
C00N 0.027(4) 0.029(4) 0.052(6) -0.003(4) 0.013(4) 0.007(3)
C00O 0.027(4) 0.032(4) 0.060(6) -0.001(4) 0.012(4) 0.011(4)
C00P 0.030(4) 0.035(4) 0.052(6) 0.002(4) 0.002(4) 0.016(4)
C00Q 0.035(4) 0.028(4) 0.048(6) -0.009(4) 0.008(4) 0.009(4)
C00R 0.035(5) 0.042(5) 0.069(7) 0.014(5) 0.015(4) 0.020(4)
C00S 0.046(6) 0.034(5) 0.094(10) -0.012(6) 0.032(6) 0.002(5)
C00T 0.044(6) 0.039(5) 0.101(10) 0.018(6) 0.033(6) 0.025(5)
Co01 0.0264(7) 0.0264(7) 0.0273(8) 0.0030(5) 0.0030(5) 0.0153(6)
Ca02 0.0214(10) 0.024(2) 0.0249(10) 0.000 -0.0029(6) 0.0119(12)
loop_
_atom_type_symbol
_atom_type_description
_atom_type_scat_dispersion_real
_atom_type_scat_dispersion_imag
_atom_type_scat_source
C C 0.0181 0.0091 'International Tables Vol C Tables 4.2.6.8 and 6.1.1.4'
H H 0.0000 0.0000 'International Tables Vol C Tables 4.2.6.8 and 6.1.1.4'
Ca Ca 0.3641 1.2855 'International Tables Vol C Tables 4.2.6.8 and 6.1.1.4'
Co Co -2.3653 3.6143 'International Tables Vol C Tables 4.2.6.8 and 6.1.1.4'
F F 0.0727 0.0534 'International Tables Vol C Tables 4.2.6.8 and 6.1.1.4'
Mn Mn -0.5299 2.8052 'International Tables Vol C Tables 4.2.6.8 and 6.1.1.4'
O O 0.0492 0.0322 'International Tables Vol C Tables 4.2.6.8 and 6.1.1.4'
Zn Zn -1.5491 0.6778 'International Tables Vol C Tables 4.2.6.8 and 6.1.1.4'
loop_
_geom_angle_atom_site_label_1
_geom_angle_atom_site_label_2
_geom_angle_atom_site_label_3
_geom_angle
_geom_angle_site_symmetry_1
_geom_angle_site_symmetry_3
O003 Zn01 O003 105.7(4) 4_764 7_655
O00A Zn01 O003 114.4(3) . 7_655
O00A Zn01 O003 114.4(3) 10_775 4_764
O00A Zn01 O003 108.2(3) 10_775 7_655
O00A Zn01 O003 108.2(3) . 4_764
O00A Zn01 O00A 106.0(5) 10_775 .
O003 Mn02 O003 85.0(4) 6_654 7_655
O004 Mn02 O003 88.8(2) 8_666 6_654
O004 Mn02 O003 88.8(2) 4_764 7_655
O004 Mn02 O003 165.6(2) 4_764 6_654
O004 Mn02 O003 165.6(2) 8_666 7_655
O004 Mn02 O004 100.0(4) 4_764 8_666
O006 Mn02 O003 79.6(3) 11_755 7_655
O006 Mn02 O003 96.2(3) 11_755 6_654
O006 Mn02 O003 79.6(3) . 6_654
O006 Mn02 O003 96.2(3) . 7_655
O006 Mn02 O004 88.2(3) 11_755 8_666
O006 Mn02 O004 88.2(3) . 4_764
O006 Mn02 O004 95.4(3) 11_755 4_764
O006 Mn02 O004 95.4(3) . 8_666
O006 Mn02 O006 174.4(5) . 11_755
Zn01 O003 Mn02 97.1(2) 4_765 5_565
C00F O003 Zn01 116.2(5) . 4_765
C00F O003 Mn02 124.0(5) . 5_565
C00F O003 Co01 115.7(8) . 4_765
C00F O003 Ca02 122.1(6) . 5_565
Co01 O003 Ca02 94.1(8) 4_765 5_565
C00F O004 Mn02 144.0(6) . 4_765
C00F O004 Ca02 151.3(19) . 4_765
C00E O006 Mn02 136.3(6) . .
C00E O006 Ca02 139.9(9) . .
C00E O00A Zn01 125.9(6) . .
C00E O00A Co01 124.9(12) . .
C00H C00D C00O 117.9(8) . .
C00H C00D C00Q 118.0(8) . .
C00Q C00D C00O 124.1(8) . .
O006 C00E O00A 125.7(8) . .
O006 C00E C00K 119.1(9) . .
O006 C00E Ca02 25.6(5) . .
O00A C00E C00K 115.2(8) . .
O00A C00E Ca02 100.1(6) . .
C00K C00E Ca02 144.7(8) . .
O003 C00F C00I 117.1(8) . .
O003 C00F Ca02 106.1(14) . 4_765
O004 C00F O003 123.0(7) . .
O004 C00F C00I 119.9(7) . .
O004 C00F Ca02 17.5(13) . 4_765
C00I C00F Ca02 136.0(14) . 4_765
C00I C00G H00G 120.1 . .
C00Q C00G H00G 120.1 . .
C00Q C00G C00I 119.7(8) . .
C00D C00H H00H 119.6 . .
C00M C00H C00D 120.8(8) . .
C00M C00H H00H 119.6 . .
C00G C00I C00F 119.3(8) . .
C00M C00I C00F 121.2(8) . .
C00M C00I C00G 119.5(8) . .
C00K C00J H00J 119.9 . .
C00R C00J H00J 119.9 . .
C00R C00J C00K 120.1(10) . .
C00J C00K C00E 120.2(8) . .
C00J C00K C00P 118.3(8) . .
C00P C00K C00E 121.4(8) . .
C00N C00L H00L 119.2 . .
C00P C00L H00L 119.2 . .
C00P C00L C00N 121.7(9) . .
C00H C00M H00M 119.6 . .
C00I C00M C00H 120.8(8) . .
C00I C00M H00M 119.6 . .
C00L C00N C00O 118.3(9) . .
C00L C00N C00R 118.8(8) . .
C00R C00N C00O 123.0(9) . .
C00D C00O C00S 111.8(8) . .
C00D C00O C00T 107.0(7) . .
C00N C00O C00D 110.5(7) . .
C00N C00O C00S 106.7(7) . .
C00N C00O C00T 113.3(8) . .
C00T C00O C00S 107.6(9) . .
C00K C00P H00P 120.1 . .
C00L C00P C00K 119.9(9) . .
C00L C00P H00P 120.1 . .
C00D C00Q H00Q 119.4 . .
C00G C00Q C00D 121.1(8) . .
C00G C00Q H00Q 119.4 . .
C00J C00R C00N 121.3(10) . .
C00J C00R H00R 119.4 . .
C00N C00R H00R 119.4 . .
F007 C00S F008 107.9(11) . .
F007 C00S F00C 107.7(11) . .
F007 C00S C00O 110.9(9) . .
F008 C00S F00C 107.4(9) . .
F008 C00S C00O 112.9(11) . .
F00C C00S C00O 109.8(11) . .
F005 C00T C00O 110.3(8) . .
F009 C00T F005 106.5(10) . .
F009 C00T C00O 111.5(10) . .
F00B C00T F005 107.6(11) . .
F00B C00T F009 107.7(9) . .
F00B C00T C00O 112.9(9) . .
O003 Co01 O003 108(3) 4_764 7_655
O003 Co01 Ca02 83.5(18) 7_655 2_754
O003 Co01 Ca02 50.6(12) 7_655 .
O003 Co01 Ca02 83.5(18) 4_764 .
O003 Co01 Ca02 50.6(12) 4_764 2_754
O00A Co01 O003 114.4(3) 10_775 4_764
O00A Co01 O003 114.4(3) . 7_655
O00A Co01 O003 108.2(3) . 4_764
O00A Co01 O003 108.2(3) 10_775 7_655
O00A Co01 O00A 104(2) 10_775 .
O00A Co01 Ca02 157.3(12) 10_775 .
O00A Co01 Ca02 82.2(6) 10_775 2_754
O00A Co01 Ca02 157.3(12) . 2_754
O00A Co01 Ca02 82.2(6) . .
Ca02 Co01 Ca02 100.9(16) 2_754 .
O003 Ca02 O003 75(2) 6_654 7_655
O003 Ca02 C00E 76.1(12) 7_655 .
O003 Ca02 C00E 78.4(13) 6_654 .
O003 Ca02 C00E 78.4(13) 7_655 11_755
O003 Ca02 C00E 76.1(12) 6_654 11_755
O003 Ca02 C00F 145(2) 7_655 8_666
O003 Ca02 C00F 76.3(4) 6_654 8_666
O003 Ca02 C00F 76.3(4) 7_655 4_764
O003 Ca02 C00F 145(2) 6_654 4_764
O003 Ca02 Co01 95(2) 6_654 .
O003 Ca02 Co01 95(2) 7_655 3_775
O003 Ca02 Co01 35.3(5) 6_654 3_775
O003 Ca02 Co01 35.3(5) 7_655 .
O004 Ca02 O003 156(3) 8_666 7_655
O004 Ca02 O003 86.2(9) 4_764 7_655
O004 Ca02 O003 156(3) 4_764 6_654
O004 Ca02 O003 86.2(9) 8_666 6_654
O004 Ca02 O004 115(4) 8_666 4_764
O004 Ca02 O006 92.4(7) 4_764 .
O004 Ca02 O006 100.2(8) 8_666 .
O004 Ca02 O006 92.4(7) 8_666 11_755
O004 Ca02 O006 100.2(8) 4_764 11_755
O004 Ca02 C00E 83.4(2) 8_666 11_755
O004 Ca02 C00E 114.4(6) 8_666 .
O004 Ca02 C00E 114.4(6) 4_764 11_755
O004 Ca02 C00E 83.4(2) 4_764 .
O004 Ca02 C00F 11.2(6) 4_764 4_764
O004 Ca02 C00F 126(3) 8_666 4_764
O004 Ca02 C00F 11.2(6) 8_666 8_666
O004 Ca02 C00F 126(3) 4_764 8_666
O004 Ca02 Co01 61.8(8) 4_764 .
O004 Ca02 Co01 165.0(11) 8_666 .
O004 Ca02 Co01 61.8(8) 8_666 3_775
O004 Ca02 Co01 165.0(11) 4_764 3_775
O006 Ca02 O003 88.1(19) . 7_655
O006 Ca02 O003 73.1(16) 11_755 7_655
O006 Ca02 O003 73.1(15) . 6_654
O006 Ca02 O003 88.1(19) 11_755 6_654
O006 Ca02 O006 156(4) 11_755 .
O006 Ca02 C00E 14.5(4) . .
O006 Ca02 C00E 14.6(4) 11_755 11_755
O006 Ca02 C00E 149(3) . 11_755
O006 Ca02 C00E 149(3) 11_755 .
O006 Ca02 C00F 86.9(5) 11_755 8_666
O006 Ca02 C00F 101.8(5) . 8_666
O006 Ca02 C00F 86.9(5) . 4_764
O006 Ca02 C00F 101.8(5) 11_755 4_764
O006 Ca02 Co01 66.1(11) 11_755 3_775
O006 Ca02 Co01 102.6(16) 11_755 .
O006 Ca02 Co01 102.6(16) . 3_775
O006 Ca02 Co01 66.1(11) . .
C00E Ca02 C00E 148(3) 11_755 .
C00E Ca02 Co01 111.4(15) . 3_775
C00E Ca02 Co01 51.6(9) 11_755 3_775
C00E Ca02 Co01 51.6(9) . .
C00E Ca02 Co01 111.4(15) 11_755 .
C00F Ca02 C00E 76.2(2) 4_764 .
C00F Ca02 C00E 116.3(3) 8_666 .
C00F Ca02 C00E 76.2(2) 8_666 11_755
C00F Ca02 C00E 116.3(3) 4_764 11_755
C00F Ca02 C00F 137(3) 8_666 4_764
C00F Ca02 Co01 167.0(13) 4_764 3_775
C00F Ca02 Co01 50.6(4) 8_666 3_775
C00F Ca02 Co01 50.6(4) 4_764 .
C00F Ca02 Co01 167.0(13) 8_666 .
Co01 Ca02 Co01 125(2) 3_775 .
O0AA O1 O1 62(7) . 9_765
O0AA O1 O1 53(5) 9_765 9_765
O0AA O1 O0AA 88(9) . 9_765
O1 O0AA O1 65(8) . 9_765
O1 O0AA O0AA 49(5) . 9_765
O1 O0AA O0AA 43(5) 9_765 9_765
loop_
_geom_bond_atom_site_label_1
_geom_bond_atom_site_label_2
_geom_bond_distance
_geom_bond_site_symmetry_2
Zn01 O003 1.974(6) 4_764
Zn01 O003 1.974(7) 7_655
Zn01 O00A 1.903(7) 10_775
Zn01 O00A 1.902(7) .
Mn02 O003 2.345(8) 6_654
Mn02 O003 2.345(8) 7_655
Mn02 O004 2.139(7) 4_764
Mn02 O004 2.139(7) 8_666
Mn02 O006 2.097(6) 11_755
Mn02 O006 2.097(6) .
O003 Zn01 1.974(7) 4_765
O003 Mn02 2.345(8) 5_565
O003 C00F 1.303(10) .
O003 Co01 1.94(3) 4_765
O003 Ca02 2.60(6) 5_565
O004 Mn02 2.139(7) 4_765
O004 C00F 1.257(11) .
O004 Ca02 1.94(4) 4_765
F005 C00T 1.333(15) .
O006 C00E 1.246(11) .
O006 Ca02 2.139(17) .
F007 C00S 1.325(17) .
F008 C00S 1.326(13) .
F009 C00T 1.330(12) .
O00A C00E 1.268(12) .
O00A Co01 1.93(3) .
F00B C00T 1.330(12) .
F00C C00S 1.328(12) .
C00D C00H 1.390(13) .
C00D C00O 1.543(12) .
C00D C00Q 1.395(13) .
C00E C00K 1.494(11) .
C00E Ca02 3.19(2) .
C00F C00I 1.478(12) .
C00F Ca02 3.10(3) 4_765
C00G H00G 0.9300 .
C00G C00I 1.391(12) .
C00G C00Q 1.390(13) .
C00H H00H 0.9300 .
C00H C00M 1.388(12) .
C00I C00M 1.370(12) .
C00J H00J 0.9300 .
C00J C00K 1.404(14) .
C00J C00R 1.374(14) .
C00K C00P 1.407(14) .
C00L H00L 0.9300 .
C00L C00N 1.376(14) .
C00L C00P 1.371(13) .
C00M H00M 0.9300 .
C00N C00O 1.543(12) .
C00N C00R 1.379(15) .
C00O C00S 1.570(16) .
C00O C00T 1.546(15) .
C00P H00P 0.9300 .
C00Q H00Q 0.9300 .
C00R H00R 0.9300 .
Co01 O003 1.94(3) 4_764
Co01 O003 1.94(3) 7_655
Co01 O00A 1.93(3) 10_775
Co01 Ca02 3.36(5) .
Co01 Ca02 3.36(5) 2_754
Ca02 O003 2.60(6) 6_654
Ca02 O003 2.60(6) 7_655
Ca02 O004 1.94(4) 4_764
Ca02 O004 1.94(4) 8_666
Ca02 O006 2.139(17) 11_755
Ca02 C00E 3.19(2) 11_755
Ca02 C00F 3.10(3) 4_764
Ca02 C00F 3.10(3) 8_666
Ca02 Co01 3.36(5) 3_775
O1 O1 1.31(15) 9_765
O1 O0AA 1.28(9) 9_765
O1 O0AA 1.16(9) .
O0AA O1 1.28(9) 9_765
O0AA O0AA 1.69(15) 9_765
loop_
_refln_index_h
_refln_index_k
_refln_index_l
_refln_F_squared_meas
_refln_F_squared_sigma
1 0 0 1437.86 65.49
1 0 0 1485.75 66.19
1 -1 0 1498.85 65.69
1 -1 0 1513.75 65.69
-1 0 0 1560.84 65.59
-1 0 0 1495.85 66.19
-1 1 0 1465.05 65.69
-1 1 0 1576.34 65.49
-1 1 0 1524.05 65.69
0 -1 0 1504.95 65.49
0 -1 0 1490.85 65.69
0 -1 0 1548.15 65.29
0 1 0 1519.05 65.49
0 1 0 1489.25 65.69
0 1 0 1588.44 65.29
1 -2 0 860.41 40.4
1 1 0 921.31 40.9
1 -2 0 896.81 41.3
1 -2 0 978.8 41.3
-2 1 0 926.61 40.6
-2 1 0 936.81 42.3
-1 -1 0 927.61 40.8
-1 -1 0 935.41 41.4
-1 -1 0 970.6 41.4
-1 2 0 922.51 41.5
-1 2 0 918.41 41.2
-1 2 0 922.21 40.5
2 -1 0 883.11 42
2 -1 0 871.51 40.6
2 -1 0 995 41.7
-2 1 0 892.31 41.5
1 1 0 856.21 41.3
1 1 0 912.01 41.5
2 -2 0 9655.73 385.66
-2 2 0 9634.14 384.96
-2 2 0 8312.37 385.36
-2 2 0 9652.73 385.56
0 -2 0 9383.56 385.06
0 -2 0 9999 385.66
0 2 0 8177.38 384.86
0 2 0 8073.89 385.16
0 2 0 9860.61 384.56
-2 0 0 9427.36 385.16
2 -2 0 8097.29 384.96
2 0 0 8401.26 384.86
2 0 0 7595.64 385.86
-2 0 0 9040.6 386.36
-2 0 0 9625.64 385.66
1 -3 0 2151.78 94.19
1 -3 0 2248.08 94.39
-3 1 0 2004.3 94.49
-3 1 0 2177.78 93.59
-2 3 0 2102.69 93.49
2 -3 0 2238.98 94.69
2 -3 0 2345.67 94.39
2 -3 0 1782.02 93.09
3 -1 0 2285.57 94.89
3 -1 0 1946.51 93.39
-2 -1 0 2133.69 94.29
-2 -1 0 2220.48 94.89
-3 1 0 2223.58 96.29
-2 3 0 2092.29 93.99
-1 3 0 1967.2 94.09
-3 2 0 2131.89 93.09
2 1 0 1957.1 95.19
-1 -2 0 2176.18 93.69
-1 -2 0 2214.08 94.59
-1 -2 0 2297.17 93.99
1 2 0 1989.2 93.69
1 2 0 2136.39 93.99
-3 2 0 2243.38 95.69
-2 -1 0 2116.89 93.39
3 -2 0 2228.38 94.69
-1 3 0 2139.29 92.69
-3 0 0 3750.52 168.98
0 3 0 4010.2 166.28
-3 3 0 3319.07 166.48
-3 0 0 3989.4 167.38
3 -3 0 3850.91 167.88
0 -3 0 3986.5 167.88
-3 3 0 3905.71 167.88
0 -3 0 3959.8 167.18
-2 -2 0 43.9 8.6
2 2 0 15.3 8.3
4 -2 0 30.6 7.7
2 -4 0 29.7 7.4
-2 -2 0 32.8 6.3
-2 4 0 35.2 6
2 -4 0 24.2 6
-2 -2 0 35 8.4
2 -4 0 42 8
-4 2 0 37.6 6.4
-4 2 0 38 9.8
-1 4 0 93.89 8.1
-4 3 0 89.89 8.2
-3 4 0 97.79 10.3
-3 -1 0 90.39 9.2
-4 1 0 105.29 14
-1 -3 0 89.19 10.1
-1 -3 0 98.99 9.9
1 -4 0 98.09 10.5
-3 -1 0 79.69 10.2
1 -4 0 92.99 10.7
4 -3 0 96.49 11.1
-4 3 0 104.59 12.4
-1 -3 0 106.99 11.4
3 -4 0 100.89 11.4
3 -4 0 99.99 10.9
4 -1 0 99.89 12.3
1 3 0 71.89 9.9
-4 1 0 89.39 9.5
-3 -1 0 99.89 11.8
-4 4 0 2824.72 124.59
0 -4 0 2871.81 124.29
4 -4 0 2770.92 124.29
-4 0 0 2622.34 125.29
-4 0 0 2876.91 123.49
0 -4 0 2743.03 123.19
-3 5 0 14.7 7.5
3 -5 0 20.2 8.5
5 -3 0 14.4 8.5
-5 3 0 15.6 6.2
-3 -2 0 14.1 9.3
-2 5 0 17.2 6
2 -5 0 15.3 7.6
2 -5 0 13.9 8.5
-5 2 0 14.1 6.7
-3 -2 0 19.7 8.4
3 -5 0 1.3 7.4
-2 -3 0 17.4 6.9
3 -5 0 20.4 8.4
-5 3 0 21.8 11.6
-3 -2 0 24.3 6.8
5 -2 0 25.1 9.4
-2 -3 0 16.5 7.6
-2 -3 0 10.4 8.5
-5 2 0 10.6 10
-1 -4 0 1975.6 86.99
4 -5 0 2071.59 87.89
-1 5 0 1876.81 85.09
1 -5 0 1952.6 87.99
-5 4 0 1848.42 85.79
-5 4 0 1956.8 90.39
-4 -1 0 1954.6 86.79
-5 1 0 1934.61 87.39
-5 1 0 1759.42 90.39
-4 -1 0 1993.3 88.29
-4 5 0 1892.51 87.89
-1 -4 0 1915.71 88.59
4 -5 0 1905.41 88.49
-4 -1 0 1959.8 89.69
-1 -4 0 1947.61 87.29
1 -5 0 1950.3 88.39
5 -4 0 1899.91 88.79
-5 0 0 3473.65 153.08
-5 5 0 3388.46 151.68
0 -5 0 3482.55 151.18
0 -5 0 3332.77 149.88
5 -5 0 3336.87 151.08
-5 0 0 3261.97 149.79
-3 -3 0 1672.83 76.79
3 -6 0 1663.73 77.09
-3 -3 0 1592.44 76.69
-6 3 0 1649.63 74.79
-6 3 0 1640.94 80.69
-3 -3 0 1639.94 75.09
6 -3 0 1711.43 77.99
3 -6 0 1654.63 76.49
-3 6 0 1488.65 73.79
-4 -2 0 752.02 39.9
-2 6 0 693.43 36.2
6 -2 0 813.62 41.7
6 -4 0 758.22 41.3
2 -6 0 747.13 39.8
-6 4 0 814.72 44.4
-2 -4 0 794.12 39.3
-4 -2 0 795.12 41.2
4 -6 0 809.92 40.3
2 -6 0 798.52 40.6
-4 6 0 776.12 39.4
-4 -2 0 773.82 38.3
-6 2 0 765.02 38.9
-6 2 0 707.13 43.8
-2 -4 0 721.53 40.4
-6 4 0 743.53 37.6
4 -6 0 754.72 40.9
-2 -4 0 766.32 39.5
-6 5 0 176.38 14.4
1 -6 0 163.58 16.5
6 -5 0 174.78 17.8
-1 -5 0 182.58 16.2
5 -6 0 164.48 17.1
-1 -5 0 170.78 17.3
-6 1 0 179.78 15.8
-6 1 0 177.98 21.2
-5 6 0 186.38 18
-6 5 0 183.88 19.6
1 -6 0 192.18 17.7
-1 6 0 175.28 13.2
-5 -1 0 186.48 19.4
-5 -1 0 156.68 16
-5 -1 0 185.18 15.1
6 -6 0 389.96 27
0 -6 0 417.26 27.7
-6 0 0 384.56 25.7
-6 0 0 425.76 29.6
-6 6 0 395.46 28
0 6 0 378.26 22.1
-6 0 0 385.56 24
-6 6 0 373.86 22.9
0 -6 0 396.66 25.7
7 -3 0 155.58 18.6
-7 4 0 149.59 14.5
-3 -4 0 149.09 15.6
-7 4 0 157.58 22.9
7 -4 0 153.98 18.8
-7 3 0 151.68 23.6
3 -7 0 148.39 17.2
4 -7 0 151.58 17.5
-4 7 0 146.79 16.1
-4 -3 0 156.38 18.8
4 -7 0 147.89 18.1
3 -7 0 153.88 18.1
-3 -4 0 128.49 16.9
-7 3 0 140.39 15.7
-3 7 0 134.09 14.1
-3 -4 0 158.88 18.8
-4 -3 0 144.89 15
-4 -3 0 146.09 17.6
-5 7 0 20.3 11.2
-2 -5 0 45.3 14.3
-2 7 0 33.6 8.1
2 -7 0 41.2 11.4
5 -7 0 39.5 12.6
5 -7 0 34.8 13.1
-7 5 0 32.7 9.5
-7 5 0 35.7 17.4
-7 2 0 38.5 11.4
-5 -2 0 34.1 10.1
-2 -5 0 28.4 11.7
-7 2 0 31.8 16.6
2 -7 0 32.4 13.4
-2 -5 0 36 11.3
-5 -2 0 38.4 12.1
-5 -2 0 27.3 13.8
7 -5 0 34 13.6
-7 1 0 173.18 18.5
-1 7 0 156.08 13.9
7 -6 0 166.98 20.9
-6 -1 0 167.68 18.7
-7 6 0 176.08 16.1
-6 7 0 177.58 20.9
-6 -1 0 169.28 21.8
6 -7 0 186.18 20.8
1 -7 0 162.78 20.8
1 -7 0 166.98 19.6
-7 6 0 178.48 24.8
-1 -6 0 182.68 18
-6 -1 0 186.88 17.6
-7 1 0 210.98 24.5
-1 -6 0 196.38 20.8
-7 0 0 365.06 24.7
7 -7 0 370.76 28.3
-7 7 0 352.96 23.3
0 -7 0 327.17 18
-7 0 0 374.96 26.5
0 -7 0 386.66 26.5
-7 0 0 357.86 30.3
0 -7 0 382.36 28.7
-7 7 0 363.56 30.1
-4 8 0 771.02 41.7
4 -8 0 788.62 44.4
-4 -4 0 778.12 44.4
-4 -4 0 860.81 45.8
-8 4 0 820.12 51.39
-4 -4 0 810.52 42.6
8 -4 0 819.62 47
4 -8 0 765.62 44.7
-8 4 0 784.22 42
5 -8 0 146.19 9.9
-5 8 0 145.19 18.1
-3 -5 0 168.68 20.7
8 -3 0 166.48 23.7
-8 5 0 162.08 16.3
-8 5 0 165.78 27.3
3 -8 0 174.08 20.4
5 -8 0 172.68 21.8
-5 -3 0 159.68 17.5
3 -8 0 163.98 20
-8 3 0 156.78 18.7
5 -8 0 166.28 21.7
8 -3 0 143.79 9.8
8 -5 0 183.58 22.3
-8 3 0 136.29 23.3
-5 -3 0 164.28 20.2
-3 -5 0 168.28 22
-5 -3 0 178.08 22.5
-3 8 0 128.49 15.5
-3 -5 0 156.58 19.1
2 -8 0 12.8 4.2
6 -8 0 25.4 13.3
-2 -6 0 32 15.3
8 -2 0 16.6 5
-6 -2 0 22.4 16.6
-2 -6 0 22.2 4.9
-8 6 0 26.4 20.1
-2 -6 0 19.3 11.7
-8 6 0 15.9 10.3
-8 2 0 15.7 18.2
-6 -2 0 38.2 14.7
-6 -2 0 23.8 11.8
2 -8 0 19.4 15.9
-8 2 0 19.3 12.5
2 -8 0 17.1 12.9
-6 8 0 13.1 14
-2 8 0 -1.1 8.9
6 -8 0 26.2 5.1
8 -6 0 30.5 16.7
1 -8 0 142.49 21.2
-7 8 0 138.69 23.6
-1 -7 0 142.99 21.8
-1 -7 0 126.39 9.6
1 -8 0 132.99 10.2
-7 -1 0 148.19 21
-8 1 0 141.19 19.2
7 -8 0 135.59 10
-7 -1 0 148.49 25.5
1 -8 0 128.39 20.7
-8 7 0 124.79 16.3
-8 1 0 148.79 25
8 -1 0 126.79 10.2
7 -8 0 134.29 21.6
-7 -1 0 129.39 18.3
-8 7 0 165.18 28.8
-1 -7 0 121.79 19.8
8 -7 0 128.69 20.1
0 -8 0 773.32 44.5
0 -8 0 725.83 34.7
8 -8 0 751.92 34.7
8 0 0 718.73 35.1
8 -8 0 772.42 47.7
-8 0 0 768.02 44.6
0 -8 0 790.72 47
-8 8 0 653.03 39.5
-8 0 0 775.22 49.8
-8 8 0 817.32 50.99
-8 0 0 776.32 42.6
5 -9 0 -1.9 15.1
-4 -5 0 -4.2 13.5
9 -4 0 4.3 17.1
-5 -4 0 0.7 12.1
-5 -4 0 7.2 17.3
-4 -5 0 -0.8 4
4 -9 0 3.8 4.6
-9 5 0 -2.7 12.3
-5 -4 0 -6.5 3.3
4 -9 0 -0.4 15.9
5 -9 0 4.7 4.5
-9 4 0 3.8 12.6
-4 9 0 -1.3 12.1
5 -9 0 5.7 16.4
-4 -5 0 -2.1 16.4
4 -9 0 0.6 14.5
9 -5 0 7.2 18.3
-5 -4 0 -6.5 14.8
-9 4 0 9.2 21.2
4 -9 0 -0.1 4.7
-9 5 0 -10.1 22.2
-5 9 0 1.7 13.8
9 -5 0 2.1 4.9
9 -4 0 6 4.8
-4 -5 0 4.1 16.8
3 -9 0 61.09 7.7
9 -3 0 68.89 7.8
6 -9 0 76.99 18.2
6 -9 0 72.49 17.8
-6 -3 0 71.59 20.8
-9 6 0 68.49 24.5
-6 -3 0 67.99 14.8
-9 6 0 75.99 14.1
3 -9 0 63.99 16.7
6 -9 0 84.99 8.4
3 -9 0 75.09 18.5
-9 3 0 64.29 15.7
-3 -6 0 80.49 7.5
9 -6 0 83.79 20.8
9 -6 0 72.79 7.9
-6 9 0 63.49 17.2
-3 -6 0 67.69 17.8
-6 -3 0 109.19 20.4
-9 3 0 108.09 25.8
-3 -6 0 38.4 16.8
-3 -6 0 78.69 15.9
-9 7 0 12.8 12.7
-2 -7 0 21.7 5.3
7 -9 0 24.9 16.7
-7 -2 0 14.8 13.7
9 -7 0 12.7 19.3
-7 -2 0 10.9 15.5
9 -7 0 15.1 5.4
7 -9 0 18.4 5.4
-7 -2 0 11.6 20.5
-9 7 0 19.7 24.2
2 -9 0 21.7 15.6
9 -7 0 16 5.1
-9 2 0 16 21.8
9 -2 0 13.1 5.7
2 -9 0 25.1 6.4
-2 -7 0 12.9 18
-9 2 0 12 14.5
-7 9 0 19 17.9
-2 -7 0 18.2 14.6
2 -9 0 10 19.3
8 -9 0 -7.4 17.3
-1 -8 0 2.3 5.1
-1 -8 0 -5.4 19.2
-8 -1 0 -2.6 14.1
1 -9 0 5.1 5.5
-9 1 0 -1 13.5
-9 8 0 -10.3 24.1
9 -8 0 4.8 5.2
-8 9 0 -0.2 14.2
-9 1 0 16.8 23.5
1 -9 0 -4.5 19.9
-8 -1 0 2.7 16.8
9 -1 0 2.3 6.3
9 -8 0 -2.7 3.7
-9 8 0 -2.2 13.9
8 -9 0 2.9 5.1
1 -9 0 1.2 16.1
-8 -1 0 -2.7 22
8 1 0 -0.4 5.9
-8 9 0 0 21.3
9 -8 0 1.2 19.4
-1 -8 0 -0.2 15.8
-9 1 0 -1.7 16
-9 0 0 0.5 15.4
-9 0 0 12.3 18.5
9 -9 0 16.2 6.4
0 -9 0 4.5 16.9
-9 0 0 4.3 25.1
0 -9 0 6.5 5.9
-9 9 0 10.4 26.1
0 -9 0 5.7 20.8
9 0 0 9.4 6.8
9 -9 0 5.4 20.7
5 -10 0 1470.95 80.19
5 -10 0 1581.44 69.99
-5 -5 0 1479.15 77.59
10 -5 0 1568.94 70.59
-5 -5 0 1667.83 83.39
-5 -5 0 1625.44 69.89
10 -5 0 1615.04 84.39
5 -10 0 1687.43 83.29
10 -6 0 139.99 10.6
6 -10 0 101.89 22.6
-6 -4 0 121.39 18.7
-10 6 0 136.29 30
6 -10 0 163.38 25.1
-10 4 0 101.19 18.3
6 -10 0 153.88 10.6
10 -4 0 143.89 10.4
4 -10 0 137.39 10
4 -10 0 166.98 25
-10 4 0 124.39 29.1
-6 -4 0 172.78 25.1
10 -6 0 150.48 26.3
-6 -4 0 102.49 23.5
4 -10 0 142.29 24.6
-4 -6 0 145.69 10
-4 -6 0 120.49 19.5
-4 -6 0 121.19 23.4
4 -10 0 138.19 10.1
-6 -4 0 120.59 9.4
-7 -3 0 32.5 22.9
3 -10 0 39 20.7
-10 3 0 24.9 15.8
-7 -3 0 22 18.9
-10 3 0 30.4 24
-10 7 0 23.3 27.2
10 -3 0 45.6 7.8
-3 -7 0 43.6 6.5
-3 -7 0 32.1 20.5
10 -7 0 22.9 22
7 -10 0 41.8 7
3 -10 0 40 7.2
-3 -7 0 19.9 15
-7 -3 0 19.6 15
3 -10 0 18.5 18.3
7 -10 0 22.1 18.5
-10 7 0 1.3 19.4
10 -7 0 13 5.4
3 -10 0 28.7 5.5
10 -7 0 30.7 6.4
-8 -2 0 3.1 17.1
-10 8 0 29.5 28.4
8 -10 0 56.79 7.7
2 -10 0 53.69 8.6
8 2 0 20.7 6.7
-10 2 0 28.5 17.8
10 -8 0 54.29 7.6
10 -8 0 49.6 23.5
10 -8 0 35.5 6.5
10 -2 0 47.2 8
-8 10 0 -2.5 44.4
-2 -8 0 37.4 20.1
-8 -2 0 34 19.6
-8 -2 0 34.6 25
2 -10 0 43.4 22.8
-2 -8 0 56.09 7.8
8 -10 0 38.4 21.4
2 -10 0 34.4 18.3
-2 -8 0 22.4 17.6
-10 2 0 40.4 26
1 -10 0 139.69 24.1
10 -9 0 197.08 13
-9 -1 0 156.48 25.2
1 -10 0 229.08 13.9
9 -10 0 205.08 32.7
-10 1 0 220.58 36.8
-1 -9 0 211.98 32.3
9 1 0 241.08 15.1
10 -1 0 217.88 14.1
-1 -9 0 223.78 13.5
1 -10 0 200.98 31.1
9 -10 0 237.08 14.2
10 -9 0 222.98 13.9
-9 -1 0 188.28 33.8
10 -9 0 179.68 29.8
10 -10 0 107.49 27.5
-10 0 0 -0.6 22.6
-10 0 0 59.39 30.8
0 -10 0 58.49 28.3
0 -10 0 3.2 21.8
-5 -6 0 0.9 23.8
-6 -5 0 -1.2 5.2
11 -5 0 8.8 6.4
5 -11 0 4.2 28.1
5 -11 0 0.6 5.5
-5 -6 0 3.3 20.5
6 -11 0 7.1 5.2
-5 -6 0 7 5.4
11 -6 0 6.3 6.2
6 -11 0 5.5 21
-11 5 0 -8.7 28.9
5 -11 0 5 5.3
-11 6 0 11.1 28.7
5 -11 0 0.6 22
-6 -5 0 11.6 22.1
11 -6 0 -1.1 24
6 -11 0 1.9 6.9
-6 -5 0 3.5 24
4 -11 0 570.94 26.7
-7 -4 0 522.45 26.4
-7 -4 0 536.65 43.7
4 -11 0 566.04 27.3
11 -7 0 512.05 46
-4 -7 0 578.34 26.9
11 -7 0 549.54 27.1
11 -4 0 573.24 27.8
4 -11 0 475.45 42.1
-11 4 0 555.24 50.79
7 -11 0 578.14 27.1
-11 7 0 464.95 49.3
3 -11 0 109.19 10.1
11 -3 0 106.59 10.9
8 -11 0 116.29 10.1
-8 -3 0 58.39 22.6
3 -11 0 45.5 22.4
3 -11 0 94.39 8.8
11 -8 0 96.09 9.2
11 -8 0 98.59 9.7
-11 8 0 28.9 29.8
8 -11 0 67.99 23.4
-3 -8 0 84.39 27.3
-3 -8 0 100.89 9.4
-11 3 0 84.39 32.6
11 -8 0 77.69 27.3
-11 9 0 0.6 38.8
11 -9 0 82.39 28.3
-2 -9 0 126.99 29.4
-11 2 0 111.19 32.8
11 -10 0 564.14 28
11 -10 0 515.65 27.8
10 1 0 589.94 29.1
11 -1 0 600.24 29.2
1 -11 0 539.85 27.7
10 -11 0 555.24 27.6
-1 -10 0 562.34 27.7
11 0 0 294.47 18.3
0 -11 0 272.47 16.7
11 -11 0 283.07 17
6 -12 0 662.53 31.5
7 -12 0 6.2 24.3
-5 -7 0 17.9 27.2
-12 5 0 13.1 33.1
-12 7 0 0.9 34.8
5 -12 0 -0.3 26.3
-7 -5 0 6.6 28.1
8 -12 0 622.14 29.4
-4 -8 0 609.04 29.2
12 -4 0 609.44 29.9
12 -8 0 591.24 29.8
4 -12 0 609.94 29.4
-8 -4 0 542.25 28.6
4 -12 0 593.04 28.9
3 -12 0 43.2 7.1
12 -9 0 50.19 8.3
12 -3 0 63.29 10.3
3 -12 0 58.79 9.6
9 -12 0 57.89 8.5
12 -9 0 54.69 8.9
-3 -9 0 60.99 8.2
-2 -10 0 18.4 6.5
12 -2 0 16.5 7.7
10 2 0 16.5 7.8
10 -12 0 17.3 7
2 -12 0 15 6.6
12 -10 0 14.3 7.1
12 -10 0 8.7 6.8
1 -12 0 56.19 8.5
11 1 0 50.49 9.3
12 -11 0 32.2 7.7
12 -11 0 50.09 8.4
-1 -11 0 43 7.7
11 -12 0 55.29 8.8
12 -1 0 49.2 9.2
12 -12 0 254.07 16.6
0 -12 0 251.57 16.3
12 0 0 265.37 17.9
7 -13 0 505.95 26
-7 -6 0 515.65 26.2
6 -13 0 460.25 25.7
6 -13 0 524.55 26
13 -7 0 513.25 26.6
13 -6 0 531.25 27.2
-6 -7 0 542.85 26.5
-5 -8 0 1263.47 55.49
5 -13 0 1144.19 55.09
13 -8 0 1200.58 55.99
13 -5 0 1213.98 56.29
-8 -5 0 1247.98 55.39
5 -13 0 1204.18 55.09
8 -13 0 1210.58 55.29
4 -13 0 76.99 10.3
13 -9 0 50.19 8.4
4 -13 0 58.29 9.5
9 -13 0 71.69 10
-4 -9 0 67.29 9.8
13 -4 0 63.39 10.8
13 -9 0 63.19 10.6
-3 -10 0 451.05 23.8
3 -13 0 438.26 23.8
13 -3 0 462.15 25.1
13 -10 0 459.55 24.6
10 -13 0 436.66 23.8
13 -10 0 437.86 23.8
11 2 0 85.69 12.1
13 -11 0 89.29 12.2
13 -11 0 77.49 10.9
-2 -11 0 82.69 10.8
2 -13 0 110.29 10.8
11 -13 0 98.19 11.2
13 -2 0 91.89 12.1
-1 -12 0 84.39 10.3
12 -13 0 68.89 11
13 -1 0 57.89 10
12 1 0 69.59 12.6
1 -13 0 69.99 10.5
13 -12 0 68.49 10.8
13 0 0 1051.39 48.8
13 -13 0 952.4 47.2
0 -13 0 999.3 47.2
-7 -7 0 131.89 12.2
7 -14 0 137.19 12.1
14 -7 0 130.99 12.3
8 -14 0 326.07 19.1
-8 -6 0 344.47 19.5
14 -6 0 317.47 20.2
6 -14 0 291.57 18.5
-6 -8 0 334.97 19.6
6 -14 0 334.27 19.1
14 -8 0 314.77 20.2
9 -14 0 44.1 8.3
-9 -5 0 37.3 8
5 -14 0 47.2 8.8
14 -5 0 41.8 9
5 -14 0 57.99 8.7
14 -9 0 51.79 10
-5 -9 0 53.99 9.4
14 -4 0 446.16 24.7
4 -14 0 456.05 23.8
-4 -10 0 468.25 24.1
4 -14 0 401.96 23.2
14 -10 0 396.66 23.7
14 -10 0 458.65 25
10 -14 0 443.26 24
-3 -11 0 11.1 7.5
14 -11 0 13.9 7.9
3 -14 0 -3.8 6.4
11 3 0 0.5 7.8
11 -14 0 10.2 7.3
3 -14 0 15.5 7.3
14 -11 0 13.7 8.1
14 -3 0 8.8 8.1
14 -12 0 82.69 12.4
14 -2 0 106.19 13.3
-2 -12 0 98.99 12.7
14 -12 0 86.79 13
12 -14 0 98.99 12
12 2 0 89.89 13.6
2 -14 0 103.79 12.1
14 -13 0 -0.1 7.5
14 -13 0 5.4 8
13 -14 0 4.6 7.6
-1 -13 0 9.8 8.1
13 1 0 10.1 9.1
1 -14 0 11.9 8
14 -1 0 10.8 8.9
14 0 0 34.4 10.4
0 -14 0 20.9 8.8
14 -14 0 19 8.7
7 -15 0 246.28 16.7
15 -7 0 241.58 17.9
15 -8 0 251.47 18.2
-7 -8 0 242.98 16.9
-8 -7 0 249.48 17.4
8 -15 0 231.88 16.9
-9 -6 0 570.24 30.1
6 -15 0 603.34 30.3
6 -15 0 529.35 29.5
15 -9 0 602.74 31.5
9 -15 0 606.24 30.3
15 -6 0 611.44 31.7
-6 -9 0 596.54 30.4
-5 -10 0 75.89 10.7
10 -15 0 48.6 8.8
5 -15 0 62.39 9.3
5 -15 0 42.1 9
15 -10 0 64.69 11.1
15 -5 0 66.79 10.8
15 -11 0 61.29 10.6
4 -15 0 78.99 11
11 -15 0 66.59 9.8
15 -11 0 58.29 9.8
15 -4 0 74.09 12.9
-4 -11 0 89.69 11.4
3 -15 0 7.5 7.6
12 -15 0 1.3 7.9
12 -15 0 -8.5 6.1
-12 15 0 -3.9 4.7
15 -12 0 1 8.7
-3 -12 0 2 8.2
15 -3 0 13.1 9.1
15 -12 0 1.5 8
12 3 0 -3.6 8.1
13 2 0 99.49 13.4
-15 2 0 77.89 8.3
-2 -13 0 70.69 9.5
-1 -14 0 31.2 6.9
-14 -1 0 28 5.4
14 -15 0 40.7 9.5
-14 15 0 26.2 5.3
14 1 0 35.8 10.7
-15 1 0 36.9 6.5
15 -14 0 34.5 9.3
1 -15 0 14.4 6.1
-1 -14 0 38.8 9.8
1 -15 0 51.69 10.4
15 -1 0 35.3 10.4
14 -15 0 18.1 6.4
15 -15 0 4.6 8.7
0 -15 0 16.4 9.2
15 0 0 7 10
0 -15 0 10.1 6.8
-15 0 0 6.1 5.8
-15 15 0 7.7 5.2
15 -15 0 -3.3 6.4
8 -16 0 450.15 25.2
-8 -8 0 439.66 25.4
7 -16 0 29.5 7.4
10 6 0 -4.8 5.5
-10 -6 0 -2.6 7
10 -16 0 -10.2 6.3
6 -16 0 14.5 7.8
6 -16 0 8.2 8.2
-10 16 0 -5.9 3.9
16 -10 0 6.2 9
16 -6 0 20.7 9.8
6 10 0 -1.4 4.2
-6 -10 0 13.3 8.7
10 -16 0 17 8.7
11 -16 0 63.99 10.1
-11 16 0 84.49 8.4
5 -16 0 57.59 9.3
-12 16 0 0.5 5.1
-4 -12 0 -0.9 8.4
16 -4 0 3.9 9.1
-4 -12 0 -10.8 5.8
-16 4 0 -2.9 4.7
16 -12 0 2.7 9.3
12 -16 0 -5.1 6.8
4 -16 0 2.6 7.9
4 12 0 -6 4.2
-12 -4 0 -2.4 3.9
12 -16 0 11.9 8.8
16 -12 0 -15.7 7.9
13 -16 0 80.89 12.7
-16 3 0 75.29 7.7
-13 -3 0 60.69 8
-3 -13 0 67.89 10.9
-13 16 0 68.99 9.7
3 -16 0 79.29 12.9
-3 -13 0 80.39 9.1
16 -3 0 86.79 14.5
16 -13 0 61.39 10.5
13 -16 0 67.79 9.1
-14 -2 0 67.19 9.2
-14 16 0 74.69 9.5
-2 -14 0 78.59 9.1
14 -16 0 94.89 12.4
-2 -14 0 88.69 14.1
2 -16 0 59.89 7.8
2 -16 0 84.19 13.7
16 -2 0 69.29 12.6
-16 2 0 82.99 9.6
16 -14 0 87.49 11.9
-16 14 0 51.49 7.6
14 -16 0 84.49 13.2
-1 -15 0 50.99 11.1
1 -16 0 50.89 10.5
1 -16 0 60.39 8.5
15 -16 0 55.19 10.9
16 -15 0 41.9 10.7
-16 15 0 51.29 6.9
-1 -15 0 50.89 8.4
-15 -1 0 52.69 7.4
16 -1 0 49 12.1
-15 16 0 61.59 7.5
-16 1 0 69.29 7.7
15 -16 0 57.79 8.8
-16 16 0 91.49 10.3
0 -16 0 89.39 12.2
-16 0 0 89.69 10.7
16 -16 0 103.29 13
16 -16 0 82.99 12.5
0 -16 0 104.49 14.9
-8 -9 0 26.3 9.4
8 -17 0 22.3 9.3
-9 17 0 21.1 5.6
9 8 0 15.1 5.9
17 -8 0 29.5 10.8
9 -17 0 24.4 9.7
-9 -8 0 20.9 8.9
8 9 0 19.7 5.9
17 -9 0 30.5 10.7
-8 17 0 12.9 5.1
10 7 0 1.1 5.6
-10 -7 0 -0.8 7.5
10 -17 0 4.6 8.8
17 -10 0 6.2 9.7
-7 17 0 -3.7 4.3
7 -17 0 -3.8 8.5
-7 -10 0 5 9.2
-10 17 0 2.6 5.4
-17 7 0 -6.1 4.8
7 -17 0 -6.2 6.7
10 -17 0 -8 6.6
17 -7 0 4 9.2
7 10 0 2.4 5.5
-6 -11 0 73.09 10.8
11 -17 0 130.29 14.4
11 -17 0 105.79 12.7
17 -11 0 123.79 16.2
-11 17 0 113.39 10.1
-6 -11 0 120.49 15.1
6 -17 0 96.59 12.5
11 6 0 93.29 10.2
17 -6 0 144.09 16
6 11 0 120.19 10.9
-17 6 0 85.69 9.7
-5 -12 0 238.08 16.1
12 5 0 225.18 14.2
-5 -12 0 250.07 19.2
-17 5 0 254.37 15
5 12 0 240.18 15.2
12 -17 0 258.67 18.7
12 -17 0 233.78 16.6
17 -12 0 240.28 19.9
-12 17 0 248.68 14.8
5 -17 0 237.58 18
17 -13 0 14.6 9.7
-13 -4 0 25.9 5.7
-4 -13 0 37.5 8.2
4 -17 0 32.9 9.9
-13 17 0 37.8 6.7
-4 -13 0 34.2 10.5
4 13 0 32.2 6.7
17 -4 0 41.4 11.8
13 -17 0 39.2 10.3
13 4 0 30.4 5.8
13 -17 0 31.8 8.1
-17 4 0 44 7.2
-3 -14 0 6.5 9.5
14 -17 0 6.6 7.7
-14 -3 0 9.3 5.6
-14 17 0 10.1 6
-17 14 0 7.7 4.8
-3 -14 0 9.9 7.5
17 -3 0 6.2 10.8
3 -17 0 13.6 6.8
17 -14 0 -5.8 7.8
14 -17 0 9.6 9.3
-17 3 0 10.9 6.3
3 -17 0 7.7 9.1
3 14 0 8.2 6.3
14 3 0 10 4.8
-17 2 0 194.28 13.6
2 15 0 174.88 13.3
-15 17 0 197.48 13.5
-17 15 0 181.08 12.9
17 -2 0 165.18 18.6
-2 -15 0 182.58 17.6
-2 -15 0 190.98 15
2 -17 0 177.58 16.7
15 -17 0 195.38 15.7
15 -17 0 191.28 17.1
2 -17 0 188.68 14.4
-15 -2 0 193.38 13.4
16 -17 0 -1.3 9.8
1 16 0 9.2 6.1
-16 -1 0 11.9 6.2
-1 -16 0 7.2 9.7
-16 17 0 6.4 6.2
1 -17 0 7.2 7.3
16 -17 0 10.6 8.1
17 -1 0 -1.8 9.5
1 -17 0 1.4 9.5
-17 1 0 1.9 6.2
17 -16 0 10.2 7.9
-1 -16 0 7.6 7.6
17 -16 0 -9.5 8.8
-17 16 0 12.2 6
-17 17 0 224.88 14.6
-17 0 0 240.08 14.9
0 -17 0 233.78 16
0 -17 0 194.28 18.5
17 -17 0 231.08 16.9
18 -9 0 84.09 15.4
-9 18 0 78.49 9.9
9 9 0 72.89 10.6
9 -18 0 70.59 11.3
9 -18 0 82.29 12.1
-8 18 0 166.38 12.4
-8 -10 0 171.58 16.6
18 -8 0 176.38 18.2
10 -18 0 155.58 14.6
-10 18 0 165.98 12.3
8 -18 0 167.58 16.4
10 -18 0 178.88 16.4
10 8 0 167.88 12.8
18 -10 0 182.88 18.3
8 10 0 159.18 12.5
-7 18 0 24.7 5.9
7 11 0 28.2 6.5
18 -11 0 16 10.8
11 -18 0 23.8 9.8
-7 -11 0 36.3 7.7
-7 -11 0 29.3 10.7
-11 18 0 28 6.3
-11 -7 0 14.3 4.6
18 -7 0 30.8 11
11 7 0 30.1 6.7
-18 7 0 40.9 6.6
11 -18 0 29.4 8.4
-18 12 0 -1.4 5.4
12 -18 0 0.9 9.3
-6 -12 0 -5 7.2
-12 -6 0 3.2 5.1
-6 18 0 2.2 5.4
-18 6 0 2.1 6.2
6 12 0 4.6 6
-12 18 0 0.4 5.8
12 6 0 -1.7 6
18 -12 0 1.1 10.3
-6 -12 0 5 9.9
12 -18 0 -0.6 7.7
18 -6 0 3.5 10.1
6 -18 0 -10.1 8.3
13 -18 0 14 8.2
13 5 0 14.2 6.3
-13 -5 0 16.2 5.8
13 -18 0 18.3 10.3
5 -18 0 -2.1 8.2
-5 -13 0 11.6 7.6
-5 18 0 7.7 5.5
-13 18 0 17.9 6.4
5 13 0 16.3 6.3
-18 5 0 10.7 6.5
-5 -13 0 17.1 10.3
-18 13 0 4.7 4.2
18 -5 0 11.7 10.8
18 -13 0 0.5 9.1
4 14 0 30.7 6.6
-14 18 0 26.7 6.5
14 -18 0 18.5 10.2
4 -18 0 28.3 7.3
-4 -14 0 21.9 10.5
4 -18 0 8.8 9.1
-14 -4 0 29.6 6.5
14 -18 0 21.8 8.3
14 4 0 21.7 6.4
-18 4 0 30.4 7
18 -4 0 31.9 11.7
-4 18 0 17 5.2
-18 14 0 26.6 5.7
-4 -14 0 15.9 7.8
3 15 0 1.5 6.1
3 -18 0 11.6 7.3
-18 15 0 3.7 5.5
-15 18 0 0.7 5.8
3 -18 0 -6.4 8.8
-18 3 0 5 6.4
15 -18 0 5.1 10.1
15 3 0 -2.6 5.5
-3 18 0 0.2 4.7
18 -15 0 -15.8 6.5
-3 -15 0 7.7 7.5
18 -3 0 -4.3 10.3
15 -18 0 8.4 8.2
-3 -15 0 6.1 10
-15 -3 0 0.2 6
2 -18 0 13 9.4
2 16 0 27.2 6.5
-2 18 0 -1 7.1
-18 2 0 30.4 7
18 -16 0 18.2 7.9
-18 16 0 19.5 6.1
16 -18 0 8.9 9.6
2 -18 0 16.7 7.5
16 -18 0 24.8 8.3
-16 18 0 22 6.4
18 -2 0 -4.3 9.5
-16 -2 0 17.6 6.1
-2 -16 0 13.2 10.4
16 2 0 11.9 5.3
-2 -16 0 25 8.1
1 -18 0 11.1 7.5
18 -17 0 10.3 8.1
1 17 0 8.9 5.9
-1 -17 0 8.9 7.5
-1 18 0 -3.6 4.3
-17 -1 0 6.6 6.2
-1 -17 0 1.2 9.5
-17 18 0 11.7 6
17 -18 0 12.3 8
17 -18 0 -8 8.7
-18 17 0 8.2 5.9
1 -18 0 -3.6 8.7
-18 1 0 9.1 6.3
17 1 0 -0.1 4.3
0 -18 0 43.7 8.2
-18 18 0 45.5 7
0 18 0 29 5.8
18 -18 0 49.1 8.8
-18 0 0 47.5 7.2
-9 -10 0 -10.7 5.7
10 -19 0 -2.2 7.2
19 -9 0 9.7 10.8
10 9 0 -5.4 6.1
19 -10 0 4.6 10.3
-10 -9 0 -2 6.8
-19 9 0 2.9 5.3
-9 19 0 1.9 5.6
9 10 0 4 6.2
9 -19 0 -3.5 8.8
-10 19 0 2.1 5.9
10 -19 0 -5.5 9.4
-19 10 0 -4.8 4.7
9 -19 0 3.6 7.2
-9 -10 0 -2.7 10.5
8 11 0 31.7 6.9
-11 -8 0 15.2 4.8
-8 19 0 29.6 6
19 -11 0 22.4 11.5
11 -19 0 16.9 9.9
-8 -11 0 26 8
-11 19 0 23.6 6.4
-8 -11 0 18.7 9.3
11 8 0 26 6.7
11 -19 0 33 8.2
-19 8 0 28.5 6.5
19 -8 0 19.3 11.2
19 -7 0 77.19 13.9
12 -19 0 88.19 13.2
-7 19 0 85.59 10.8
-19 7 0 105.29 10.9
-7 -12 0 59.09 11.3
-12 19 0 94.59 10.4
-7 -12 0 88.49 12.1
7 12 0 109.39 11.1
12 -19 0 72.29 12.3
-12 -7 0 94.09 9.4
12 7 0 73.59 10.6
-19 6 0 53.49 7.7
-6 -13 0 44.8 11.1
19 -6 0 35.7 11.4
-6 19 0 54.89 7.4
-13 -6 0 45.3 6.6
-13 19 0 61.59 7.3
6 13 0 62.29 7.7
13 -19 0 47.4 11.3
-6 -13 0 53.79 8.5
13 -19 0 63.99 9.3
13 6 0 49.1 7.4
-19 14 0 13.6 5.3
14 -19 0 6.6 9.7
5 14 0 12.1 6.3
5 -19 0 16.6 7
14 5 0 9.6 6.2
-5 -14 0 2.7 9.6
-5 -14 0 10.9 7.5
-14 -5 0 10.4 5.8
14 -19 0 12.2 8.1
-14 19 0 7.2 6
-19 5 0 11.1 6.7
-5 19 0 8.3 5.8
19 -5 0 10.2 10.7
4 -19 0 119.09 12.3
-4 19 0 99.79 10.4
15 -19 0 108.19 13.7
-19 4 0 115.59 11.8
-15 -4 0 118.89 11
-4 -15 0 108.89 15.8
4 15 0 109.79 11.4
-19 15 0 111.49 10.4
15 -19 0 97.59 15.5
-4 -15 0 106.69 13.2
15 4 0 109.59 11
-15 19 0 118.89 10.7
-16 19 0 38.2 6.8
-3 -16 0 31 8.1
3 16 0 33.6 6.9
-16 -3 0 34.6 6.6
16 -19 0 42.7 8.6
-19 3 0 31.7 7.2
-19 16 0 27.6 6.2
-3 -16 0 16.2 9.9
16 3 0 25.4 6.4
3 -19 0 33.7 7.8
19 -17 0 19.5 7.6
2 17 0 15.1 5.9
-17 -2 0 9.9 5.9
-2 -17 0 7.6 7.2
17 -19 0 -6.8 11.1
-19 2 0 11.3 6.2
17 -19 0 15.1 8
-2 -17 0 -9.2 8.6
17 2 0 5.3 4.8
-17 19 0 13.8 5.8
2 -19 0 10.1 7.1
-19 17 0 17.3 6.1
-19 18 0 152.98 11.6
-1 -18 0 139.89 13.4
1 -19 0 152.28 13.5
-18 19 0 142.49 11.6
1 18 0 142.19 11.4
-19 1 0 140.99 12.2
18 -19 0 160.28 13.8
-18 -1 0 152.28 12
19 -18 0 153.88 13.6
0 -19 0 7.6 6.8
-19 0 0 6.7 5.6
19 -19 0 11.1 7.3
0 19 0 -4.8 4.1
-19 19 0 5.8 5.4
-10 20 0 207.48 13.6
10 10 0 211.98 14.1
-20 10 0 185.28 12.8
20 -10 0 171.78 19.5
10 -20 0 200.58 14.9
20 -9 0 57.59 13.3
-20 9 0 77.59 10.2
11 9 0 76.69 10.7
-9 -11 0 81.59 9.2
9 -20 0 78.89 9.2
11 -20 0 89.39 9.9
-11 20 0 79.19 10.2
-9 20 0 73.99 10.1
9 11 0 82.49 10.7
12 -20 0 -2.9 8.8
8 12 0 4.5 6.3
8 -20 0 -6 5.1
-12 20 0 1.1 5.9
-12 -8 0 5.8 5.2
-20 8 0 4.3 6.2
-8 -12 0 8.3 7.4
12 8 0 -0.9 6.2
-8 20 0 1.8 5.6
20 -8 0 2.8 10.6
12 -20 0 3.9 7.3
20 -12 0 -1.5 9.2
13 7 0 9.4 6.2
-13 20 0 17.8 6.4
-20 13 0 0.8 4
-13 -7 0 19.4 5.9
-7 -13 0 -2.7 9.8
-7 20 0 12.4 6.2
13 -20 0 6.7 9.2
13 -20 0 12.4 7.5
7 13 0 21.7 6.6
20 -7 0 5.4 10.7
-20 7 0 13 6.4
-7 -13 0 19.5 8.1
-20 6 0 20.1 6.4
14 -20 0 -1.3 9.3
6 -20 0 5.5 6.2
-14 -6 0 14.1 5.9
-20 14 0 14.6 5.1
14 6 0 10.5 6.1
-6 -14 0 -2.5 9.1
-6 20 0 13.6 5.9
14 -20 0 17.7 8
6 14 0 22.8 6.6
20 -6 0 4.6 9.8
-6 -14 0 15.3 7.4
-14 20 0 18.9 6.2
-5 -15 0 64.69 8.9
5 15 0 77.19 8.1
15 -20 0 57.29 9.1
15 5 0 52.09 7.3
-5 20 0 54.79 7.1
5 -20 0 69.59 10.8
-15 -5 0 71.29 9.5
-20 15 0 65.49 7.1
-15 20 0 69.39 7.6
-20 5 0 67.49 8
-4 20 0 -1.3 4.6
-16 20 0 -0.1 5.7
16 -20 0 -4.3 10.9
-20 16 0 3.6 5.5
16 -20 0 3.8 7.3
-4 -16 0 2.4 7.3
4 -20 0 13.4 7.2
4 16 0 10.6 6.2
-20 4 0 2.7 6
-16 -4 0 5.3 5.6
16 4 0 1.1 5.7
-17 -3 0 38.7 6.6
-17 20 0 44.2 6.5
-20 17 0 28.7 6.1
17 -20 0 45.7 8.1
-3 -17 0 37.9 7.7
3 17 0 36.4 6.6
-20 3 0 35.2 6.8
17 3 0 28 5.8
3 -20 0 43.4 8.1
18 -20 0 11.1 7.2
18 2 0 0.1 4
-18 -2 0 1.2 5.3
-20 2 0 0.3 5.7
2 -20 0 5.9 6.7
2 18 0 3.3 5.5
-20 18 0 2.3 5.3
-2 -18 0 6.4 6.7
20 -18 0 4.1 6.7
-18 20 0 -0.8 5.2
-20 1 0 118.59 10.6
-20 19 0 117.79 10
-19 20 0 115.79 9.8
19 -20 0 118.09 11.6
1 -20 0 119.09 11.7
-19 -1 0 110.29 10.4
-1 -19 0 113.19 11.2
20 -19 0 116.59 11.4
0 -20 0 80.29 9.9
-20 0 0 91.99 9.3
-20 20 0 92.79 8.7
20 -20 0 94.19 10.5
-21 11 0 -5.2 4.4
-10 21 0 -0.2 5.3
-11 21 0 0.3 5.6
-10 -11 0 -8.7 5.7
21 -10 0 -1.5 11
10 11 0 1.6 6
-11 -10 0 -4.8 3.9
11 10 0 4.1 6.1
11 -21 0 -1.4 7.1
-21 10 0 8 5.8
10 -21 0 4.5 7.2
-9 21 0 2.1 5.4
21 -9 0 -3.8 9.4
12 -21 0 -2.8 6.9
12 9 0 0.2 6
9 12 0 3.2 6.2
-21 9 0 0.9 5.8
-12 21 0 4.1 5.7
-9 -12 0 -4.1 6.8
-12 -9 0 4.5 4.7
9 -21 0 0.4 6.3
-21 8 0 6.4 6.2
8 13 0 22.9 6.4
21 -8 0 -2.6 10.7
-13 -8 0 23.4 5.7
13 8 0 20.5 6.2
-8 -13 0 13.2 7.5
-13 21 0 14.3 5.9
-8 21 0 18.9 6
13 -21 0 11.4 7.6
14 7 0 90.89 9.8
14 -21 0 84.69 12.4
-14 -7 0 90.59 9.7
-7 21 0 89.39 10
-21 7 0 93.19 10.7
7 14 0 95.49 10.9
-7 -14 0 101.59 12
-14 21 0 86.59 10.3
-21 15 0 4.9 4.7
-6 -15 0 -5.6 6.7
6 15 0 7.9 5.9
-15 -6 0 6 5.5
15 -21 0 6.1 7.1
6 -21 0 -10.9 5.9
-6 21 0 2.4 5.1
15 6 0 1.6 5.5
-15 21 0 -3 5.5
-21 6 0 -1 5.8
-21 16 0 65.49 8.7
-16 -5 0 71.89 9
5 -21 0 64.29 8.2
-5 -16 0 68.89 8.6
-21 5 0 72.69 8
16 -21 0 84.29 9.2
5 16 0 69.09 9.7
-5 21 0 47.5 6.1
16 5 0 50.09 6.9
-16 21 0 66.19 7.2
-4 -17 0 14.9 7.2
17 4 0 8.8 5.4
-21 4 0 16.4 6.1
4 -21 0 24.1 6.8
-21 17 0 14.3 5.5
-17 -4 0 12.8 5.5
4 17 0 15.8 5.9
-4 21 0 0.1 4
17 -21 0 17.9 7.2
-17 21 0 9.5 5.5
-18 21 0 64.69 8.5
-21 18 0 71.99 8.4
3 18 0 66.69 8.6
3 -21 0 68.99 9.9
-18 -3 0 64.09 8.5
-3 -18 0 68.19 10.3
-21 3 0 74.99 9.1
18 -21 0 71.49 10.6
19 -21 0 44.8 7.4
-21 2 0 38.8 5.9
-19 21 0 40.6 5.8
-21 19 0 32.6 5.4
-19 -2 0 31.2 5.6
2 19 0 21.7 4.8
-2 -19 0 38 6.8
2 -21 0 29.3 6.4
-1 -20 0 8.2 5.8
21 -20 0 4.4 5.4
-20 -1 0 2.7 4.8
20 -21 0 6.8 6.4
-20 21 0 1.5 4.5
-21 20 0 4.9 4.5
-21 1 0 0.5 4.8
1 -21 0 6.9 6
-21 21 0 88.09 7.9
-21 0 0 92.69 8.1
21 -21 0 69.69 8.7
0 -21 0 90.09 9.1
11 -22 0 81.79 11.2
11 11 0 94.39 10.1
-11 22 0 92.69 9.9
12 -22 0 6 6.9
10 -22 0 1.6 6.3
-22 10 0 6.9 5.5
-10 -12 0 -2.8 5.5
-12 22 0 10.1 5.5
-12 -10 0 -4.3 4.2
10 12 0 10.6 5.9
12 10 0 1.9 5.7
-10 22 0 5.8 5.5
9 -22 0 -5.3 7.7
-9 22 0 17.2 5.9
-9 -13 0 13.2 7
-13 22 0 23.5 5.9
-22 9 0 15.5 5.9
9 13 0 19.7 6.2
13 -22 0 13.3 7
13 9 0 18.1 5.7
-13 -9 0 11.9 4.7
-8 -14 0 2.9 6.6
-8 22 0 2.5 5
-14 -8 0 2.8 4.9
14 8 0 0.9 5.3
8 14 0 2 5.5
-22 8 0 0.8 5.7
14 -22 0 2.7 6.7
-14 22 0 3.1 5.3
-22 7 0 8.1 5.9
-15 -7 0 15.6 5.2
-22 15 0 -2.8 4.2
15 -22 0 9.3 6.9
-7 -15 0 7.2 6.6
-15 22 0 2.2 5.3
15 7 0 9.1 5.3
-7 22 0 8 5
7 15 0 14.4 5.9
-16 -6 0 31.9 5.6
16 -22 0 26.8 7.1
6 16 0 22.3 5.9
-22 6 0 28.3 6.2
-6 -16 0 29.9 7.2
16 6 0 21 5.7
-16 22 0 32.3 5.9
-6 22 0 24.5 4.6
-22 5 0 -0.5 5.3
-5 -17 0 1.7 6.3
17 -22 0 9.5 6.3
5 -22 0 7 5.7
-17 -5 0 3.5 4.9
5 17 0 1.6 5.2
-17 22 0 3.9 5
17 5 0 1.5 5.1
-22 17 0 -0.7 4.1
4 -22 0 23.1 6.3
-18 22 0 12 5
4 18 0 13.2 5.2
-18 -4 0 15.6 5.1
18 4 0 -0.2 3.9
18 -22 0 11.4 6.4
-4 -18 0 11.8 6.1
-22 18 0 8.1 4.3
-22 4 0 13.4 5.4
-22 19 0 -1.3 4
3 -22 0 5.2 5.9
19 -22 0 5.3 6.3
3 19 0 -0.9 4
-19 22 0 0.3 4.6
-3 -19 0 0 5.5
-19 -3 0 1.6 4.6
-22 3 0 2.2 4.8
20 -22 0 36.8 6.5
2 -22 0 35.8 5.9
-20 22 0 36 5.2
-22 2 0 34.2 5.3
-20 -2 0 36.3 5.2
-22 20 0 28.7 4.4
-2 -20 0 37.2 6.2
-21 -1 0 45.9 5.2
21 -22 0 21.1 5.2
-22 1 0 39 5.1
1 -22 0 29.4 5.8
-1 -21 0 39.3 5.9
-21 22 0 31.3 4.9
-11 23 0 34.6 5.8
-12 23 0 32.4 5.7
12 -23 0 26.6 6.9
12 11 0 29.3 5.7
11 12 0 32.6 5.7
11 -23 0 26.9 6.3
-10 -13 0 -1.7 4.8
13 -23 0 6.3 6.4
13 10 0 6.7 5.1
-13 23 0 5.1 4.8
10 13 0 7.2 5.2
-23 10 0 4.7 4.5
-10 23 0 8.2 5
14 -23 0 -0.9 6.3
-14 23 0 -3 4.7
9 14 0 1.2 5.1
-9 -14 0 -1.7 5.6
-14 -9 0 -8.2 3.6
-23 9 0 0 5.2
-9 23 0 -0.8 4.6
14 9 0 -0.5 4.7
15 8 0 1.4 5
-15 23 0 7.4 5.1
-15 -8 0 8.1 4
-8 23 0 4.9 4.4
-8 -15 0 3.5 6.1
-23 8 0 5.1 5.2
8 15 0 6.5 5.1
15 -23 0 8.4 6.3
-16 23 0 8.7 4.9
7 16 0 10.6 5.2
-7 -16 0 9.6 5.9
-23 7 0 10 5.3
-7 23 0 3.2 3.4
16 7 0 2.4 4.9
16 -23 0 4.8 5.9
-16 -7 0 11.2 4.6
17 6 0 1.3 4.4
17 -23 0 1.1 5.8
-17 -6 0 -2 4.4
-17 23 0 -3.1 4.5
-23 6 0 4.5 4.8
6 17 0 0.5 4.9
-6 -17 0 -0.7 5.5
-18 23 0 11.6 4.9
18 -23 0 13.8 6.2
5 18 0 11.6 5
-23 5 0 9 4.8
-18 -5 0 12.5 4.7
-5 -18 0 12 5.5
-23 4 0 5.6 4.6
-19 -4 0 3.1 4.3
4 -23 0 -6.5 4.1
4 19 0 -4.1 3.3
19 -23 0 6.4 5.7
-19 23 0 11.9 4.6
-4 -19 0 9.7 5.4
20 -23 0 28.2 5.7
-3 -20 0 21.1 5.4
-20 -3 0 21.8 4.7
-23 3 0 18.9 4.9
-20 23 0 21 4.6
-12 24 0 5.9 4.5
12 12 0 2 4.4
12 -24 0 -3.9 4.2
-11 24 0 5.2 4.4
11 13 0 5.7 4.5
13 -24 0 -0.4 5.6
13 11 0 1 4.6
-13 24 0 4.8 4.4
10 14 0 2.3 4.8
14 -24 0 -0.6 5.6
-14 24 0 -0.9 4.5
14 10 0 2.6 4.6
-10 24 0 -0.8 4
-24 9 0 -2.4 3.4
-9 -15 0 -5.6 4.2
15 -24 0 3.3 5.6
-15 24 0 -0.1 4.4
15 9 0 -0.7 4.3
-9 24 0 -0.6 3.2
9 15 0 4.4 4.5
8 16 0 1.4 4.5
16 -24 0 3.6 5.5
-24 8 0 1.7 3.6
16 8 0 1.7 4
-8 -16 0 1.8 4.6
-16 24 0 2 4.3
-17 24 0 -2 4.3
7 17 0 6.5 4.3
-24 7 0 -0.4 3.9
17 -24 0 3.7 5.5
-7 -17 0 -1 4.9
17 7 0 -0.4 3
6 18 0 7.7 3.7
-18 24 0 13.8 4.5
-24 6 0 12.1 4.2
-6 -18 0 9 4.9
18 -24 0 13.8 5.6
-13 25 0 8.7 4
-12 25 0 2.3 2.9
13 12 0 5.8 4.6
12 13 0 9.4 4.1
14 11 0 29.8 5.2
11 14 0 23.6 4.7
-14 25 0 28.1 4.4
0 0 1 0.8 2.3
0 0 1 1.4 1.4
1 -1 -1 15.9 3.6
0 1 -1 9.3 2.5
-1 0 1 17 3.3
0 1 1 8.5 3.8
0 -1 1 14.9 2.5
1 0 1 9.7 4.5
-1 1 1 16.3 4.6
1 0 -1 12.7 3.3
0 -1 1 12.7 3
1 0 1 10.6 2.9
1 -1 1 16.5 4
-1 1 1 10.5 3.5
-1 1 -1 17.5 3.9
1 0 -1 13 3.4
0 1 1 8.9 3.8
-1 0 -1 22.7 5.3
0 -1 -1 14.5 2.4
0 -1 -1 10.4 3.6
1 -1 1 12 1.4
0 1 1 10.4 2.4
-1 0 -1 15.1 3
-1 0 1 13.7 3.1
1 -1 1 12.3 1.9
0 -1 1 13 2.9
-1 1 1 11.5 3.3
0 1 -1 10 3.2
-1 1 -1 18.5 3.1
1 -1 1 15.8 2.8
1 -1 -1 12.9 3.9
2 -1 -1 778.42 34
-1 2 1 768.02 33.3
-2 1 -1 730.83 31.2
1 1 1 731.33 31.1
1 -2 1 731.33 31.5
1 -2 -1 730.03 32.7
-2 1 1 673.53 33.6
1 -2 1 677.93 31.6
1 -2 1 770.12 32.9
-1 -1 1 706.53 32.7
1 1 1 678.53 32.9
1 1 1 726.13 34.3
2 -1 1 680.83 33.9
-1 -1 1 656.33 31.8
1 -2 -1 657.63 33
-1 2 1 674.43 32.6
1 1 -1 671.13 32.6
-2 1 -1 790.32 34.3
-1 -1 -1 725.43 31
-1 2 -1 684.93 32.7
1 -2 -1 783.22 34
1 1 -1 659.33 31.9
-1 2 -1 683.13 31.4
2 -1 1 719.43 31.1
-2 1 1 667.53 33.1
2 -1 -1 597.34 32.2
-1 2 -1 719.53 31.6
2 -1 -1 587.34 32.9
-1 -1 1 717.33 32.7
-2 1 -1 743.33 32.1
2 -1 1 736.83 31.9
-1 -1 -1 762.22 34.2
-1 -1 -1 694.33 33
-2 1 1 696.53 32.5
0 -2 -1 34.7 6
-2 2 -1 35.7 6.6
2 -2 -1 28.2 6.4
-2 2 1 34.1 7.2
0 2 -1 22 5.2
-2 0 -1 32.9 6.8
-2 0 1 49.5 6.4
2 -2 1 35.5 5.7
0 2 1 27.6 6.4
2 -2 1 35 6.5
0 2 -1 33 5.4
0 -2 1 36.4 5.3
0 -2 -1 43.1 5.2
0 2 1 26.5 6.6
-2 2 -1 28.8 5.2
2 0 -1 39.5 6.4
-2 2 1 29.7 5.9
-2 2 1 34.7 5.7
2 0 1 27.1 7.4
2 -2 -1 53.79 7.2
-2 0 -1 30.2 4.4
-2 0 1 49.5 6.6
2 0 -1 28.2 5.5
2 0 1 31.3 5.1
-2 0 -1 44.8 5.8
0 -2 1 36.6 5.9
0 2 1 31.8 5.2
-2 3 1 584.54 28.4
3 -1 1 541.25 26.8
-3 2 -1 582.04 30.4
2 -3 1 625.34 26.8
-3 2 -1 525.75 27.9
-2 -1 -1 566.54 28.5
-1 3 -1 564.94 27.5
-3 1 1 603.84 28.1
1 2 1 483.35 29.1
-2 -1 -1 572.64 26.2
1 -3 -1 607.74 28.2
-1 -2 1 573.54 27
2 1 -1 522.85 28.4
-1 -2 1 611.74 28.4
-1 -2 1 596.54 28.4
3 -2 -1 612.04 29.7
-3 2 -1 563.54 25.8
1 -3 -1 602.44 29.4
2 -3 1 517.15 26.8
2 -3 1 580.64 28.3
-3 1 1 594.64 29.4
-2 -1 -1 610.44 30.1
3 -1 1 603.44 27.6
1 2 1 526.15 26.6
-2 -1 1 574.14 28.4
-1 3 1 595.44 28.6
2 -3 -1 576.54 29
-1 -2 -1 578.14 29.3
3 -2 1 609.64 28.3
-3 1 -1 578.24 30.8
-3 1 -1 583.64 27.2
-2 -1 1 612.44 29
-2 3 -1 629.14 28.8
1 -3 1 592.74 27.7
-1 -2 -1 562.04 26.9
-2 -1 1 580.44 28.4
2 -3 -1 629.24 30.2
1 -3 1 601.34 28.8
-2 3 -1 611.54 27
-1 -2 -1 614.14 30
-3 2 1 551.14 27.8
3 -1 -1 620.14 30.5
-3 1 -1 543.75 27.6
1 2 -1 539.75 27.1
-1 3 1 491.25 27.9
-3 2 1 585.64 29.5
3 -2 1 502.05 25.8
-3 0 -1 50.39 7.3
3 -3 1 35.3 7.4
0 -3 -1 59.59 8.7
3 0 1 35.8 6.7
0 -3 1 68.09 8.3
-3 3 1 56.09 8.5
0 3 1 36 8.4
0 3 -1 25.1 6.8
-3 0 1 56.09 8.8
-3 3 -1 53.99 5.6
3 -3 -1 62.09 9.3
0 -3 -1 63.09 7.2
-3 0 -1 64.39 7.7
-3 3 -1 68.39 11.3
0 3 1 42.4 6.5
0 -3 1 74.19 9.2
3 -3 1 63.09 8.5
-3 0 1 68.59 9.3
2 -4 -1 646.34 32.5
2 -4 1 656.93 30.9
-4 2 -1 627.74 35.3
-2 -2 1 674.53 32.6
2 -4 1 553.64 29
-2 -2 -1 680.73 34.4
-2 -2 1 620.34 31.5
-4 2 1 630.54 31.3
-4 2 -1 597.24 29.8
-2 -2 -1 654.63 30.1
4 -2 -1 659.73 33.9
4 -2 1 680.03 31.9
2 -4 1 636.94 32.3
-2 -2 -1 624.34 32.9
-2 -2 1 624.84 31.6
-2 4 1 655.83 31.8
2 -4 -1 688.83 33.6
-2 4 -1 645.64 31.4
-4 2 1 587.04 32.8
-3 -1 -1 123.89 14.2
-1 -3 1 135.99 9.8
-3 -1 -1 124.79 11.6
-4 3 -1 129.59 15.7
-3 4 1 135.79 12.2
4 -3 -1 124.39 13.4
-4 1 1 137.79 13.6
-4 3 -1 114.29 8.2
-1 -3 1 125.49 11.5
1 -4 -1 127.89 13.5
-3 -1 -1 129.99 9.4
-1 -3 1 126.79 11.7
4 -1 1 125.19 11.3
-4 1 1 126.99 11.2
3 -4 1 131.19 10.5
1 -4 -1 116.79 11.5
3 -4 1 135.69 12.2
-3 -1 1 123.69 12
-3 -1 1 114.09 11
-1 -3 -1 112.49 12.7
-1 -3 -1 121.29 9.5
3 -4 -1 130.09 13.6
1 -4 1 124.49 11
-1 4 1 123.09 11.1
-3 4 -1 118.39 14.5
-3 -1 1 120.89 13.2
1 -4 1 124.69 11.7
-4 3 1 125.49 12.9
-1 -3 -1 120.49 13
1 3 -1 102.09 10.3
-4 1 -1 110.49 9.9
3 -4 -1 126.89 12.4
-4 1 -1 120.79 15.1
-4 3 1 115.59 10.3
4 -3 1 120.79 11.3
-3 4 -1 95.69 9.2
0 -4 -1 355.06 20.4
0 -4 1 368.06 21.3
-4 0 -1 346.37 20.8
0 -4 1 367.96 21.7
-4 0 1 360.26 23.5
-4 4 1 355.46 22.2
-4 4 -1 379.86 25.4
4 -4 1 357.36 21.9
4 -4 -1 345.37 22.4
-4 0 1 362.06 21.7
0 -4 -1 357.56 22.5
-4 0 -1 361.16 24.4
-2 -3 1 284.57 17.3
3 -5 1 279.17 19.2
-3 -2 -1 268.97 19.4
5 -2 1 282.67 18.6
2 -5 -1 288.27 20.2
-5 2 1 286.47 21
-2 5 -1 272.57 17.1
-3 5 1 272.67 18.2
-3 -2 -1 281.97 21.1
-3 -2 -1 272.67 16.1
5 -3 -1 280.07 20.4
2 -5 -1 277.17 18.8
-5 2 1 273.57 17.7
-5 3 -1 266.47 23.2
-2 -3 1 275.07 19
-2 -3 1 275.67 18.2
3 -5 1 285.07 17.4
-5 3 -1 258.37 15.7
-3 -2 1 272.27 18.8
-2 -3 -1 283.07 17.5
5 -2 -1 296.97 21.5
-2 5 1 302.67 18.5
-5 3 1 290.77 18.1
-5 2 -1 267.67 17
3 -5 -1 287.37 20.2
-3 -2 1 288.77 19.6
-5 3 1 296.17 21
-3 5 -1 299.17 21.1
-5 2 -1 318.17 23.9
2 -5 1 297.17 18.5
-2 -3 -1 311.37 21.4
2 -5 1 283.27 19.4
5 -3 1 283.17 19.1
-2 -3 -1 307.27 20.6
-3 -2 1 273.77 18.4
3 -5 -1 300.57 20.9
-1 -4 1 169.38 14.9
4 -5 1 170.08 15.6
-5 1 1 175.48 17.5
-4 -1 -1 175.38 18
-4 5 1 169.58 15.1
-5 4 -1 174.08 20.3
-1 -4 1 173.88 12
-5 1 1 177.78 14.9
-4 -1 -1 168.08 12.3
-1 -4 1 175.28 15.7
5 -4 -1 197.08 17.3
1 -5 -1 164.58 16.7
-5 4 -1 157.58 11.1
1 -5 -1 181.18 14.9
-4 -1 -1 152.68 15.3
-1 -4 -1 207.78 17.3
-5 1 -1 186.18 19.7
-4 5 -1 185.28 20.3
1 -5 1 201.28 16.1
-5 1 -1 183.18 14.5
-4 -1 1 198.48 16.4
1 -5 1 207.18 16.3
-1 -4 -1 181.88 14.1
-4 -1 1 186.88 17.9
-5 4 1 190.48 17.4
5 -4 1 212.68 16.7
-1 -4 -1 203.88 17.5
-4 -1 1 187.98 15.4
-1 5 1 187.28 15.1
4 -5 -1 192.88 16.8
-5 4 1 190.68 14.8
-5 0 1 303.37 20.1
-5 5 1 314.97 21.9
5 -5 1 305.97 21.6
-5 0 1 282.17 23.9
-5 5 -1 320.17 26.3
-5 5 -1 286.17 16.6
-5 0 -1 299.77 23
0 -5 1 335.27 21.7
-5 0 1 307.37 20.9
-5 0 -1 293.67 19.9
0 -5 1 310.47 20.9
0 -5 -1 304.77 20
5 -5 -1 307.37 22.5
0 -5 -1 292.87 21.2
-3 -3 1 129.79 14.7
3 -6 -1 123.79 15.9
-6 3 1 123.49 17
-3 -3 1 125.49 14.8
-3 6 -1 109.29 16.1
3 -6 1 124.69 14.8
-3 -3 1 121.09 13.8
3 -6 -1 127.39 15.8
-3 6 1 120.79 13.2
-6 3 -1 110.49 11.5
-3 -3 -1 125.19 16.2
-3 -3 -1 124.19 11.8
3 -6 1 121.99 14.3
6 -3 -1 129.19 16.6
6 -3 1 125.19 14.8
-6 3 -1 119.79 18.1
-6 3 1 127.99 13.8
-3 -3 -1 127.69 17.8
-2 -4 1 150.88 13.8
-6 4 -1 134.99 11.6
2 -6 -1 141.79 16.4
-2 -4 1 146.89 14.4
-4 -2 -1 137.29 12.6
-6 4 -1 148.39 21.4
-4 6 1 131.49 14.7
4 -6 1 146.29 14.9
-4 -2 -1 131.89 15.1
-2 6 -1 139.19 12.4
6 -2 1 147.79 15.9
6 -4 -1 145.69 17.5
-6 2 1 144.19 14.5
-2 -4 1 140.19 15.5
2 -6 -1 142.99 15.4
-4 -2 -1 136.69 17.9
-6 2 1 140.99 18.4
4 -6 1 150.48 16.3
-6 4 1 164.88 14.9
-6 4 1 170.18 18.5
-4 -2 1 156.98 14.7
4 -6 -1 180.28 19.4
-2 -4 -1 159.78 17.6
-2 6 1 166.98 15.1
-4 -2 1 179.58 17.3
-6 2 -1 153.68 13.8
4 -6 -1 151.38 16.4
2 -6 1 180.48 17
-6 2 -1 169.88 20.9
-4 -2 1 171.18 16.8
-2 -4 -1 166.88 17.5
6 -4 1 170.78 17.4
-4 6 -1 150.98 20.4
-2 -4 -1 155.28 13.9
2 -6 1 178.18 16.2
1 -6 -1 57.89 13.5
5 -6 1 51.09 12
1 -6 -1 45.2 10.6
-6 5 -1 43.3 7.5
-5 -1 -1 52.29 14.9
6 -5 -1 53.39 12.7
-6 1 1 54.89 11.7
-5 -1 -1 39.5 8.7
-5 -1 -1 43.4 11.3
-1 -5 1 56.29 12.1
-6 1 1 75.99 17.1
-6 5 -1 43.2 17.3
-5 6 1 47.5 12.3
-1 -5 1 52.39 12.5
-1 6 1 47 11.1
-5 6 -1 61.99 17.9
5 -6 -1 36.9 11.4
-6 5 1 39.8 11.9
-5 -1 1 40.2 13.7
-5 -1 1 53.89 12.2
1 -6 1 63.99 12.6
-6 1 -1 52.99 10.6
6 -5 1 57.69 12.3
-1 -5 -1 49.6 12.6
-1 -5 -1 54.79 10.4
-6 5 1 56.49 10.2
-5 -1 1 61.69 11.9
-6 1 -1 63.09 16.7
1 -6 1 51.09 11.9
-6 0 -1 67.19 17
0 -6 1 59.99 12.2
-6 0 1 60.89 16.1
0 -6 1 58.29 13.2
6 -6 -1 70.49 14.7
-6 0 1 54.19 11.2
-6 0 1 56.29 12.8
-6 0 -1 55.39 9.8
6 -6 1 51.59 12.7
0 -6 -1 50.69 11.1
-6 6 -1 44.4 7.9
0 6 1 60.29 11.6
-6 6 1 67.89 15.6
-6 0 -1 50.69 11.9
0 -6 -1 55.59 13.4
-6 6 -1 56.39 19.3
-7 3 1 359.46 24.1
7 -3 1 357.36 25.2
-4 7 1 340.67 23.8
4 -7 1 357.76 23.9
7 -4 -1 361.16 27.1
-4 -3 -1 366.06 27.6
-7 3 1 388.56 29.8
3 -7 -1 365.26 26.7
-3 -4 1 358.76 24.1
-3 -4 1 365.46 23.9
4 -7 1 370.66 25.8
-7 4 -1 348.87 31.1
-4 -3 -1 351.76 22
-3 7 -1 328.67 24.3
3 -7 -1 365.36 25.8
-4 -3 -1 325.97 25.4
-3 -4 1 378.46 25.5
-7 4 -1 325.57 21.1
-4 -3 1 422.76 27.9
-4 7 -1 404.76 29.9
-4 -3 1 408.66 26.1
4 -7 -1 414.76 28.5
-7 4 1 448.16 30.9
-7 3 -1 392.76 32.3
-3 -4 -1 426.36 29.1
7 -4 1 424.46 27.8
-3 -4 -1 401.06 24.8
3 -7 1 416.96 26.8
-7 3 -1 375.56 24.3
-7 4 1 423.66 26
4 -7 -1 422.06 28.5
7 -3 -1 424.86 29.6
-4 -3 1 433.46 27.9
-3 7 1 384.26 25.1
-3 -4 -1 392.56 27.7
3 -7 1 410.76 27.7
-7 5 -1 236.88 17.1
-5 -2 -1 280.27 25.3
-7 5 -1 274.17 28.8
2 -7 -1 266.07 23.8
5 -7 1 287.87 23.7
-5 -2 -1 270.97 19
-5 -2 -1 251.07 21.5
-7 2 1 295.87 22.2
-2 -5 1 283.67 22.8
7 -5 -1 291.97 24.9
-5 7 1 289.97 22.6
5 -7 1 263.57 20.6
-7 2 1 266.47 26.6
-2 -5 1 247.58 18.9
2 -7 -1 283.77 22.5
-2 -5 1 287.97 22
-2 7 1 255.87 19.4
-5 7 -1 280.17 28.4
5 -7 -1 275.07 24.2
-7 5 1 245.88 19.3
2 -7 1 268.27 21.3
-7 2 -1 265.27 26.3
7 -5 1 267.17 22.3
-2 -5 -1 238.68 22.4
-7 2 -1 238.18 19.5
-5 -2 1 272.47 22.2
-5 -2 1 236.68 20
5 -7 -1 263.07 23
-2 -5 -1 239.98 19.1
-2 -5 -1 258.87 22.4
-7 5 1 248.28 24.3
-5 -2 1 271.27 23.3
2 -7 1 268.57 22.5
-1 -6 1 70.99 14.2
7 -6 -1 81.29 16.8
-6 -1 -1 45.1 16.2
-7 1 1 64.99 13.9
6 -7 1 68.39 15.6
-6 7 1 70.89 15.8
-1 -6 1 41.7 5.8
-6 -1 -1 75.79 11.5
-7 6 -1 50.29 19.9
6 -7 1 36.4 5.8
-7 6 -1 43.1 8.8
1 -7 -1 57.39 14.9
1 -7 -1 53.49 12.9
-6 -1 -1 56.99 13.9
-7 1 1 82.19 20
-1 -6 1 70.59 15.9
-6 7 -1 73.19 22
6 -7 -1 60.29 15
-7 6 1 80.49 13.1
-1 -6 -1 67.59 12.7
-1 -6 -1 73.59 16.3
1 -7 1 70.39 15.2
-6 -1 1 70.19 17.5
-6 -1 1 75.19 15.2
7 -6 1 61.99 14.5
1 -7 1 78.09 14.9
-7 6 1 71.49 16.3
-7 1 -1 74.39 13.5
-6 -1 1 82.69 14.4
-7 1 -1 73.69 18.6
-1 7 1 79.59 13.6
-7 0 -1 155.08 18.8
0 -7 1 135.59 9.8
-7 0 1 157.08 20.2
0 -7 1 139.09 21.5
-7 0 -1 145.69 24.1
-7 7 1 158.98 17.9
0 -7 -1 130.09 9.4
0 -7 -1 167.78 22.5
7 -7 -1 148.99 21.8
-7 0 1 143.99 24
7 -7 1 125.89 9
0 -7 -1 154.88 17.9
-7 0 1 155.68 18.1
-7 7 -1 146.09 26.9
-7 0 -1 151.68 15.5
-7 7 1 155.88 21.5
7 -7 1 160.88 21.4
0 7 1 160.48 18.4
0 -7 1 169.18 19.8
-7 7 -1 137.19 13.7
-4 -4 -1 149.49 22.1
-4 -4 1 150.78 19.8
4 -8 -1 153.08 21.6
-8 4 1 144.19 17.9
-4 -4 -1 148.39 20.8
4 -8 -1 141.19 20.9
-4 -4 -1 143.89 16.4
4 -8 1 144.59 19.7
-8 4 -1 144.99 25
-8 4 1 138.99 23.1
-4 -4 1 138.89 19.6
8 -4 -1 134.59 19.9
8 -4 1 108.39 9
-4 8 1 131.29 16.4
-4 8 -1 73.39 19.5
4 -8 1 155.28 19.5
8 -4 1 137.39 20.8
4 -8 -1 115.19 8.2
-4 -4 1 157.08 19
8 -4 -1 117.69 9.2
-8 4 -1 122.99 15
3 -8 -1 51.89 14.8
-5 8 1 63.49 15
-5 -3 -1 50.89 17.1
5 -8 1 46.8 6.4
-8 3 1 50.89 20.7
-3 -5 1 70.79 14.7
3 -8 -1 33.5 15.6
-3 -5 1 55.59 14.9
8 -3 1 58.09 15.2
8 -5 -1 41.7 6.4
-3 -5 1 77.79 16.4
8 -5 -1 61.59 17.5
-8 5 -1 64.99 22.7
-5 -3 -1 61.69 11.9
-8 3 1 63.39 14.6
-8 5 -1 49.6 10.8
-5 -3 -1 62.89 15.9
8 -3 1 39.4 7.1
5 -8 1 64.29 15.9
5 -8 1 53.59 14.4
5 -8 -1 61.69 7.2
-3 -5 -1 68.39 12.3
-3 -5 -1 58.29 6.5
-3 -5 -1 71.09 16.9
-5 -3 1 71.49 17
-8 3 -1 77.09 22.1
3 -8 1 66.29 15.5
3 -8 1 88.99 16
-3 -5 -1 75.79 17.1
8 -5 1 73.49 16.7
-8 5 1 78.79 20.1
-5 -3 1 93.79 17.2
8 -3 -1 53.09 6.7
-8 5 1 89.89 14.6
-8 3 -1 60.59 12.3
-5 -3 1 79.99 14
5 -8 -1 65.59 15.3
5 -8 -1 84.29 18.3
-5 8 -1 73.39 21.7
-3 8 1 74.09 13.1
-8 2 1 103.09 17.4
-8 6 -1 90.79 25.1
6 -8 1 109.49 18.5
-6 -2 -1 110.49 21.9
8 -6 -1 90.59 18.8
-6 -2 -1 83.29 16.4
-6 8 1 73.99 16.7
-2 -6 1 84.59 17.2
-8 6 -1 60.49 11
-2 -6 1 83.09 7.8
-8 2 1 78.09 21.9
2 -8 -1 92.79 16.5
-2 -6 1 91.69 16.4
6 -8 1 76.99 7.9
8 -6 -1 67.89 7
2 -8 -1 75.09 17.3
-6 -2 -1 83.59 13.2
8 -2 1 85.69 8.7
2 -8 1 92.09 8.1
6 -8 -1 134.99 20.8
2 -8 1 117.99 18.9
-2 -6 -1 106.89 16.5
-6 -2 1 115.59 18.1
-6 -2 1 110.39 19.9
-8 6 1 92.59 19.6
8 -6 1 113.09 19.2
-2 -6 -1 114.69 19.3
-2 8 1 91.09 15.6
-2 -6 -1 92.59 7.9
8 -2 -1 88.89 8.7
2 -8 1 100.09 16.4
-8 6 1 116.39 17.2
-8 2 -1 92.09 20
-6 -2 1 113.39 18.2
-6 8 -1 128.89 25.5
6 -8 -1 94.49 8.7
-8 2 -1 112.39 16.1
7 -8 1 41.6 15.6
-1 -7 1 50.19 14.9
-7 8 1 35 16
-1 -7 1 46.9 7.5
1 -8 -1 33.1 13.9
7 -8 1 46.5 7.3
-7 -1 -1 58.29 21.3
-8 1 1 46.1 21
-8 7 -1 11.9 10
-8 7 -1 36.5 22.7
8 -7 -1 52.29 18.2
-7 -1 -1 36.9 12.1
8 -1 1 49.99 7.2
1 -8 -1 37.6 5.9
1 -8 -1 42.9 17.8
-7 -1 -1 37.4 15.8
-1 -7 1 48.9 17.1
-8 1 1 33.6 15.5
1 -8 1 51.39 7.6
-8 7 1 53.79 19.5
1 -8 1 48 15.8
7 -8 -1 49.3 7.9
8 -7 1 47.3 7.1
1 -8 1 59.99 17
-7 -1 1 57.09 16.6
8 -1 -1 46.1 7
-1 -7 -1 52.19 6.8
-8 7 1 55.29 13.7
-7 -1 1 53.39 19.4
7 -8 -1 59.69 17.7
-8 1 -1 44.8 18.8
8 -7 1 56.69 17.6
-7 8 -1 25.4 10.5
-1 -7 -1 56.79 14.2
-1 -7 -1 59.19 18.2
-8 1 -1 51.79 15
-7 -1 1 67.29 15.4
-7 8 -1 63.89 24
-1 8 1 37.1 13.1
-8 0 1 32.1 20.7
-8 8 1 50.59 14.2
8 -8 -1 51.79 7.5
-8 0 1 60.89 17.6
8 0 1 69.29 8.9
0 -8 1 53.59 18.1
-8 0 1 59.99 15.9
8 0 -1 39.4 6.9
8 -8 1 62.39 8.1
-8 0 -1 45.4 16.7
0 -8 -1 60.59 7.4
-8 0 -1 61.69 23
8 -8 -1 46.6 19.1
8 -8 1 49.4 17.5
-8 8 -1 45.6 25.2
0 -8 -1 49.9 15.3
0 -8 -1 42.4 19.8
0 -8 1 57.39 8.3
0 -8 1 39 15.7
-8 0 -1 58.69 13.7
-8 8 1 40.2 19.6
9 -4 1 151.98 24.2
4 -9 -1 145.19 21.5
-4 -5 1 152.28 22.8
9 -5 -1 162.88 25.2
-9 5 -1 94.89 15.1
9 -4 1 148.39 10.1
4 -9 -1 139.59 22.3
-5 -4 -1 148.09 23.8
-4 -5 1 119.49 9.1
-5 -4 -1 134.19 18.4
-9 5 -1 141.89 27.4
-5 -4 -1 117.69 21.9
-9 4 1 150.28 22
9 -5 -1 136.59 10.3
-5 9 1 124.69 21
-5 -4 -1 131.79 9.4
5 -9 1 144.69 22.3
5 -9 1 143.89 9.4
-9 4 1 180.88 29.5
4 -9 -1 144.09 9.8
-4 -5 1 143.19 20.6
5 -9 1 153.08 23.5
-4 -5 1 102.19 19.7
-5 -4 1 213.88 23.4
4 -9 1 174.28 11
-4 -5 -1 193.58 25.4
5 -9 -1 190.38 11.9
-9 5 1 216.78 32.1
4 -9 1 198.18 23.7
-9 4 -1 204.38 31.4
-9 4 -1 180.28 19.3
-4 -5 -1 191.88 11.4
-4 9 1 137.69 19.8
-5 -4 1 206.58 25.5
5 -9 -1 200.18 27.4
5 -9 -1 187.48 24.8
9 -5 1 180.28 12
-5 -4 1 208.78 25
-4 -5 -1 184.98 26.2
9 -4 -1 183.08 11.8
-4 -5 -1 187.98 19.7
9 -4 -1 206.28 28.4
4 -9 1 217.48 25.8
9 -5 1 195.48 26.9
-9 5 1 196.68 22.1
-3 -6 1 139.19 9.8
-6 -3 -1 121.49 18.6
-9 6 -1 96.29 26.4
-9 3 1 148.69 23
-3 -6 1 138.19 21.8
6 -9 1 148.29 21.9
-6 -3 -1 117.89 20.2
9 -6 -1 125.39 22.9
3 -9 -1 118.69 9
-3 -6 1 155.58 23.4
-6 -3 -1 130.39 24.1
-9 3 1 110.49 25.7
6 -9 1 135.59 10.2
9 -3 1 140.29 10.8
9 -6 -1 122.99 9.9
3 -9 -1 146.39 21.6
3 -9 -1 142.39 23.2
-6 9 1 127.39 22.3
-6 -3 1 91.59 20.9
-9 6 1 110.49 17.3
3 -9 1 82.89 8.4
-3 -6 -1 78.19 19.3
-3 -6 -1 118.79 22
-9 3 -1 89.29 25.6
9 -3 -1 80.39 9.1
-9 3 -1 80.19 15.5
-3 -6 -1 80.29 14.7
3 -9 1 114.19 19.7
-6 -3 1 87.69 18.2
-9 6 1 85.09 22.5
3 -9 1 86.29 19.7
-3 -6 -1 85.09 8.1
6 -9 -1 67.99 18
6 -9 -1 89.99 8.1
9 -6 1 84.19 8
9 -6 1 82.99 20.7
-6 -3 1 97.69 17
-7 -2 -1 282.77 24.6
-2 -7 1 326.77 30.3
-9 7 -1 354.96 39.9
-9 2 1 348.67 29
-2 -7 1 339.77 17.6
7 -9 1 318.27 29.5
-7 9 1 282.47 28.3
2 -9 -1 319.67 17.4
2 -9 -1 326.37 31.9
9 -2 1 331.57 18.2
7 -9 1 341.67 17.6
-7 -2 -1 324.17 30.3
-9 2 1 312.57 35.7
9 -7 -1 309.97 17.4
2 -9 -1 333.57 30.4
9 -7 -1 340.37 32.8
-7 -2 -1 336.67 34.2
-2 -7 1 352.06 28
7 -9 -1 314.67 31.2
-2 -7 -1 320.17 16.8
-9 2 -1 325.47 36.5
2 -9 1 306.77 17.2
-9 7 1 299.07 33.3
7 -9 -1 328.17 17.3
-7 -2 1 327.07 29.5
9 -2 -1 314.27 17.7
-2 -7 -1 330.07 31.9
-2 -7 -1 297.57 25.5
-7 -2 1 347.37 28.1
-9 2 -1 302.87 26.2
-9 7 1 318.77 25.5
9 -7 1 333.97 32.5
2 -9 1 327.07 29.9
2 -9 1 311.47 30.7
-7 -2 1 318.07 33.4
9 -7 1 287.77 16.6
-8 9 1 91.49 21.6
8 -9 1 116.89 22.8
1 -9 -1 114.29 19.6
1 -9 -1 119.89 25
9 -8 -1 117.29 10.4
-8 -1 -1 113.29 21.8
8 -9 1 123.39 10.2
-8 -1 -1 105.39 26.3
-9 1 1 125.79 19.6
-9 8 -1 91.29 29.6
1 -9 -1 118.89 9.7
9 -8 -1 106.99 9.2
9 -1 1 111.59 10
-9 1 1 127.49 21.6
9 -8 -1 124.29 26.4
-1 -8 1 112.89 10
-1 -8 1 99.29 21.9
-9 1 1 113.99 27.1
-1 -8 1 105.59 20.2
-8 9 1 93.09 16.9
-8 -1 1 92.89 18.5
9 -1 -1 102.29 10.3
-9 8 1 70.39 16.7
-1 -8 -1 95.09 8.9
-8 9 -1 59.69 27.8
-9 8 1 78.49 23.1
8 -9 -1 91.09 8.8
1 -9 1 95.79 19.9
9 -8 1 97.89 22.4
-9 1 -1 76.89 18.2
-9 1 -1 59.39 14.8
9 -8 1 100.99 8.8
-8 -1 1 95.79 20.9
-8 -1 1 92.79 25.2
-1 -8 -1 69.79 20.4
8 -9 -1 79.39 21.3
1 -9 1 100.29 9.7
1 -9 1 76.49 21.2
-9 1 -1 83.39 24.4
-1 -8 -1 87.29 17.4
8 1 1 106.69 10.2
0 -9 1 -1.5 18.2
-9 0 1 -0.1 18.1
0 -9 1 -2.2 21.6
0 -9 -1 -1.2 16.8
-9 0 -1 -1.3 25.2
-9 9 -1 -2.1 27.9
9 -9 1 -4.9 19.8
9 0 1 6.4 6.7
-9 9 1 7.3 21.9
9 -9 -1 2.1 6.5
-9 9 1 1.5 17.9
9 -9 -1 -1.2 4.6
-9 0 1 -1.9 17.3
9 -9 1 13.4 6.4
-9 0 -1 6.8 18.4
-9 0 1 7.8 23.6
9 -9 -1 -6.8 21.5
-9 0 -1 3.8 20
0 -9 1 5 6.1
9 0 -1 0.5 5.9
0 -9 -1 5.6 5.3
0 -9 -1 -1.2 22.3
-10 5 -1 759.22 55.69
-5 -5 -1 770.82 35.4
-5 -5 -1 641.04 48.6
-5 -5 1 750.52 35
5 -10 -1 748.33 48.4
-5 -5 1 801.32 49.3
5 -10 1 863.61 50.49
5 -10 -1 774.72 49.9
10 -5 -1 770.42 36
5 -10 1 784.72 35.5
5 -10 -1 795.02 35.7
10 -5 1 727.13 48.6
-5 -5 -1 726.73 48
10 -5 1 763.22 36.1
-10 5 1 754.42 45.7
10 -5 -1 789.82 52.89
-5 -5 1 789.72 45.7
-10 4 1 44 25.7
-6 -4 -1 70.69 25.1
-4 -6 1 70.89 7.8
10 -6 -1 52.59 8.3
10 -6 -1 62.59 23.6
6 -10 1 4.6 20
-4 -6 1 51.09 20.9
4 -10 -1 72.69 21.1
6 -10 1 55.89 19.9
6 -10 1 63.19 7.5
4 -10 -1 54.39 7.7
-4 -6 1 69.89 18.8
-6 -4 -1 57.59 20.6
-6 -4 -1 46.2 7.9
-10 4 1 58.89 18.3
-10 6 -1 48.5 27.8
10 -4 1 66.29 8.1
4 -10 -1 47.5 21.2
4 -10 1 30.1 19.9
6 -10 -1 50.29 18.5
10 -6 1 60.59 22.4
-4 -6 -1 1.8 22.1
-6 -4 1 73.19 18.1
-10 4 -1 70.09 28.2
-4 -6 -1 54.09 7.6
-6 -4 1 6.4 22.4
4 -10 1 58.99 7.5
6 -10 -1 66.09 8.4
6 -10 -1 52.19 22
-4 -6 -1 19.9 15.7
10 -6 1 60.89 8.3
-10 6 1 40.1 15.9
4 -10 1 64.59 8.2
-6 -4 1 95.29 23
-4 -6 -1 59.89 20.7
10 -4 -1 63.79 8.9
4 -10 1 72.59 21.4
-10 6 1 79.99 28.1
10 -7 -1 492.95 24.2
7 -10 1 507.45 39.3
-7 -3 -1 406.16 22.7
-10 7 -1 511.25 48.2
-10 3 1 459.25 44.5
-10 3 1 438.86 35.7
-7 -3 -1 445.76 38.4
-3 -7 1 485.15 39.9
-3 -7 1 475.45 35.1
-3 -7 1 506.95 23.7
3 -10 -1 451.95 39.5
-7 -3 -1 456.15 40.2
3 -10 -1 444.46 37.8
10 -3 1 507.75 24.7
3 -10 -1 484.25 23.6
7 -10 1 507.65 23.9
3 -10 -1 479.95 23.7
10 -7 -1 487.65 42.1
-3 -7 -1 520.95 24.7
-3 -7 -1 506.75 40.8
3 -10 1 512.75 39.1
10 -7 1 481.45 41.5
7 -10 -1 495.45 39.5
10 -3 -1 497.45 25.3
-7 -3 1 507.95 38.2
3 -10 1 416.56 38.1
-10 3 -1 540.65 46.9
10 -7 1 482.55 24.5
-7 -3 1 489.05 35.4
7 -10 -1 530.65 24.8
3 -10 1 510.55 25.2
-10 7 1 559.14 47.2
10 -7 1 484.35 24.8
2 -10 -1 283.27 34.5
8 -10 1 324.57 17.3
10 -8 -1 280.77 35.4
-2 -8 1 279.07 29.2
-10 2 1 347.07 39.8
-8 -2 -1 299.77 37.8
10 -8 -1 312.77 17.4
-10 2 1 249.48 30.7
10 -2 1 320.37 18.2
-2 -8 1 309.87 33.7
2 -10 -1 253.37 31.7
-2 -8 1 319.97 17.3
10 -8 -1 320.57 17.6
8 -10 1 307.47 33.3
2 -10 -1 323.37 17.1
-10 8 -1 293.87 41.9
-8 -2 -1 263.47 31.4
-8 -2 1 239.28 36.2
-10 2 -1 330.27 40.8
8 -10 -1 304.07 34.6
-2 -8 -1 325.87 35
10 -8 1 300.97 36.8
2 -10 1 310.57 32.9
-8 -2 1 294.07 31.8
2 -10 1 329.17 17.8
10 -2 -1 333.37 18.6
8 2 1 336.47 18.2
10 -8 1 310.77 17.3
-10 8 1 272.97 38.4
2 -10 1 241.18 33.1
8 -10 -1 334.97 17.8
-2 -8 -1 325.37 17.2
-8 -2 1 240.88 29.6
10 -8 1 299.47 16.8
-10 9 -1 3.5 34.5
1 -10 -1 62.69 8.4
9 1 -1 53.09 9.7
-1 -9 1 46.4 19.8
10 -1 1 57.29 9.8
1 -10 -1 55.59 25.5
-9 10 1 -3.8 23.9
-1 -9 1 59.19 8.7
1 -10 -1 9.2 20.2
9 -10 1 62.09 9.1
10 -9 -1 48.4 25.7
-10 1 1 5.3 18.3
-1 -9 1 39.9 23
-9 -1 -1 31.2 27.5
10 -9 -1 57.89 9.3
-10 1 1 57.19 28.5
10 -9 -1 54.89 8.5
9 -10 1 37.4 21.8
-10 1 1 34.5 20.3
-9 -1 -1 15.1 20.2
9 -10 -1 45.4 24.3
-1 -9 -1 2.9 18.4
1 -10 1 53.09 20.9
-9 -1 1 1.1 20.1
10 -9 1 26.9 24.4
-10 9 1 11.7 27.1
-1 -9 -1 75.59 26.5
-9 -1 1 20.3 27.1
-10 1 -1 1.3 19.9
-10 1 -1 30.4 28.1
1 -10 1 26.4 25.2
-9 -1 1 49.8 21.7
-10 0 -1 128.89 34.6
10 -10 1 168.18 30
0 -10 -1 187.78 33.2
6 -11 1 134.39 10.6
5 -11 -1 127.99 10.3
6 -11 1 99.99 9.2
11 -5 1 132.09 11.1
6 -11 1 125.89 26.9
5 -11 -1 85.69 22.8
-11 6 -1 147.99 35.8
-11 5 1 80.89 29.6
-5 -6 1 135.29 9.9
11 -6 -1 122.19 10.2
-5 -6 1 136.89 28.5
11 -6 -1 102.99 27.2
-6 -5 -1 88.29 23.5
-6 -5 -1 126.69 10.7
-11 6 1 105.29 33.5
6 -11 -1 105.69 9.8
11 -5 -1 102.49 10.5
5 -11 1 107.29 10.4
11 -6 1 104.89 10.2
6 -11 -1 62.59 21.4
-5 -6 -1 112.79 10
-6 -5 1 115.09 26.4
-5 -6 -1 97.19 25.8
-11 5 -1 113.39 34.2
5 -11 1 109.89 9.5
-6 -5 1 98.99 9.1
5 -11 1 86.09 23.4
7 -11 1 172.38 29.4
7 -11 1 186.38 12.4
-7 -4 -1 182.08 12.2
-4 -7 1 183.48 11.8
4 -11 -1 175.68 12.1
11 -7 -1 172.78 12.7
-4 -7 1 134.39 27.2
11 -7 -1 182.58 32.2
4 -11 -1 182.98 12
4 -11 -1 101.89 25.3
11 -4 1 170.58 12.3
-11 7 -1 99.79 33.6
-7 -4 -1 146.09 28.4
-11 4 1 122.49 30.9
11 -4 -1 149.29 11.4
-4 -7 -1 130.59 28.6
4 -11 1 157.18 12
7 -11 -1 151.18 11.4
11 -7 1 143.59 11.4
-11 4 -1 100.39 32.1
11 -7 1 113.89 10.6
7 -11 -1 113.49 24.6
4 -11 1 154.68 27.3
4 -11 1 143.79 10.4
11 -7 1 54.89 27.7
-11 7 1 118.49 33.6
-7 -4 1 102.39 25.1
-4 -7 -1 146.49 10.8
11 -3 1 142.29 11.9
8 -11 1 147.29 11.1
11 -8 -1 109.59 29.1
-11 3 1 108.89 33.3
-8 -3 -1 122.29 9.6
11 -8 -1 127.39 11
8 -11 1 92.29 24.3
3 -11 -1 123.49 10.3
-3 -8 1 88.49 25.7
-3 -8 1 135.99 11
-8 -3 -1 50.69 25.1
11 -8 -1 120.79 11
3 -11 -1 138.99 11.1
3 -11 1 161.58 12.3
8 -11 -1 115.39 27.6
11 -8 1 148.69 11.9
-11 8 1 53.49 32.4
11 -3 -1 154.08 12.5
-8 -3 1 98.99 24.6
-3 -8 -1 135.79 11.2
8 3 1 133.69 11.7
3 -11 1 101.49 24.2
-3 -8 -1 106.79 28.2
-11 3 -1 82.29 31.8
8 -11 -1 152.78 10.9
11 -8 1 145.89 11.3
9 -11 1 388.56 40.3
9 2 -1 350.96 20.2
11 -9 -1 377.36 45.1
-11 2 -1 355.46 46.8
-2 -9 -1 363.96 41.8
9 -11 -1 423.86 43.2
11 -1 1 415.56 22.8
11 -10 -1 407.96 22.2
10 1 -1 414.96 23.2
1 -11 -1 412.26 21.7
-1 -10 1 397.56 21.7
11 -10 -1 411.06 22
10 -11 1 399.56 21.8
-1 -10 -1 396.56 21.3
11 -10 1 398.56 21.6
10 -11 -1 403.46 21.8
10 1 1 402.96 22.5
11 -1 -1 419.96 23
1 -11 1 390.06 21.7
0 -11 1 114.09 11.2
0 -11 -1 122.59 10.9
11 0 1 119.39 12.3
11 -11 -1 102.59 11
11 -11 1 118.49 10.4
11 -11 -1 113.69 11.5
11 0 -1 125.89 13
-6 -6 -1 0.9 27.4
6 -12 1 4.1 26.7
-12 6 -1 -4.4 35.8
-6 -6 1 16 27.2
-12 6 1 6.5 35
-5 -7 1 1.2 29
-12 7 -1 -3.7 49
7 -12 1 6 27.1
-7 -5 -1 3.8 27
-12 5 1 2.5 35.1
7 -12 1 56.49 7.7
-7 -5 1 5.9 27.9
-12 5 -1 -4 36.2
5 -12 1 1.3 25.8
-5 -7 -1 0 26.2
7 -12 -1 4.9 26.6
-12 7 1 -1.8 36.5
4 -12 -1 113.69 10.8
12 -8 -1 108.59 11.3
8 -12 1 125.99 11.1
12 -4 1 109.59 11.5
-8 -4 -1 119.79 10.7
4 -12 -1 105.69 10.6
-4 -8 1 128.89 10.5
-12 4 1 -0.5 41.8
-8 -4 1 5.8 39.5
-8 -4 1 -5.5 6.3
8 4 1 -1.3 6
-12 4 -1 -4.7 39.4
-4 -8 -1 1.9 31.4
8 -12 -1 2.7 33.1
12 -3 1 200.88 14.7
3 -12 -1 194.28 13.3
3 -12 -1 192.58 13.2
9 -12 1 203.98 14
-3 -9 1 194.68 13.3
12 -9 -1 200.98 14.3
12 -9 -1 194.38 13.9
12 -9 1 158.08 12.6
12 -9 1 161.68 13.1
12 -3 -1 161.38 13.8
9 -12 -1 157.38 12.8
9 3 1 158.88 13.2
3 -12 1 171.98 13.5
-3 -9 -1 158.48 12.3
12 -10 -1 120.19 11.9
12 -10 -1 118.99 11.7
10 -12 1 119.99 10.7
-2 -10 1 126.09 11.1
10 2 -1 91.29 12.6
2 -12 -1 129.39 11.5
12 -2 1 124.69 12.4
12 -2 -1 144.69 13.5
2 -12 1 146.09 12.8
12 -10 1 144.39 12.2
-2 -10 -1 130.19 11.8
10 -12 -1 138.79 12.1
12 -10 1 130.79 11.9
10 2 1 155.78 13.5
11 1 -1 218.78 16.5
12 -11 -1 196.78 15.1
-1 -11 1 207.98 14.5
11 -12 1 201.08 14.5
12 -11 -1 215.48 15
12 -1 1 214.68 16
1 -12 -1 206.58 14.4
-1 -11 -1 152.78 12.7
12 -11 1 155.68 12.9
11 -12 -1 156.08 13.2
12 -1 -1 172.98 14.9
11 1 1 170.48 14.2
1 -12 1 152.38 13.2
12 -12 -1 352.36 23
12 0 -1 465.85 25.3
0 -12 1 435.96 23.2
12 0 1 459.85 24.6
12 -12 1 413.16 23.2
0 -12 -1 429.76 23.3
12 -12 -1 424.06 23.3
13 -6 1 5.6 6.8
-6 -7 1 8.9 6.7
7 -13 1 17.3 7
-7 -6 -1 12.3 6.9
13 -7 -1 9.6 7.4
6 -13 -1 9.8 6.9
6 -13 -1 -2.5 5.4
7 -13 1 12.8 6.4
7 -13 -1 11 6.7
-7 -6 1 14.4 6.8
6 -13 1 10.5 6.5
13 -6 -1 18 6.9
6 -13 1 16.4 7.2
13 -7 1 15.3 7.5
-6 -7 -1 15.7 6.9
13 -5 1 260.07 17
-8 -5 -1 272.07 16.4
5 -13 -1 260.27 16.3
8 -13 1 261.67 16.2
13 -8 -1 251.97 17
-5 -8 1 255.07 16.2
5 -13 -1 237.58 15.7
13 -8 1 220.08 15.5
-5 -8 -1 219.88 14.7
13 -5 -1 219.68 15.8
8 -13 -1 219.18 14.7
5 -13 1 219.78 15
5 -13 1 202.98 14.5
-9 -4 -1 59.09 9.7
4 -13 -1 67.09 9.4
13 -4 1 79.69 10.8
4 -13 -1 58.29 8.5
13 -9 -1 58.89 10.6
9 -13 1 65.09 9.9
-4 -9 1 76.09 9.5
13 -9 1 51.09 9.1
13 -9 1 44.5 8.4
4 -13 1 48.5 8.6
9 -13 -1 67.39 9.1
-4 -9 -1 48.9 8.3
13 -4 -1 64.99 10.1
4 -13 1 34.1 7.2
13 -10 -1 121.29 12.6
3 -13 -1 120.59 11.3
10 -13 1 115.09 11.9
13 -3 1 122.89 12.9
13 -10 -1 126.49 12.7
-3 -10 1 123.29 11.5
3 -13 -1 117.99 11
13 -3 -1 125.79 13.4
10 3 1 108.99 12.8
-3 -10 -1 111.59 11.8
3 -13 1 121.19 11.9
13 -10 1 110.39 11.5
10 -13 -1 120.99 11.7
13 -10 1 98.79 11.9
11 2 -1 249.78 18.6
13 -11 -1 267.17 18.2
13 -2 1 278.57 18.6
-2 -11 1 284.87 17.3
11 -13 1 266.97 17.3
13 -11 -1 289.67 17.9
2 -13 -1 291.17 17.2
13 -11 1 219.68 15.1
2 -13 1 220.68 15.2
-2 -11 -1 199.88 14.9
13 -2 -1 215.38 16.5
11 2 1 221.18 16.2
11 -13 -1 213.78 15
13 -11 1 200.88 15
13 -1 1 90.99 12.5
1 -13 -1 79.29 11.5
12 1 -1 82.69 13.1
12 -13 1 72.39 11.1
13 -12 -1 85.89 11.6
-1 -12 1 87.09 11.4
13 -12 -1 86.69 11.8
1 -13 1 86.49 11.4
12 1 1 92.29 12.5
13 -1 -1 105.09 14.1
13 -12 1 86.29 11.4
-1 -12 -1 86.19 11.2
12 -13 -1 88.39 11.3
13 0 -1 19.3 9.7
13 0 1 17.7 8.9
13 -13 -1 26.4 8.7
0 -13 1 20.9 7.9
0 -13 -1 26.2 8.4
13 -13 1 29.4 8.7
-7 -7 1 37.2 8.2
7 -14 1 50.09 8.7
14 -7 1 35.1 8.5
7 -14 1 37.1 8.1
14 -7 -1 35.7 8.7
-7 -7 -1 43.2 8.4
7 -14 -1 33.4 7.7
-8 -6 -1 265.37 17.1
-6 -8 1 248.88 16.5
14 -8 -1 260.37 17.9
8 -14 1 264.67 16.7
6 -14 -1 260.37 16.8
14 -6 1 255.97 17
-8 -6 1 205.48 15
14 -8 1 210.88 16.2
14 -6 -1 226.98 16.5
8 -14 -1 223.98 15.4
6 -14 1 219.28 15.3
-6 -8 -1 228.48 15.9
6 -14 1 208.48 15.2
9 -14 1 59.89 9.3
-5 -9 1 50.29 8.9
5 -14 -1 61.29 9.9
5 -14 -1 47.8 8.6
14 -5 1 64.69 10.3
14 -9 -1 57.69 10.2
-9 -5 -1 55.09 9
9 -14 -1 72.89 9.8
-5 -9 -1 78.99 10.4
14 -9 1 50.69 9.5
14 -5 -1 80.29 11.5
5 -14 1 60.89 9.1
5 -14 1 73.59 10.3
4 -14 -1 645.44 32.5
14 -10 -1 671.83 34.2
4 -14 -1 628.44 32.4
14 -4 1 654.03 33.5
10 -14 1 644.74 32.8
-4 -10 1 700.53 33.2
4 -14 1 544.85 28.5
14 -4 -1 584.24 30.2
14 -10 1 507.55 28.3
-4 -10 -1 562.24 28.8
14 -10 1 560.64 29.4
10 -14 -1 556.14 28.5
14 -11 -1 103.59 13.1
-3 -11 1 117.79 12.2
14 -3 1 112.69 13.3
14 -11 -1 102.09 12.8
3 -14 -1 110.79 12.2
11 -14 1 104.19 12
14 -11 1 118.59 12.4
14 -11 1 109.59 13.5
11 3 1 108.69 13.3
-3 -11 -1 111.19 12.8
14 -3 -1 120.89 14.1
11 -14 -1 113.39 12.3
3 -14 1 120.49 12.7
12 -14 1 52.89 9.1
12 2 -1 35.5 10
2 -14 -1 55.69 9.4
-2 -12 1 67.89 10.2
14 -2 1 59.29 10.3
14 -12 -1 44.8 9.3
14 -12 -1 51.79 10.2
14 -2 -1 86.69 13.5
-2 -12 -1 78.39 11.5
12 -14 -1 76.69 11.6
14 -12 1 85.69 11.8
12 2 1 84.59 12.5
2 -14 1 82.49 12
13 -14 1 71.79 10.6
14 -1 1 56.39 10.4
1 -14 -1 79.49 11.5
-1 -13 1 59.19 9.5
14 -13 -1 85.19 11.2
13 1 -1 69.79 11.8
14 -13 -1 41.5 9.2
14 -1 -1 65.09 12.1
13 1 1 50.39 10.5
-1 -13 -1 67.89 10.3
1 -14 1 55.69 9.4
14 -13 1 59.29 10.4
13 -14 -1 63.29 10.4
14 0 1 9 9.4
-14 0 1 -5.1 4.1
-14 14 1 -4.1 3.8
14 0 -1 15.9 9.7
14 -14 1 6 8.2
0 -14 1 10.7 8.1
14 -14 -1 11.6 8.4
0 -14 -1 6.5 7.9
8 -15 1 63.69 10
-7 -8 1 62.69 10.1
15 -7 1 66.29 10.8
7 -15 -1 71.69 10.3
15 -8 -1 79.29 11.7
-8 -7 -1 63.89 9.8
15 -7 -1 56.19 10.5
15 -8 1 45.7 9.8
7 -15 1 47.8 9.2
7 -15 1 38.8 8.8
-8 -7 1 31.9 8.7
8 -15 -1 50.89 9
-7 -8 -1 55.09 9.5
6 -15 -1 5.8 6.9
9 -15 1 18.9 8.4
6 -15 -1 6.9 7.8
15 -6 1 15.2 8.1
-9 -6 -1 13.9 8
-6 -9 1 8.8 8.2
15 -9 -1 13 8.4
-6 -9 -1 16.5 8.4
6 -15 1 17.4 8
9 -15 -1 19.7 8.4
6 -15 1 32.5 8.8
15 -9 1 17.5 8.6
15 -6 -1 22.4 9.5
15 -10 -1 71.99 13.3
-5 -10 1 77.29 12.3
-10 -5 -1 60.69 9.7
5 -15 -1 73.99 11
10 -15 1 79.89 10.6
15 -5 1 74.99 12.8
5 -15 -1 71.49 11.3
-5 -10 -1 64.99 9.8
15 -5 -1 63.59 11
15 -10 1 39.2 8.5
10 -15 -1 53.49 8.9
5 -15 1 41 8.8
15 -10 1 60.09 10.4
5 -15 1 70.59 10.3
15 -4 1 101.99 13.8
15 -11 -1 96.59 13.7
4 -15 -1 79.79 11
-4 -11 1 102.19 12.6
11 -15 1 97.29 12.6
4 -15 -1 88.19 12.2
15 -4 -1 137.69 15.1
4 -15 1 137.49 13
-4 -11 -1 130.79 13.9
11 -15 -1 120.69 13
15 -11 1 113.79 12.8
15 -11 1 118.59 14.7
-3 -12 1 103.29 13.4
12 -15 1 92.59 13.3
15 -12 -1 107.09 14.3
15 -3 1 101.29 13.8
3 -15 -1 101.49 12.9
15 -12 -1 81.69 12.3
12 3 1 48.1 10
15 -12 1 74.49 12.7
-2 -13 1 457.25 24.4
15 -13 -1 422.06 25.4
2 -15 -1 438.66 24.3
-13 15 1 344.57 20.1
15 -13 -1 392.46 23.8
15 -2 1 434.66 25.9
13 -15 1 421.06 24.5
-2 -13 -1 450.35 25
13 2 1 409.76 25.4
-15 2 -1 333.87 20.2
2 -15 1 448.76 24.1
15 -2 -1 450.05 26.8
13 -15 -1 447.66 24.6
-14 15 1 18.5 5.5
15 -1 1 20.6 10.2
-1 -14 1 9.7 6.6
14 -15 1 12.7 6.6
1 -15 -1 -0.6 5.3
15 -14 -1 25.3 9.5
-14 -1 -1 9 5
-1 -14 1 17.5 9
1 -15 -1 19.5 8.9
-15 1 1 10.3 5.6
1 14 1 -1.3 4.4
14 -15 1 29.3 9.7
14 1 -1 11.1 9.6
15 -14 1 29.8 9.6
14 1 1 39.6 10.8
-15 14 1 21.7 5.1
-1 -14 -1 32.1 7.2
-1 -14 -1 32.8 9.4
14 -15 -1 30.9 9.3
1 -15 1 43.5 9.7
15 -1 -1 47.6 11.5
-14 -1 1 32.9 6
1 -15 1 22.6 6.5
-15 1 -1 28.3 5.9
-15 15 1 283.47 15.6
-15 0 -1 257.27 15.3
15 0 -1 255.47 20.8
15 -15 1 283.47 19.4
0 -15 -1 261.17 16.6
0 -15 1 308.67 19.8
15 0 1 249.18 20.7
15 -15 1 225.08 16.4
-15 0 1 282.77 15.4
15 -15 -1 265.07 19.7
0 -15 -1 265.47 19.3
0 -15 1 245.08 16.5
16 -8 1 6.9 9
16 -8 -1 15.1 9.4
8 -16 1 14.6 8.4
8 8 1 -4.9 3.8
8 8 -1 -6.5 4
-8 16 -1 -3.6 3.9
-8 -8 -1 10 8.2
8 -16 -1 6.7 8.4
-8 -8 1 4.6 8.6
8 -16 1 -2.4 7
16 -9 -1 115.49 14.6
9 -16 1 102.99 13
-9 -7 -1 116.49 13.7
-7 -9 1 107.99 13.9
16 -7 1 117.09 14.4
7 -16 -1 97.79 13.6
9 -16 -1 106.59 13.1
7 -16 1 93.49 12.2
16 -9 1 101.69 14.2
-7 -9 -1 95.09 13.6
7 -16 1 102.69 13.3
16 -7 -1 107.49 14.5
6 -16 -1 40.6 8.5
-10 -6 -1 57.09 9.8
6 10 1 29.4 5.3
10 -16 1 60.19 9.8
6 -16 1 75.19 10.7
-6 -10 -1 74.39 12.3
6 -16 1 47.5 9.7
10 -16 -1 54.19 9.8
16 -6 -1 65.49 11.6
16 -10 1 52.29 10.8
16 -5 1 231.88 18.1
16 -11 -1 238.98 18.3
-5 -11 1 225.28 16.7
5 -16 -1 204.08 15.7
5 -16 -1 198.48 15.7
11 -16 1 238.88 16.8
5 11 1 156.98 12
-11 16 1 168.48 12
16 -5 -1 179.98 16.9
-5 -11 -1 173.98 15.5
-11 16 -1 130.69 10.5
16 -11 1 169.38 16.4
11 -16 -1 172.68 15.2
5 -16 1 176.38 15.1
4 12 1 461.65 25.1
-4 -12 1 584.84 29.6
12 -16 1 558.04 29.1
-12 16 1 513.35 25.5
12 -16 1 475.95 26.6
16 -4 1 594.24 30.8
16 -12 -1 537.15 30.8
4 -16 -1 529.45 28.5
16 -12 1 455.45 27.4
-4 -12 -1 466.25 25.8
-4 -12 -1 598.74 29.5
12 -16 -1 458.75 26.2
12 -16 -1 587.24 29
16 -12 1 519.75 29.6
16 -4 -1 575.24 30.7
-16 4 -1 518.05 25.1
4 -16 1 540.75 28.3
-12 16 -1 485.45 24.7
13 3 -1 -3.3 4.2
16 -13 -1 -1.7 8.6
3 -16 -1 -8.6 6.1
-16 3 1 5.5 5.4
-13 16 1 4.5 5.9
13 -16 1 10.5 7.4
3 13 1 3.5 5.2
-13 -3 -1 -5.3 4.3
3 -16 -1 11.8 8.6
13 -16 1 0.5 8.5
-3 -13 1 6.6 8.9
16 -13 -1 10.1 9.5
16 -3 1 3.7 9.3
-3 -13 1 -1.3 6.5
13 -16 -1 8.7 8.5
3 13 -1 -2.3 4.4
16 -3 -1 20.1 10.7
3 -16 1 10.5 8.7
-3 -13 -1 -3.4 6.9
-13 16 -1 6.8 5.4
13 3 1 -3.6 8.2
16 -13 1 12 8.9
3 -16 1 -4 5.2
13 -16 -1 7.8 7.2
-3 -13 -1 7 8.9
16 -13 1 -3.8 8.6
-16 13 1 5.1 4.2
-16 3 -1 9.7 5.9
-13 -3 1 8.2 5.1
2 -16 -1 148.79 15.5
-14 -2 -1 150.18 10.9
-14 16 1 161.88 11.6
-2 -14 1 156.38 15.4
-16 2 1 161.98 11.7
16 -14 -1 137.79 15.5
-2 -14 1 158.28 13.2
14 -16 1 166.68 15.7
16 -2 1 145.89 16.7
2 14 1 135.79 10.9
14 -16 1 158.08 14.1
2 -16 -1 119.79 11.2
-14 -2 1 107.89 10.3
-16 14 1 105.29 10
14 -16 -1 117.99 14.5
2 -16 1 106.99 10.8
-2 -14 -1 106.79 12.3
-16 2 -1 102.19 11
16 -14 1 100.59 13.9
-14 16 -1 87.59 10.4
2 -16 1 104.09 14.1
16 -2 -1 126.99 16.2
14 -16 -1 104.89 13.2
-2 -14 -1 121.99 14.3
-16 15 -1 139.99 11
15 -16 1 174.68 14.8
1 -16 -1 146.59 13.4
-15 -1 -1 164.28 12
1 15 1 147.69 11.8
-16 1 1 171.18 12.1
16 -1 1 145.49 17.7
-1 -15 1 166.08 16.4
16 -15 -1 156.58 16.5
15 -16 1 147.99 16.3
-15 16 1 172.78 12.3
1 -16 -1 152.48 16.1
-1 -15 1 168.18 13.7
16 -1 -1 180.48 18.2
-16 15 1 195.68 12.8
1 -16 1 186.68 14.1
-16 1 -1 197.08 13.3
15 1 1 136.79 15.9
-1 -15 -1 215.68 17.3
15 -16 -1 197.18 15.9
-1 -15 -1 187.08 14.6
1 -16 1 184.58 16.8
16 -15 1 174.18 16.6
-15 -1 1 198.28 12.9
-15 16 -1 169.28 12.8
16 -15 1 165.88 14.3
15 -16 -1 185.88 17.4
16 -16 1 58.59 11.3
16 0 1 61.19 12.1
-16 0 1 92.29 10.9
0 -16 -1 104.29 12.3
16 -16 -1 118.79 13.7
0 -16 -1 102.29 14.5
0 16 1 83.79 9.9
0 -16 1 96.89 14.1
-16 16 1 110.69 10.5
-16 16 -1 90.19 10.4
0 -16 1 107.49 12.1
16 -16 1 101.59 13.4
16 -16 -1 64.79 11.7
-16 0 -1 93.89 10.7
17 -9 -1 80.29 14.5
-9 17 1 54.29 6.3
8 -17 -1 63.59 10.7
9 -17 1 79.29 11.5
-8 -9 1 70.99 11.2
-8 17 -1 67.89 8.7
17 -8 1 80.89 14.7
-9 -8 -1 86.29 13.5
8 9 1 68.19 9.7
9 8 -1 72.09 9.9
8 -17 1 58.89 10.8
9 -17 -1 49.8 7.6
9 -17 -1 40.9 9.7
8 9 -1 56.89 7.3
17 -8 -1 50.69 11.3
-9 17 -1 63.39 7.1
9 8 1 64.69 7.2
17 -9 1 58.29 11.9
-8 -9 -1 58.29 10.4
17 -10 -1 48.7 11.3
-10 -7 -1 30.3 9.3
7 10 1 44.8 6.8
17 -7 1 39.5 10.6
10 7 -1 44.8 6.8
-10 17 1 42.9 6.2
-7 -10 1 48.8 10.4
-7 17 -1 41.7 6.2
10 -17 1 38.8 7.5
10 -17 1 50.59 10.5
7 -17 -1 43.2 10.3
10 7 1 24.5 5.8
7 -17 1 28.8 9.5
-10 17 -1 31 6
10 -17 -1 28.5 7.4
17 -10 1 31.4 11
10 -17 -1 31.5 9.6
-7 -10 -1 35.4 10.1
-17 7 -1 19.6 5.2
7 -17 1 20.2 8.4
7 10 -1 36.8 6.5
17 -7 -1 43.2 11.2
17 -6 1 24.8 10.7
-6 17 -1 17.5 5.2
-6 -11 1 15.6 9.5
11 -17 1 19.4 7.9
11 -17 1 18.8 9.7
17 -11 -1 15.2 10.1
-11 17 1 14.3 5.8
11 6 -1 19.3 6.2
6 -17 -1 11.3 8.7
6 11 1 19.2 6.4
-11 -6 1 4.2 4.3
6 11 -1 14.7 5.7
-6 -11 -1 24.3 9.6
6 -17 1 -5.7 7.1
-6 -11 -1 3.7 6.5
-17 6 -1 12 5.7
11 -17 -1 20.4 7.9
11 -17 -1 18.3 9
17 -11 1 8.8 10
-11 17 -1 15.2 5.9
-17 11 1 -0.9 6.5
6 -17 1 14.5 8.6
11 6 1 8.9 5.2
17 -6 -1 18.4 10.2
12 -17 1 19 8
-12 17 1 17.1 5.9
-5 -12 1 7.6 9.4
5 12 1 10.9 6.3
12 5 -1 4.6 5.8
5 -17 -1 3.5 7.9
-17 5 1 1.8 5.3
-5 17 -1 5.2 5.1
17 -5 1 13 9.8
-5 -12 1 0.4 6.7
-12 -5 -1 -5.3 4
12 -17 1 7.9 9.5
17 -12 -1 12.2 10.2
5 -17 1 -8.7 5
5 12 -1 0.1 5.5
12 -17 -1 0.9 8.7
17 -5 -1 8.8 10.6
12 -17 -1 1.2 7.5
-17 12 1 -1.5 3.8
-12 -5 1 7.9 5.1
-5 -12 -1 4.4 9.2
17 -12 1 2.5 9.4
12 5 1 -8 4.4
-5 -12 -1 0.8 6.9
-12 17 -1 5.5 5.6
5 -17 1 8.7 8.5
-17 5 -1 4.8 6.2
-13 17 1 9.9 6.1
4 -17 -1 -12.3 5.4
13 4 -1 2.3 5.9
4 -17 -1 2.9 8.7
-13 -4 -1 -2.4 4.9
13 -17 1 2 7.7
4 13 1 9.5 6.3
-4 17 -1 3.4 5
13 -17 1 12.5 9.3
-17 4 1 6.1 6.1
-4 -13 1 3.7 7.3
17 -13 -1 6.2 9.8
-4 -13 1 0.8 9.3
17 -4 1 6.8 10.4
17 -13 1 -8.3 8.4
17 -4 -1 12.7 10.4
17 -13 1 -2.5 8.9
4 -17 1 11.6 8.8
-13 -4 1 13.7 5.7
-4 -13 -1 10.7 9.8
4 -17 1 5.2 6
13 -17 -1 11.8 9.5
13 -17 -1 10.9 7.8
-4 -13 -1 11.9 7.4
-13 17 -1 11.9 5.8
-17 4 -1 9.5 6.3
-17 13 1 9.1 5
4 13 -1 6.3 5.6
17 -14 -1 2 13
14 3 -1 8.7 6
-14 17 1 7 6.2
-3 -14 1 2.9 9.4
-17 14 -1 -3.3 4.1
14 -17 1 3.7 9.2
-3 -14 1 4.8 7.3
14 -17 1 8.8 7.9
3 -17 -1 4.8 9.2
17 -3 1 5.3 10.2
-17 3 1 10 6.4
-3 17 -1 10.4 5.2
3 14 1 12.1 6.3
3 -17 -1 2.5 6.5
-14 -3 -1 10.1 5.9
-3 -14 -1 20 7.8
3 14 -1 13.2 5.6
17 -3 -1 18.1 10.9
-17 3 -1 13.6 6.3
-14 -3 1 26.9 6.2
-3 -14 -1 23.1 10.2
-14 17 -1 22.8 6.1
-17 14 1 28.1 6
3 -17 1 23.4 7.2
3 -17 1 13.4 9.7
14 -17 -1 28.9 8.3
14 -17 -1 18.4 9.7
17 -14 1 7.8 8.7
15 2 -1 10.9 5.7
15 -17 1 24.6 8.4
2 -17 -1 10 9.5
-17 2 1 22.4 6.6
2 -17 -1 19.4 7.4
-2 -15 1 18.6 9.9
17 -2 1 8.6 10.6
-2 17 -1 12.1 4.9
-15 -2 -1 15.3 6
-17 15 -1 13.3 5.4
15 -17 1 26.9 10.4
-2 -15 1 19.1 7.7
-15 17 1 21.4 6.6
2 15 1 23.5 6.4
17 -15 -1 -8.5 8.3
15 -17 -1 35.8 8.6
-2 -15 -1 18.8 7.8
-15 -2 1 21.8 6.2
17 -2 -1 16.1 11
-2 -15 -1 15.1 10
-17 2 -1 25.5 6.7
17 -15 1 20.5 9.7
2 15 -1 7.1 5.2
2 -17 1 25.9 7.7
17 -15 1 17.6 7.7
2 -17 1 22.1 10.2
-15 17 -1 31.4 6.7
-17 15 1 35.5 6.5
15 -17 -1 13.9 9.7
1 -17 -1 190.98 14.7
16 -17 1 186.58 15.8
17 -1 1 138.79 17
1 -17 -1 183.28 17.4
1 16 1 189.98 13.3
16 -17 1 174.58 17
-1 -16 1 200.48 14.8
-1 -16 1 174.68 17.4
16 1 -1 164.68 12.2
17 -16 -1 179.28 15.2
-16 -1 -1 188.78 13.3
-17 16 -1 185.88 12.9
-17 1 1 199.78 13.4
-16 17 1 195.08 13.4
1 -17 1 244.18 16.2
-16 17 -1 246.68 14.8
17 -16 1 233.08 17
-17 1 -1 238.08 15.5
-1 -16 -1 237.88 19.4
1 -17 1 253.57 19.5
-17 16 1 254.97 15
-16 -1 1 246.38 14.8
16 -17 -1 258.47 17.5
-1 17 1 191.88 13.9
-1 -16 -1 240.08 16.7
17 -16 1 204.68 18.4
-17 0 1 78.29 10.2
17 -17 1 42 10.7
-17 17 -1 86.79 10
0 17 1 57.89 7.4
17 -17 -1 90.89 12.7
-17 17 1 82.99 10.5
17 -17 -1 20.4 9.5
0 -17 1 49.1 11.3
0 -17 -1 47.3 11.1
9 9 1 55.69 7.2
9 -18 1 36.1 7.7
-9 -9 -1 57.09 10.8
-9 18 -1 65.79 7.5
18 -9 -1 49.4 12.3
18 -9 1 57.59 12.7
9 -18 1 49.99 11.1
9 -18 -1 63.29 8.6
9 -18 -1 64.39 11.4
-9 18 1 56.89 7.1
9 9 -1 67.99 7.9
-18 9 -1 56.29 6.5
10 8 -1 65.99 7.8
18 -8 1 58.59 12.3
-10 18 1 68.19 7.5
-8 18 -1 72.39 7.5
10 -18 1 54.29 11.6
8 10 1 78.49 8.1
-8 -10 1 47.2 10.2
8 -18 -1 59.99 11
8 -18 -1 48.1 7.3
10 -18 1 63.19 9.3
18 -10 -1 59.29 12.6
10 -18 -1 74.99 11.9
-8 -10 -1 70.59 10.6
18 -10 1 71.89 12.9
-10 18 -1 70.29 10
-8 -10 -1 91.29 14.3
-8 18 1 77.49 9.4
10 8 1 74.89 10.4
8 10 -1 76.29 10.8
18 -8 -1 93.29 15.6
-18 8 -1 84.49 10.3
10 -18 -1 78.99 12.1
-18 7 1 65.99 9
11 -18 1 99.79 15.1
-11 18 1 99.29 10.3
-7 -11 1 72.39 8.5
7 11 1 108.69 10.9
18 -11 -1 77.09 13.3
7 -18 -1 60.79 10.4
11 -18 1 89.19 12.6
11 7 -1 89.79 10.7
-7 -11 1 98.39 15.2
18 -7 1 107.59 16
-7 18 -1 98.29 10.2
-11 -7 1 117.49 10
18 -7 -1 129.29 16.9
-11 18 -1 126.99 11
7 11 -1 122.99 11.9
11 -18 -1 120.39 13.3
-7 -11 -1 135.69 15.6
-7 -11 -1 118.69 12.5
-18 7 -1 120.79 11.5
11 7 1 106.09 11.4
11 -18 -1 114.89 15.4
-7 18 1 105.79 9.8
18 -11 1 109.69 16.3
-18 6 1 33.8 7
12 -18 1 31.8 8.4
-6 -12 1 24.8 8
6 12 1 38.9 7
-6 18 -1 27.4 6.3
12 -18 1 12.6 9.7
18 -6 1 39.9 11.8
-12 18 1 32.5 6.6
-6 -12 1 37.2 11.1
18 -12 -1 33.5 11.4
12 6 -1 27.2 6.8
-18 6 -1 12.7 6.2
-12 -6 1 20 5.9
-6 -12 -1 18.1 7.4
6 12 -1 22.9 6.5
12 -18 -1 17.8 7.8
18 -12 1 10 9.9
6 -18 1 8.9 8
-6 -12 -1 22.2 9.9
12 -18 -1 23 9.7
18 -6 -1 22.5 11.3
-12 18 -1 14 6.1
12 6 1 12 6.3
-18 12 1 13.2 4.7
-6 18 1 -0.8 4.3
18 -13 -1 98.49 16.2
-13 -5 -1 106.69 9.9
-5 -13 1 116.79 12.7
-13 18 1 107.69 11.1
18 -5 1 115.99 16.5
-5 18 -1 106.89 11.1
-18 5 1 123.79 11.8
-5 -13 1 102.09 15.7
13 -18 1 111.59 14.9
13 5 -1 111.39 11.4
5 13 1 123.79 12.2
13 -18 1 120.39 13.6
5 -18 1 95.99 10.9
13 -18 -1 117.99 15
-18 13 1 113.09 10.5
-18 5 -1 122.59 11.8
-13 18 -1 121.49 11
5 13 -1 126.49 11.3
-13 -5 1 104.69 10.8
18 -5 -1 101.49 17.2
5 -18 1 90.59 13.7
-5 -13 -1 127.09 16
13 5 1 101.69 11
-5 -13 -1 108.29 12.7
13 -18 -1 117.69 13.7
-18 14 -1 -4.7 4.1
-18 4 1 6.6 6.4
14 -18 1 10.2 10
4 -18 -1 3.5 6.7
4 -18 -1 -7.2 8.2
-4 -14 1 4.9 7.6
14 4 -1 4.4 6
-14 18 1 12 6.2
-4 -14 1 -1.3 9.5
14 -18 1 12 8
-14 -4 -1 10.9 6
4 14 1 6.1 6.4
-4 18 -1 5 5.8
18 -4 1 0.2 10.4
-14 -4 1 22.6 6.2
-18 14 1 23.9 6.1
4 14 -1 27.6 6.5
14 -18 -1 16.6 10
4 -18 1 9.2 9.7
18 -4 -1 13.6 10.9
-4 -14 -1 25.5 7.7
-4 -14 -1 21.1 10.2
14 -18 -1 24.3 8.2
4 -18 1 25.3 7.4
-18 4 -1 21.4 6.6
-14 18 -1 27.5 6.4
14 4 1 13.8 5.7
-3 18 -1 158.98 12.3
3 -18 -1 162.58 13.7
-15 18 1 166.98 12.8
18 -3 1 126.49 17.9
15 -18 1 165.88 14.8
-15 -3 -1 162.18 12.1
3 15 1 166.08 12.9
-18 15 -1 152.48 11.3
-3 -15 1 153.78 17.2
15 3 -1 161.28 12.5
-18 3 1 170.38 13.2
-3 -15 1 153.48 14.1
15 -18 1 149.19 16.5
-18 15 1 224.28 14
3 -18 1 176.28 17.8
-15 -3 1 220.08 14.1
3 15 -1 209.08 14.4
-15 18 -1 221.68 14.1
-3 -15 -1 239.28 19.1
15 -18 -1 202.78 18.1
15 -18 -1 224.98 16.5
-18 3 -1 237.68 14.8
3 -18 1 226.58 15.2
18 -3 -1 169.38 19.6
-3 -15 -1 218.88 16
18 -16 -1 32.6 7.8
18 -2 1 14.1 10.3
-2 -16 1 41.4 8.3
-16 18 1 45.9 7.2
2 -18 -1 29 9.7
16 -18 1 24.9 10.1
-2 -16 1 26.4 10.7
-18 2 1 47.3 7.4
16 -18 1 51.09 8.8
2 16 1 51.49 7.4
2 -18 -1 42.1 8.1
16 2 -1 33.5 6.9
-16 -2 -1 48.8 7.1
-2 18 -1 38.5 6.1
-18 16 -1 39.4 6.6
-18 16 1 38.6 6.6
-2 -16 -1 34.7 8.1
18 -16 1 36.5 8.5
16 -18 -1 48.3 8.7
-2 -16 -1 42.1 10.9
2 16 -1 44.3 6.7
-16 18 -1 58.49 7.3
16 -18 -1 29.6 10.2
-16 -2 1 48.4 7.1
2 -18 1 35.7 10.6
18 -2 -1 -3.4 16.6
-18 2 -1 52.59 7.6
2 -18 1 37.4 7.8
-1 -17 1 13.7 10
18 -17 -1 42.2 8.6
-18 1 1 30.8 7
-1 -17 1 29.8 7.9
1 17 1 27.8 6.8
-17 -1 -1 34.9 6.8
-17 18 1 24.3 6.8
17 -18 1 32.1 8.4
1 -18 -1 36.8 8.2
-18 17 -1 35.2 6.5
17 1 -1 18.5 6.1
-1 -17 -1 13.5 9.6
-1 18 1 24.2 6
1 -18 1 8.5 9.3
17 -18 -1 30.5 8
1 -18 1 23.4 7.5
1 17 -1 9.3 5.2
18 -17 1 26.3 8.1
-18 1 -1 17.2 6.4
-17 -1 1 20 6.5
-17 18 -1 20.5 6.1
-1 -17 -1 26.4 7.9
-18 17 1 23 6.4
-18 0 1 228.68 14.8
18 -18 1 227.18 16.9
0 -18 1 220.68 15.4
0 -18 -1 233.88 16
18 -18 -1 242.58 16.3
0 18 1 224.08 14.6
-18 18 1 221.18 14.6
-18 0 -1 238.38 14.9
-18 18 -1 239.48 14.4
-19 10 -1 19.9 6
-10 19 1 23.9 6.3
10 -19 1 4.6 9.3
9 -19 -1 20.1 9.3
9 -19 -1 20.2 7.4
9 10 1 27.6 6.6
10 9 -1 24 6.7
19 -10 -1 18.2 10.8
-9 19 -1 22.5 6.1
10 -19 1 25 8.1
19 -9 1 12.6 10.9
-9 -10 -1 21 7.3
-10 -9 1 21.5 5.1
19 -10 1 14.3 11.2
10 -19 -1 22 7.4
9 -19 1 22.4 7.4
-10 19 -1 27.1 6.5
10 9 1 25.1 6.7
-19 9 -1 28.3 6.5
-9 19 1 20.9 6.2
19 -9 -1 28.6 11
9 10 -1 23.7 6.8
10 -19 -1 20.5 10
-9 -10 -1 -1.2 8.3
19 -8 1 139.59 18
8 11 1 133.59 11.4
-8 -11 1 111.69 12
19 -11 -1 118.19 17.8
11 -19 1 116.09 16.2
11 -19 1 120.39 13.5
8 -19 -1 113.99 12
-11 19 1 127.49 11.3
-19 8 1 108.59 10.2
11 8 -1 122.09 11.8
-8 19 -1 128.19 11.1
-11 -8 1 110.59 10.2
-11 19 -1 98.19 11
8 11 -1 116.89 11.8
-8 19 1 104.19 10.5
-8 -11 -1 85.49 14.1
11 -19 -1 106.09 12.9
-8 -11 -1 101.59 12.6
11 -19 -1 91.69 14.8
19 -8 -1 118.49 17.1
-19 8 -1 98.79 11.1
11 8 1 107.19 11.2
19 -11 1 95.59 16.8
19 -7 1 103.09 17.1
12 7 -1 84.19 10.7
-7 19 -1 94.89 10.5
19 -12 -1 91.79 15.8
-7 -12 1 86.39 12.3
7 12 1 91.79 10.9
12 -19 1 81.59 12.9
-7 -12 1 55.59 10.8
-12 19 1 85.49 10.3
-19 7 1 99.69 11
12 -19 1 73.59 12.3
-7 19 1 73.09 9.6
12 7 1 77.59 10.4
12 -19 -1 67.69 12
12 -19 -1 74.69 9.5
-7 -12 -1 85.59 12.5
-19 12 1 77.49 9
-12 19 -1 98.89 8.9
-12 -7 1 83.09 9.9
19 -7 -1 69.19 13.7
-7 -12 -1 67.69 11.8
7 12 -1 91.19 11.2
-19 7 -1 85.19 10.8
-13 -6 -1 24.4 5.9
6 13 1 19.4 6.5
-13 19 1 22.8 6.4
-19 6 1 18.8 6.7
19 -6 1 20.9 11.1
-6 -13 1 8.9 10
19 -13 -1 0.8 9.6
13 6 -1 17 6.3
13 -19 1 15.5 8.1
13 -19 1 8.6 9.8
-6 -13 1 12.6 7.9
-6 19 -1 18 6.1
-19 13 1 18.1 5.9
-13 19 -1 10.9 6.2
6 -19 1 7.3 6.2
-6 19 1 10.9 5.2
-6 -13 -1 12.7 7.6
-13 -6 1 14 5.8
13 -19 -1 12.3 9.9
19 -6 -1 20.6 10.7
-19 6 -1 14.4 6.2
13 6 1 13.7 6.5
13 -19 -1 21.1 7.9
-6 -13 -1 25 10
6 13 -1 16.7 6.7
5 14 1 10.2 6.3
-5 -14 1 4.8 9.7
5 -19 -1 0 6
-19 14 -1 -4.2 4.2
-14 19 1 15.7 6.1
14 5 -1 12.3 6.3
-5 -14 1 6.3 7.6
-14 -5 -1 19 6
-5 19 -1 3 5.7
14 -19 1 10.3 8.3
14 -19 1 1.2 10
19 -5 1 9.2 10.5
-19 5 1 6.8 6.5
-5 -14 -1 4.5 7.3
14 -19 -1 8.1 7.5
5 -19 1 11.7 7
19 -5 -1 2.9 10.4
-19 14 1 5.9 5.4
-19 5 -1 2.6 6
14 5 1 -1.6 5.7
-14 19 -1 3 5.8
5 -19 1 -9.6 9.7
-14 -5 1 2.5 5.7
14 -19 -1 6.6 9.4
-5 -14 -1 8.8 9.5
-5 19 1 -2.8 4.4
5 14 -1 7.2 6.4
-15 19 1 15.6 6.3
15 -19 1 9.8 10.2
4 -19 -1 15.7 7.2
-15 -4 -1 17.2 6
15 -19 1 15.8 8.3
-19 15 -1 11 5.2
-19 4 1 17.4 6.6
4 15 1 18.3 6.5
-4 19 -1 11.9 5.8
-4 -15 1 2.5 9.7
19 -4 1 5 9.8
15 4 -1 12.5 6.1
-4 -15 1 10.4 7.7
-4 -15 -1 12.5 7.3
15 -19 -1 3.8 9.2
15 -19 -1 13.9 7.7
-4 -15 -1 6.3 9.2
4 15 -1 8 6.3
-15 19 -1 10.4 6
4 -19 1 17 7.3
15 4 1 7 5.6
4 -19 1 -8.3 8.5
-19 15 1 15.6 5.8
-19 4 -1 13.6 6.5
-15 -4 1 12.7 6.1
19 -4 -1 0.5 9.5
-3 -16 1 159.48 14.2
16 3 -1 150.08 12.3
-19 16 -1 142.39 11.6
-19 3 1 159.68 13
16 -19 1 151.58 14.5
-3 19 -1 139.39 11.8
-16 -3 -1 151.48 11.8
3 16 1 155.98 12.5
3 -19 -1 165.78 13.5
-16 19 1 167.78 12.6
3 -19 1 212.58 14.6
-3 -16 -1 212.38 15.5
3 16 -1 203.88 13.9
-19 16 1 193.88 13.1
19 -16 1 175.98 15
-19 3 -1 198.58 14.2
-3 -16 -1 153.28 16.7
16 -19 -1 202.18 15.4
-16 19 -1 202.98 13.4
-16 -3 1 208.78 13.6
19 -17 -1 42 7.8
-2 19 -1 37 6.1
-2 -17 1 51.49 8.7
-17 -2 -1 40.6 6.7
-17 19 1 53.09 7
2 -19 -1 51.89 8.3
2 17 1 44.5 7
17 -19 1 58.79 9.1
-19 17 -1 45.8 6.8
17 2 -1 38.2 6.9
-19 2 1 57.79 7.7
-19 17 1 42.2 6.9
17 -19 -1 55.19 8.9
-17 -2 1 51.59 7
2 -19 1 48.1 8.1
2 17 -1 39.8 6.7
-19 2 -1 47.4 7.3
-2 -17 -1 49.4 8.3
19 -17 1 49.9 8.8
-17 19 -1 41.2 6.6
-19 1 1 4 5.9
19 -18 -1 13.4 7.5
1 18 1 11.2 5.8
-18 19 1 10 5.8
1 -19 -1 1.8 6.7
-1 19 -1 0.5 4.1
-1 -18 1 7.3 7.1
-18 -1 -1 0 5.6
18 -19 1 9.8 7.5
-19 18 -1 2.4 5.4
18 1 -1 3.9 4.8
-19 1 -1 7.7 5.8
18 -19 -1 19.5 7.7
-18 -1 1 -0.3 5.8
-1 -18 -1 9.3 6.8
-19 18 1 2.3 5.7
19 -18 1 7.3 7.8
1 18 -1 -7.6 4.5
-1 19 1 -2.1 5.2
-18 19 -1 6.2 5.5
1 -19 1 14.1 6.9
-19 0 -1 21.1 5.9
0 -19 1 19.2 7.1
-19 19 -1 16.9 5.6
0 -19 -1 25.9 7
0 19 1 19.7 5.6
-19 0 1 17.3 5.9
19 -19 -1 26.4 7.3
19 -19 1 28.2 7.7
-19 19 1 18.4 5.7
-20 10 -1 37.8 6.9
-10 -10 1 26.3 5.2
10 10 -1 34.4 7
-10 20 1 36.4 6.6
-10 -10 -1 26.4 7.2
10 -20 1 31.9 7.9
10 -20 -1 36.3 7.8
20 -10 1 20.5 10.5
-10 20 -1 28.8 6.1
20 -10 -1 22.1 11.4
10 10 1 36.5 7.1
9 -20 -1 6.3 7.3
11 9 -1 14.2 6.4
11 -20 1 8.6 7.5
-9 -11 1 4.4 6.1
-9 20 -1 8.3 5.5
-11 -9 -1 -5.2 5.7
11 -20 1 -5.8 8.4
-20 9 1 7.8 5.3
-11 20 1 6.6 6
-9 -11 1 -3.2 4.1
20 -9 1 4.7 10.7
20 -11 -1 2.7 10.3
9 11 1 15 6.5
-20 11 -1 8.2 5.8
11 -20 -1 12.8 7.3
-9 20 1 14 5.8
9 -20 1 6.4 6.5
11 9 1 21.1 6.6
11 -20 -1 6.4 8.6
-20 9 -1 9.6 6.1
-20 11 1 0.2 4.2
20 -9 -1 4 10.7
9 11 -1 19.3 6.7
20 -11 1 -3.2 9.3
-9 -11 -1 10.5 7.2
-11 20 -1 17.3 6.3
-11 -9 1 15.5 5.7
-20 8 1 47.4 7.1
-8 20 -1 50.59 7
20 -8 1 21.9 11.2
8 12 1 47.4 7.3
12 8 -1 42.6 6.9
-8 -12 1 45.2 8.1
20 -12 -1 2 9.5
8 -20 -1 28.4 7.1
-8 20 1 34.9 6.3
20 -8 -1 15.7 10.8
12 8 1 44.4 7.3
-20 8 -1 47.2 7.4
-8 -12 -1 40.1 8.3
-12 -8 1 43.4 6.5
8 12 -1 48.7 7.4
-20 12 1 40 5.8
12 -20 -1 23.4 9.4
-12 20 -1 37.9 6.8
12 -20 -1 57.09 8.7
-7 -13 1 43.4 8.5
-13 -7 -1 41.8 6.3
-13 20 1 39.1 6.9
13 7 -1 42.1 6.8
20 -7 1 19.5 10.9
-7 20 -1 38.9 6.5
-20 7 1 35.8 6.9
7 13 1 49.8 7.3
13 -20 1 44.2 8.6
13 7 1 32.2 6.7
-7 -13 -1 44.5 8.4
-13 -7 1 36.2 6.2
-13 20 -1 36.6 6.7
20 -7 -1 22.1 10.9
13 -20 -1 41.1 8.4
7 13 -1 34.3 7.1
-20 13 1 33.2 6.1
-7 20 1 34.6 6.5
13 -20 -1 18.8 9.7
-20 7 -1 41.3 7.2
-14 -6 -1 47.4 6.6
6 14 1 71.39 10.2
14 6 -1 55.89 7.2
-14 20 1 66.89 7.7
-6 20 -1 55.29 7.2
14 -20 1 63.29 9.3
-20 6 1 60.79 7.7
-6 -14 1 67.49 9.1
-6 20 1 35.6 6
-14 20 -1 46.9 7
-14 -6 1 55.39 6.9
6 -20 1 33.2 7.3
6 14 -1 45.7 7.2
14 -20 -1 46.6 8.5
-20 6 -1 50.79 7.5
14 -20 -1 19.6 9.6
-6 -14 -1 43.4 8.2
-20 14 1 40.8 6.3
14 6 1 45.7 7.2
-20 5 1 241.08 14.8
-15 20 1 216.78 13.9
15 5 -1 207.38 13.9
-5 -15 1 226.78 15.5
5 15 1 214.18 14.3
5 -20 -1 188.38 14.3
-5 20 -1 202.98 13.7
15 -20 1 206.38 15.6
-15 -5 -1 229.38 13.7
-20 5 -1 241.38 15.2
-15 20 -1 256.57 15.2
-5 -15 -1 255.37 17
15 5 1 232.48 15
-20 15 1 245.78 14.6
5 -20 1 247.78 16.1
-15 -5 1 259.47 15.1
15 -20 -1 240.38 17.1
5 15 -1 255.77 15.6
4 16 1 56.69 7.2
16 -20 1 64.39 9.2
-16 20 1 71.29 7.5
-16 -4 -1 72.19 9.5
-4 -16 1 64.49 8.9
-20 4 1 68.19 8.2
-20 16 -1 60.49 6.9
-4 20 -1 55.89 7
4 -20 -1 68.59 8.6
16 4 -1 67.69 9.9
-20 4 -1 73.49 8
4 16 -1 74.49 10.2
16 -20 -1 54.19 8.7
-16 20 -1 65.19 7.6
-16 -4 1 71.09 9.7
-4 -16 -1 66.99 9.1
-20 16 1 69.09 8.9
4 -20 1 75.69 11.2
17 3 -1 1.9 5.7
-17 -3 -1 13.4 5.7
20 -17 -1 -8.5 8.2
-3 -17 1 3.1 7
17 -20 1 8 7.4
-3 20 -1 2.1 5
-20 3 1 3.2 6.2
-17 20 1 9 5.6
3 -20 -1 9.8 6.9
-20 17 -1 9 5.5
3 17 1 1 5.5
3 17 -1 17.8 6
-20 17 1 12 5.7
-3 -17 -1 9.2 7.2
-17 -3 1 3.8 5.5
20 -17 1 -3.7 6.7
-17 20 -1 6.4 5.5
3 -20 1 13.4 7
-20 3 -1 8 6
17 3 1 -1.5 4
17 -20 -1 9.8 7.1
-20 2 1 140.99 11.7
18 2 -1 117.79 10.6
2 18 1 138.89 11
20 -18 -1 99.89 11.2
-20 18 -1 140.29 10.5
-18 -2 -1 140.09 10.9
18 -20 1 133.29 12.6
2 -20 -1 151.28 12.3
-18 20 1 147.39 10.9
-2 -18 1 136.59 12.7
2 18 -1 107.59 10.1
18 -20 -1 143.69 12.7
-20 2 -1 148.79 11.4
-18 20 -1 135.99 10.6
-18 -2 1 134.89 10.7
-20 18 1 129.99 10.6
-2 -18 -1 124.89 12
20 -18 1 128.99 12.6
2 -20 1 134.89 12.3
-19 -1 -1 27.2 5.7
-20 19 -1 34.3 5.7
19 -20 1 35.9 7.4
-20 1 1 28.2 6.1
-1 -19 1 28.6 7.1
-19 20 1 32.1 5.7
1 19 1 32.9 5.8
20 -19 -1 35.6 7.2
1 -20 -1 44.9 7.4
-20 19 1 43 6.1
-1 -19 -1 35.3 7.2
1 -20 1 30.5 7
-19 -1 1 34.6 6
20 -19 1 33.5 7.5
-20 1 -1 35.5 6.1
-19 20 -1 31.3 5.7
19 -20 -1 45.6 7.7
-20 0 -1 3.9 5
0 -20 -1 3.4 5.7
20 -20 1 13.5 6.8
0 -20 1 7.1 6.1
0 20 1 -3.6 3.8
-20 0 1 3.1 5.3
-20 20 1 1.5 4.9
20 -20 -1 17.3 6.9
-20 20 -1 3.4 4.8
-21 11 -1 26.7 6.4
10 -21 -1 22.2 7.6
-11 21 1 22 6
-10 21 -1 33.3 6.3
11 -21 1 26.2 7.6
11 10 -1 24.5 6.3
10 11 1 30.9 6.9
-10 -11 -1 17.9 7.1
11 10 1 22.2 6.6
10 -21 1 11.2 7.1
-21 10 -1 13.5 6.4
10 11 -1 18.1 6.3
21 -10 -1 -1.1 10.3
-11 21 -1 10.7 5.9
-11 -10 1 19.3 5.2
-10 21 1 18.4 5.8
11 -21 -1 17.7 7.3
-21 11 1 -1.6 5.1
-21 9 1 129.79 10.4
-21 12 -1 107.59 9.6
12 -21 1 115.99 12.4
-12 21 1 134.39 11.2
-9 -12 1 115.49 11.7
-9 21 -1 121.59 11.3
12 9 -1 117.79 11.2
9 12 1 121.89 11.7
9 -21 -1 112.19 12.9
-12 -9 1 103.99 9.6
12 -21 -1 98.69 12.3
-9 21 1 86.39 10.2
-12 21 -1 100.59 10.6
12 9 1 96.89 11
-9 -12 -1 99.49 12.5
9 12 -1 95.19 11
-21 9 -1 101.39 10.8
8 13 1 46.9 7.1
-8 21 -1 34.1 6.4
13 8 -1 30.4 6.3
-8 -13 1 31.9 7.7
-13 -8 -1 21.3 4.8
-13 21 1 35 6.4
13 -21 1 45.5 8.2
-21 8 1 41 6.9
-8 21 1 36.8 6.5
13 -21 -1 35.1 8.1
-13 -8 1 39.5 6.3
-13 21 -1 41.5 6.6
-21 13 1 40.1 5.7
-8 -13 -1 46.1 8.2
8 13 -1 44.6 7
-21 8 -1 40.5 6.9
13 8 1 37 6.9
14 -21 1 60.29 9
14 7 -1 44.3 6.7
-7 21 -1 53.59 6.8
7 14 1 61.99 7.5
-14 21 1 53.19 7
-7 -14 1 56.19 8.8
-21 7 1 50.89 7.2
-14 -7 -1 41 6.1
14 7 1 35.2 6.7
14 -21 -1 31.8 7.9
-21 7 -1 30.8 6.7
-7 -14 -1 26 7.6
-21 14 1 26.2 5.7
-14 -7 1 41.4 6.2
7 14 -1 39.9 6.8
-14 21 -1 28.4 6.5
-7 21 1 26.3 5.7
-6 -15 1 11.7 6.9
15 6 -1 18.4 6.1
-6 21 -1 15.7 5.6
-15 -6 -1 14.7 5.5
-15 21 1 12.1 5.9
15 -21 1 19.6 7.6
-21 6 1 12.9 6
6 15 1 22.7 6.2
-15 -6 1 40.6 6.3
15 -21 -1 38.7 7.9
-21 15 1 29.9 5.8
6 15 -1 34.3 6.6
-15 21 -1 40.8 6.7
-6 -15 -1 33.2 7.5
6 -21 1 42.3 7.6
15 6 1 29.9 6.1
-21 6 -1 33.2 6.7
-5 21 -1 14.7 5.4
16 5 -1 17.6 5.9
-16 21 1 14.3 5.5
-16 -5 -1 27.1 5.8
-21 5 1 15.3 6.1
-5 -16 1 22.5 7.4
5 -21 -1 17.8 6.5
5 16 1 18 6
16 -21 1 22.5 7.6
-21 5 -1 15.9 6.2
5 16 -1 14.4 6.1
5 -21 1 21.7 7
16 5 1 9.6 5.5
-5 -16 -1 5.3 6.9
-21 16 1 15.2 5.5
16 -21 -1 11.8 7.1
-16 -5 1 16.3 5.6
-16 21 -1 17.1 6
17 -21 1 69.69 9
4 -21 -1 74.79 9.7
17 4 -1 73.79 9.6
-21 4 1 73.89 9.9
-21 17 -1 52.19 7.4
-4 -17 1 74.59 10.5
-17 -4 -1 62.79 8.8
4 17 1 74.59 9.3
-4 21 -1 61.19 8.3
-17 21 1 64.99 8.8
17 -21 -1 75.49 10.9
-17 -4 1 72.99 9
4 -21 1 80.79 10.8
-21 4 -1 71.39 9.4
4 17 -1 75.59 9.6
-4 -17 -1 71.89 10.4
-21 17 1 74.79 9.2
-17 21 -1 76.69 9.1
18 -21 1 29.6 7.2
-21 3 1 22 5.9
-21 18 -1 21.6 5
18 3 -1 18.6 5.5
-3 -18 1 24.9 6.7
-18 -3 -1 23.5 5.5
-18 21 1 28.8 5.7
3 18 1 25 5.8
3 -21 -1 27.9 6.7
-21 3 -1 58.19 6.8
3 18 -1 50.29 6.4
-18 21 -1 54.79 6.6
3 -21 1 58.89 7.7
-3 -18 -1 46.8 7.2
-18 -3 1 46.5 6.3
-21 18 1 60.89 6.8
18 -21 -1 64.19 8.3
19 -21 1 10.4 6.4
2 -21 -1 10.7 6.2
-21 19 -1 6.6 4.6
19 2 -1 0.7 5.6
2 19 1 -0.4 4.8
-2 -19 1 1.9 5.6
-19 21 1 7.4 4.9
-21 2 1 2.7 5.3
-19 -2 -1 5.5 5
2 -21 1 5.8 6.2
-19 21 -1 8.9 4.9
21 -19 1 9.5 5.9
-19 -2 1 -0.2 4.7
-2 -19 -1 8.4 5.9
19 -21 -1 14.3 6.7
-21 19 1 4.8 4.9
-21 2 -1 5.1 5
1 -21 -1 25.2 6.3
-20 -1 -1 27.2 5.2
20 -21 1 22 6.5
-1 -20 1 25.3 6.6
-21 20 -1 15.9 4.7
-21 1 1 19.5 5.1
-20 21 1 20.7 4.9
-21 1 -1 22.8 5.2
-20 21 -1 24 5
20 -21 -1 31.2 6.7
-1 -20 -1 27.1 6
1 -21 1 27.2 6
-20 -1 1 25.9 5.3
-21 20 1 20 4.9
21 -20 1 21.7 6.2
-21 0 -1 32.7 5.1
-21 0 1 24.6 4.9
0 -21 -1 32 5.9
0 -21 1 34.8 6.6
21 -21 1 35.1 6.4
-21 21 -1 24 4.5
-21 21 1 34.2 5
11 -22 1 73.69 10.8
-22 11 -1 78.09 9.7
-11 22 1 84.29 9.3
11 11 1 79.89 9.9
11 -22 -1 75.89 9
-11 22 -1 82.99 9.8
11 11 -1 76.69 9.7
-10 -12 1 -4.5 5.3
12 10 -1 11.1 5.6
-22 12 -1 8.8 4.7
-10 22 -1 10.7 5.6
10 12 1 15.4 6
12 -22 1 12.1 7
10 -22 -1 11.4 6.6
-12 22 1 17.8 5.8
10 -22 1 -3.2 5.3
-12 22 -1 1.4 5.3
12 -22 -1 0.8 6.9
10 12 -1 6.8 5.7
-10 22 1 10.8 5.5
-10 -12 -1 5.1 6.7
-12 -10 1 3.1 4.6
-22 10 -1 8.5 5.7
12 10 1 6.4 5.8
13 9 -1 104.69 10
-22 9 1 95.19 9.6
9 13 1 105.89 10.8
13 -22 1 109.89 11.4
-9 22 -1 112.19 10.3
-13 22 1 105.49 10.1
-9 -13 1 97.69 10.7
13 -22 -1 74.49 11.6
-9 -13 -1 84.09 11
-13 22 -1 88.69 9.5
13 9 1 84.79 9.8
-22 9 -1 82.99 10.2
9 13 -1 91.99 9.8
-9 22 1 87.89 9
-13 -9 1 87.19 8.7
-14 -8 -1 -2.9 3.9
14 -22 1 4.9 6.9
-14 22 1 8.7 5.6
14 8 -1 6.4 5.3
-8 -14 1 3.1 6.8
8 14 1 9 5.8
-22 8 1 10.5 5.8
-8 22 -1 5.3 5.2
-8 -14 -1 3.7 6.6
-22 8 -1 6.5 5.8
14 -22 -1 7.8 6.9
8 14 -1 6.3 5.8
-8 22 1 4 4.9
14 8 1 0.3 5.2
-22 14 1 2.4 4.2
-14 22 -1 7 5.4
-14 -8 1 11.3 5.2
-7 22 -1 42.7 6.2
-7 -15 1 42.1 7.6
15 -22 1 43.3 7.8
15 7 -1 54.29 6.9
7 15 1 54.19 6.9
-22 7 1 45.7 6.7
-15 -7 -1 46.4 5.8
-15 22 1 47.7 6.4
-7 -15 -1 40.5 7.5
7 15 -1 33 6.1
15 -22 -1 40.5 7.8
-15 -7 1 32.7 5.9
15 7 1 30.8 6
-15 22 -1 34.8 6.1
-22 7 -1 40.7 6.6
-22 15 1 26.3 5.2
6 16 1 66.69 9.1
16 6 -1 45.4 6.5
-16 22 1 61.69 8.5
-6 -16 1 64.19 8
16 -22 1 60.09 8
-16 -6 -1 65.89 8.1
-22 6 1 65.09 7.2
-6 22 -1 55.59 7.9
16 -22 -1 66.69 10.3
6 -22 1 53.69 7.2
-22 6 -1 67.69 7.2
6 16 -1 70.99 8.8
-6 -16 -1 70.49 10.4
-16 -6 1 57.79 8
-16 22 -1 60.59 8.5
-22 16 1 57.89 8
16 6 1 44.9 6.4
-5 22 -1 12.3 4.3
-17 -5 -1 16.2 5
17 5 -1 15.8 5.4
17 -22 1 22.8 6.9
-5 -17 1 17.7 6.3
-17 22 1 21 5.3
5 17 1 24.1 5.6
-22 5 1 21.9 5.7
-17 -5 1 44.4 5.8
17 -22 -1 39.8 7.1
-17 22 -1 33.9 5.7
5 17 -1 43.6 6.2
-22 17 1 33.6 5.6
-22 5 -1 36.3 6.1
-5 -17 -1 32.4 7
5 -22 1 38.3 6.9
-4 -18 1 25 6.3
-22 4 1 34.7 5.9
18 4 -1 28.6 5.2
-18 -4 -1 35.9 5.6
-18 22 1 31.2 5.5
18 -22 1 36.8 6.8
4 -22 -1 40.4 6.2
4 18 1 36 5.8
18 -22 -1 34.5 7.1
4 -22 1 30.8 6.6
-22 18 1 34.3 5.5
-22 4 -1 33.3 5.7
-18 22 -1 34.5 5.7
-18 -4 1 33.4 5.4
4 18 -1 31.8 5.4
-4 -18 -1 29.4 6.6
3 19 1 19.9 5.1
-19 22 1 32.4 5.3
-3 -19 1 28 6.1
-19 -3 -1 26.6 4.8
3 -22 -1 31.5 6.2
19 -22 1 26.8 6.5
-22 3 1 25.2 5.1
-3 -19 -1 18.2 5.7
-22 3 -1 27.2 5.4
-19 -3 1 19.6 5.1
-19 22 -1 22.1 5.1
3 -22 1 19.9 5.8
-22 19 1 19.1 4.9
19 -22 -1 17.4 6.2
-22 2 1 16.6 4.7
2 -22 -1 10.2 5.3
20 -22 1 16.7 6.2
-2 -20 1 8.3 5.3
-20 22 1 11.2 4.5
-20 -2 -1 12.5 4.6
-20 22 -1 27.8 5
-20 -2 1 35 5.3
-2 -20 -1 31.1 5.8
2 -22 1 32.7 6.4
-22 2 -1 31.7 5.3
20 -22 -1 24 6.2
-22 20 1 29.2 5
-21 22 1 17.7 4.5
21 -22 1 12.5 5.2
-21 -1 -1 22.4 4.6
-22 1 1 15.9 4.4
-1 -21 1 15.7 5.5
1 -22 -1 20.2 5.4
-1 -21 -1 21.4 5.6
-21 -1 1 23.5 5
-22 1 -1 21 5
1 -22 1 20 5.5
-22 21 1 13.7 4.3
12 11 -1 56.39 8
11 12 1 58.29 6.8
-11 23 -1 51.09 6.3
-12 23 1 57.99 8
12 -23 1 48.4 7.4
11 -23 -1 53.69 7.7
-23 11 -1 34.3 5.6
12 -23 -1 44.8 7.5
-12 23 -1 48.1 6.3
12 11 1 49.1 6.4
11 12 -1 57.29 8.1
-11 23 1 40.5 5.9
10 13 1 114.19 9.9
13 -23 1 97.39 10.5
-10 23 -1 101.79 9.3
13 10 -1 105.69 9.4
-13 23 1 106.89 9.3
-23 10 -1 89.09 9.3
13 -23 -1 82.19 10.4
13 10 1 86.69 9
-13 23 -1 90.39 9
10 13 -1 92.79 9.2
-10 -13 -1 75.79 9.3
-10 23 1 85.79 8.5
9 14 1 28.2 5.8
-9 -14 1 13.5 5.5
14 -23 1 26.3 6.8
-9 23 -1 25.5 5.3
-14 23 1 28.1 5.5
14 9 -1 24.5 5.6
-14 -9 1 11.2 4.6
-9 23 1 9.1 4.3
-23 9 -1 12.9 5.3
14 -23 -1 19.7 6.5
9 14 -1 17.5 5.1
-14 23 -1 18.7 5.1
-9 -14 -1 9.7 6.2
14 9 1 15.5 5.2
8 15 1 78.89 8.9
-15 23 1 72.79 8.4
15 8 -1 71.19 8.7
-8 23 -1 66.59 8
15 -23 1 69.29 9.6
-23 8 1 68.79 7.8
-8 -15 1 67.99 9.2
8 15 -1 72.89 8.7
-15 -8 1 75.79 7.7
-23 8 -1 80.19 8.9
-15 23 -1 73.89 8.4
15 -23 -1 67.19 10
15 8 1 68.09 8.1
-8 -15 -1 71.39 9.5
16 7 -1 6.1 4.9
-23 7 1 6.1 5.1
-16 23 1 12.8 4.9
-7 23 -1 5.2 4.2
16 -23 1 6 5.9
7 16 1 13.9 5.3
-7 -16 1 5.4 5.7
-16 -7 -1 -3.7 3.4
-23 16 1 -4.8 3.8
16 -23 -1 7.8 6.1
-23 7 -1 10 5.3
7 16 -1 5.4 4.8
-16 23 -1 8.4 4.8
16 7 1 5 4.7
-16 -7 1 9.5 4.7
-7 -16 -1 8.8 5.8
-17 -6 -1 60.29 6.7
-6 -17 1 76.39 9
17 6 -1 83.89 8.4
-23 6 1 84.59 8.2
-17 23 1 82.49 8.2
6 17 1 88.29 8.3
17 -23 1 90.79 9.8
-17 -6 1 67.39 7.7
17 -23 -1 76.79 9.7
-17 23 -1 80.79 8.2
6 17 -1 77.49 8.2
-23 6 -1 72.39 8.2
-6 -17 -1 63.09 8.8
5 18 1 18.5 4.9
-18 23 1 19.6 5.1
-23 5 1 23.5 4.8
18 5 -1 10.6 3.7
18 -23 1 21.5 6.1
-5 -18 1 21.8 5.5
-18 -5 -1 16 4.2
-23 18 1 0.5 3.4
-18 -5 1 12.1 4.6
-5 -18 -1 13 5.5
-23 5 -1 7 4.9
-18 23 -1 13.8 4.7
5 18 -1 7.6 3.8
18 -23 -1 12.7 6
-23 4 1 16.7 4.6
-19 -4 -1 19 4.2
19 -23 1 15.3 6
4 19 1 14.7 4.4
-19 23 1 22.1 4.7
-4 -19 1 16.6 5.3
-19 23 -1 34.2 5
-4 -19 -1 34.1 5.9
4 -23 1 19.3 4.9
19 -23 -1 38.2 6.6
-23 4 -1 36.6 5.3
-19 -4 1 31.2 5.2
-23 3 1 15.5 4.5
-20 -3 -1 12.9 3.8
-20 23 1 19.3 4.7
20 -23 1 17.8 5.1
-3 -20 1 17.2 5.5
-20 -3 1 16.5 4.6
3 -23 1 2.9 4.1
-3 -20 -1 16.2 5.3
20 -23 -1 15.2 5.6
-20 23 -1 10.2 4
-23 3 -1 15.5 4.7
12 12 -1 99.99 8.6
-12 24 1 94.59 8.4
-12 24 -1 98.99 8.4
12 12 1 98.79 8.7
-11 24 -1 9.2 4.5
13 11 -1 10.4 4.8
13 -24 1 3.4 4.8
11 13 1 5.5 4.7
-13 24 1 5.4 4.7
-24 11 -1 0 4.3
11 13 -1 7.9 4.6
-13 24 -1 7.8 4.2
-11 24 1 2.7 3.8
13 -24 -1 1 5.9
13 11 1 3.1 4.4
10 14 1 28.7 5.2
-10 24 -1 24.5 4.9
-14 24 1 26.3 5.1
14 10 -1 23.7 5.1
14 -24 1 23.2 5.7
14 10 1 17.8 4.9
-24 10 -1 14.8 4.1
10 14 -1 30.7 5
14 -24 -1 18.7 6.2
-14 24 -1 21.5 4.7
15 -24 1 58.49 8.6
-15 24 1 65.59 7.3
15 9 -1 68.99 7.6
-9 24 -1 60.89 7
9 15 1 74.19 8.2
15 9 1 55.69 7.2
-9 -15 -1 36.8 5.8
15 -24 -1 43.7 6.6
-24 9 -1 51.59 6.8
-15 24 -1 67.59 7.6
9 15 -1 60.59 7.4
-8 -16 1 -4.4 4.1
16 -24 1 9.4 5.7
16 8 -1 11 4.7
-8 24 -1 5.4 3
-16 24 1 7.4 4.4
8 16 1 10.2 4.8
16 8 1 -0.6 3.2
-8 -16 -1 0.7 5.1
16 -24 -1 3.2 5.8
8 16 -1 6.9 4.5
-16 24 -1 9.2 4.5
-16 -8 1 -6.5 3.1
-24 8 -1 4 4.6
-7 -17 1 28.2 4.8
7 17 1 51.29 7.6
17 7 -1 44.8 6.3
-17 24 1 54.19 7
17 -24 1 41.4 6.4
-7 -17 -1 53.09 8.1
17 -24 -1 51.49 7.1
-24 7 -1 56.49 7.1
-17 24 -1 59.19 7.2
7 17 -1 56.09 6.8
-24 6 1 -2 2.9
6 18 1 3.3 4.4
-18 24 1 4.1 4.4
-6 -18 1 0.7 4.3
18 -24 1 8.3 5.6
-6 -18 -1 7 5.3
-18 24 -1 2.1 4.2
-24 6 -1 1.5 4.2
18 -24 -1 6.2 5.7
-18 -6 1 1.9 3.4
12 13 1 19.8 4.7
-12 25 -1 11.9 4.3
13 12 -1 17.4 5
13 12 1 4.5 4.2
-13 25 -1 9.8 4.4
12 13 -1 10.3 4.6
14 11 -1 18.5 4.6
14 11 1 15.5 4.2
0 0 2 0.6 5
0 0 2 0.4 3.2
-1 0 -2 749.03 31.1
1 -1 2 705.23 30.1
-1 1 2 625.84 32.3
-1 1 -2 721.43 32.4
-1 1 2 705.13 31.7
1 -1 -2 553.14 31.7
1 0 2 674.73 28.7
0 1 2 708.53 29.9
1 0 -2 555.04 31.2
0 1 2 537.35 32.8
-1 0 2 661.73 30.6
-1 1 -2 618.14 29.8
0 -1 2 658.53 30.6
0 1 -2 602.54 30.7
1 0 2 671.53 30.9
0 1 2 717.03 32.5
0 -1 2 648.54 30.5
0 -1 -2 756.02 32.2
1 -1 2 611.74 32.2
-1 0 2 543.05 30.8
-1 0 -2 571.34 32.2
1 -1 2 672.23 30
0 -1 2 657.53 29.9
-1 1 2 693.13 32.1
0 1 -2 597.84 29.8
-1 0 2 674.33 30.6
1 -2 -2 2385.66 105.59
2 -1 2 2435.46 102.39
-1 -1 -2 2602.84 104.99
1 -2 2 2410.56 103.99
-2 1 2 2440.36 104.99
1 -2 2 2420.66 102.29
-1 2 2 2141.29 103.49
-2 1 -2 2433.86 102.39
-2 1 2 2261.87 103.89
-2 1 -2 2615.64 106.29
-1 -1 2 2264.77 103.99
-2 1 -2 2156.58 102.19
-1 -1 -2 2532.25 106.89
1 -2 2 2293.37 103.89
-1 2 -2 2428.26 103.99
1 -2 -2 2604.84 104.19
1 1 -2 2101.19 103.39
-1 -1 2 2285.67 103.69
-1 2 2 2284.47 104.99
2 -1 2 2300.77 102.19
-1 2 -2 2077.29 101.99
-1 -1 2 2557.34 103.79
2 -2 -2 923.21 44.7
0 2 -2 785.12 42.5
-2 2 2 953.1 45
2 -2 2 977.5 43.1
-2 0 2 1014.8 44.4
-2 0 2 970.3 44.1
0 -2 -2 908.91 45
0 -2 2 952.7 42.3
-2 0 2 934.21 43.7
-2 0 -2 961.5 43.5
-2 2 -2 903.51 44.7
0 2 2 910.61 42.2
-2 0 -2 969.7 46.5
0 -2 2 937.21 44
0 -2 -2 1000.6 42.6
-3 1 2 998.5 45.9
-3 1 2 919.31 46.4
3 -1 2 975.5 43.6
1 -3 -2 1051.49 45.6
1 -3 -2 978 47.3
-1 -2 2 951 44
-2 3 2 995.3 46.9
-1 -2 2 937.81 45.6
-2 -1 -2 998.4 48.8
-3 2 -2 1036.3 48.1
3 -1 2 810.92 43.4
1 2 2 851.51 42.8
-1 -2 2 941.61 45.8
-2 -1 -2 1038.4 46.5
2 -3 2 993.7 42.8
3 -2 -2 1040.5 47.8
2 -3 2 1022 45.8
1 -3 2 910.61 40.8
2 -3 -2 951.6 45
-3 1 -2 901.31 45.1
-2 -1 2 952.4 42.3
2 -3 -2 915.31 43.1
-1 -2 -2 850.41 43.4
1 -3 2 906.71 42.8
-2 -1 2 877.01 42.5
-1 3 2 897.11 43.6
-3 1 -2 816.72 40.2
1 -3 2 847.32 40.3
3 -2 2 963.2 41.6
-1 -2 -2 941.41 40.2
-3 2 2 894.81 42.6
-3 1 -2 895.71 41.1
-1 -2 -2 969.6 45.8
-2 3 -2 800.52 39.1
-2 -1 2 879.61 42.7
-3 2 2 819.22 43.2
-2 3 -2 900.71 42.2
-3 0 -2 1744.13 77.69
-3 0 2 1851.51 81.19
0 -3 -2 1910.31 79.79
-3 0 -2 1906.81 80.89
3 -3 -2 1737.73 81.99
0 -3 2 1666.33 77.39
-3 0 2 1906.91 81.59
0 -3 2 1972.1 80.49
0 -3 2 1673.53 77.89
-3 0 2 1783.82 81.19
-3 3 -2 1662.33 81.59
0 -3 -2 1637.04 81.79
3 -3 2 1849.81 80.49
0 -3 2 1770.02 80.99
-3 3 2 1780.42 82.09
-3 0 -2 1795.42 83.59
-4 2 2 1443.56 65.49
-2 4 -2 1346.67 61.39
-2 4 2 1341.27 64.49
2 -4 2 1398.36 61.39
4 -2 2 1391.06 62.29
-4 2 2 1390.76 63.69
2 -4 -2 1403.36 64.09
-2 -2 2 1445.56 64.39
-4 2 -2 1411.76 61.29
-2 -2 -2 1364.26 64.79
4 -2 -2 1371.36 65.99
-2 -2 -2 1303.07 60.29
-2 -2 2 1310.57 63.59
2 -4 2 1336.97 63.89
-2 -2 -2 1427.76 66.79
2 -4 -2 1388.16 65.79
-4 2 -2 1235.68 66.09
-2 -2 2 1413.76 62.49
-3 -1 -2 1345.87 63.99
4 -1 2 1304.97 58.59
-1 -3 2 1303.27 60.59
-3 4 2 1286.27 61.59
-4 1 2 1262.37 60.49
3 -4 2 1338.37 60.69
3 -4 2 1321.57 56.79
-4 1 2 1283.77 61.69
-3 -1 -2 1216.68 56.59
1 -4 -2 1275.07 62.49
-4 3 -2 1200.78 63.09
4 -3 -2 1308.97 62.59
-1 -3 2 1233.68 57.59
-1 -3 2 1345.37 61.09
-3 -1 -2 1320.07 61.39
1 -4 -2 1396.56 60.59
3 -4 -2 1238.18 59.49
-3 4 -2 1243.08 58.59
-1 -3 -2 1292.37 61.59
-3 -1 2 1217.98 58.69
-3 -1 2 1238.98 58.99
-1 -3 -2 1230.28 56.29
-3 -1 2 1261.17 58.49
-4 1 -2 1277.77 57.69
-1 -3 -2 1203.28 59.79
1 -4 2 1276.07 59.09
4 -3 2 1316.07 58.09
-4 1 -2 1229.78 61.69
3 -4 -2 1277.77 60.89
1 -4 2 1285.37 57.19
-4 3 2 1147.99 59.29
-1 4 2 1274.27 59.69
-4 3 2 1195.18 58.39
4 -4 2 162.68 14.6
0 -4 2 186.28 13.6
-4 0 -2 161.38 18
-4 4 2 147.99 15.2
0 -4 -2 167.18 13.6
-4 0 2 175.38 15.2
4 -4 -2 171.98 16.8
-4 4 -2 156.28 17.8
-4 0 2 151.48 14.5
-4 0 2 156.98 13.9
-4 0 -2 169.88 15.6
0 -4 2 165.48 15.3
0 -4 -2 138.19 16.5
-2 -3 2 1405.86 64.69
-3 -2 -2 1334.67 67.09
3 -5 2 1377.66 61.19
-3 5 2 1413.16 65.09
-5 2 2 1283.17 65.59
-2 -3 2 1379.46 64.29
-3 -2 -2 1329.57 65.39
-3 -2 -2 1274.67 60.19
2 -5 -2 1321.37 64.39
-5 3 -2 1504.85 69.29
5 -2 2 1335.27 62.59
2 -5 -2 1357.26 66.19
-2 -3 2 1353.46 62.39
3 -5 2 1405.26 64.69
-5 2 2 1290.57 63.69
-5 3 -2 1337.47 60.49
5 -3 -2 1390.96 66.69
-3 -2 2 1284.07 62.39
-2 -3 -2 1356.86 64.29
-3 5 -2 1371.56 61.09
-3 -2 2 1300.37 62.09
5 -3 2 1328.97 61.69
-5 3 2 1304.07 62.29
-5 2 -2 1336.47 66.89
2 -5 2 1307.87 63.09
-3 -2 2 1322.17 63.29
3 -5 -2 1363.26 63.59
-2 -3 -2 1335.67 65.49
2 -5 2 1337.37 60.79
-5 2 -2 1331.17 60.59
-2 5 2 1323.97 63.29
3 -5 -2 1323.37 65.09
-2 -3 -2 1262.47 59.29
-5 3 2 1262.67 64.09
-5 1 2 845.42 42.5
-4 -1 -2 790.22 43.9
-5 1 2 792.42 40.3
1 -5 -2 800.92 42.6
4 -5 2 785.42 40.4
-1 -4 2 797.02 35.8
-4 -1 -2 758.12 40.8
-4 5 2 780.02 41.2
-5 4 -2 743.13 44.7
-1 -4 2 834.62 40.3
1 -5 -2 803.22 40.5
5 -4 -2 752.62 42.4
-4 -1 -2 745.63 36
-1 -4 2 757.42 40.2
5 -1 2 769.72 38.5
-4 5 -2 719.53 39.9
1 -5 2 751.42 38.8
-1 -4 -2 690.33 35.7
-4 -1 2 721.33 38.6
4 -5 -2 693.33 39.4
-5 4 2 732.73 39.7
-1 -4 -2 682.93 39.4
-4 -1 2 755.92 38.9
-1 5 2 747.93 38.9
-5 1 -2 705.83 42.1
-5 4 2 719.83 37.7
-4 -1 2 746.43 38.4
1 -5 2 720.33 36.9
-5 1 -2 771.02 37.7
5 -4 2 753.22 37.9
0 -5 2 2782.12 121.49
0 -5 2 2731.93 122.59
0 -5 -2 2633.14 123.89
5 -5 -2 2559.64 123.59
0 -5 -2 2633.34 120.59
-5 0 -2 2663.43 125.49
-5 0 2 2777.62 122.59
-5 0 2 2804.72 122.49
-5 0 -2 2482.45 117.79
-5 0 2 2680.73 123.49
5 -5 2 2674.53 122.09
-5 5 2 2769.82 123.59
-5 0 -2 2727.43 122.09
-5 5 -2 2899.71 126.59
-3 -3 -2 318.37 19.9
6 -3 2 401.86 24.3
3 -6 -2 396.36 27.3
-6 3 -2 369.16 30.3
3 -6 -2 385.36 25.4
-6 3 -2 360.16 21.4
6 -3 -2 373.26 27.6
-6 3 2 393.76 23.9
-6 3 2 326.07 25
3 -6 2 383.96 22.2
3 -6 2 376.16 24.7
-3 6 -2 355.36 20.2
-3 6 2 379.16 25
-3 -3 2 360.06 23.6
-3 -3 2 386.66 25.1
-3 -3 -2 387.26 26.6
-3 -3 2 355.76 23.6
-3 -3 -2 387.86 27.8
-6 2 2 1161.08 56.59
-4 -2 -2 1098.89 57.69
6 -4 -2 1141.29 59.59
4 -6 2 1201.48 57.39
-6 4 -2 1074.79 51.89
-4 6 2 1249.18 57.99
-6 4 -2 1151.48 62.59
-4 -2 -2 1102.59 52.29
-6 2 2 1131.29 58.69
2 -6 -2 1162.98 57.29
2 -6 -2 1200.58 59.39
-2 -4 2 1224.48 57.39
-2 -4 2 1125.79 53.29
-2 -4 2 1141.09 56.59
6 -2 2 1154.58 55.49
-4 -2 -2 1149.69 60.29
4 -6 2 1113.09 52.99
-6 2 -2 990.4 57.99
-2 -4 -2 1068.89 56.39
-2 -4 -2 1037.9 50.69
4 -6 -2 1031.4 54.89
4 -6 -2 1107.29 56.49
-6 4 2 1057.29 53.29
2 -6 2 1114.89 54.69
-4 -2 2 1039.2 53.49
-6 2 -2 1089.79 52.19
6 -4 2 1135.39 53.89
-2 -4 -2 1059.69 55.59
-4 -2 2 1136.79 55.19
-4 6 -2 1180.48 54.79
2 -6 2 1115.89 52.59
-4 -2 2 1063.89 54.59
-2 6 2 1097.49 54.19
-6 4 2 1085.89 55.69
6 -5 -2 670.83 40.1
-1 -5 2 682.83 37.4
-6 5 -2 694.63 44.4
1 -6 -2 675.23 39.7
-5 -1 -2 627.34 32.8
-6 1 2 668.83 37.6
-6 1 2 714.53 40.4
-1 -5 2 698.73 38.1
1 -6 -2 682.93 37.5
5 -6 2 699.33 38.4
-5 -1 -2 663.43 38.4
-5 6 2 725.93 39
-5 -1 -2 620.44 40.6
-1 6 2 649.74 35.3
1 -6 2 608.14 35.2
-6 5 2 607.14 36.5
5 -6 -2 640.74 37
-1 -5 -2 579.94 36.4
-1 -5 -2 566.04 32.3
-5 6 -2 549.74 38.5
-6 5 2 611.44 34
-5 -1 2 637.14 35.7
6 -5 2 584.64 34.3
-5 -1 2 614.34 34.7
1 -6 2 627.24 34.5
-6 1 -2 615.24 39.9
-5 -1 2 597.04 36.8
-6 1 -2 574.44 34
0 -6 2 71.69 14.2
-6 6 -2 51.89 21.1
-6 0 2 75.09 17.6
0 -6 2 66.99 13.7
-6 0 2 70.59 13.7
-6 0 -2 55.09 14.4
6 -6 -2 62.89 15.7
-6 6 2 82.99 16.8
-6 0 -2 65.49 18.5
-6 0 2 81.39 15.1
6 -6 2 72.09 15.2
-6 0 -2 52.19 8.9
0 -6 -2 63.29 12.6
0 -6 -2 57.39 15.4
-4 -3 -2 651.03 40.7
4 -7 2 666.93 37.9
-3 -4 2 655.53 36.9
-3 -4 2 621.94 34.4
-7 4 -2 724.53 45.6
4 -7 2 630.34 34
7 -4 -2 652.93 40.3
7 -3 2 652.63 36.6
-7 3 2 672.83 36.8
-7 4 -2 596.14 32.6
-4 7 2 675.83 37.7
3 -7 -2 647.04 39.4
-4 -3 -2 635.24 38.7
-7 3 2 639.64 39.4
3 -7 -2 622.84 38.6
-4 -3 -2 587.14 32.3
-3 -4 2 682.33 37.9
3 -7 2 716.13 40.5
-7 4 2 683.33 41.4
-3 7 2 707.73 39.6
3 -7 2 719.83 37.9
-3 -4 -2 729.73 42
-3 -4 -2 714.43 43.1
-3 -4 -2 626.94 35.3
-4 -3 2 755.92 40.1
-7 3 -2 639.14 45
4 -7 -2 711.73 42.6
-7 4 2 709.63 38.7
4 -7 -2 710.73 41.3
-4 -3 2 742.73 40.8
-7 3 -2 707.73 37
-4 -3 2 700.43 39
7 -4 2 741.13 40.1
-4 7 -2 731.63 37.9
2 -7 -2 1518.65 75.99
-5 -2 -2 1541.95 77.49
-7 5 -2 1574.14 81.69
2 -7 -2 1588.04 74.09
-2 -5 2 1454.85 73.09
-5 7 2 1518.05 73.89
7 -5 -2 1488.35 76.39
5 -7 2 1513.95 74.29
7 -2 2 1436.56 71.89
-2 -5 2 1503.25 73.39
-5 -2 -2 1457.35 74.39
-5 -2 -2 1377.26 68.39
-7 2 2 1577.74 77.39
-7 2 2 1605.44 73.79
-5 -2 2 1416.56 70.69
7 -5 2 1542.75 71.79
-7 2 -2 1338.57 68.69
-5 -2 2 1657.13 73.19
-7 2 -2 1385.46 75.49
2 -7 2 1524.65 72.29
-7 5 2 1500.15 74.29
5 -7 -2 1494.45 73.29
-2 -5 -2 1317.97 67.39
2 -7 2 1460.15 69.89
-7 5 2 1467.05 70.59
-5 -2 2 1322.37 71.69
-2 7 2 1477.85 70.89
-5 7 -2 1462.85 73.79
-2 -5 -2 1436.06 72.99
7 -1 2 36.7 6.5
6 -7 2 46.4 15.2
6 -7 2 37.3 5.6
-1 -6 2 42.3 14.3
-6 -1 -2 29.2 9.1
-1 -6 2 56.59 15.1
-6 -1 -2 30.8 15
-6 -1 -2 24.4 17.2
-7 6 -2 27.8 22.6
1 -7 -2 27 14.5
-1 -6 2 37.2 6.1
-6 7 2 41 15.9
-7 1 2 36.5 13.7
7 -6 -2 33 15.2
-7 1 2 42.4 17.3
1 -7 -2 38.5 12.9
-6 -1 2 16.5 12.6
6 -7 -2 10.9 5
-7 6 2 27 16
-7 1 -2 12.4 13
-7 1 -2 18.7 18.9
-6 -1 2 25.1 13.7
-1 7 2 21 13.3
6 -7 -2 22.2 15.2
7 -6 2 20.5 13.3
-1 -6 -2 5.1 4.2
1 -7 2 25.3 12.5
-7 6 2 22.6 11.9
-6 -1 2 14.7 16.4
1 -7 2 16 12.6
7 -6 2 13.5 4.3
1 -7 2 19.6 5
-6 7 -2 0.5 6.7
-1 -6 -2 22.4 10.9
-6 7 -2 18.7 21
6 1 2 6.2 4.6
-1 -6 -2 17.2 14.5
-7 7 2 107.29 20.6
-7 7 2 103.19 16.8
0 -7 -2 68.59 7.8
-7 0 2 77.79 21
0 7 2 100.19 17
7 -7 2 82.39 7.4
7 -7 2 76.79 16.4
7 0 2 82.19 9.1
7 -7 -2 100.59 20.4
-7 0 2 105.19 16.7
-7 0 -2 78.99 11.9
-7 0 -2 109.09 18.8
-7 0 -2 115.49 23.4
0 -7 -2 79.99 15
0 -7 2 87.79 8.4
0 -7 2 108.89 17.6
-7 7 -2 79.79 26.4
0 -7 2 96.39 18.2
0 -7 -2 115.49 21.8
-7 0 2 75.79 15.8
-8 4 2 725.63 40.8
4 -8 -2 698.03 42.7
8 -4 2 731.63 41.3
8 -4 -2 628.44 32.4
-8 4 -2 735.23 49.99
-4 -4 2 717.53 40.7
-4 -4 -2 733.23 45.3
-4 -4 -2 702.83 43.3
4 -8 -2 666.53 32.1
4 -8 -2 696.63 43.8
-4 -4 2 717.43 39.6
-8 4 2 715.73 45.3
-4 -4 2 767.62 42.5
8 -4 -2 688.63 45
-4 8 2 766.32 41.5
8 -4 2 611.54 32.2
-4 -4 -2 637.04 31.8
4 -8 2 659.13 37.9
4 -8 2 747.23 42.1
-8 3 2 234.08 22.8
5 -8 2 213.18 12
5 -8 2 252.57 24.1
8 -5 -2 214.38 12.8
3 -8 -2 222.18 25.9
-5 -3 -2 191.68 11.9
-3 -5 2 247.78 24.1
-5 -3 -2 240.78 25.3
3 -8 -2 212.28 11.9
-5 8 2 219.08 22.2
-3 -5 2 232.08 22.3
-8 5 -2 223.38 33.6
-8 3 2 239.18 25.5
-5 -3 -2 175.18 17.4
3 -8 -2 246.88 24.6
8 -3 2 215.68 13.3
5 -8 2 156.48 19.5
8 -5 -2 237.98 26.6
8 -3 2 212.98 22.3
-5 -3 -2 229.58 27
8 -5 2 228.68 24.9
8 -3 -2 198.08 13.2
-5 -3 2 224.88 23.8
-5 -3 2 259.27 24.6
-3 8 2 234.38 22
-8 5 2 223.48 24.3
3 -8 2 245.48 22.6
-3 -5 -2 242.78 26.1
-8 3 -2 213.98 30.3
5 -8 -2 216.88 12.6
5 -8 -2 235.18 25
-3 -5 -2 221.38 26.4
-5 -3 2 227.38 22.1
5 -8 -2 229.88 28.2
-8 3 -2 218.68 20.9
3 -8 2 237.88 23.7
-3 -5 -2 193.28 18.2
3 -8 2 207.68 12.7
-8 5 2 253.17 22.1
-3 -5 -2 215.18 12.6
-6 -2 -2 57.69 21.7
2 -8 -2 60.29 17
-2 -6 2 70.79 17
6 -8 2 46.6 16.2
-2 -6 2 40.9 15.3
2 -8 -2 71.69 20.2
6 -8 2 56.89 7.5
-8 2 2 71.69 22.3
-2 -6 2 54.19 7.3
-6 -2 -2 27.6 10.2
8 -6 -2 44.6 7.2
-6 8 2 62.09 17.7
-6 -2 -2 51.89 18.6
-8 6 -2 48.8 26.7
8 -6 -2 50.29 17.8
8 -2 2 52.29 8.2
-8 2 2 69.99 17.2
-8 2 -2 55.29 21.8
-2 -6 -2 62.29 17.8
8 -6 2 69.09 17.7
-8 6 2 74.29 19.4
-2 8 2 71.19 15.8
6 -8 -2 84.39 19.7
2 -8 2 63.99 15.5
-6 -2 2 55.59 16.4
-6 -2 2 68.59 18.7
-6 -2 2 73.89 16.4
-8 2 -2 60.59 15.3
-2 -6 -2 57.89 12.6
-8 6 2 64.09 15.3
-2 -6 -2 54.19 7.4
-6 8 -2 61.89 24.6
2 -8 2 76.49 17.4
6 -8 -2 58.69 8
8 -6 2 48 6.5
2 -8 2 61.29 7.6
8 -2 -2 47.2 7.2
8 -7 -2 319.47 31.5
-8 1 2 380.26 29.8
-7 -1 -2 324.67 33.9
8 -7 -2 332.57 18
-7 -1 -2 301.67 30.7
7 -8 2 335.87 17.9
7 -8 2 348.67 30.2
-8 7 -2 293.07 41.4
-8 1 2 362.86 36
-8 1 2 376.16 28.6
-1 -7 2 353.96 28.8
1 -8 -2 331.37 31
1 -8 -2 322.97 17.8
-7 8 2 356.46 30.5
-1 -7 2 340.67 18.1
8 -1 2 348.87 18.9
1 -8 -2 334.87 28.3
-1 -7 2 376.46 31.7
8 -7 2 319.57 16.9
-1 -7 -2 319.97 17
7 -8 -2 308.67 31
-8 7 2 349.77 28.2
-8 1 -2 313.07 27.7
1 -8 2 330.47 28.2
-8 1 -2 332.27 35.5
-8 7 2 340.67 30.4
1 -8 2 330.77 29.2
-1 -7 -2 342.57 31.7
-7 -1 2 340.57 28.7
8 -1 -2 263.57 17.3
1 -8 2 319.17 17.2
-1 -7 -2 302.57 25.1
-7 -1 2 330.37 31.8
7 -8 -2 315.87 17.5
-7 8 -2 287.77 37.8
-7 -1 2 344.07 28.7
8 -7 2 326.97 29.6
-1 8 2 306.97 27.6
7 1 2 314.57 18
-8 8 2 -4.8 17.6
0 -8 2 0 5.6
-8 0 2 1.8 15.8
-8 0 -2 -0.6 18.2
8 0 2 4.9 6.5
0 -8 2 0.9 15.1
-8 0 -2 0.7 12.6
8 -8 -2 -12.4 20.1
8 0 -2 -5.4 5.3
8 -8 2 9.3 6
8 -8 -2 3.4 6.3
0 -8 -2 -13.4 20.2
8 -8 2 -9.5 17
0 -8 -2 3.5 14.3
-8 8 -2 8.1 27.7
-8 8 2 6.4 16.6
8 -8 -2 2.5 5
-8 0 2 2.1 21
0 -8 2 -3.6 17.3
0 8 2 7.7 16.6
-8 0 2 -0.9 15.5
-8 0 -2 -6.6 21.4
0 -8 -2 -0.3 5.5
9 -5 -2 68.89 22.2
-4 -5 2 52.09 16.3
-4 -5 2 62.39 18.5
-9 5 -2 50.49 28.1
4 -9 -2 52.19 20.1
-4 -5 2 4.1 16.9
5 -9 2 52.29 18.5
-5 -4 -2 49.1 7.1
5 -9 2 43.3 6.8
9 -4 2 48 16.8
4 -9 -2 52.69 17.8
-5 -4 -2 66.39 22.5
5 -9 2 58.19 7.9
5 -9 2 -0.4 16.1
9 -5 -2 44.7 8.1
9 -4 2 56.79 8.5
-9 4 2 51.69 16.6
-5 9 2 52.29 16.7
4 -9 -2 51.09 7.7
-9 4 2 50.39 22.9
-4 -5 2 35.3 5.5
-5 -4 -2 40.7 18.6
-4 -5 -2 76.79 22
5 -9 -2 68.59 22
-5 -4 2 69.19 17.3
-9 5 2 64.99 16.5
5 -9 -2 67.19 7.6
4 -9 2 90.59 19.5
-4 -5 -2 61.69 7.8
5 -9 -2 72.89 19.8
9 -5 2 58.99 8.5
-5 -4 2 64.39 18.4
9 -4 -2 62.69 8.7
4 -9 2 34.2 16.2
9 -5 2 77.09 19.2
4 -9 2 61.79 7.3
-4 9 2 59.59 16.4
-5 -4 2 36 18.5
-9 5 2 64.99 23.3
4 -9 2 74.39 8.2
-9 4 -2 65.59 27.7
-4 -5 -2 52.99 18.9
9 -3 2 437.26 22.1
9 -6 -2 432.16 37.3
6 -9 2 426.46 34.5
-6 -3 -2 382.26 36.1
-6 9 2 409.46 33.5
-3 -6 2 439.16 33.9
-6 -3 -2 412.96 20.7
-3 -6 2 432.36 32.3
-3 -6 2 406.16 21.2
-9 6 -2 415.06 45.3
3 -9 -2 409.96 20.8
-6 -3 -2 390.66 34.2
-9 3 2 436.16 33.2
6 -9 2 440.86 21.4
-9 3 2 462.05 41.8
3 -9 -2 408.46 33.4
9 -6 -2 405.16 21.2
3 -9 -2 412.96 36.4
9 -6 2 462.05 36.1
-6 -3 2 425.76 33.7
-9 6 2 424.86 37.2
9 -6 2 398.26 21.1
-6 -3 2 415.26 32.4
6 -9 -2 443.36 21.7
-3 -6 -2 428.26 21.2
-9 6 2 477.55 31.9
-6 -3 2 489.05 35.2
-9 3 -2 418.26 41.1
6 -9 -2 448.06 35.6
9 -3 -2 419.86 22.1
-3 -6 -2 420.16 35.4
3 -9 2 412.56 31.9
-3 9 2 339.37 29
9 -6 2 358.26 20.5
3 -9 2 434.46 21.5
3 -9 2 472.25 35.1
-7 -2 -2 1523.05 79.79
-9 2 2 1499.65 81.19
-7 -2 -2 1233.98 62.19
7 -9 2 1408.56 74.69
2 -9 -2 1395.76 62.49
9 -7 -2 1452.35 63.29
2 -9 -2 1316.17 73.19
-7 -2 -2 1331.07 74.69
-9 2 2 1422.86 73.89
7 -9 2 1436.36 62.89
2 -9 -2 1389.76 62.99
-2 -7 2 1422.36 62.99
2 -9 -2 1462.45 77.19
9 -2 2 1430.46 63.49
-7 9 2 1417.66 74.09
-9 7 -2 1409.66 85.99
-2 -7 2 1408.06 72.69
-2 -7 2 1483.15 74.99
9 -7 2 1336.97 70.99
9 -7 2 1225.28 57.99
2 -9 2 1233.58 67.69
-2 -7 -2 1229.08 71.09
-7 -2 2 1378.46 68.59
-2 -7 -2 1348.17 58.39
-7 -2 2 1240.18 70.69
7 -9 -2 1344.97 72.29
7 -9 -2 1388.36 58.79
-9 2 -2 1314.97 76.39
-7 -2 2 1293.87 69.69
2 -9 2 1274.47 58.39
7 2 2 1239.78 58.69
-9 7 2 1363.86 67.99
9 -2 -2 1273.47 59.09
2 -9 2 1385.36 70.39
-1 -8 2 245.48 27.1
-1 -8 2 269.97 15.4
1 -9 -2 248.48 15.2
9 -8 -2 243.88 15.8
9 -8 -2 254.57 15.1
-8 -1 -2 260.97 35.6
-8 -1 -2 226.78 30
8 -9 2 244.88 30.5
-8 9 2 220.68 32.9
9 -8 -2 261.77 33.6
-1 -8 2 262.37 31.1
1 -9 -2 197.68 27.2
-9 1 2 251.77 29
9 -1 2 275.87 16.3
8 -9 2 260.97 15.2
-9 1 2 241.68 28.2
1 -9 -2 257.57 32.2
-9 1 2 225.28 34.9
-9 8 -2 212.58 38.9
9 -8 2 258.07 14.9
-1 -8 -2 243.38 32.6
8 1 2 279.67 16.6
1 -9 2 276.57 15.8
1 -9 2 244.58 29.8
-8 -1 2 276.27 30.1
1 -9 2 263.87 29
-8 -1 2 250.67 34.3
-8 -1 2 255.67 29.2
8 -9 -2 251.27 33
9 -1 -2 269.57 17
-9 8 2 232.98 31.4
9 -8 2 244.48 31.7
8 -9 -2 271.87 16.2
-1 -8 -2 269.87 15.6
-9 1 -2 274.27 38.4
-9 8 2 237.28 26.1
-9 0 2 143.79 23.2
9 0 2 166.88 12.1
-9 9 2 91.19 24.2
9 -9 2 168.78 12.1
9 -9 -2 150.28 28.2
-9 0 2 112.69 22.8
0 -9 2 106.09 23.7
0 -9 -2 162.88 11.8
9 -9 -2 152.38 11.4
-9 9 -2 -6.5 60.89
9 -9 2 140.69 25.6
0 -9 -2 142.39 28.3
-9 0 -2 119.79 28.5
0 -9 2 168.28 12.2
0 -9 2 137.99 23.9
9 -9 -2 163.18 12.5
9 0 -2 157.18 13.3
-9 0 2 142.19 30.3
5 -10 -2 293.87 36.6
-10 5 -2 243.28 42.3
-5 -5 2 334.07 32.8
-5 -5 2 237.48 14.9
-5 -5 -2 266.27 31.5
5 -10 2 328.47 33.2
-5 -5 -2 277.17 35
5 -10 -2 250.27 32.8
5 -10 2 290.17 16
5 -10 -2 298.67 16.3
-10 5 2 284.27 30.1
-5 -5 -2 278.27 15.7
-5 -5 2 262.27 29.2
5 -10 2 277.47 16
-10 5 2 269.37 38.2
10 -5 -2 283.47 16.9
10 -5 2 301.87 16.8
-4 -6 2 72.09 19.9
6 -10 2 57.99 7.6
10 -4 2 72.09 9.9
10 -4 2 6 22.2
4 -10 -2 57.69 8.3
4 -10 -2 61.69 24.8
-6 -4 -2 65.69 22.2
-10 6 -2 54.59 32.7
6 -10 2 78.19 9
-6 -4 -2 64.89 8.1
6 -10 2 62.89 20.4
4 -10 -2 62.29 20
-10 4 2 57.59 20.1
-4 -6 2 67.39 21.1
10 -6 -2 63.89 9.1
-4 -6 2 74.79 8.3
-10 4 2 69.29 29.1
10 -6 -2 68.89 25.6
-6 -4 -2 61.69 25.5
-6 -4 2 50.69 18.8
4 -10 2 72.09 21.5
-4 -6 -2 55.89 8.1
-6 -4 2 62.79 22
10 -6 2 42.3 6.3
4 -10 2 60.69 9.3
-4 -6 -2 22.4 24.6
-10 6 2 44.7 24.5
-10 4 -2 45.1 27.7
6 -10 -2 62.79 23.9
10 -6 2 57.39 7.6
4 -10 2 57.39 7.5
6 -10 -2 60.99 21.6
10 -4 -2 53.39 8.4
6 -10 -2 63.99 8.9
4 -10 2 4.9 30.6
-10 6 2 52.69 18.6
10 -6 2 40.9 21.4
-4 -6 -2 45.9 22.1
10 -7 -2 244.68 34.4
3 -10 -2 212.78 13.9
-3 -7 2 229.58 32.4
7 -10 2 229.88 14.4
-10 3 2 223.58 29.8
10 -3 2 253.97 15.5
-7 -3 -2 203.28 30
-3 -7 2 212.68 28.5
-10 7 -2 145.19 37.3
7 -10 2 224.58 30.8
-3 -7 2 251.87 14.6
3 -10 -2 236.38 13.9
-10 3 2 242.68 40.2
-7 -3 -2 164.78 32
10 -7 -2 243.98 14.7
-7 -3 -2 234.78 13.7
3 -10 -2 189.48 30.1
3 -10 -2 227.28 32.3
3 -10 2 244.78 14.8
3 -10 2 225.48 30.4
-10 7 2 165.98 27.7
10 -7 2 237.68 14.3
7 3 2 240.68 15.3
10 -7 2 233.08 33.6
-3 -7 -2 250.57 14.4
7 -10 -2 162.78 27.1
-10 3 -2 236.58 38.6
10 -3 -2 243.48 15.2
-7 -3 2 231.08 27.4
7 -10 -2 256.67 15.1
-7 -3 2 249.68 30.5
-10 7 2 218.18 34.3
-3 -7 -2 227.28 31.5
10 -7 2 233.68 14.2
2 -10 -2 333.37 36.9
10 -8 -2 311.57 38.5
10 -2 2 372.66 20
8 -10 2 366.36 19.1
10 -8 -2 359.46 19.8
8 -10 2 337.37 33.8
-10 2 2 312.77 32.7
2 -10 -2 355.26 18.5
-10 2 2 309.17 40.5
-8 -2 -2 346.17 18.2
-2 -8 2 342.07 19.3
2 -10 -2 362.46 19.1
-2 -8 2 311.67 32.6
-8 -2 -2 327.67 41.2
10 -8 -2 357.16 19.4
-2 -8 2 338.77 34.5
-10 2 2 316.37 33
10 -8 2 339.97 18.4
-8 -2 2 284.47 32.6
10 -2 -2 382.46 20.6
8 2 2 355.86 19.9
-8 -2 2 350.66 34.1
-2 -8 -2 317.17 38.3
-10 8 2 312.57 38.7
-2 -8 -2 356.66 18.9
2 -10 2 353.66 19.2
10 -8 2 314.47 38.8
8 -10 -2 299.07 35.5
2 -10 2 346.07 34.9
-10 2 -2 323.67 44.7
8 -10 -2 361.36 19.4
-10 1 2 103.79 24
-1 -9 2 39.7 25.5
-1 -9 2 101.99 22
-9 -1 -2 84.79 30
10 -9 -2 147.29 30.9
-10 1 2 49.5 20.5
-10 1 2 98.59 32.6
1 -10 -2 76.99 7.5
-9 -1 -2 4.8 29.1
9 -10 2 104.19 24.3
1 -10 -2 122.19 27.4
10 -1 -2 144.59 13.4
9 -10 -2 145.29 12.1
1 -10 2 98.79 24.2
-1 -9 -2 128.09 30.7
-1 -9 -2 145.59 11.3
9 -10 -2 134.69 10.8
9 -10 -2 131.99 30.5
10 -9 2 73.99 27
10 -9 2 146.89 11.8
-10 1 -2 89.19 31.2
-9 -1 2 120.99 26.2
9 1 2 143.29 12.5
1 -10 2 140.19 11.9
0 -10 2 0.4 22.9
10 -10 2 20.1 7
10 0 -2 28.4 8.4
10 -10 -2 9.3 6.3
10 -10 -2 26.9 7.7
-10 0 -2 0.3 33.2
0 -10 2 16.6 7.2
10 0 2 8.5 7.3
0 -10 -2 13.4 6.7
0 -10 -2 4.3 31.9
10 -10 2 2.3 29
10 -10 -2 2.5 29.1
-10 0 2 2.8 24.2
-6 -5 -2 133.49 27.6
-11 5 2 187.28 38.5
-5 -6 2 202.98 13
6 -11 2 199.88 13.6
11 -5 2 212.38 14.3
11 -6 -2 221.18 34.5
-6 -5 -2 209.98 13
6 -11 2 141.69 27.3
11 -6 -2 204.38 14.1
-5 -6 2 148.49 26.7
-11 6 -2 101.99 36
5 -11 -2 202.48 13.4
6 -11 2 214.58 13.3
5 -11 2 252.27 14.4
6 -11 -2 247.08 15
11 -5 -2 251.57 15.8
5 -11 2 252.67 15.3
11 -6 2 244.98 15.2
-6 -5 2 193.58 13.2
-11 6 2 171.88 35.9
-5 -6 -2 236.48 14.6
5 -11 2 230.98 34.8
-5 -6 -2 216.98 34.6
-6 -5 2 242.58 35.2
7 -11 2 333.27 17.8
7 -11 2 275.87 16.9
11 -4 2 330.77 18.6
11 -7 -2 272.17 42.1
-4 -7 2 290.17 37.6
-11 4 2 300.47 48
4 -11 -2 258.67 17
11 -7 -2 310.97 17.6
4 -11 -2 328.67 17.4
-7 -4 -2 331.57 17.5
-4 -7 2 327.07 17.6
7 -11 2 260.37 37.6
-4 -7 -2 315.17 17.6
4 -11 2 323.07 17.1
-7 -4 2 295.07 37
7 4 2 281.37 17.8
11 -7 2 331.17 17.9
-11 7 2 241.98 41.7
4 -11 2 332.77 18.3
4 -11 2 290.47 37
7 -11 -2 346.87 18.2
-4 -7 -2 269.17 37.4
11 -4 -2 336.77 18.5
11 -7 2 304.87 17.4
7 -11 -2 212.48 35.6
-3 -8 2 -0.3 21.2
-8 -3 -2 7.9 33.7
-8 -3 -2 2.3 25.1
-11 3 2 14.3 31.5
-11 8 -2 -3.3 64.29
-3 -8 2 5.5 29.3
-11 3 2 3.6 23.2
11 -8 -2 35 30.1
11 -8 -2 19.7 7.1
8 -11 2 16.6 26.2
3 -11 -2 1.7 28.3
8 3 2 36.3 8.3
-8 -3 2 1.5 23.5
-8 -3 2 27.9 25.1
11 -8 2 35 7.7
8 -11 -2 33.3 7.6
3 -11 2 20.4 23.2
11 -8 2 34.3 7.2
-11 3 -2 28.9 36
3 -11 2 41.8 7.9
11 -3 -2 45.2 9
-3 -8 -2 23.7 27.3
-3 -8 -2 35.9 7.4
-11 8 2 5.1 30.6
8 -11 -2 8.2 24.8
9 -11 -2 292.37 17.7
2 -11 2 292.07 17.8
9 2 2 295.27 18.4
11 -9 2 301.47 17.6
11 -2 -2 312.97 19.3
-2 -9 -2 289.27 17.4
1 -11 -2 293.57 18.3
10 1 -2 308.57 20
11 -1 2 320.57 19.4
11 -10 -2 305.97 18.9
11 -10 -2 324.87 19
-1 -10 2 309.37 18.5
10 -11 2 317.47 18.4
-1 -10 -2 299.87 18.1
10 -11 -2 321.97 18.7
11 -10 2 309.97 18.1
11 -1 -2 328.67 20.3
1 -11 2 299.27 18.5
10 -11 -2 285.97 17.7
10 1 2 306.47 18.9
11 0 -2 8.2 8.9
0 -11 -2 6.9 6.5
11 -11 -2 7.5 6.9
0 -11 2 12.1 7.3
11 -11 2 14.8 7.5
11 -11 -2 8.2 7.5
11 0 2 10.9 8
-12 6 2 2 44.8
-6 -6 2 1.7 48.4
12 -6 -2 -0.9 6.7
-6 -6 2 3.5 5.6
6 -12 -2 -0.8 6.4
-6 -6 -2 0.3 5.9
6 -12 2 2.5 6
6 -12 2 8.2 31.1
6 -12 2 5.9 6.6
12 -6 2 1.9 6.7
-5 -7 2 195.28 13.2
7 -12 2 191.78 13.4
7 -12 2 188.18 13.2
-7 -5 -2 188.38 13.1
12 -5 2 189.78 14.3
12 -7 -2 189.98 14.2
5 -12 -2 179.08 13.2
12 -7 2 126.99 11
5 -12 2 136.59 11.3
12 -5 -2 139.89 13
5 -12 2 139.29 12
12 -7 2 142.89 12.2
7 -12 -2 146.19 12.1
-5 -7 -2 149.29 11.8
-8 -4 -2 98.99 10.6
4 -12 -2 100.69 10.4
4 -12 -2 94.89 10.3
12 -8 -2 100.99 11.2
12 -4 2 100.19 10.7
-4 -8 2 102.69 10.3
8 -12 2 103.89 10.8
4 -12 2 61.59 8.6
8 -12 -2 76.49 10.4
4 -12 2 84.19 10.7
8 4 2 80.59 10.4
12 -4 -2 82.59 11.5
12 -8 2 88.19 10.2
-4 -8 -2 80.79 9.9
12 -8 2 73.29 10.7
3 -12 -2 152.48 12.8
12 -9 -2 149.29 12.3
12 -9 -2 136.29 12.8
12 -3 2 158.28 13.8
-9 -3 -2 154.28 12.4
3 -12 -2 154.78 11.9
9 -12 2 170.38 12.9
-3 -9 2 165.18 12.5
12 -9 2 150.88 13.2
3 -12 2 170.38 13.3
9 -12 -2 161.58 13
-3 -9 -2 155.38 12.6
9 3 2 157.18 13.7
12 -9 2 149.59 12.5
12 -3 -2 161.98 14.5
10 -12 2 73.49 10.6
12 -10 -2 67.99 11.3
-10 -2 -2 45.3 7.5
2 -12 -2 64.19 8.7
-2 -10 2 71.49 10.7
2 -12 -2 62.59 10
12 -10 -2 69.79 11.2
12 -2 2 69.89 11.4
10 2 2 38.1 9
12 -10 2 48.5 8.5
12 -10 2 23.6 6.7
-2 -10 -2 39.4 7.9
10 -12 -2 43.4 8.7
12 -2 -2 45.9 9.9
2 -12 2 32.8 8.3
12 -11 -2 239.48 16.8
12 -11 -2 256.27 17
11 1 -2 260.07 18.6
12 -1 2 239.28 17.4
1 -12 -2 249.58 16.2
-1 -11 2 264.47 16.6
11 -12 2 231.18 16.4
12 -1 -2 248.58 18
-1 -11 -2 220.08 15.3
1 -12 2 216.58 15.7
11 1 2 223.88 16.5
11 -12 -2 194.58 15
12 -11 2 212.28 15.5
11 -12 -2 229.78 15.9
12 0 -2 50.29 11.1
12 -12 -2 41.2 9.3
12 -12 -2 29.9 8.5
12 0 2 47.2 10.3
12 -12 2 49.2 9.2
0 -12 -2 32.4 8
0 -12 2 35.7 8.3
-6 -7 2 -0.2 6.3
7 -13 2 7.5 6.9
13 -6 2 5.6 7.4
6 -13 -2 2.2 6.5
7 -13 2 11.5 7.1
13 -7 -2 5.9 7.2
-7 -6 -2 8.7 6.5
13 -7 2 15.5 7.2
6 -13 2 14.8 7
6 -13 2 18.6 7.4
7 -13 -2 8 6.9
-6 -7 -2 9.5 6.7
13 -7 2 -3.3 6.1
13 -6 -2 12.2 7
-7 -6 2 6 6.3
-8 -5 -2 71.19 10.5
5 -13 -2 54.79 8.5
5 -13 -2 68.69 9
13 -5 2 73.79 11.2
8 -13 2 54.49 8.3
13 -8 -2 67.19 9.8
8 -13 2 86.99 10.2
-5 -8 2 64.69 9.6
5 -13 2 68.09 11.2
5 -13 2 57.29 8.3
8 -13 -2 66.69 10.5
13 -8 2 67.49 10.3
13 -8 2 69.29 10.4
13 -5 -2 62.69 11.2
-5 -8 -2 59.99 10
4 -13 -2 403.26 22.6
-4 -9 2 432.16 22.7
-9 -4 -2 411.86 22.7
4 -13 -2 405.66 22.4
13 -9 -2 418.46 23.6
13 -4 2 417.26 23.8
9 -13 2 418.26 22.8
4 -13 2 439.26 23.8
13 -9 2 392.26 23
9 -13 -2 425.46 23.4
13 -4 -2 445.26 24.8
13 -9 2 431.06 23.5
-4 -9 -2 425.76 23.1
9 4 2 405.46 23.8
13 -3 2 171.48 14.7
-10 -3 -2 162.38 13.3
3 -13 -2 159.68 13.2
13 -10 -2 164.28 14.3
-3 -10 2 164.68 13.3
3 -13 -2 160.78 13.7
10 -13 2 176.98 13.9
13 -10 -2 164.68 14.5
10 3 2 152.28 14.8
13 -3 -2 163.48 15.3
13 -10 2 155.18 13.7
-3 -10 -2 149.29 13
13 -10 2 158.88 13.4
3 -13 2 155.28 13.7
10 -13 -2 156.68 13.6
13 -11 -2 20 8.7
11 -13 2 14.8 7.6
-11 -2 -2 1.1 6.3
11 2 -2 -4.5 8.5
-2 -11 2 24.8 8
2 -13 -2 16.5 7.4
13 -11 -2 17.9 8.2
13 -2 2 11.7 7.9
2 -13 -2 8.2 6.1
2 -13 2 27.1 8.5
11 -13 -2 20.4 7.5
13 -2 -2 25 9.7
11 2 2 22.9 8.8
13 -11 2 23.9 8.5
-2 -11 -2 26.3 7.9
12 -13 2 72.19 10.4
1 -13 -2 70.09 10.1
-1 -12 2 81.89 10.6
12 1 -2 61.19 11.8
13 -1 2 53.09 10
13 -12 -2 57.09 10.1
13 -12 -2 56.39 10
12 1 2 28.8 9.1
13 -12 2 27.4 8.7
12 -13 -2 25 8.3
1 -13 2 27.3 8.2
13 -1 -2 32 10.3
-1 -12 -2 36.3 8.8
13 -13 -2 8.9 8.7
13 0 -2 12 10.1
13 -13 2 9.2 7.9
13 0 2 13.7 8.9
0 -13 2 7.8 7.8
13 -13 -2 -0.2 7.7
0 -13 -2 0.9 7.3
7 -14 -2 10.7 7.5
-7 -7 -2 5.6 6.9
7 -14 2 7.7 7.2
-7 -7 2 -0.9 6.8
14 -7 -2 8.1 8.2
7 -14 2 12.7 7.8
14 -7 2 12.9 8.3
14 -8 -2 138.69 12.9
6 -14 -2 141.29 13.3
14 -6 2 150.48 14
8 -14 2 125.89 12.7
8 -14 2 144.89 12.9
-6 -8 2 131.09 12.7
-8 -6 -2 135.19 12.6
8 -14 -2 124.09 12.6
6 -14 2 130.29 13.4
6 -14 2 124.89 11.9
14 -6 -2 123.19 13.8
-6 -8 -2 131.89 12.8
14 -8 2 125.89 13.2
14 -9 -2 84.29 12.3
14 -5 2 90.19 12.5
5 -14 -2 64.59 10.6
-9 -5 -2 84.09 11.6
5 -14 -2 86.39 11.1
9 -14 2 79.49 11.3
-5 -9 2 79.49 11.2
5 -14 2 84.39 11.1
14 -9 2 64.39 9.8
9 -14 -2 70.19 9.8
14 -5 -2 68.89 12.5
5 -14 2 53.39 8.7
14 -9 2 80.69 11.2
-5 -9 -2 86.59 10.8
4 -14 -2 93.59 11.9
14 -4 2 87.29 12.9
4 -14 -2 79.39 11.4
14 -10 -2 89.59 12.5
-4 -10 2 100.39 11.9
-10 -4 -2 91.69 11.6
10 -14 2 86.19 11.8
14 -10 2 98.59 12.4
14 -4 -2 107.59 13.6
-4 -10 -2 101.59 12.1
14 -10 2 110.89 12.3
10 4 2 79.89 12.8
10 -14 -2 97.49 12.4
4 -14 2 104.49 13.3
14 -3 2 279.57 19.3
11 -14 2 269.87 18.3
3 -14 -2 265.17 17.4
-3 -11 2 284.57 17.8
14 -11 -2 249.08 18.2
14 -11 -2 271.87 19.2
3 -14 -2 280.37 18
-3 -11 -2 222.58 16.7
11 3 2 228.68 17.2
14 -3 -2 244.48 18.7
14 -11 2 229.78 16.3
14 -11 2 190.38 16.4
3 -14 2 229.38 16.7
11 -14 -2 222.68 16.5
2 -14 -2 52.89 9.5
14 -12 -2 65.59 11
-2 -12 2 72.59 11.4
14 -2 2 70.29 11.8
14 -12 -2 73.39 11.3
12 -14 2 76.99 11.2
2 -14 2 55.59 10.4
14 -2 -2 53.39 11.6
12 -14 -2 47.5 9.5
12 2 2 49.2 10.2
-2 -12 -2 40.3 9
14 -12 2 61.59 10.3
14 -1 2 18.8 9.5
14 -13 -2 13.3 9
-1 -13 2 11.7 7.9
13 1 -2 3.4 9.9
1 -14 -2 10.2 8
13 -14 2 10.1 8.6
14 -13 -2 18.8 9.4
-13 14 2 -2.9 4.5
1 -14 2 20.4 8.4
13 1 2 23.1 9.5
14 -1 -2 20 11
13 -14 -2 17.2 8.9
-1 -13 -2 19.1 8.6
14 -13 2 21.8 8.8
14 0 2 35.9 10.1
0 -14 -2 36.4 9.4
14 -14 2 35.2 10.1
-14 14 2 18.5 5
-14 0 2 7.6 4.7
14 -14 -2 0.6 7.9
14 -14 -2 33 9.9
0 -14 2 28 8.7
14 0 -2 33.2 11.2
0 -14 2 18.5 6.2
15 -8 -2 252.87 18.6
-8 -7 -2 257.97 17.6
-7 -8 2 241.78 17
8 -15 2 248.58 17.4
8 -15 2 209.08 16.9
15 -7 2 253.47 18.5
7 -15 -2 254.37 17.3
7 -15 2 256.77 17.4
7 -15 2 257.17 17.9
15 -8 2 263.87 18.7
15 -7 -2 266.47 19.3
8 -15 -2 267.07 18
-7 -8 -2 269.77 17.7
-6 -9 2 77.59 11.8
-9 -6 -2 83.39 12.4
15 -6 2 91.69 13.3
6 -15 -2 85.99 11.9
15 -9 -2 85.99 13.2
9 -15 2 94.59 12.2
15 -6 -2 107.09 14
6 -15 2 86.29 12.2
-6 -9 -2 104.09 13
6 -15 2 105.29 13
15 -9 2 98.49 13.4
9 -15 -2 100.59 12.6
-10 -5 -2 372.16 22.5
5 -15 -2 385.26 22.2
10 -15 2 388.66 22.5
-5 -10 2 389.76 22.6
5 -15 -2 333.77 21.6
15 -5 2 405.76 24
15 -10 -2 396.66 24
15 -5 -2 439.16 25.5
10 -15 -2 424.46 23.6
15 -10 2 399.16 24
15 -10 2 330.07 22.6
5 -15 2 416.86 23.7
-5 -10 -2 409.76 23.3
4 -15 -2 161.18 14.3
4 -15 -2 162.38 14.5
15 -11 -2 171.28 16.9
15 -4 2 167.88 16
11 -15 2 167.48 14.9
-4 -11 2 158.58 14.4
-4 -11 -2 200.68 16.4
4 -15 2 204.68 16.5
15 -11 2 167.78 16.7
15 -11 2 196.98 15.6
11 -15 -2 190.98 16
15 -4 -2 214.08 18.1
15 -12 -2 191.78 16.5
-3 -12 2 168.08 14.7
15 -12 -2 126.69 15.5
15 -3 2 164.08 16
12 -15 2 157.98 15.1
3 -15 -2 163.58 14.9
-3 -12 -2 56.79 7
-15 3 -2 48.3 5.7
13 -15 2 65.59 10
15 -13 -2 85.59 14.5
2 -15 -2 94.59 13
-2 -13 2 50.69 7.4
13 -15 2 73.59 11
15 -13 -2 78.69 11.7
-2 -13 2 82.69 12.5
15 -2 2 87.79 14
-13 15 2 60.19 8.6
-2 -13 -2 117.49 14.2
-13 -2 2 97.39 8.4
-2 -13 -2 73.79 9.8
2 -15 2 59.09 7.3
13 -15 -2 117.49 14.2
-15 13 2 78.99 8
-15 2 -2 79.09 8.5
1 -15 -2 137.09 14.4
15 -14 -2 120.09 15.2
1 14 2 80.49 8.9
-14 15 2 111.69 10.4
14 -15 2 103.59 12.5
14 -15 2 127.39 14.3
15 -1 2 119.19 15.7
-1 -14 2 109.49 11.9
-15 1 2 104.49 9.7
-1 -14 2 119.69 13.8
-1 -14 -2 106.09 13.7
-15 1 -2 80.09 9.7
15 -14 2 98.19 13.7
-14 -1 2 89.99 9.5
-15 14 2 91.69 9.6
1 -15 2 92.29 11.4
1 -15 2 106.79 13.7
14 -15 -2 103.39 13.9
15 -1 -2 99.89 16.6
-1 -14 -2 75.39 11.4
14 1 2 95.59 15.1
0 -15 -2 54.09 8.4
0 -15 -2 72.39 11.7
-15 0 -2 63.19 7.4
-15 15 2 65.99 7.2
-15 0 2 57.09 7
15 0 2 49.4 11.3
15 -15 2 64.29 11.3
0 -15 2 66.69 8.5
0 15 2 41.8 6
0 -15 2 83.29 11.9
15 -15 2 53.99 8.8
15 -15 -2 69.59 11.3
-8 -8 -2 35 9.4
8 -16 -2 41.1 9.5
8 -16 2 35.2 9.4
16 -8 2 31.5 9.9
-8 -8 2 21.6 8.6
16 -8 -2 40.1 10.6
8 -16 2 33.9 9.4
-7 -9 2 252.17 18.5
16 -7 2 278.17 20.4
7 -16 -2 256.27 18.2
9 -16 2 267.27 18.5
-9 -7 -2 266.07 18.4
16 -9 -2 262.17 20
7 -16 2 293.17 18.2
7 -16 2 293.57 19
-9 16 -2 196.18 13.4
-6 -10 2 112.99 13.9
16 -6 2 110.89 14.5
6 10 2 74.59 8.7
10 -16 2 96.09 13.1
10 6 -2 81.59 8.7
-10 -6 -2 110.69 13.5
6 -16 -2 98.79 12.7
-6 16 -2 62.09 7.8
16 -10 -2 99.59 15
6 -16 2 40.5 8.8
10 -16 -2 84.19 12.3
10 -16 -2 56.49 7.7
16 -6 -2 84.79 14.1
6 -16 2 76.79 12.4
-10 16 -2 47.3 5.8
16 -10 2 75.19 13.4
-16 6 -2 27.4 5.1
5 11 2 69.19 9.1
5 -16 -2 82.29 12.6
-5 -11 2 82.49 13.5
-11 16 2 46.8 5.9
11 -16 2 83.89 13
11 -16 2 62.39 8
11 5 -2 60.49 8.7
16 -5 2 91.29 14.3
16 -11 -2 85.89 14.3
5 -16 -2 54.69 9.7
-5 16 -2 50.99 5.9
11 -16 -2 104.79 13.2
11 -16 -2 90.29 10.9
-11 16 -2 81.29 8.5
16 -5 -2 124.89 15.5
5 -16 2 120.09 13.4
16 -11 2 93.29 14.9
-16 5 -2 95.79 9.6
-5 -11 -2 71.79 10.3
16 -11 2 65.19 10.5
-11 -5 2 73.69 7.9
4 12 2 217.58 14.2
4 -16 -2 216.78 17.1
12 4 -2 209.68 13.7
-4 16 -2 194.98 13.3
-12 16 2 222.48 13.8
16 -12 -2 252.27 19.3
-4 -12 2 254.37 17.9
12 -16 2 216.98 15.8
16 -4 2 247.08 19.3
12 -16 2 249.88 18
-12 -4 2 241.68 14.4
12 -16 -2 232.28 16.8
-16 4 -2 249.08 15.3
16 -12 2 244.78 18.2
12 -16 -2 286.67 19
16 -4 -2 300.67 21.4
-12 16 -2 219.58 14.2
-4 -12 -2 297.27 19.5
4 -16 2 275.77 19.1
-4 -12 -2 244.88 16.2
3 13 2 80.09 10.3
3 -16 -2 98.39 13.3
16 -3 2 95.19 14.8
-3 -13 2 81.79 13.4
16 -13 -2 93.69 15.4
13 -16 2 89.69 12.2
-3 -13 2 76.19 11
-13 16 2 84.89 10
13 3 -2 73.99 9.3
-16 3 2 62.39 8.6
-3 16 -2 68.49 9.1
13 -16 2 89.29 14.4
16 -13 2 74.09 11.7
-13 16 -2 45.8 6.2
3 -16 2 59.19 7.9
16 -3 -2 84.99 14
-3 -13 -2 60.19 8.6
13 -16 -2 56.79 10.4
3 -16 2 79.59 13.2
-16 13 2 53.69 6.5
-13 -3 2 58.79 6.8
-16 3 -2 69.39 7.6
13 -16 -2 63.99 8.9
-3 -13 -2 64.59 11.1
-14 16 2 98.09 10.6
16 -2 2 109.49 15.3
-2 -14 2 94.49 14.5
14 -16 2 101.09 14.2
2 -16 -2 93.39 13.9
2 14 2 89.09 10.6
-2 -14 2 82.49 11.1
16 -14 -2 77.09 11.8
14 2 -2 84.29 9.9
14 -16 2 97.09 13
-16 2 2 92.09 10.7
-2 16 -2 87.49 9.8
-14 -2 -2 83.49 9.1
-14 16 -2 108.29 10
-2 -14 -2 111.69 12.7
16 -14 2 112.59 14.6
-2 -14 -2 131.49 15.3
-14 -2 2 117.69 10.4
14 -16 -2 127.69 13.6
14 -16 -2 124.09 14.7
-16 2 -2 126.19 11.4
-16 14 2 109.09 11
2 -16 2 134.69 14.9
2 -16 2 124.09 12.4
14 2 2 97.19 14.3
16 -2 -2 107.79 17.7
-15 16 2 20.5 6.3
16 -1 2 14.9 10.6
15 -16 2 15.5 9.7
-1 -15 2 9.4 9.4
15 -16 2 30.3 8.5
-15 -1 -2 14.4 6
15 1 -2 15.8 5.9
1 -16 -2 18 9.7
-16 1 2 14.6 6.3
1 15 2 23.1 6.1
-1 -15 2 18.2 7.5
-1 16 -2 17.8 5.5
1 -16 -2 24 7.4
16 -15 -2 13.6 9.7
-1 16 2 11.9 5.1
15 1 2 7.8 9.9
-16 15 2 16.5 6
-1 -15 -2 19.9 9.7
1 -16 2 21.4 7.4
-1 -15 -2 13.9 7.2
1 15 -2 0.4 4.6
-15 -1 2 21.3 6.1
-15 16 -2 20.7 5.9
16 -15 2 14.4 7.9
1 -16 2 13.1 9.3
15 -16 -2 22 8.2
15 -16 -2 12.3 9.4
16 -1 -2 2.5 9.9
16 -1 -2 -0.2 5
16 -15 2 10 9.9
-16 1 -2 13 6.1
0 -16 -2 13.3 9.5
16 0 -2 9.8 5.7
0 -16 -2 16.1 7.3
16 0 2 -0.5 10.1
-16 16 -2 9.4 5.6
-16 0 -2 13.2 6.3
-16 16 2 10.6 6.1
0 -16 2 4.1 9.8
16 -16 2 18 8.2
16 -16 -2 21.7 8
0 16 2 11.9 6
16 -16 2 -1.1 9.6
0 16 -2 0 5.2
16 -16 -2 2 9
-16 0 2 4.8 6.2
0 -16 2 16.3 7.3
-8 -9 2 165.28 15.2
-17 9 -2 135.79 10.3
8 -17 -2 159.18 11.7
9 8 2 184.98 13.2
17 -9 2 233.78 19
-17 8 -2 188.68 13
-9 17 -2 222.18 13.6
8 -17 2 211.38 17.2
9 -17 -2 180.08 14.4
-8 -9 -2 234.88 18
8 9 -2 205.48 14.1
9 -17 -2 238.28 17.5
17 -8 -2 229.38 19.4
17 -10 -2 65.89 12.8
10 -17 2 48 8.1
-7 17 -2 43.8 6.2
-10 -7 -2 45.8 10.3
7 -17 -2 56.29 10.2
7 10 2 66.99 7.7
10 -17 2 42.3 10
-7 -10 2 47.7 10.5
17 -7 2 57.89 12.1
-10 17 2 40.1 6
10 7 -2 48.2 7.2
10 -17 -2 91.99 13.4
7 -17 2 95.99 13.5
-17 7 -2 81.09 9.7
7 -17 2 46.3 10
17 -10 2 66.89 12.3
10 7 2 54.99 8.4
10 -17 -2 75.79 11.5
-7 -10 -2 93.59 13.2
7 10 -2 83.29 10.5
17 -7 -2 111.19 15.9
-10 -7 2 66.59 7.9
-7 -10 -2 83.39 10.6
-10 17 -2 78.39 9.3
17 -11 -2 368.26 24
11 6 -2 343.07 18.9
-6 17 -2 333.27 18.2
6 11 2 339.67 19.1
-11 17 2 341.67 18.4
-6 -11 2 354.96 22.6
11 -17 2 327.57 20.3
11 -17 2 344.07 22.4
6 -17 -2 343.77 21.9
11 -17 -2 387.96 23.2
-6 -11 -2 368.66 20.7
-6 -11 -2 399.76 23.1
6 -17 2 374.16 22.8
11 -17 -2 327.47 20.5
-17 6 -2 373.76 19.4
17 -11 2 377.86 24.7
-11 17 -2 360.66 19.2
6 11 -2 335.77 19.4
-11 -6 2 340.77 18.7
-5 -12 2 138.39 15.6
-5 17 -2 124.29 11.4
17 -12 -2 147.59 17.3
12 -17 2 118.89 15
12 -17 2 135.39 13.7
-5 -12 2 103.09 11.7
5 12 2 129.79 11.4
12 5 -2 124.99 11.7
-12 17 2 110.39 11.2
17 -5 2 136.89 16.5
-12 -5 2 88.59 9.9
-12 17 -2 104.79 10.2
-5 -12 -2 104.79 14.4
5 -17 2 111.29 14.1
12 -17 -2 89.69 12.3
-17 12 2 78.19 8.9
5 12 -2 66.79 9.9
-17 5 -2 109.09 10.8
5 -17 2 65.19 8
17 -5 -2 107.59 16.1
-5 -12 -2 98.79 11.4
12 -17 -2 90.69 13.7
13 -17 2 93.99 13.2
17 -13 -2 87.19 15.1
-4 -13 2 92.99 11.9
-4 -13 2 84.69 13.9
13 4 -2 82.39 10.3
17 -4 2 87.39 15.6
-17 4 2 76.99 10.2
4 13 2 85.89 11
13 -17 2 92.19 13
4 -17 -2 69.59 10.7
-4 17 -2 87.29 10.3
-13 17 2 87.39 10.1
-13 -4 2 105.09 10.3
-4 -13 -2 114.09 15
13 -17 -2 102.39 13
-17 4 -2 99.99 11.1
4 -17 2 106.69 11.7
13 -17 -2 112.19 14.5
4 -17 2 100.49 14.2
-13 17 -2 106.09 10.5
17 -4 -2 107.29 17.1
-4 -13 -2 95.69 12.3
4 13 -2 72.89 9.5
-17 13 2 100.49 10.2
3 -17 -2 63.59 11.3
17 -3 2 76.49 13.6
-14 17 2 75.39 10.6
-3 -14 2 86.49 9.6
14 3 -2 73.39 10.2
3 14 2 73.19 10.8
-3 -14 2 63.89 11.8
-3 17 -2 77.89 8
-17 3 2 76.89 10.2
-14 -3 -2 72.39 9.4
14 -17 2 71.09 9.9
14 -17 2 83.69 12.8
3 -17 2 93.89 11.9
-14 17 -2 89.99 10.2
3 -17 2 104.29 14.5
-3 -14 -2 87.59 12.2
14 -17 -2 99.59 13
14 -17 -2 93.99 14.4
17 -14 2 74.29 12.1
17 -3 -2 104.09 17.3
-14 -3 2 93.49 10.2
-3 -14 -2 104.19 15.1
-17 14 2 95.49 10.6
-17 3 -2 95.09 11.2
15 -17 2 23.4 10.2
-15 -2 -2 25 6.3
2 15 2 44 7.3
15 2 -2 30.3 7.1
-2 -15 2 30.3 10.7
-2 17 -2 39.9 6.9
2 -17 -2 22.7 10
17 -2 2 16.9 11
15 -17 2 41.7 9
-17 2 2 39.9 7.1
2 -17 -2 39.9 7.9
-15 17 2 39.4 7.1
-2 -15 2 34.1 8
-2 17 2 20.8 5.6
15 -17 -2 22.4 9.9
-15 -2 2 28.6 6.4
17 -15 2 25.4 8.4
15 -17 -2 39 8.4
-2 -15 -2 26.6 10.2
-17 2 -2 29 6.9
2 -17 2 28.1 7.5
17 -15 2 18.2 10.4
-17 15 2 23.6 6.2
15 2 2 -6.9 15.6
-15 17 -2 21.6 6.1
2 -17 2 18.3 9.6
-2 -15 -2 33.8 8.1
17 -2 -2 12.7 10.6
16 -17 2 59.39 9.4
17 -1 2 29.3 11.4
1 16 2 50.29 7.6
-17 1 2 55.09 7.6
17 -16 -2 45.2 8.2
-16 -1 -2 37.8 6.9
-1 -16 2 42.4 11.3
-1 17 -2 48.1 7
-17 16 -2 36.6 6.1
-16 17 2 53.49 7.5
16 -17 2 31.1 10.7
1 -17 -2 38.5 10.4
-1 -16 2 47.9 8.3
1 -17 -2 49.99 8.3
16 1 -2 37.6 7
-17 16 2 45.7 6.8
17 -16 2 36.3 11.1
1 16 -2 30.6 5.7
16 -17 -2 62.79 9.1
-1 -16 -2 38.3 10.6
-17 1 -2 49 7.3
16 -17 -2 28.3 10.1
-1 17 2 42.7 6.9
-16 17 -2 46.1 7
1 -17 2 49.7 8.3
1 -17 2 29.4 10.2
-16 -1 2 44.4 7.1
17 -1 -2 27.8 5.6
-1 -16 -2 57.19 8.6
17 -16 2 57.59 9.3
17 -17 2 -7 8.8
0 -17 -2 14.9 7.3
17 0 -2 5.4 6.1
-17 0 -2 4.4 6.1
-17 0 2 9.4 6.4
17 -17 -2 -6.5 9.3
0 -17 2 7.7 7.3
0 17 -2 6 5.7
-17 17 2 5.7 6
0 -17 2 -2.1 9.5
0 17 2 18.4 6.4
0 -17 -2 13.3 9.2
-17 17 -2 7.8 5.7
17 -17 -2 16.1 7.9
17 0 2 -4 13.1
17 -17 2 10.9 8.2
9 9 2 52.29 7.2
-9 18 -2 45.3 6.9
9 -18 -2 43 10.3
-9 18 2 37.1 6.1
9 -18 2 31.5 10.1
-18 9 -2 43.4 6.8
9 -18 -2 47.7 8.1
-9 -9 -2 41.2 10.5
-9 -9 -2 33.4 7
-9 -9 2 35.8 5.4
9 9 -2 45.4 7.3
18 -9 -2 50.79 12.4
18 -9 2 41.7 11.9
18 -10 -2 199.58 19.1
10 -18 2 193.48 17.8
10 -18 2 189.08 15
-10 -8 -2 161.18 15.9
8 -18 -2 207.48 17.5
8 -18 -2 177.08 14.1
8 10 2 200.38 13.8
10 8 -2 193.48 13.8
-10 18 2 185.68 12.9
18 -8 2 212.78 19.2
-8 18 -2 195.48 13.2
-18 10 -2 186.08 13.1
-8 -10 -2 200.08 14.8
-18 10 2 167.58 12
10 8 2 186.88 13.4
18 -10 2 207.78 19.3
18 -8 -2 213.38 20
-8 -10 -2 214.58 17.8
-10 18 -2 208.38 13.5
-18 8 -2 196.38 13.7
-10 -8 2 194.78 12.8
10 -18 -2 192.48 14.9
8 10 -2 209.18 14.2
11 -18 2 56.39 9.1
7 11 2 63.99 7.7
18 -11 -2 44.5 11.6
11 -18 2 33.7 11
-7 18 -2 52.99 7
-18 11 -2 43.7 6.2
-11 18 2 44.1 6.8
18 -7 2 37.2 11.4
7 -18 -2 39.2 9.3
-7 -11 2 38.4 10.3
11 7 -2 64.69 7.8
7 11 -2 67.59 8.1
-18 7 -2 65.09 7.6
11 7 2 48.6 7.3
-7 -11 -2 54.09 8.2
-18 11 2 50.19 6.4
11 -18 -2 57.29 8.8
-11 18 -2 50.19 6.9
-7 -11 -2 51.19 10.8
-11 -7 2 58.89 7
18 -7 -2 46.5 12.2
18 -11 2 43.7 12
11 -18 -2 53.59 11.1
6 12 2 48 7.5
-6 -12 2 35.8 10.8
-18 6 2 41.2 6.4
12 -18 2 48.2 11.3
-12 18 2 56.69 7.3
18 -6 2 29.7 11.1
-6 18 -2 53.69 7.3
-6 -12 2 38.8 8.1
12 -18 2 60.39 9.5
18 -12 -2 47.7 12.2
12 6 -2 53.59 7.7
18 -6 -2 46 12.1
-6 -12 -2 62.19 11.6
-18 12 2 68.49 7.2
6 -18 2 51.99 7.6
12 6 2 53.59 7.2
-18 6 -2 56.39 7.3
-6 -12 -2 55.99 8.7
6 -18 2 36 9.7
12 -18 -2 65.89 9.2
-12 18 -2 68.89 7.7
-12 -6 2 60.49 7
12 -18 -2 55.59 11.3
6 12 -2 55.39 7.8
-5 -13 2 18.2 7.7
18 -13 -2 9.9 10.2
13 -18 2 15.4 8.4
-5 -13 2 5.7 9.9
5 13 2 23.7 6.9
-13 -5 -2 6.4 4.6
-5 18 -2 20.3 6.3
-18 5 2 20.5 6.7
13 5 -2 17.5 6.2
13 -18 2 13.5 9.8
18 -5 2 17.8 11
-13 18 2 16.5 6.4
5 -18 2 28.3 9.8
13 5 2 24.7 5.7
-13 -5 2 40.6 6.5
-5 -13 -2 39.9 10.4
13 -18 -2 47.6 8.5
-18 5 -2 34 6.6
13 -18 -2 26.8 9.8
5 13 -2 37.2 7.3
-5 -13 -2 38.9 8.2
-13 18 -2 37.5 6.7
-18 13 2 34.2 6.1
18 -5 -2 44.2 12.6
5 -18 2 41.8 7.7
4 -18 -2 -5.1 9.7
14 -18 2 23.7 10.2
18 -4 2 23.9 10.9
-14 -4 -2 23.8 6
4 14 2 40.9 7.4
-18 4 2 41.9 7.3
18 -14 -2 0.8 9.5
-4 18 -2 41 6.8
4 -18 -2 12.9 6
14 4 -2 38.1 6.9
-4 -14 2 22.2 10.4
-4 -14 2 45.5 8.5
-14 18 2 44.4 7.1
14 -18 2 45.6 9.1
14 -18 -2 15.7 9.7
14 -18 -2 23.7 8.1
-4 -14 -2 30.1 7.5
-4 -14 -2 18 9.8
-18 4 -2 24.8 6.7
-14 18 -2 22.2 6.4
-14 -4 2 34.1 6.5
4 14 -2 24.9 6.9
-18 14 2 27.5 6.3
4 -18 2 26 7.6
4 -18 2 15.5 9.6
18 -4 -2 23.2 11.6
-18 3 2 43.4 7.2
15 3 -2 30.5 6.9
-15 18 2 42.7 7.1
-3 -15 2 39.1 8.2
3 15 2 43.1 7.2
-3 18 -2 36.1 6.7
3 -18 -2 33.9 7.6
15 -18 2 27.2 10.3
15 -18 2 45.9 9.1
18 -3 2 22.1 10.9
-15 -3 -2 44.3 6.8
-3 -15 2 30.9 10.9
18 -15 2 38.8 8.1
3 -18 2 34.2 10.9
-3 18 2 30.2 5.5
-15 -3 2 41.6 6.7
-3 -15 -2 33.4 10.5
-3 -15 -2 38.9 8.1
-18 15 2 30.2 6.4
-18 3 -2 36.1 6.8
-15 18 -2 29.9 6.6
15 -18 -2 25.3 9.7
3 15 -2 36.7 6.6
15 -18 -2 48.3 8.5
3 -18 2 36.3 7.8
18 -3 -2 11.1 10.3
16 2 -2 41.7 7.3
-2 18 -2 49.1 7.2
2 -18 -2 50.79 8.2
16 -18 2 35.3 11
16 -18 2 53.69 9.4
-16 -2 -2 49.99 7.1
-2 -16 2 55.19 8.6
2 16 2 48.5 7.4
-18 2 2 47.6 7.4
-16 18 2 57.69 7.6
-18 16 -2 35.4 6
-2 -16 2 25.3 10.5
-2 -16 -2 41.8 8
-16 -2 2 55.09 7.5
-18 16 2 44.4 6.7
-2 18 2 39.5 6.8
2 -18 2 61.79 8.6
16 -18 -2 58.29 9
18 -16 2 56.59 9.2
-2 -16 -2 43.7 10.5
2 -18 2 31 10.4
16 -18 -2 28.3 9.8
-16 18 -2 45 6.9
-18 2 -2 39.7 6.9
1 -18 -2 -0.4 8.8
17 -18 2 -3.9 8.9
1 -18 -2 30.9 7.4
-1 18 -2 11 6
-18 17 -2 14.2 5.6
-18 1 2 11.1 6.4
-1 -17 2 1.7 9.7
-17 -1 -2 12.9 6.2
-17 18 2 17.4 6.5
17 1 -2 13 6.5
1 17 2 19 6.5
18 -17 -2 25.7 7.8
17 -18 2 19.1 8
-1 -17 2 15.5 7.5
-1 -17 -2 12.2 9
-17 18 -2 21.9 6
-18 17 2 19 6.1
17 -18 -2 31.6 8.1
1 -18 2 -2.5 8.9
18 -1 -2 14.8 5.6
-17 -1 2 26.6 6.7
18 -17 2 26 8.3
-18 1 -2 23.8 6.5
-1 -17 -2 21 7.6
1 -18 2 31.1 7.6
-1 18 2 26.1 6.4
1 17 -2 16.7 5.4
0 -18 -2 30.4 7.3
0 18 -2 28.4 6
18 0 -2 23.5 6.5
0 -18 2 39.8 7.9
-18 0 -2 33.5 6.6
-18 0 2 23.3 6.4
-18 18 -2 33.8 6.3
-18 18 2 31.9 6.5
18 -18 -2 41.7 8.1
0 18 2 26.9 6.4
18 -18 2 30.6 8.1
-9 19 -2 35.2 6.5
-10 19 2 36.2 6.6
-10 -9 -2 26.2 7
-19 10 -2 44.4 7.2
19 -10 -2 31.2 11.3
-19 9 2 22.5 5
19 -9 2 26.8 11.8
-9 -10 2 36 6.1
9 10 2 37.4 6.8
10 -19 2 10.8 9.2
9 -19 -2 30.2 9.6
9 -19 -2 36.8 7.9
10 -19 2 29.3 8.4
10 9 -2 37.3 7.2
10 -19 -2 26 7.6
9 10 -2 32.8 7
-10 -9 2 23.8 5.8
9 -19 2 8.8 6.7
19 -9 -2 22.4 11.3
-9 -10 -2 19.7 9.2
19 -10 2 28.3 11.8
10 9 2 34.6 6.8
-19 9 -2 33.7 6.7
-9 -10 -2 25.9 7.7
-9 19 2 27.8 6.4
10 -19 -2 34 10.2
-19 10 2 33 5.7
-10 19 -2 41.4 6.7
8 -19 -2 38.9 8.2
11 -19 2 32.4 10.5
-19 11 -2 45.1 7
8 11 2 45.8 7
19 -11 -2 24.8 10.9
-8 -11 2 27.2 4.9
11 -19 2 50.19 8.9
19 -8 2 37.6 11.6
-11 19 2 51.19 6.9
19 -8 -2 41.2 12
-8 -11 -2 57.09 8.7
-19 8 -2 59.29 7.4
11 -19 -2 59.59 8.7
-8 -11 -2 42.9 10.5
-11 19 -2 61.19 7.2
11 8 2 56.79 7.5
8 11 -2 55.79 7.8
-19 11 2 56.99 6.9
11 -19 -2 33.4 10.3
-11 -8 2 51.39 6.7
-8 19 2 44.7 6.5
12 -19 2 59.09 9.4
12 -19 2 42.7 11.5
-19 12 -2 44.9 6.6
-12 19 2 53.49 7.3
19 -12 -2 39.9 11.9
-7 -12 2 59.69 8.9
7 12 2 48.1 7.4
12 7 -2 50.39 7.3
-19 7 2 41.3 6.2
19 -7 2 36.8 12.1
-7 19 -2 61.59 7.3
-7 -12 -2 36.7 10.5
7 12 -2 40.2 7.4
-12 -7 2 48.8 6.8
12 -19 -2 34.2 10.4
-19 12 2 34.9 6.3
-12 19 -2 44.1 7
-7 -12 -2 37.7 8
12 7 2 32.4 6.9
12 -19 -2 45.9 8.2
-19 7 -2 41.6 6.9
7 -19 2 22.3 6.4
19 -7 -2 16.5 10.9
-6 -13 2 -1.3 7.5
13 -19 2 -3.5 9.9
-6 -13 2 -15.3 8.9
13 6 -2 2.9 5.8
-19 13 -2 -1.9 4.6
19 -13 -2 -0.2 9.2
-19 6 2 0.8 6.4
-13 -6 -2 -2.5 4.4
13 -19 2 -1.5 7.7
-6 19 -2 -5.3 5.6
-13 19 2 -2.2 5.7
19 -6 2 2.8 10.5
6 13 2 5.4 6.2
-19 6 -2 0.7 5.8
-13 -6 2 13.6 5.8
13 -19 -2 0.1 9.2
13 -19 -2 13 7.6
-6 19 2 -1.3 6.3
19 -6 -2 7.8 10.7
6 -19 2 10.5 6.9
6 13 -2 11.3 6.4
13 6 2 -4.1 6
-13 19 -2 5.9 6
-6 -13 -2 11.1 9.9
-19 13 2 10.3 5.7
-6 -13 -2 5.3 7.2
6 -19 2 -7.2 9.4
-14 19 2 16.2 6.2
14 -19 2 12.3 8
-5 19 -2 7.8 5.9
-19 5 2 2 6.4
14 5 -2 7.5 5.9
-14 -5 -2 11.4 5.6
19 -5 2 -0.4 10.7
5 14 2 18.8 6.7
14 -19 2 -2.1 9.6
-5 -14 2 -8.1 8.7
-5 -14 2 5.3 7.6
5 -19 2 19.6 7.4
-19 14 2 22.9 6
-5 -14 -2 14.7 9.8
-5 -14 -2 16.4 7.4
-14 19 -2 10.9 6.2
5 14 -2 18.4 6.8
14 5 2 10 5.7
-14 -5 2 14.2 6
14 -19 -2 11.7 9.7
5 -19 2 -9.6 8.3
19 -5 -2 6.3 10.2
-19 5 -2 8.7 6.1
14 -19 -2 19.3 7.8
-4 -15 2 10 7.5
4 15 2 16 6.5
4 -19 -2 10.1 6.8
19 -4 2 0.7 10.2
15 -19 2 4.8 10
-15 -4 -2 15 5.8
-4 19 -2 8.7 5.9
-15 19 2 11.1 6
-4 -15 2 -5.2 8.7
-19 4 2 9.4 6.5
15 4 -2 11.3 6.2
15 -19 2 9.7 8
-4 -15 -2 21.3 7.7
-4 -15 -2 14.1 9.6
-19 4 -2 18.3 6.4
-15 -4 2 17.4 6
15 -19 -2 16.7 9.6
-15 19 -2 19.5 6.2
4 15 -2 21.4 6.7
15 -19 -2 18.5 7.8
4 -19 2 18.4 7.3
19 -4 -2 -2.3 10.1
-19 15 2 19 5.9
16 -19 2 98.29 12.8
-3 19 -2 77.79 10.3
-19 3 2 102.39 11.1
-3 -16 2 81.19 12
-16 19 2 85.79 10.8
16 3 -2 79.69 10.4
-16 -3 -2 82.19 10.1
3 16 2 79.19 11.2
3 -19 -2 100.29 11.8
3 16 -2 100.69 10.7
19 -16 2 103.79 13
3 -19 2 96.59 11.8
-3 19 2 81.19 9.6
-19 16 2 98.89 10.3
-16 -3 2 90.49 10.4
16 -19 -2 108.19 12.5
-16 19 -2 96.79 10.2
-3 -16 -2 114.39 12.8
-19 3 -2 100.69 10.6
-17 -2 -2 5.9 5.7
-19 17 -2 10.1 5.1
-2 19 -2 7.4 5.7
2 17 2 11.2 6.2
-2 -17 2 -7.5 8.8
-17 19 2 9.4 6
17 -19 2 -4.9 11.6
2 -19 -2 16.3 6.8
17 -19 2 14.7 7.9
-2 -17 2 10.2 7.2
-19 2 2 10.2 6.3
19 -17 -2 -0.7 6
17 2 -2 5.2 6.3
-17 19 -2 17.8 5.9
-2 -17 -2 16.6 7.3
-17 -2 2 24.5 6.5
19 -17 2 24 8.1
17 -19 -2 21.7 7.7
2 -19 2 16.7 7.1
-2 19 2 22.7 6.3
-19 2 -2 5.9 5.8
-19 17 2 10.7 5.8
-2 -17 -2 -1.9 8.2
19 -18 -2 16.1 7.3
-1 19 -2 14 5.4
1 -19 -2 19.2 7.1
-18 19 2 12.6 5.8
-19 18 -2 11.9 5.4
1 18 2 14.2 5.8
-1 -18 2 5.7 6.9
18 -19 2 15.7 7.5
-18 -1 -2 11.6 5.9
18 1 -2 6.5 5.8
-19 1 2 5.2 6.1
-18 19 -2 3.7 5.4
-18 -1 2 2.2 5.7
-19 18 2 5.2 5.7
1 18 -2 -1.4 4.2
19 -18 2 6.5 7.6
-1 19 2 6.6 5.8
19 -1 -2 2.3 4.1
18 -19 -2 9 7.1
-1 -18 -2 10.3 6.8
-19 1 -2 6.7 5.6
1 -19 2 10.6 6.9
-19 0 -2 4.1 5.4
0 -19 -2 11.8 6.5
0 19 -2 3 4.3
0 19 2 4.1 5.6
19 0 -2 5.1 4.6
0 -19 2 7.9 6.7
-19 0 2 4.9 5.6
-19 19 2 5.6 5.4
-19 19 -2 8.7 5.2
19 -19 2 2 7.3
19 -19 -2 16.8 7.2
10 10 -2 141.29 12.1
-10 20 2 147.29 11.6
-10 20 -2 139.39 11.5
-20 10 -2 151.48 12.4
10 10 2 141.19 12.2
10 -20 -2 139.89 13.4
-10 -10 -2 132.29 13
-20 10 2 132.99 10.7
10 -20 2 129.29 13.4
-10 -10 2 153.98 11.3
20 -10 -2 119.09 17.3
11 -20 2 100.79 13.2
11 9 -2 117.49 11
9 -20 -2 101.99 12.7
20 -11 -2 87.39 15.7
-20 11 -2 120.09 11.5
-9 20 -2 115.09 11.1
9 11 2 118.09 11.3
-11 -9 -2 92.49 11.6
-11 20 2 116.49 10.8
-9 -11 2 112.69 9.9
9 11 -2 91.19 10.7
-20 11 2 99.19 10.3
-11 20 -2 90.99 10.4
-20 9 -2 90.99 10.8
11 -20 -2 85.99 12.2
11 9 2 87.69 10.8
-11 -9 2 102.09 10.3
-9 -11 -2 87.99 12.4
20 -9 -2 56.79 12.6
-9 20 2 86.79 9.9
20 -12 -2 17.4 9.7
-8 20 -2 75.99 9.9
-8 -12 2 39.4 5.2
-20 8 2 43.6 5.8
8 -20 -2 75.19 11.5
20 -8 2 31.2 11.1
8 12 -2 132.69 11.9
-20 8 -2 110.69 11.5
-12 -8 2 128.99 10.7
12 8 2 108.89 11.4
-12 20 -2 113.29 11.1
-8 20 2 106.19 10.1
12 -20 -2 105.99 12.6
-20 12 2 128.39 10.7
-8 -12 -2 109.59 13.4
-13 20 2 74.99 9.7
-20 7 2 67.29 7.7
13 7 -2 75.19 10.1
-20 13 -2 53.99 6.7
13 -20 2 81.29 9.8
-7 -13 2 84.09 9.5
7 13 2 67.69 7.8
-7 20 -2 76.49 10.1
-13 20 -2 86.29 8.3
13 -20 -2 86.49 9.8
-7 -13 -2 66.69 8.7
13 7 2 58.99 7.8
7 13 -2 75.59 10.6
7 -20 2 69.59 10.7
-13 -7 2 81.59 9.9
-20 13 2 68.49 9.6
-20 7 -2 63.59 7.9
6 14 2 10.6 6.3
-20 14 -2 0 4.6
14 -20 2 7.7 7.9
14 -20 2 -13.1 8.4
14 6 -2 1.4 5.6
20 -6 2 -7.1 9.7
-20 6 2 5.4 6.3
-6 -14 2 7.2 7.6
-14 20 2 5.7 6
-6 20 -2 6.5 5.7
-14 -6 -2 8.6 5.1
-14 -6 2 0.8 5.4
-20 14 2 4.6 5.4
14 -20 -2 -2.3 8.4
-14 20 -2 -1.6 5.8
6 14 -2 9.7 6.4
14 -20 -2 1.8 7.1
6 -20 2 12.4 7.1
14 6 2 -3.5 5.6
-6 -14 -2 4.7 7.3
-20 6 -2 -1.9 6
-6 -14 -2 0.1 8.1
20 -6 -2 -1.5 9.7
15 -20 2 95.29 13.1
5 15 2 108.59 10.9
-20 5 2 102.99 11.4
-5 20 -2 94.09 10.3
-15 20 2 106.89 10.7
15 5 -2 98.09 10.7
-5 -15 2 104.59 12.6
-15 -5 -2 98.49 10
15 5 2 121.79 10.3
-20 5 -2 126.99 11.6
5 -20 2 138.09 12.4
-5 -15 -2 128.49 12.8
-20 15 2 139.59 10.8
-15 -5 2 130.39 10.8
15 -20 -2 140.69 13.5
-15 20 -2 123.79 11.3
5 15 -2 148.89 12.1
-20 4 2 0.8 6.1
-4 20 -2 10.9 5.6
-16 20 2 12.6 6.1
16 -20 2 9.1 7.6
16 4 -2 3.5 5.7
-4 -16 2 3.2 7.3
4 -20 -2 14.1 6.6
-16 -4 -2 10 5.5
4 16 2 14.8 6.1
-20 16 2 1.5 5.4
-4 20 2 -4 4.9
16 -20 -2 12.9 7.3
20 -16 2 -13.9 5.8
-20 4 -2 -0.1 5.7
16 4 2 -2.7 4.1
4 16 -2 8.6 6
-16 20 -2 2.1 5.8
-4 -16 -2 8.6 7.1
-16 -4 2 5.2 5.6
4 -20 2 6.7 6.6
-20 3 2 34.5 6.6
-3 20 -2 27.2 6
-17 -3 -2 30.4 6.3
3 17 2 25.7 6.2
-3 -17 2 39.4 8.1
3 -20 -2 36.2 7.4
-17 20 2 43.9 6.7
17 -20 2 36.9 8.1
17 3 -2 26 6.5
-20 3 -2 64.89 7.5
-20 17 2 70.29 9
-17 -3 2 68.49 7.4
3 -20 2 70.39 10.8
-17 20 -2 72.19 9.5
17 -20 -2 80.19 11.6
20 -17 2 60.29 8.8
-3 -17 -2 74.29 11.2
3 17 -2 53.49 6.7
-20 2 2 12.3 6
20 -18 -2 -6.7 5.3
-2 -18 2 6.7 6.8
-2 20 -2 3.4 5
2 -20 -2 26 7
-20 18 -2 5.5 4.5
-18 -2 -2 16.6 5.6
-18 20 2 6.8 5.4
2 18 2 11.2 5.5
18 -20 2 12.9 7.2
18 2 -2 3.2 5.7
18 -20 -2 13.3 7.2
-2 20 2 12.2 5.2
-20 2 -2 4.2 5.6
2 -20 2 8.5 6.6
-2 -18 -2 12.2 6.7
-18 20 -2 9.3 5.4
-18 -2 2 8.5 5.5
20 -18 2 8.1 7.4
-20 18 2 13.8 5.5
19 -20 2 11.5 7
-20 19 -2 7.1 4.7
-19 -1 -2 6.2 5.2
-1 20 -2 2 4
20 -19 -2 7.6 6.3
-20 1 2 8.3 5.4
-19 20 2 8.8 5.2
-1 -19 2 6.4 6.5
19 1 -2 3.3 4.6
1 -20 -2 5.1 6
1 19 2 6.9 5.2
1 -20 2 5.1 6.3
19 -20 -2 8.2 6.6
-1 20 2 7.3 4.9
-20 19 2 7.3 5.3
-20 1 -2 6.4 5.3
20 -19 2 7.2 7
-1 -19 -2 8.6 6.3
-19 -1 2 7.2 5.4
-19 20 -2 10 5.2
20 -20 2 21.1 6.9
-20 20 -2 18 4.9
20 -20 -2 31.5 6.8
0 -20 -2 29.6 6.3
0 -20 2 23.2 6.6
-20 0 2 18.9 5.3
-20 20 2 24.6 5.2
-20 0 -2 18.5 5.2
0 20 2 19.1 5.1
-21 10 2 5.9 4.4
-11 21 2 11.1 5.6
-10 -11 2 20 5.4
10 11 2 16.2 6.5
-11 -10 -2 12.2 6.9
10 -21 -2 11.9 7.4
-10 21 -2 12.5 5.8
11 10 -2 14.9 6.1
-21 11 -2 19.2 6.5
11 -21 2 14 7.5
-21 10 -2 25.4 6.4
21 -10 -2 -0.4 12.3
-10 -11 -2 18.2 7.7
-21 11 2 23.7 5.6
-11 -10 2 28.4 6
-11 21 -2 23.1 6.1
11 -21 -2 16.2 7.4
-10 21 2 17.2 5.9
10 11 -2 31.9 6.5
10 -21 2 16.4 6.8
11 10 2 26.1 6.7
12 -21 2 46.1 8.2
-9 -12 2 26.9 4.9
-12 21 2 46.7 6.8
-21 12 -2 46.8 6.9
9 -21 -2 53.79 8.5
9 12 2 48.8 7.2
-21 12 2 36.9 6.3
9 12 -2 44.1 6.9
21 -9 -2 0.3 14.2
12 -21 -2 36.1 8.1
-21 9 -2 35.2 6.9
-9 -12 -2 34.1 7.5
-9 21 2 36.3 6.3
12 9 2 44.4 7
-12 -9 2 34.1 6.1
-12 21 -2 35.7 6.2
-8 -13 2 53.79 8.6
13 8 -2 40.5 6.6
13 -21 2 59.19 8.9
8 13 2 56.19 7.5
8 -21 -2 38.2 7.2
-8 21 -2 46.9 6.6
-13 21 2 59.59 7.2
-21 13 -2 43 6.3
-21 8 2 47.5 6.1
8 13 -2 37.7 6.8
13 -21 -2 26.3 7.7
-21 8 -2 25.3 6.5
-21 13 2 30.4 6
-8 -13 -2 16.3 7.3
-13 -8 2 32.4 6
-8 21 2 21.8 5.4
-13 21 -2 24.4 5.9
13 8 2 30.2 6.6
-14 21 2 26.1 6.3
7 14 2 20.8 6.3
-7 -14 2 25 7.3
14 7 -2 20.6 5.8
14 -21 2 26.7 8
-21 7 2 27.3 6.5
-7 21 -2 29.4 6.2
7 -21 2 14.4 6.6
-14 -7 2 16.4 5.7
14 -21 -2 13.6 7.3
-21 7 -2 20.7 6.3
-21 14 2 19.7 5.6
7 14 -2 20.8 6.4
-14 21 -2 17.1 6
14 7 2 10.2 5.7
-7 -14 -2 17.7 7.2
-21 6 2 22.2 6.2
-15 21 2 28.1 6.2
-15 -6 -2 26.3 5.4
-6 21 -2 19 5.7
15 -21 2 28.4 8
6 15 2 28.7 6.2
15 6 -2 17.7 5.9
-6 -15 2 26.3 7.6
-21 6 -2 14.2 6.2
-15 21 -2 25.4 6
15 -21 -2 17.8 7
-6 -15 -2 18.7 7.3
-15 -6 2 22.4 6
6 -21 2 29.9 7.2
6 15 -2 22.8 6.2
-21 15 2 19 5.6
15 6 2 15.6 5.4
5 16 2 50.79 6.8
16 -21 2 52.99 8.4
-16 21 2 47 6.7
16 5 -2 46.3 6.7
-21 5 2 33.9 6.5
-5 21 -2 42.7 6.3
-5 -16 2 45.6 8
-16 -5 -2 49.7 6.4
5 -21 2 48.3 7.7
16 -21 -2 40.7 7.8
-16 -5 2 40.8 6.6
-16 21 -2 59.09 7.2
5 16 -2 48.2 6.7
-21 5 -2 58.39 7.1
-21 16 2 50.29 6.5
-5 -16 -2 47.9 8
-17 21 2 56.59 6.7
-4 -17 2 66.69 8.5
-4 21 -2 41.4 6.1
17 -21 2 58.99 8.3
-21 4 2 54.99 7.4
-17 -4 -2 41.3 6.1
4 -21 -2 50.09 7.2
4 17 2 49.3 6.6
17 4 -2 48.5 6.7
-21 17 2 56.89 6.7
4 17 -2 61.09 8.9
-17 -4 2 67.99 8.8
-4 -17 -2 63.89 8.1
4 -21 2 66.09 9.8
-17 21 -2 51.79 6.6
-21 4 -2 69.19 7.3
17 -21 -2 69.79 10.7
-18 -3 -2 50.19 6.3
18 3 -2 35.2 6.2
-18 21 2 51.89 6.5
-3 21 -2 29.6 5.4
3 -21 -2 43.1 6.8
18 -21 2 50.29 8
-21 3 2 32.2 6.1
-3 -18 2 51.89 7.7
3 18 2 41.4 6.1
-21 3 -2 37.7 6.2
-21 18 2 36.6 5.9
-18 -3 2 37.9 5.9
-18 21 -2 36.2 6
21 -18 2 28.2 6.7
18 -21 -2 47.7 7.8
3 -21 2 32.5 6.9
-3 -18 -2 42.4 7.1
-21 2 2 64.69 8.5
19 2 -2 64.59 7.5
2 -21 -2 89.09 9.5
-19 21 2 78.59 8.1
2 19 2 70.29 8.3
-2 -19 2 72.69 9.7
-19 -2 -2 73.79 8.2
19 -21 2 78.79 10
-21 19 2 74.09 8.6
-2 -19 -2 89.99 10.1
19 -21 -2 101.19 11
21 -19 2 84.39 10.1
2 -21 2 83.39 9.8
-19 21 -2 74.49 8.5
-21 2 -2 86.59 8.9
-19 -2 2 80.19 8.6
1 -21 -2 11.3 5.7
20 -21 2 5.4 6
-21 1 2 3.4 4.8
1 20 2 6.3 4.6
-20 21 2 8.4 4.7
-20 -1 -2 6.9 4.6
-21 20 -2 -3.8 4.9
-1 -20 2 12.6 5.8
21 -20 2 4.9 6.1
-21 1 -2 8.5 4.7
1 -21 2 6.7 5.8
-20 21 -2 8.5 4.6
-21 20 2 10.5 4.6
-1 -20 -2 15.1 5.9
-20 -1 2 6.8 4.8
20 -21 -2 14.3 6.2
21 -21 2 44.9 6.8
0 -21 -2 38.3 6.2
-21 0 -2 54.39 5.8
-21 21 2 49.6 6.9
0 -21 2 52.09 6.6
-21 0 2 45.3 5.6
11 11 2 92.19 10
11 -22 2 73.09 10.2
11 -22 -2 78.09 11.5
-11 22 2 88.09 9.3
-22 11 -2 87.59 10
11 11 -2 84.49 9.6
-11 -11 -2 86.09 10.5
-11 -11 2 96.89 8.7
-11 22 -2 80.29 9.5
12 -22 2 1.8 6.7
12 10 -2 1.6 5.2
-12 22 2 2 5.3
10 12 2 -1.2 5.7
10 -22 -2 3.9 7.1
-10 22 -2 3.5 5.4
-22 12 -2 1.7 5.5
-10 -12 2 -3.1 3.8
-12 -10 -2 -2 5.6
-22 12 2 0.9 4.5
-12 22 -2 2.8 5.4
-10 -12 -2 -4.1 6.7
-10 22 2 -0.4 5.1
-22 10 -2 -0.6 5.7
12 10 2 -1.5 5.6
12 -22 -2 -0.7 6.7
10 -22 2 -5.8 5
10 12 -2 4.6 5.5
-12 -10 2 3.1 4.8
9 -22 -2 22.4 6.6
9 13 2 28.8 6.4
-9 22 -2 25.4 5.9
-22 13 -2 18.4 5.1
13 -22 2 24.6 7.3
13 9 -2 33.9 6.2
-13 22 2 29 6.1
-9 -13 -2 15.3 7.1
-9 22 2 7.8 4.7
-22 9 -2 17.3 6
9 13 -2 15.3 5.7
13 -22 -2 14.2 7
13 9 2 12.6 5.7
-13 -9 2 17.4 5.3
-13 22 -2 13.4 5.4
-22 13 2 17.9 5
-22 8 2 20.3 4.9
-8 22 -2 27.8 5.6
14 -22 2 25.8 7.2
8 14 2 40.8 6.4
14 8 -2 36.9 6.4
-14 22 2 27.5 5.8
-8 -14 2 27.2 6.9
-22 14 2 28.1 5.6
8 14 -2 38 6.2
14 -22 -2 29.2 7.1
-8 -14 -2 33.9 7.4
-14 22 -2 32.4 5.9
-14 -8 2 27.4 5.6
14 8 2 24.9 6
-22 8 -2 26.4 6.2
-15 -7 -2 -4.6 4.1
-7 22 -2 0.7 5
-7 -15 2 6.1 6.6
-15 22 2 1.2 5.4
-22 7 2 -1.2 5.2
15 -22 2 -2.5 6.4
7 15 2 2.9 5.4
15 7 -2 2.2 5.3
7 15 -2 6.4 5.4
15 7 2 3.3 5
-7 -15 -2 2.7 6.3
7 -22 2 -2.8 5.5
-22 15 2 6.9 5
-15 -7 2 9 5.3
-22 7 -2 2.9 5.7
15 -22 -2 9.2 6.5
-15 22 -2 2.5 5
-22 6 2 6.5 5.6
-6 22 -2 8.4 4.8
16 6 -2 1.7 5.1
16 -22 2 7.3 6.7
-16 -6 -2 -1.9 4.1
6 16 2 5.5 5.3
-16 22 2 11.4 5.3
-6 -16 2 7.2 6.7
16 6 2 1.7 3.9
-22 16 2 7.9 5.1
-6 -16 -2 11.3 6.2
6 16 -2 15.2 5.3
6 -22 2 11.4 6.1
-22 6 -2 10 5.5
-16 22 -2 17.9 5.1
16 -22 -2 12.4 6.5
-16 -6 2 16.4 5.3
-5 -17 2 7.3 6.3
-17 -5 -2 8.2 4.6
17 -22 2 12 6.4
-5 22 -2 7.7 4.6
-22 5 2 5.2 5.2
-17 22 2 10 5
5 17 2 9.7 5.2
17 5 -2 9.2 5.3
17 -22 -2 9.1 6.5
5 17 -2 9.2 4.8
-17 22 -2 7.2 5
-5 -17 -2 10.8 6.2
-22 17 2 8.9 5
-17 -5 2 5.5 4.8
-22 5 -2 5.5 5.2
5 -22 2 9.8 6
-18 -4 -2 6.4 4.7
18 4 -2 0.4 4.9
-4 -18 2 7.4 6.1
-22 4 2 0.8 4.9
-4 22 -2 7.3 3.9
18 -22 2 5.7 6.2
4 18 2 2.8 4.9
4 -22 -2 -2.9 4.7
-18 22 2 6.2 4.7
-18 22 -2 9.5 4.8
-22 18 2 8.2 5.3
-18 -4 2 11.9 4.9
18 -22 -2 13.6 6.3
-4 -18 -2 10.5 5.9
-22 4 -2 10.7 5.2
4 -22 2 10.6 6.1
4 18 -2 -3.6 4.3
19 -22 2 57.39 9
3 -22 -2 42.3 5.5
-19 22 2 57.29 7.3
-22 3 2 55.79 7.2
-19 -3 -2 63.39 7.7
-3 -19 2 60.79 8.7
3 19 2 52.49 7.6
19 -22 -2 67.29 9.5
3 -22 2 56.09 7
-19 -3 2 59.29 7.4
-3 -19 -2 56.39 8.8
-19 22 -2 57.69 7.5
-22 19 2 53.29 7.3
-22 3 -2 54.79 6.2
-20 22 2 6.2 4.5
-2 -20 2 8.6 5.8
2 -22 -2 6.5 4.6
-22 2 2 4.9 4.3
2 20 2 1.9 3.6
-20 -2 -2 6.4 4.4
20 -22 2 7.2 5.9
2 -22 2 3.3 5.4
-20 22 -2 3.7 3.6
-2 -20 -2 6.5 5.4
20 -22 -2 1.8 5.4
-22 2 -2 1.2 4.5
-22 20 2 4.2 4.3
-20 -2 2 2.4 4.7
-21 -1 -2 71.39 6.9
-22 1 2 68.39 7.1
21 -22 2 56.89 7.6
-21 22 2 65.19 7
-1 -21 2 66.39 7.9
-22 21 2 70.19 7
-1 -21 -2 76.89 8.7
1 -22 2 64.39 8.8
-22 1 -2 64.99 7.3
-21 -1 2 64.99 6.9
12 11 -2 25.8 5.4
12 -23 2 9.4 5.7
-11 23 -2 19.3 5.2
11 -23 -2 22.2 6.8
-12 23 2 20.1 5
-23 12 -2 13.2 5
11 12 2 20.4 5.8
-11 23 2 31.5 5.4
-23 11 -2 31.6 5.8
12 11 2 32.9 5.7
12 -23 -2 37.4 7.5
11 12 -2 31.3 5.4
-12 23 -2 33.5 5.6
-11 -12 -2 21.5 5.6
-12 -11 2 27.3 4.6
10 -23 -2 43.9 6.4
-10 23 -2 68.89 8.3
-13 23 2 61.09 8.1
13 -23 2 61.99 9.5
13 10 -2 60.49 8.5
10 13 2 66.59 8.7
13 -23 -2 39.2 7.3
-13 23 -2 47.4 6.1
-13 -10 2 38.2 5.5
-23 10 -2 47.3 6.3
13 10 2 40.7 6.2
10 13 -2 52.99 6.1
-10 -13 -2 45.2 7.3
-9 23 -2 40.4 5.6
-14 23 2 39.1 5.6
14 9 -2 34.7 5.8
9 14 2 38.5 6.2
14 -23 2 38.2 6.7
-23 14 2 11.3 3.9
-23 9 -2 16.5 5.4
14 -23 -2 25.1 6.5
-9 -14 -2 22 6.4
-14 -9 2 21.6 5
14 9 2 19.6 5.1
9 14 -2 28.3 5.3
-14 23 -2 23.3 5.3
15 8 -2 9.1 4.7
-8 -15 2 6.1 4.6
15 -23 2 10.2 6
-15 23 2 8 4.8
-8 23 -2 12.9 4.6
8 15 2 4.7 5.3
-15 23 -2 3.9 4.6
-15 -8 2 2.1 4.7
15 8 2 0.5 4.5
-23 8 -2 5.2 5
8 15 -2 7.3 4.8
-23 15 2 0.1 3.9
15 -23 -2 3.1 6
-8 -15 -2 5.3 6
16 7 -2 22.4 5.3
-7 -16 2 31.8 6.4
16 -23 2 31.8 6.5
-16 23 2 39.4 5.4
-23 7 2 17.8 4.1
-7 23 -2 28.6 5
7 16 2 41.4 5.9
-16 23 -2 27.3 5.2
16 -23 -2 23.2 6.3
-23 7 -2 29.6 5.6
7 16 -2 31.4 5.2
-7 -16 -2 23.5 6.3
-16 -7 2 30.8 5
-23 16 2 18.5 4.8
-6 23 -2 2.8 4.1
17 -23 2 3.4 5.9
-17 23 2 0.7 4.4
-23 6 2 0.2 4
-6 -17 2 1.5 5.4
17 6 -2 1.1 4.6
6 17 2 4.3 4.9
-23 6 -2 1.3 4.9
-23 17 2 7.8 4.4
-17 23 -2 8.1 4.7
-6 -17 -2 8 6
17 -23 -2 12.7 6
6 17 -2 9 4.1
-17 -6 2 8.7 4.7
-23 5 2 56.69 6.4
5 18 2 60.39 7.5
18 -23 2 45.4 6.7
-5 -18 2 55.19 8.1
-18 23 2 61.59 7.1
18 5 -2 46.3 6.8
-23 5 -2 63.09 7.9
-18 23 -2 64.29 7.8
-23 18 2 63.39 7.3
-18 -5 2 60.29 7.4
5 -23 2 45.7 7.2
-5 -18 -2 68.89 9
18 -23 -2 65.59 9.3
-19 23 2 8.1 4.4
-23 4 2 -0.7 4
4 19 2 5 4.6
-4 -19 2 5.7 5.2
19 -23 2 5.2 5.7
-19 -4 -2 -2.3 4.7
-4 -19 -2 7.3 5.5
-23 4 -2 1.3 4.7
-19 -4 2 7.1 4.4
-19 23 -2 2.6 4.1
4 -23 2 -0.7 4.8
-23 19 2 0.2 4
19 -23 -2 8.6 6.1
-12 24 -2 21.5 4.7
12 12 -2 17.3 4.8
12 12 2 14.6 4.8
12 -24 -2 13.7 5.4
-12 24 2 4.7 3.4
11 13 2 33.1 5.3
-11 24 -2 43.6 5.4
-13 24 2 32.6 4.9
13 11 -2 38.3 5.5
13 11 2 16.7 4.6
13 -24 -2 20.6 5.9
-24 11 -2 21.1 4.3
11 13 -2 24.7 4.9
-13 24 -2 23.1 4.8
-14 24 2 8.8 4.4
-10 24 -2 6.8 4.4
10 14 2 8.1 4.7
14 -24 2 2.4 5
14 10 -2 7.3 4.7
-24 10 -2 5.8 4.5
14 -24 -2 4 5.7
-10 -14 -2 2 4.5
10 14 -2 5.9 4.4
14 10 2 1.3 4.1
-14 24 -2 4.8 4.4
-14 -10 2 -5.7 3.1
9 15 2 11.1 5
-9 24 -2 9.3 4.2
-15 24 2 9.9 4.3
15 9 -2 13.5 4.9
15 -24 2 8.6 5.4
-15 24 -2 5.1 4.6
15 -24 -2 1.6 5.8
15 9 2 3.7 3.4
-24 9 -2 5.5 4.6
-15 -9 2 -2.3 3.4
-9 -15 -2 7.6 5.2
9 15 -2 6.1 4.5
16 -24 2 16.1 5.2
-16 24 2 17.7 4.5
16 8 -2 19.3 4.8
8 16 2 20 4.9
-8 24 -2 14.3 4.1
-8 -16 -2 10.2 5.4
-16 -8 2 6.1 4
-24 8 -2 10.7 4.6
-16 24 -2 10.2 4.6
8 16 -2 10.4 4.2
16 -24 -2 12.5 6.2
7 17 2 25 4.9
17 -24 2 23.9 5.9
-17 24 2 24.7 4.8
17 7 -2 21.2 4.6
-17 -7 2 28.1 4.6
-17 24 -2 29.3 4.9
-7 -17 -2 24.6 5.7
-24 7 -2 21.7 4.9
17 -24 -2 23.2 6.4
0 0 3 -0.7 8.2
0 0 3 -1 4.7
0 0 3 1.7 9.6
-1 1 -3 5.6 5.5
1 -1 3 7.3 6.9
-1 0 3 7.6 5.4
0 -1 3 7.8 4.9
1 -1 3 9.1 4.6
-1 1 3 6.4 6.6
0 -1 3 0.8 8.7
0 -1 -3 11.2 7.8
-1 0 3 4.9 5.2
-1 0 -3 11.2 6.9
1 0 3 6.7 4
1 -1 3 4.9 4.8
-1 1 3 -0.4 7.4
0 1 3 1.9 9.1
1 -1 3 1.8 9.8
0 -1 3 7 6.2
0 1 -3 0.5 5.5
1 0 3 -0.6 6.9
0 1 3 6 5.4
-1 0 3 3.7 6.7
0 -1 3 8.7 5.2
-1 -1 3 43.9 7.5
1 -2 3 37.9 7.6
1 1 3 31.9 4.2
2 -1 3 19.2 6.4
-2 1 3 35.4 7.6
1 1 3 37.1 4.4
-1 2 3 38.3 9
-2 1 3 38.4 8.9
2 -1 3 32.5 5.7
-1 -1 3 47.6 8.3
1 -2 -3 38.9 8.4
-2 1 -3 56.69 12
-2 1 -3 20.9 5.1
-1 -1 3 37.5 7.8
-1 -1 -3 44.2 9.3
1 -2 -3 40.9 10.2
1 -2 3 41.3 6.1
0 -2 3 214.38 15
-2 2 3 241.98 17.3
-2 0 -3 184.08 17.4
-2 2 -3 228.88 17
0 -2 -3 208.88 13.4
-2 0 3 220.48 14.8
0 -2 3 224.28 13.9
2 -2 -3 212.68 16.9
2 -2 3 214.88 13.8
-2 0 3 217.38 14.8
-2 0 -3 229.18 15.2
0 -2 -3 219.58 17.2
0 -2 3 234.18 14.8
2 -2 3 210.68 11.5
-2 0 3 202.58 15.2
2 -2 3 197.28 12.6
-1 -2 3 106.69 11.8
-2 3 3 97.79 13.2
-1 -2 3 106.59 10
1 -3 -3 118.09 15.3
3 -1 3 110.29 8.4
2 -3 3 107.39 11.2
-3 2 -3 96.89 14.5
-1 -2 3 113.59 12
-2 -1 -3 114.79 16.4
-2 -1 -3 120.39 12.5
-3 1 3 104.29 11.8
1 -3 -3 95.69 11.3
-3 1 3 104.39 12.4
2 -3 3 107.49 8
-1 -2 -3 113.09 8.3
-2 3 -3 119.69 13.2
-3 1 -3 110.89 10.6
-2 -1 3 108.19 11.8
-3 2 3 124.79 12.8
1 -3 3 113.69 10
3 -2 3 126.49 10.1
-1 3 3 128.29 14.7
1 -3 3 126.39 13.3
-2 -1 3 121.59 12.4
-3 1 -3 121.29 15.9
-1 -2 -3 132.39 14.2
2 -3 -3 135.39 13.6
-2 -1 3 119.79 11.6
-3 2 3 131.49 13.6
-3 0 -3 608.14 37.6
0 -3 -3 668.53 33
0 -3 3 655.93 32.3
-3 3 3 723.23 37
-3 0 3 766.62 36
-3 0 3 698.33 35.3
-3 0 3 666.83 34.9
0 -3 3 651.13 33.7
0 -3 3 651.93 34.9
-3 3 -3 683.73 36.7
-3 0 -3 624.24 34.5
0 -3 -3 663.63 36.9
3 -3 3 698.63 33.8
3 -3 -3 733.53 36.9
-2 -2 3 111.09 12
2 -4 -3 107.79 14.2
-2 -2 -3 109.99 15.2
4 -2 3 110.59 10.4
-2 -2 3 118.29 13
-4 2 -3 97.89 9.1
-4 2 3 107.89 14.2
2 -4 3 111.79 13
-2 4 3 99.99 14.5
-4 2 3 108.99 12.8
-2 -2 3 100.29 13.4
2 -4 -3 115.89 17.3
2 -4 3 96.19 9.2
-4 2 -3 116.29 17.4
-2 -2 -3 102.39 17.1
-4 1 3 589.24 32.6
1 -4 -3 558.84 30.7
-3 -1 -3 594.54 35.7
4 -1 3 550.74 27.1
-1 -3 3 559.74 28.3
1 -4 -3 580.84 34
3 -4 3 595.64 30.9
-1 -3 3 552.84 31.3
-3 4 3 545.75 32.1
-1 -3 3 619.44 31.3
-4 1 3 577.54 31.2
4 -3 -3 565.64 33.3
-3 -1 -3 628.84 32.6
-4 3 -3 471.95 33.8
1 -4 3 718.63 35
-3 -1 3 754.72 37.3
-4 1 -3 694.53 41.4
-4 1 -3 739.63 36
-3 4 -3 722.43 37.6
3 -4 -3 681.23 38.3
1 -4 3 753.42 38
-1 -3 -3 695.93 33.8
-1 4 3 697.23 39
-3 -1 3 692.33 37.5
-4 3 3 677.23 37.4
-3 -1 3 690.73 37.2
4 -3 3 750.92 36
-4 3 3 729.53 39.2
-1 -3 -3 756.12 39.5
1 -4 3 689.33 33.3
-4 4 3 344.67 23.9
4 -4 3 334.37 21.3
-4 0 -3 299.77 25.7
0 -4 -3 348.97 25.1
-4 0 3 322.27 23
4 -4 -3 344.77 24.4
0 -4 3 339.27 20.9
0 -4 3 331.37 22.5
-4 0 3 345.27 22.3
0 -4 3 307.97 16.9
-4 4 -3 330.37 25.3
-4 0 3 330.67 21.9
0 -4 -3 316.27 20.8
-4 0 -3 372.16 23.4
-3 -2 -3 128.29 18.1
-2 -3 3 121.29 15.4
-3 -2 -3 113.09 19.1
5 -2 3 129.69 12.5
2 -5 -3 115.19 18.1
2 -5 -3 136.99 16.6
-5 3 -3 127.29 20.4
3 -5 3 120.59 10
5 -3 -3 129.09 19.1
-3 5 3 131.39 16.4
3 -5 3 131.69 15
-2 -3 3 121.19 14.7
-2 -3 3 109.49 11.6
-5 2 3 138.49 17.5
-5 2 3 118.29 13.4
-3 -2 3 45.4 10.8
-5 2 -3 35.4 14.7
3 -5 -3 42.4 14.2
-5 3 3 47.2 12.9
5 -3 3 39.2 9.3
-3 5 -3 47.6 10.3
-5 3 3 60.59 12.2
2 -5 3 43.5 8.8
-2 5 3 51.19 12.7
-3 -2 3 47.4 11.4
2 -5 3 49.5 11.3
3 -5 -3 47.3 12.5
-3 -2 3 39 9.7
-2 -3 -3 40.2 7.6
-2 -3 -3 49.1 15.3
-2 -3 -3 35 12.8
-5 2 -3 42.3 9.2
-1 -4 3 155.48 16.2
-5 1 3 175.38 16.6
-5 4 -3 173.38 22.6
-4 -1 -3 139.89 20.5
-4 -1 -3 179.18 19.1
1 -5 -3 150.48 19.1
4 -5 3 161.08 16.3
-5 1 3 190.98 19
5 -4 -3 180.58 19.6
1 -5 -3 183.98 18.3
-4 5 3 161.78 17.5
-1 -4 3 176.48 16.4
-1 -4 3 133.19 11.4
-4 -1 3 178.18 16.8
1 -5 3 182.78 15.5
-1 5 3 177.88 19.2
-5 1 -3 179.78 23.1
-1 -4 -3 175.28 15.8
-5 4 3 174.78 17.5
-4 -1 3 178.88 17.5
-4 -1 3 169.08 17.7
-1 -4 -3 155.78 19.7
4 -5 -3 186.58 19.7
1 -5 3 173.48 17.3
-5 4 3 171.78 19.1
5 -4 3 174.48 17.1
-5 1 -3 176.18 18.4
-4 5 -3 177.48 19.6
0 -5 -3 1391.66 73.79
-5 0 3 1566.44 72.59
0 -5 3 1545.55 70.59
-5 0 -3 1408.86 72.39
0 -5 3 1537.15 72.69
-5 5 3 1470.45 73.29
-5 5 -3 1402.76 74.39
5 -5 3 1452.75 71.19
-5 0 3 1621.84 73.59
-5 0 3 1488.95 72.09
0 -5 -3 1467.85 70.59
5 -5 -3 1533.15 74.59
-5 0 -3 1524.95 77.09
3 -6 3 24.6 11.9
-3 -3 -3 10 14
-3 -3 3 7 10.8
-3 -3 3 22 10.1
-3 -3 3 13 10.4
-3 -3 -3 15 7.9
3 -6 -3 11.5 12.7
3 -6 3 16.3 8.4
-3 -3 -3 22.4 14.2
-3 6 3 25.1 12.8
-6 3 -3 13.8 8.6
-6 3 3 18.9 10.3
3 -6 -3 11.6 14.8
6 -3 3 15.3 10
-6 3 -3 18.9 18
-6 3 3 28.9 14.4
-4 6 3 2085.19 98.59
2 -6 -3 2148.89 97.89
4 -6 3 2095.69 97.19
6 -4 -3 2030.4 99.79
-6 2 3 2219.48 97.49
-2 -4 3 2125.19 97.29
-2 -4 3 2238.28 97.49
-4 -2 -3 2217.08 102.09
-6 2 3 2182.98 99.69
2 -6 -3 2083.49 99.79
6 -2 3 2032.5 93.59
-6 4 -3 1825.12 101.49
-4 -2 -3 1859.11 97.89
-2 -4 3 1950.3 93.19
6 -4 3 2308.07 104.69
2 -6 3 2296.67 106.69
-4 -2 3 2359.66 106.39
-6 4 3 2471.95 106.69
-6 4 3 2340.67 108.59
2 -6 3 2217.38 103.09
-2 -4 -3 2108.39 107.79
-4 -2 3 2308.37 106.79
-4 6 -3 2199.38 104.09
-6 2 -3 2531.05 105.19
4 -6 -3 2163.88 107.49
-2 6 3 2353.06 107.49
-6 2 -3 2160.08 110.69
-2 -4 -3 2274.87 102.39
-4 -2 3 2252.37 105.39
-5 -1 -3 584.04 40.4
5 -6 3 612.74 36.3
-6 1 3 632.24 36.7
-1 -5 3 642.64 36.9
-5 6 3 649.43 38.4
-1 -5 3 628.14 35.7
-6 5 -3 662.93 44.5
1 -6 -3 624.64 36.9
1 -6 -3 615.84 39.5
6 -5 -3 628.94 39.8
-6 1 3 628.44 38.4
-5 -1 -3 614.14 39.1
1 -6 3 721.83 38.9
-1 -5 -3 690.73 43.4
-5 6 -3 749.82 43
1 -6 3 718.23 41.2
-5 -1 3 744.03 41.4
6 -5 3 742.13 40.1
-5 -1 3 731.03 41
-6 1 -3 736.03 46.5
-6 1 -3 667.43 40.7
-1 6 3 697.13 41.9
-1 -5 -3 716.83 38.9
5 -6 -3 738.13 43.3
-5 -1 3 738.23 41.3
-6 5 3 729.73 41.2
-6 5 3 713.33 41.9
6 -6 -3 459.25 33.2
-6 6 -3 474.45 37.5
-6 0 3 440.06 31.7
-6 6 3 440.06 31.3
0 6 3 437.76 30.7
0 -6 3 426.56 29.8
-6 0 3 450.75 30.2
0 -6 -3 464.25 29.7
6 -6 3 439.16 29.9
-6 0 -3 397.76 31.4
6 -6 3 392.76 20.6
0 -6 3 439.16 28
-6 0 3 414.36 29.1
0 -6 3 375.96 20.7
6 0 3 386.36 21.6
-6 0 -3 432.56 35.6
0 -6 -3 459.25 33.1
-7 3 3 326.17 28.5
-4 -3 -3 394.16 30.9
3 -7 -3 328.07 17.7
-7 4 -3 412.36 38.4
3 -7 -3 366.36 30.8
-7 3 3 399.46 27.4
3 -7 -3 409.96 29.3
-4 -3 -3 390.86 31.7
-3 -4 3 377.46 27.7
7 -3 3 370.16 25.1
7 -4 -3 324.87 18.4
-4 -3 -3 316.97 17.7
-3 -4 3 383.06 27.6
7 -4 -3 366.06 32.6
-4 7 3 379.66 27.7
-3 -4 3 330.77 24.3
4 -7 3 404.66 27.9
-3 7 3 471.35 32.4
4 -7 -3 420.66 32.8
-7 4 3 485.35 33.8
7 -3 -3 363.66 21.2
4 -7 -3 450.45 34.3
-3 -4 -3 457.95 34.5
-4 -3 3 455.85 30
-7 4 3 478.35 30.1
-3 -4 -3 474.05 34
-7 3 -3 468.15 38.9
4 -7 -3 410.66 21.4
-4 -3 3 514.85 31.7
-3 -4 -3 392.56 21
3 -7 3 391.76 21.2
7 -4 3 457.75 29.1
-4 -3 3 458.15 30.3
3 -7 3 429.06 26.5
3 -7 3 473.95 31.3
-7 5 -3 410.76 39.5
7 -2 3 359.16 19.4
2 -7 -3 320.77 17.7
-5 -2 -3 322.57 17.8
7 -5 -3 373.06 31.2
2 -7 -3 372.36 31.2
7 -5 -3 339.07 18.4
-5 7 3 402.76 29.7
2 -7 -3 371.96 29.3
-2 -5 3 366.56 27
-7 2 3 378.46 27.2
-2 -5 3 382.16 28.1
-7 2 3 411.76 31.1
-5 -2 -3 375.56 33.1
5 -7 3 388.36 27.7
-5 -2 -3 431.56 31.9
5 -7 3 327.67 17.7
7 -5 3 387.86 27.2
-5 7 -3 364.06 28.8
2 -7 3 398.16 28.7
5 -7 -3 333.87 31
-5 -2 3 383.56 29.1
2 -7 3 343.37 18.5
-5 -2 3 393.46 28
-7 5 3 405.26 27.9
-7 5 3 392.36 31
-5 -2 3 414.96 29.3
7 -5 3 307.47 17.9
-7 2 -3 389.46 29.4
-2 -5 -3 350.46 30.1
-2 -5 -3 340.87 25.1
-7 2 -3 359.86 34.9
5 -7 -3 357.36 18.8
2 -7 3 373.96 25.4
-2 7 3 394.76 29.3
-2 -5 -3 336.97 18.3
-7 6 -3 2099.09 104.59
-1 -6 3 1998.4 94.99
6 -7 3 2003.3 94.89
-1 -6 3 1806.32 85.89
-6 -1 -3 1912.71 98.69
7 -6 -3 2027.4 98.19
-6 7 3 2108.89 97.09
6 -7 3 1837.12 85.89
-1 -6 3 2074.59 94.19
7 -6 -3 1845.72 86.29
1 -7 -3 2094.39 95.09
-7 1 3 2103.79 95.19
-7 1 3 2110.49 95.79
-7 1 3 2015.1 97.69
-6 -1 -3 1721.83 95.39
7 -1 3 1787.52 86.59
1 -7 -3 1998 97.79
-1 -6 -3 1919.21 86.49
7 -6 3 1897.21 94.09
6 -7 -3 1860.21 86.69
-1 -6 -3 1911.31 92.69
-7 1 -3 1884.61 95.19
-7 6 3 2167.68 95.39
-7 6 3 1995.3 96.99
6 -7 -3 1961.6 97.99
-6 -1 3 2192.48 96.19
-6 -1 3 1957.8 96.39
-6 7 -3 2152.28 99.19
7 -6 3 1833.72 86.19
1 -7 3 1901.21 86.49
-7 1 -3 2023.1 101.29
-1 -6 -3 2011.1 98.29
-1 7 3 2036.7 95.69
1 -7 3 1948.8 95.19
1 -7 3 1968.1 93.19
6 1 3 1806.22 86.89
-6 -1 3 2123.69 96.19
7 -7 -3 313.07 17.2
7 -7 3 321.97 17.4
7 0 3 315.77 18.3
-7 7 3 344.97 31.2
-7 0 3 345.27 33.2
0 -7 3 337.97 27.8
7 -7 3 347.37 29.6
0 -7 3 337.37 27.2
7 -7 -3 302.27 31.8
-7 0 3 367.86 28.8
0 7 3 336.67 29.1
0 -7 -3 347.17 28.8
0 -7 3 335.07 17.7
-7 0 3 355.06 29.4
0 -7 -3 338.67 31.9
-7 0 -3 320.07 31.1
-7 7 3 366.16 29.6
-7 7 -3 309.17 39.5
7 -7 -3 289.47 17.8
0 -7 -3 307.27 17.6
-7 0 -3 304.77 35.2
8 -4 -3 134.69 10.8
4 -8 -3 140.39 22.7
-8 4 3 169.68 21.3
-4 -4 3 155.68 21.5
8 -4 3 131.59 20.4
4 -8 -3 144.69 9.9
-4 8 3 150.08 21.3
-4 -4 3 172.78 23
4 -8 3 134.59 10.4
4 -8 -3 145.49 23.7
-4 -4 -3 177.08 25.3
-4 -4 -3 159.08 26.4
-4 -4 -3 141.49 9.9
8 -4 3 132.09 10.5
-8 4 -3 94.79 28.6
-8 4 3 162.58 24.7
4 -8 3 119.19 9.1
4 -8 3 146.29 22
-8 3 3 435.36 35
-5 8 3 421.66 32.2
-5 -3 -3 374.46 34.8
3 -8 -3 401.36 34.5
8 -3 3 396.26 20.9
-5 -3 -3 376.46 19.6
8 -5 -3 379.26 20.5
5 -8 3 356.06 19.7
-5 -3 -3 390.46 36.1
3 -8 -3 383.56 19.8
5 -8 3 384.66 30.5
5 -8 3 392.26 19.8
-8 5 -3 415.16 45.7
8 -5 -3 386.56 34.7
-3 -5 3 437.76 31.5
3 -8 -3 436.66 33.9
-8 3 3 406.96 29.9
-3 -5 3 391.96 30.4
-3 8 3 256.97 26.6
3 -8 3 250.77 14.3
5 3 3 207.68 13.5
-8 5 3 272.97 30
8 -3 -3 235.38 14.8
-8 3 -3 208.88 31.4
5 -8 -3 240.08 30.3
8 -5 3 250.27 25.7
-5 -3 3 217.38 25.3
-5 -3 3 265.17 25
-5 -3 3 277.27 26.2
3 -8 3 259.67 26.1
-3 -5 -3 281.17 30.2
5 -8 -3 253.07 14.4
3 -8 3 171.68 22.1
8 -5 3 233.88 13.5
-3 -5 -3 246.88 14
-8 5 3 260.07 24.8
2 -8 -3 625.64 44.1
-6 -2 -3 623.44 46.3
-2 -6 3 636.14 30.9
8 -6 -3 653.23 31.5
6 -8 3 646.64 41.9
-8 2 3 687.83 46.9
-2 -6 3 713.03 42.2
-2 -6 3 682.03 41.6
-8 2 3 738.13 41.9
6 -8 3 634.34 30.7
-6 8 3 688.43 43.1
-8 6 -3 687.73 55.59
8 -2 3 660.43 31.8
2 -8 -3 629.14 30.6
-6 -2 -3 619.34 30.7
2 -8 -3 678.53 43.1
-6 -2 -3 691.43 45.2
8 -6 -3 623.84 44.6
-8 6 3 948.71 54.09
6 -8 -3 795.12 52.59
2 -8 3 970.7 51.39
-2 -6 -3 832.12 52.79
-8 6 3 907.11 49.4
-2 -6 -3 828.82 39.2
8 -6 3 851.51 49.1
8 -2 -3 791.22 39.8
6 2 3 804.32 40
2 -8 3 802.52 46.5
-6 -2 3 847.52 51.79
6 -8 -3 821.62 39.4
-2 8 3 858.11 49.8
-6 -2 3 921.81 50.89
8 -6 3 835.72 39
2 -8 3 834.72 39.3
-6 -2 3 878.01 49.8
-8 2 -3 887.01 57.59
8 -7 -3 693.53 33.5
-8 1 3 774.52 45.4
-7 -1 -3 655.33 49.9
-1 -7 3 745.83 44.3
-7 8 3 740.13 47.4
8 -1 3 707.53 34.2
8 -7 -3 702.13 47.8
-8 7 -3 688.43 56.99
-1 -7 3 767.12 45.3
1 -8 -3 669.13 47.1
-1 -7 3 680.43 33.3
-8 1 3 745.93 44.9
1 -8 -3 638.64 43.6
1 -8 -3 677.43 32.5
1 -8 -3 671.83 33.4
7 -8 3 673.53 44.8
7 -8 3 701.43 33
-8 1 3 728.83 50.19
-7 -1 -3 692.33 32.7
-7 -1 -3 766.92 47.5
7 -8 -3 687.03 32
-7 -1 3 671.83 43.1
8 -7 3 634.34 30.7
1 -8 3 655.53 31.2
-8 7 3 686.93 42.8
8 -7 3 659.23 42.7
-1 -7 -3 615.54 45.3
-7 -1 3 612.74 45.3
1 -8 3 673.63 43
8 -1 -3 545.55 31.4
7 1 3 639.74 32.3
-8 7 3 721.43 46.2
-7 -1 3 719.83 44
7 -8 -3 662.93 46.1
-1 8 3 643.04 41.9
-1 -7 -3 679.73 31.4
7 -8 -3 641.44 31.1
1 -8 3 658.43 40.6
-8 1 -3 667.43 50.59
0 -8 -3 1136.99 67.99
0 -8 3 1166.78 53.09
0 -8 3 1147.19 63.89
-8 0 -3 1172.58 71.79
0 -8 -3 1209.48 53.39
-8 0 3 1140.29 64.39
8 -8 -3 1191.28 54.09
8 -8 3 1157.68 52.89
8 0 3 1148.69 53.79
0 -8 3 1203.68 64.79
-8 0 3 1159.68 68.99
8 -8 -3 1129.19 68.09
-8 8 3 1215.68 67.59
8 -8 3 1114.99 64.39
-8 0 3 1225.48 65.89
8 -8 -3 1166.58 53.29
-8 8 3 1234.08 64.99
5 -9 3 1676.93 84.69
4 -9 -3 1527.65 85.89
-5 -4 -3 1635.24 72.69
-9 4 3 1732.43 89.39
-5 9 3 1608.44 84.19
5 -9 3 1587.74 72.49
-4 -5 3 1690.13 83.09
-5 -4 -3 1689.83 86.69
-4 -5 3 1713.83 84.49
4 -9 -3 1700.13 72.99
9 -5 -3 1632.54 73.49
-9 5 -3 1704.23 96.99
4 -9 -3 1555.04 85.09
-5 -4 -3 1586.94 87.89
-9 4 3 1718.63 83.49
5 -9 3 1615.54 72.89
9 -4 3 1617.34 73.29
-4 -5 -3 1910.01 95.99
5 -9 -3 1911.31 80.59
5 -9 -3 1790.92 93.59
-4 -5 -3 1803.42 80.19
4 -9 3 1765.12 79.89
9 -4 -3 1878.31 81.19
-4 9 3 1770.62 90.69
-9 5 3 1783.82 95.19
-9 5 3 1908.51 90.79
-5 -4 3 1814.52 90.39
5 -9 -3 1854.61 94.39
-9 4 -3 1807.72 101.29
4 -9 3 1976.6 92.79
-4 -5 -3 1606.74 91.99
4 -9 3 1797.32 80.39
9 -5 3 1645.34 79.79
-5 -4 3 1961.5 92.59
9 -5 3 1801.32 80.59
3 -9 -3 634.04 47.2
-3 -6 3 668.83 43.4
-9 6 -3 658.73 59.79
-9 3 3 729.23 44.5
-3 -6 3 726.43 45.1
-6 -3 -3 664.13 49.8
-6 9 3 668.13 45
-3 -6 3 680.93 32.3
6 -9 3 692.93 32.3
3 -9 -3 689.23 46.5
-9 3 3 710.43 50.59
-6 -3 -3 659.93 48.5
9 -6 -3 702.23 49.7
-6 -3 -3 684.23 32.1
6 -9 3 679.03 44.9
6 -9 3 662.63 32.3
3 -9 -3 678.83 32.2
9 -3 3 689.93 33
9 -6 -3 696.43 33.1
-3 -6 -3 606.84 46.3
9 -6 3 574.94 42.6
3 -9 3 665.33 31.5
9 -3 -3 651.83 32.2
-3 -6 -3 657.73 31.2
3 -9 3 699.43 44.9
9 -6 3 614.74 31.1
6 3 3 620.04 32.1
-9 3 -3 692.23 54.09
-6 -3 3 681.73 44.2
9 -6 3 648.14 31
-9 6 3 727.73 43.2
6 -9 -3 676.03 31.7
6 -9 -3 630.94 46.3
-6 -3 3 686.13 42.9
-9 6 3 679.83 47.3
-7 -2 -3 1465.25 88.89
-9 2 3 1628.54 84.49
2 -9 -3 1555.64 86.99
-2 -7 3 1695.93 84.89
9 -2 3 1694.53 73.69
-7 -2 -3 1545.55 86.09
-9 2 3 1600.64 89.79
9 -7 -3 1715.23 73.49
-2 -7 3 1702.63 72.99
-2 -7 3 1726.53 84.39
9 -7 -3 1624.94 88.49
2 -9 -3 1616.54 73.29
-7 -2 -3 1677.93 72.59
2 -9 -3 1579.34 72.29
-7 9 3 1586.24 85.69
7 -9 3 1687.83 72.79
7 -9 3 1702.73 85.69
-9 7 3 1862.21 91.69
2 -9 3 1909.41 94.09
-2 -7 -3 1676.73 95.09
-2 -7 -3 1966.7 81.59
-7 -2 3 1901.71 93.79
9 -2 -3 1867.61 82.49
2 -9 3 1868.01 81.39
-9 2 -3 1654.33 98.69
7 -9 -3 1758.42 81.39
9 -7 3 1726.83 91.99
-7 -2 3 1915.31 93.09
-9 7 3 1933.71 96.99
7 -9 -3 1916.71 81.79
7 -9 -3 1772.22 96.19
9 -7 3 1835.92 80.99
7 2 3 1782.72 82.09
-8 -1 -3 431.16 21.6
-1 -8 3 437.76 22.3
-9 1 3 422.66 35.8
-8 -1 -3 385.06 45.4
9 -8 -3 447.66 22.6
9 -8 -3 382.06 23.2
8 -9 3 443.06 38.3
-1 -8 3 390.46 35.8
1 -9 -3 378.26 40.3
1 -9 -3 419.76 21.2
9 -8 -3 377.26 39.1
9 -1 3 459.65 22.9
-8 9 3 393.36 34.2
-9 1 3 432.46 43.9
-9 1 3 435.16 35.6
-8 9 3 383.36 39.2
-1 -8 3 430.26 35.1
8 -9 3 431.26 21.6
1 -9 -3 433.96 22.7
9 -1 -3 421.96 23.9
9 -8 3 437.56 22.2
1 -9 3 444.56 36.6
8 1 3 443.76 23.3
8 -9 -3 438.26 23.4
9 -8 3 391.36 36.6
8 -9 -3 442.46 22.7
-8 -1 3 414.06 36
-1 -8 -3 373.96 40.1
8 -9 -3 422.16 41.2
-9 8 3 404.16 35.1
-8 -1 3 438.66 36.4
-1 -8 -3 425.56 22.5
1 -9 3 439.86 22.5
-9 1 -3 411.56 45.6
0 -9 -3 162.78 30.8
9 0 -3 140.39 14.5
9 0 3 207.48 14.6
9 -9 -3 187.18 12.9
9 -9 3 192.48 12.8
-9 9 3 103.49 29.5
9 -9 -3 149.49 28.7
0 -9 3 190.28 13
-9 0 -3 120.19 32
-9 0 -3 175.18 11.6
0 -9 -3 189.58 13.2
-9 0 3 155.78 25.5
-9 0 3 137.29 24.7
9 -9 -3 183.68 14.6
0 -9 3 142.09 24.1
0 -9 -3 142.69 10.7
-5 -5 -3 10.4 5.6
-10 5 3 11.2 18.3
-10 5 -3 12.5 34.8
-5 -5 -3 6.9 26.2
5 -10 3 8.9 20.5
5 -10 -3 11.3 25.5
5 -10 -3 12.3 6.4
5 -10 3 20.4 6.6
-10 5 3 6 26.1
5 -10 3 10.8 6.6
-5 -5 3 9 17.4
-5 10 3 -0.5 23.2
10 -5 3 14.1 6.2
5 5 3 8.9 6.3
-5 -5 3 0.2 4.7
5 -10 -3 13.9 22.7
10 -5 3 13.9 5.6
10 -5 -3 8.3 5.9
-5 -5 3 7.5 21.7
-5 -5 -3 1.7 22.1
-4 -6 3 48.9 7.7
-4 -6 3 43.4 18.5
6 -10 3 35.5 20.9
4 -10 -3 22.2 24.4
10 -4 3 61.69 10
-10 6 -3 19.5 36.2
-6 -4 -3 50.59 7.2
-6 10 3 -3.9 21.8
4 -10 -3 42.1 25.3
10 -6 -3 51.49 8.4
-10 4 3 59.19 28.5
-6 -4 -3 37.4 26.1
6 -10 3 66.29 8.5
10 -6 -3 40.4 26.3
-6 -4 -3 29.9 25.2
-10 4 3 47.7 21.4
6 -10 3 51.99 7.9
4 -10 -3 55.59 7.8
-4 -6 3 37.7 21.6
-4 -6 -3 58.49 24.8
6 -10 -3 54.09 24.6
4 -10 3 68.79 22.4
10 -4 -3 60.89 10.2
10 -6 3 58.99 9.4
-10 6 3 47.3 20.7
-4 -6 -3 62.99 8.7
-6 -4 3 63.59 23
4 -10 3 63.39 8.1
10 -6 3 66.29 8.9
6 -10 -3 60.99 9.3
-6 -4 3 49.5 19.4
6 4 3 72.89 10.6
-10 4 -3 16.9 31.8
-10 6 3 44.1 26.7
4 -10 3 69.59 9.5
-7 -3 -3 337.17 18
-3 -7 3 331.87 33.8
7 -10 3 310.87 18.1
3 -10 -3 339.57 18
-10 3 3 305.97 43.9
-3 -7 3 341.47 18.6
3 -10 -3 308.87 38.6
10 -7 -3 320.77 18.4
7 -10 3 348.57 18.5
-10 3 3 296.37 33.2
7 -10 3 301.47 34.2
-3 -7 3 319.67 34.8
10 -7 -3 322.77 39.3
10 -3 3 342.37 19.4
-7 -3 -3 253.97 41.5
-3 -7 -3 245.68 15
10 -7 3 229.68 14.6
-7 -3 3 219.98 28.9
7 -10 -3 247.08 15.7
-10 3 -3 194.58 37.8
-7 -3 3 247.58 32.5
7 -10 -3 229.18 36.2
10 -7 3 235.08 14.7
-3 -7 -3 241.68 37
3 -10 3 253.17 15.3
10 -3 -3 244.38 16.6
-10 7 3 217.18 35
3 -10 3 233.58 32.8
7 3 3 230.18 16.2
2 -10 -3 51.19 8.6
-8 -2 -3 54.39 8.8
10 -8 -3 67.59 8.9
10 -2 3 57.69 9.3
10 -8 -3 56.99 28.6
2 -10 -3 49.7 8.1
-2 -8 3 38.9 20.6
8 -10 3 30.1 23.5
-8 -2 -3 7.6 37.3
-2 -8 3 73.29 9.2
-10 2 3 32.6 19.1
-10 2 3 31.3 21.8
-2 -8 3 8.9 25.4
10 -8 -3 60.59 10.1
-8 10 3 -5.2 28
-8 -2 -3 29.4 27.6
8 -10 3 62.89 9.6
-10 2 3 20.7 30.6
8 -10 3 32.5 6.5
2 -10 -3 20.4 25.9
8 -10 -3 52.99 8.6
10 -2 -3 72.09 10.8
-2 -8 -3 40.1 28.1
10 -8 3 60.99 9.4
-8 -2 3 29.6 21.3
-10 8 3 -5.3 23.7
-10 2 -3 54.89 34.1
8 2 3 71.99 11.2
2 -10 3 69.49 9.9
8 -10 -3 51.19 8.7
-8 -2 3 43 22
8 -10 -3 26.8 26.4
10 -8 3 5 34.9
-10 8 3 41.6 25.5
-2 -8 -3 59.19 8.2
2 -10 3 51.29 24.7
-9 -1 -3 137.59 37.8
1 -10 -3 265.07 40
-1 -9 3 193.48 31
10 -9 -3 262.57 41.7
-1 -9 -3 188.88 33.4
-10 1 -3 195.48 39.6
1 -10 3 206.08 33.4
-9 -1 3 176.28 29.5
-10 0 -3 567.04 25.3
0 -10 -3 434.06 24.4
-11 6 -3 8.2 44.6
-5 -6 3 6.9 22.3
6 -11 3 72.89 25.1
-11 5 3 82.89 36.1
-11 5 3 3.1 25.3
-6 -5 -3 0 28.7
5 -11 -3 2.4 32.5
11 -5 3 41.3 6
-5 -6 3 45.8 26
5 -11 3 82.39 27.5
-11 5 -3 21.6 40.8
-6 -5 3 3.5 22.2
-5 -6 -3 14.3 27.6
-11 6 3 58.59 30.9
-11 6 3 4.8 35.6
-6 -5 3 47.4 24.9
6 -11 -3 4 29.8
11 -7 -3 60.09 31.3
-4 -7 3 0.5 24.9
7 -11 3 9 26.2
-11 4 3 3.3 27.8
-11 4 3 28.8 37.7
4 -11 -3 30.3 6.8
-4 -7 3 -3.3 27.2
4 -11 -3 1.9 31.9
7 -11 -3 3.6 30
-7 -4 3 3.1 24.1
4 -11 3 33.9 24.7
-11 4 -3 18.6 36.7
-11 7 3 17.4 30.6
-7 -4 3 56.99 27.9
-4 -7 -3 17.3 29.8
-11 3 3 3 26.2
3 -11 -3 4.2 39.6
-11 3 3 -3.1 42.8
11 -8 -3 7.4 29.8
-3 -8 3 2.3 23.4
8 -11 3 -1.1 50.89
-8 -3 3 12 28
8 -11 -3 8 40.3
-11 8 3 -6 32.9
3 -11 3 7.2 26.6
8 -11 -3 33.6 6.6
-11 3 -3 5.1 37.3
-3 -8 -3 2.1 30.8
11 -2 3 146.09 13.5
2 -11 -3 136.99 12.7
-9 -2 -3 135.79 11.2
11 -9 -3 127.99 12.3
-2 -9 3 139.79 12.5
11 -9 -3 123.69 14.7
2 -11 -3 128.49 11.1
9 -11 3 142.49 12.5
11 -9 3 124.09 11.8
-2 -9 -3 131.19 12.1
9 -11 -3 129.99 11.6
11 -2 -3 125.49 14.3
2 -11 3 133.79 12.2
9 2 3 137.19 13.2
9 -11 -3 136.79 13
11 -10 -3 142.99 12.9
11 -10 -3 144.89 15.2
-1 -10 3 147.59 13.1
1 -11 -3 136.29 13.3
10 -11 3 152.08 13
11 -1 3 152.08 13.8
-10 -1 -3 139.99 11.7
1 -11 -3 138.99 11.1
11 -1 -3 136.19 15.3
1 -11 3 134.39 13.2
10 -11 -3 138.79 13.8
11 -10 3 135.29 12.6
-1 -10 -3 140.29 12.5
10 -11 -3 137.49 12.6
10 1 3 138.39 13.4
0 -11 3 52.79 9.2
11 -11 -3 45.8 8.9
11 0 3 54.19 9.7
11 0 -3 67.29 12.4
11 -11 -3 51.99 10.2
11 -11 3 58.49 9.3
0 -11 -3 51.09 9.1
12 -6 -3 16 6.9
-6 -6 3 15.8 6.1
6 -12 3 20.7 7.5
12 -6 3 19.8 8.1
6 -12 3 13.9 7
6 6 3 4 7.6
12 -6 3 12.3 6.2
-6 -6 -3 26.2 7.3
6 -12 -3 17.2 7
12 -5 3 54.79 9.6
12 -7 -3 59.39 9.8
7 -12 3 50.09 8.5
-7 -5 -3 46.3 7.8
-5 -7 3 51.69 8.2
5 -12 -3 54.89 8.7
7 -12 3 45.6 8.4
12 -7 3 28.9 7.7
-5 -7 -3 41.3 7.8
12 -7 3 35.9 8.5
5 -12 3 40.1 8.5
7 -12 -3 38.9 8.3
12 -5 -3 19 7.4
7 5 3 31.4 8.9
5 -12 3 36.8 7.7
12 -8 -3 197.88 15
12 -4 3 202.38 15.5
4 -12 -3 196.58 13.7
-8 -4 -3 192.58 13.7
8 -12 3 210.58 14.5
8 -12 3 193.38 14.2
4 -12 -3 165.08 14.1
-4 -8 3 189.78 14.2
12 -8 3 141.89 12.7
4 -12 3 134.59 12.3
-4 -8 -3 146.39 12.1
8 4 3 132.39 14
4 -12 3 108.39 10.7
12 -8 3 125.09 11.9
12 -4 -3 138.79 14.1
8 -12 -3 135.79 11.8
-3 -9 3 42.6 8.5
3 -12 -3 43.8 8.9
12 -9 -3 48 9
9 -12 3 47 9.1
-9 -3 -3 40.4 7.9
12 -9 -3 18.5 9.3
3 -12 -3 46.6 8
12 -3 3 39.6 9
12 -9 3 25.2 7.3
9 -12 -3 38.8 8.7
12 -3 -3 41.3 9.9
3 -12 3 38.5 8.3
9 3 3 42.4 9.5
12 -9 3 30.6 8
-3 -9 -3 34.7 8.5
12 -2 3 53.59 10.2
2 -12 -3 42.3 8.9
-10 -2 -3 42.3 8.1
-2 -10 3 50.39 9.2
12 -10 -3 29.8 9.8
10 -12 3 47.2 9
12 -10 -3 50.89 9.3
2 -12 -3 39.3 7.6
10 -12 -3 51.59 9.1
2 -12 3 57.99 10
-2 -10 -3 44.8 8.8
12 -10 3 49.9 9.4
10 2 3 42.9 9.1
10 -12 -3 39.5 8.2
12 -2 -3 53.09 11.4
12 -11 -3 554.04 29.3
11 -12 3 561.04 28.6
-1 -11 3 552.04 29.1
12 -11 -3 588.84 30
12 -1 3 543.25 29.4
1 -12 -3 559.64 29
1 -12 -3 484.55 27.5
11 -12 -3 576.74 30.5
1 -12 3 570.04 30.2
-1 -11 -3 579.64 29.8
12 -11 3 555.14 29.5
11 -12 -3 540.65 30.1
11 1 3 570.24 30.7
12 -1 -3 628.14 32.9
0 -12 -3 328.17 20.9
12 0 -3 360.66 24.5
0 -12 3 325.47 21.1
12 0 3 337.47 21.6
12 -12 3 342.67 20.6
12 -12 -3 332.07 21.6
13 -6 3 49.6 9.3
-6 -7 3 41.6 8
13 -7 -3 49.7 9.4
7 -13 3 63.39 9.7
7 -13 3 56.79 9.3
6 -13 -3 54.99 8.6
-7 -6 -3 61.39 9.2
13 -6 -3 52.89 9.2
-6 -7 -3 59.29 8.9
6 -13 3 62.99 9.6
7 -13 -3 60.19 9.4
6 -13 3 52.49 8.7
13 -7 3 72.49 10.5
13 -7 3 55.29 8.6
-8 -5 -3 30.9 7.9
5 -13 -3 28.3 7.3
-5 -8 3 36 8
8 -13 3 29.2 8.2
8 -13 3 30.6 8.1
13 -8 -3 44.9 9.5
13 -5 3 31.5 8.5
8 5 3 30 8.9
-5 -8 -3 35.1 8.1
5 -13 3 41.7 9.1
8 -13 -3 27.8 7.8
13 -8 3 27.6 8.3
13 -8 3 35.8 8.5
13 -5 -3 37.7 9.6
5 -13 3 23.3 7.4
-4 -9 3 159.78 13.7
9 -13 3 130.59 12.7
13 -4 3 162.38 14.8
13 -9 -3 162.18 14.4
9 -13 3 158.08 13.8
4 -13 -3 149.09 13.9
4 -13 -3 156.08 12.8
-9 -4 -3 161.48 13.2
9 4 3 118.99 14.2
13 -4 -3 131.69 14.5
4 -13 3 135.19 13.2
13 -9 3 118.09 12.5
9 -13 -3 126.99 13
13 -9 3 125.29 12.7
-4 -9 -3 139.29 12.9
13 -10 -3 85.29 12
-3 -10 3 95.49 11.8
-10 -3 -3 92.69 11.8
13 -10 -3 84.89 12.2
10 -13 3 89.79 10.9
3 -13 -3 102.59 12.5
13 -3 3 87.89 13
3 -13 -3 94.39 10.9
10 -13 -3 91.39 12.4
10 3 3 90.79 12.8
13 -10 3 94.69 12.1
3 -13 3 86.29 12.3
13 -3 -3 106.09 14.4
13 -10 3 64.49 11.3
-3 -10 -3 91.19 11.5
2 -13 -3 155.08 14.1
13 -11 -3 153.28 15
-11 -2 -3 135.09 12.9
11 -13 3 135.29 13.8
13 -11 -3 133.99 13.9
2 -13 -3 127.89 12
-2 -11 3 138.59 13.5
13 -2 3 128.39 14.6
13 -11 3 156.68 14.1
11 2 3 165.88 15.5
-2 -11 -3 156.08 14.7
13 -2 -3 175.88 18.1
11 -13 -3 163.08 14.9
2 -13 3 150.38 14.6
13 -12 -3 53.69 10.4
13 -1 3 66.99 11.3
13 -12 -3 69.39 11.4
12 -13 3 57.99 10.1
-1 -12 3 64.09 10.2
1 -13 -3 50.79 9.7
1 -13 3 71.69 10.8
-1 -12 -3 61.99 10.1
13 -1 -3 64.49 12.7
13 -12 3 62.69 10.5
12 -13 -3 63.79 10.9
12 -13 -3 49.7 9.8
12 1 3 68.29 11.5
13 -13 3 246.88 18.3
13 -13 -3 255.67 19
0 -13 -3 251.47 18.2
13 -13 -3 274.97 19.3
13 0 3 260.17 19.3
0 -13 3 270.97 18.3
13 0 -3 251.47 21.6
7 -14 3 106.19 12.2
14 -7 3 107.19 13.1
14 -7 -3 109.59 13.7
-7 -7 -3 121.69 12.6
-7 -7 3 86.49 11.2
7 -14 3 110.69 12.6
7 -14 -3 113.39 12.3
8 -14 3 73.99 11.4
-6 -8 3 64.99 10.3
6 -14 -3 75.79 11.2
8 -14 3 80.89 11.6
14 -6 3 82.19 12.7
14 -8 -3 69.99 12.5
-8 -6 -3 83.99 11.1
-6 -8 -3 69.59 9.7
14 -6 -3 81.09 12.2
8 -14 -3 64.79 9.7
6 -14 3 71.39 10.8
14 -8 3 66.59 10.9
6 -14 3 47.7 9
14 -8 3 48.9 9.3
9 -14 3 144.09 13.4
-5 -9 3 136.99 13.1
14 -9 -3 134.29 14.1
9 -14 3 107.09 12.8
5 -14 -3 129.59 12.6
-9 -5 -3 137.39 12.9
14 -5 3 130.59 14.4
14 -9 3 78.59 12.3
-5 -9 -3 100.99 12.2
5 -14 3 64.69 10
9 -14 -3 102.29 12.4
9 5 3 76.99 13
5 -14 3 96.29 13.3
14 -5 -3 92.79 13.6
14 -9 3 97.29 12.2
10 -14 3 149.19 13.8
14 -4 3 146.89 15
-4 -10 3 145.49 13.8
14 -10 -3 145.69 15.2
4 -14 -3 108.09 13.5
-10 -4 -3 139.79 13.9
4 -14 -3 143.59 13.5
10 4 3 132.69 15.2
-4 -10 -3 146.79 14
14 -10 3 121.99 13.5
14 -10 3 134.09 13.7
14 -4 -3 147.49 15.8
10 -14 -3 143.29 14.2
4 -14 3 125.89 14.6
-3 -11 3 55.39 9.7
-11 -3 -3 39.2 8.8
14 -11 -3 55.89 10.7
3 -14 -3 38.9 8.6
11 -14 3 63.39 10.6
14 -3 3 49.99 10.5
3 -14 -3 48.2 9.5
-3 -11 -3 35.3 9.2
14 -11 3 41 9.7
11 3 3 35.2 10.3
14 -3 -3 40.8 11.7
11 -14 -3 27.6 8.6
3 -14 3 28.1 9.3
14 -12 -3 278.97 20.1
14 -12 -3 265.87 20.5
12 -14 3 290.67 19.3
14 -2 3 288.57 20.5
-2 -12 3 290.87 19.4
2 -14 -3 266.07 19.4
14 -12 3 289.97 19.8
-2 -12 -3 307.17 19.8
12 2 3 282.97 20.9
2 -14 3 283.97 20.4
12 -14 -3 308.77 20.4
14 -2 -3 335.37 23.5
1 -14 3 118.69 10
-14 13 3 137.79 9.3
14 -14 3 70.89 10.4
-14 0 3 85.89 8.5
0 -14 3 120.49 13.6
14 -14 3 118.29 14.1
14 0 -3 74.39 13.6
0 14 3 59.09 8
-14 14 3 107.29 9.7
14 -14 -3 90.09 14.1
0 -14 3 93.19 11.1
14 -14 -3 119.49 14.6
15 -7 3 199.18 16.5
15 -8 -3 192.48 17.2
8 -15 3 185.68 16.2
-7 -8 3 156.28 14.6
7 -15 -3 190.58 15.2
8 -15 3 173.48 15.7
-8 -7 -3 201.28 15.7
8 -15 -3 183.58 15.1
7 -15 3 157.58 14.3
15 -8 3 175.98 15.9
7 -15 3 164.48 16
15 -7 -3 172.78 16.6
-7 -8 -3 166.78 14.6
-9 -6 -3 25 8.6
15 -9 -3 20.7 8.9
6 -15 -3 29.1 8.7
9 -15 3 20.5 8.4
9 -15 3 26.9 9.2
15 -6 3 18.5 9.4
-6 -9 3 21.1 8.8
9 6 3 -2.5 11.8
-6 -9 -3 21.6 8.3
6 -15 3 32.2 9.8
15 -9 3 18.8 9.3
9 -15 -3 26 8.3
15 -6 -3 25.4 10.3
6 -15 3 11.1 7.9
15 -9 3 14.4 8.4
5 -15 -3 39.1 9.1
10 -15 3 36 9.4
15 -5 3 31.9 10.3
15 -10 -3 51.99 10.9
-5 -10 3 26.4 8.8
-10 -5 -3 35.3 9.4
10 5 3 10.8 8.9
-5 -10 -3 34.4 8.9
5 -15 3 -3 6.5
5 -15 3 37.4 10.4
15 -10 3 18 9.4
10 -15 -3 25.3 9.2
15 -5 -3 28.7 10.5
15 -10 3 16.6 9.2
-4 15 -3 -0.2 4
11 -15 3 1 9
4 -15 -3 -1.5 8
4 11 3 -0.7 3.9
4 -15 -3 9.7 8
15 -4 3 -2.9 9
15 -11 -3 7.5 9
-11 -4 -3 11 8.3
11 -15 3 -7 5.3
-4 -11 3 4.2 8.3
11 4 -3 -2.2 4
-11 -4 3 -1.1 3.6
-4 -11 -3 20.4 8.4
-15 4 -3 -3.6 4.2
-4 -11 -3 -3.7 4.8
4 -15 3 5.9 9.2
11 -15 -3 -0.8 5.8
15 -4 -3 26.4 11.1
15 -11 3 16.1 9.4
-15 11 3 0.1 3.5
11 4 3 19.4 10.1
15 -11 3 4.1 8.1
11 -15 -3 15.9 8.5
-3 15 -3 4.4 4.2
15 -12 -3 -9 8.4
12 -15 3 9.9 6.5
-3 -12 3 -9.2 5.9
15 -12 -3 18.9 9.6
3 12 3 11 5
-3 -12 3 15.8 8.7
3 -15 -3 21.3 9
-12 -3 -3 2 7.8
3 -15 -3 9.8 7.7
12 3 -3 7.5 4.4
15 -3 3 18.8 10.1
12 -15 3 18 9.4
-12 15 3 -1.1 4
3 -15 3 25.5 9.8
12 -15 -3 -0.2 6.2
-3 -12 -3 12.4 6
15 -3 -3 24.7 11.2
-3 -12 -3 19.7 8.6
12 3 3 26 10.6
-12 -3 3 12.8 4.8
12 -15 -3 28 9.6
-15 3 -3 6.9 4.8
3 -15 3 5.2 5.2
15 -12 3 21.2 9.8
-15 12 3 12.8 4.4
-2 -13 3 22.7 9.3
-2 -13 3 15.8 6.6
15 -13 -3 12.6 9.6
13 -15 3 23.8 7.4
15 -13 -3 21.7 10.1
15 -2 3 31.3 10.4
-13 15 3 24.4 5.6
13 -15 3 23.2 9.8
13 2 -3 14.6 5
2 -15 -3 41.1 9.9
-2 15 -3 17.9 5
2 13 3 19.8 5.7
-2 -13 -3 37.3 7.2
-15 13 3 37.2 5.8
2 -15 3 52.79 7.5
13 -15 -3 66.79 11.4
2 -15 3 55.19 10.3
15 -13 3 52.69 11
13 -15 -3 19.5 7
15 -2 -3 66.99 13.5
-13 -2 3 41.4 6.1
-15 2 -3 34 5.9
13 2 3 59.59 11.6
-2 -13 -3 53.39 9.9
-1 -14 3 193.48 14.2
-1 -14 3 206.38 17
1 -15 -3 198.08 17.1
-1 15 -3 176.48 12.3
14 1 -3 176.48 12.4
1 14 3 185.18 13
15 -1 3 208.18 18.3
15 -14 -3 175.18 17.6
-15 1 3 182.98 12.3
14 -15 3 198.88 17.3
15 -14 -3 182.08 16.9
14 -15 3 189.98 15
-14 15 3 187.08 13.1
-1 -14 -3 187.78 14.5
14 1 3 204.08 18.8
-15 14 3 186.68 12.7
-15 1 -3 177.48 12.8
1 -15 3 221.88 17.4
14 -15 -3 195.78 17.7
15 -14 3 170.18 13.5
15 -14 3 186.38 17.6
15 -1 -3 204.88 20.4
-1 15 3 151.78 11.9
-14 -1 3 194.38 12.7
-1 -14 -3 222.88 17
1 -15 3 188.08 14
15 -15 3 36.4 10.9
0 15 3 24.4 6.2
15 -15 -3 31.2 10.4
15 -15 3 31.9 8.4
-15 15 3 42.3 6.7
-15 0 3 38 6.7
15 0 -3 37 6.5
0 -15 3 40.9 7.9
0 15 -3 37.2 6.4
0 -15 -3 40.1 10.4
0 -15 -3 35.8 7.7
-15 0 -3 21.2 6.1
0 -15 3 36.6 10.1
15 0 3 36.9 11.3
-16 8 -3 19.5 4.7
8 -16 -3 6.6 5.3
16 -8 3 51.49 11.4
-8 16 -3 34 5.4
8 -16 3 41.4 10.3
8 8 -3 22.6 5.3
8 -16 3 47.9 10
-9 -7 -3 13.2 8.6
9 7 -3 -2 5.1
9 -16 3 2.2 8.5
7 -16 -3 10.7 8.3
7 9 3 0 4.3
16 -9 -3 10.3 9.7
16 -7 3 5.5 9.9
9 -16 3 7.9 9
-7 -9 3 1 8.1
-16 9 -3 -2.7 4.4
-7 16 -3 11.1 4.8
9 -16 -3 29.5 9.3
16 -9 3 11 9.6
-9 16 -3 12.9 4.9
16 -7 -3 28 10.8
9 -16 -3 10.1 6.2
7 -16 3 8.9 8.5
-16 9 3 1.4 3.9
7 -16 3 27.3 10.2
-16 7 -3 18.7 5.1
-7 -9 -3 -3.9 4.9
-7 -9 -3 21.7 8.6
-6 16 -3 49.8 6.5
-10 -6 -3 75.39 11.4
6 -16 -3 77.89 11
-6 -10 3 64.99 10.8
10 -16 3 61.09 10.8
10 6 -3 50.19 6.8
6 10 3 56.99 8.5
16 -6 3 69.19 11.8
16 -10 -3 73.29 12.5
16 -10 3 46.5 10.9
-6 -10 -3 45.7 7
-16 6 -3 62.59 6.8
6 -16 3 65.49 12
10 -16 -3 48.8 9.7
16 -6 -3 73.69 13
10 -16 -3 50.09 7.8
-10 16 -3 44.2 6
-10 -6 3 36.9 5.4
-6 -10 -3 63.29 10.5
5 11 3 56.89 7.3
-5 -11 3 45.5 10.4
11 -16 3 64.19 11.1
-5 16 -3 60.39 6.8
-11 -5 -3 61.19 10.5
16 -5 3 60.49 11.9
11 5 -3 44.7 6.7
16 -11 -3 74.89 12.6
5 -16 -3 50.59 9.7
11 -16 3 49.2 8.1
-16 11 3 46.1 5.7
16 -11 3 56.89 10.8
-11 -5 3 46.9 6
11 -16 -3 53.59 8.2
-5 -11 -3 65.59 8.3
16 -5 -3 84.49 14
11 -16 -3 48.2 9.9
-16 5 -3 49.7 6.6
16 -11 3 44 10.7
-11 16 -3 33.4 5.6
5 -16 3 56.89 11.4
-5 -11 -3 82.69 13.1
-4 -12 3 17.2 9.3
4 -16 -3 11.7 8.7
4 -16 -3 10.6 8.1
12 -16 3 16.1 9.9
-12 -4 -3 2.5 9.2
12 -16 3 16.7 7.8
-12 16 3 15.4 5.5
4 12 3 17.1 6.3
-4 16 -3 19.5 5.8
16 -12 -3 21 10.3
16 -4 3 17.6 10.1
12 4 -3 13 6
4 -16 3 45.1 10.9
-12 -4 3 33.6 6.1
16 -4 -3 30.3 11.7
12 4 3 14.6 9.6
-16 4 -3 24.7 6
16 -12 3 42.6 10.7
12 -16 -3 37 10.1
4 -16 3 21.1 6.3
-4 -12 -3 30.7 7.6
-4 -12 -3 40.4 10.1
-12 16 -3 17.3 5
-16 12 3 24.4 5.6
12 -16 -3 27.2 8.1
-3 16 -3 292.27 17.2
13 -16 3 295.47 19.2
-13 16 3 315.57 17.3
13 -16 3 319.57 21.3
-3 -13 3 290.57 17.9
-3 -13 3 323.07 21
16 -3 3 335.37 22.7
3 13 3 300.47 17.4
16 -13 -3 312.87 22.9
13 3 -3 292.57 17.2
3 -16 -3 286.17 20.6
-3 -13 -3 299.57 19.9
-13 -3 3 272.37 15.8
-16 3 -3 268.87 16.3
16 -3 -3 301.27 23.7
13 -16 -3 323.87 20.6
-16 13 3 266.57 15.8
16 -13 3 278.47 20.5
13 -16 -3 273.97 18.2
13 3 3 229.08 20.2
3 -16 3 267.87 16.8
3 -16 3 291.57 20.4
-3 -13 -3 262.07 17.4
16 -14 -3 12.2 9.3
-2 -14 3 15 9.2
2 -16 -3 17.4 9.4
2 -16 -3 -1.6 5.7
16 -14 -3 -8.8 9.3
16 -2 3 14.6 10.3
-14 16 3 18.1 6.4
2 14 3 19.7 6.6
-14 -2 -3 3.3 4.8
14 2 -3 17.9 6.5
14 -16 3 29.2 8.4
14 -16 3 9.6 9.6
-16 2 3 13.6 6.1
-2 -14 3 23.8 7.5
-2 16 -3 16.7 6.1
-14 -2 3 11 5.7
-16 14 3 6.8 5.6
-2 -14 -3 16.5 9.2
16 -2 -3 0.3 4.5
14 -16 -3 17.6 8.2
-14 16 -3 1.1 4.6
16 -2 -3 16.3 11.6
2 14 -3 7.7 5
14 2 3 5.8 10.3
2 -16 3 12.4 7.4
-2 -14 -3 18.2 6.9
2 -16 3 12 9.3
-2 16 3 13.7 5.3
16 -14 3 11.2 10.5
14 -16 -3 19.8 10
16 -14 3 12.5 7.5
-16 2 -3 6.5 6
1 -16 -3 25.7 9.8
16 -15 -3 7.7 9
16 -1 3 27 11.3
-1 16 -3 27.8 6.5
1 15 3 24.9 6.4
-16 1 3 20.2 6.2
-15 -1 -3 24.7 6.3
15 -16 3 37.7 11.3
1 -16 -3 30.2 7.5
-1 -15 3 23.7 9.7
15 1 -3 23.8 6.7
-15 16 3 29.5 6.6
15 -16 3 34.5 8.6
-1 -15 3 42.2 8
15 -16 -3 27.7 8.5
1 15 -3 18.1 6.1
-16 1 -3 12.3 6.1
-1 -15 -3 29.8 7.6
16 -15 3 29.2 8.2
16 -1 -3 12.7 5.8
16 -15 3 17.2 10.3
-16 15 3 17 6.2
-1 -15 -3 22.6 9.4
-1 16 3 19.5 6.2
-15 16 -3 5.6 4.9
1 -16 3 17.8 9.4
16 -1 -3 -5.4 16.1
-15 -1 3 17.6 6.1
15 1 3 14.6 10.8
15 -16 -3 23.2 10
1 -16 3 27.7 7.6
-16 16 3 102.79 10.7
0 -16 -3 109.29 12.3
0 16 3 103.09 11
16 0 3 91.89 16.5
16 -16 -3 68.29 11.7
0 -16 3 94.99 12
0 -16 3 91.69 14.8
-16 0 -3 94.69 10.9
0 16 -3 97.09 11.3
0 -16 -3 101.79 14.7
16 0 -3 94.59 11.3
16 -16 3 102.29 13.6
-16 0 3 103.79 10.7
16 -16 3 89.89 13.6
16 -16 -3 103.79 13
9 -17 3 0.8 8.8
-9 -8 -3 25 9.6
-8 17 -3 20.5 5.5
9 8 -3 21.5 6.7
-9 -8 -3 2.7 5.5
17 -8 3 13.6 10.5
8 -17 -3 18.9 6.7
8 -17 -3 25.5 9.1
9 -17 3 14.1 9.5
-17 9 -3 22.8 6
8 9 3 24.5 6.4
17 -9 -3 22.7 10.2
-17 8 3 14.8 4.4
-8 -9 3 -10 12.2
-9 17 -3 5.3 5.4
8 -17 3 2.1 8.7
9 -17 -3 15.4 7
17 -8 -3 15.2 10.6
-17 8 -3 15.5 6
8 -17 3 9.3 9.5
17 -9 3 8.9 10
-8 -9 -3 18.9 9.5
9 -17 -3 14 8.9
8 9 -3 9.3 6.3
-17 9 3 9.7 4.6
9 8 3 13.5 5.5
-8 -9 -3 9.8 6.4
10 -17 3 74.09 8.9
7 -17 -3 80.09 12.9
-10 -7 -3 80.99 12.1
-17 10 -3 79.59 9.8
-7 -10 3 44.1 10
7 -17 -3 57.29 7.6
-7 17 -3 73.19 9.9
7 10 3 83.59 10.3
17 -10 -3 101.49 16
17 -7 3 85.99 15.1
10 -17 3 78.39 12.1
10 7 -3 69.19 7.9
10 -17 -3 88.69 13.5
-17 7 -3 83.69 10.4
17 -7 -3 92.19 16.6
-17 10 3 84.59 9
7 -17 3 82.79 12.6
10 -17 -3 73.19 11.7
7 10 -3 69.39 10.1
-10 17 -3 80.09 10.1
-7 -10 -3 90.19 14.1
17 -10 3 66.69 12.4
-7 -10 -3 78.29 11.1
-10 -7 3 74.29 9.1
-17 11 -3 157.38 11.6
17 -11 -3 183.38 17.9
-11 -6 -3 150.88 15.7
6 11 3 182.58 13
6 -17 -3 165.98 15.4
11 -17 3 171.38 16.4
-11 17 3 161.78 11.8
-6 -11 3 149.99 16.5
11 6 -3 156.58 12.8
11 -17 3 179.38 14.7
17 -6 3 167.58 17.8
-6 17 -3 161.38 12
-17 11 3 158.58 11.5
17 -6 -3 158.98 18.9
11 -17 -3 156.18 13.7
6 -17 3 161.88 16.7
17 -11 3 132.09 16.1
11 -17 -3 174.98 15.8
-11 -6 3 141.59 11.6
-6 -11 -3 132.59 13.2
-11 17 -3 151.38 12
-6 -11 -3 166.68 16.2
6 11 -3 134.89 12.1
-17 6 -3 152.88 12
12 -17 3 113.09 13.3
-12 17 3 79.59 10.5
17 -5 3 64.89 12.7
17 -12 -3 93.29 15.7
-5 -12 3 84.99 8.9
12 -17 3 95.59 13.1
-5 -12 3 91.09 14.9
5 12 3 96.59 11.2
-5 17 -3 89.19 10.6
12 5 -3 81.19 10.6
-17 12 3 66.89 9.3
5 12 -3 47.9 6.9
12 -17 -3 63.09 11.4
-17 5 -3 69.89 9.5
12 -17 -3 76.79 9.4
-12 17 -3 64.79 7.5
17 -5 -3 62.49 13.5
-5 -12 -3 61.89 8.5
-5 -12 -3 80.49 13.3
5 -17 3 64.99 8.2
5 -17 3 68.69 11.9
-12 -5 3 73.19 7.4
4 -17 -3 -6.9 8.8
13 -17 3 13.5 8.1
-13 17 3 6.9 6.2
-13 -4 -3 -4.7 4.3
4 13 3 7.9 6.5
-4 -13 3 2.2 9.5
-17 13 -3 0 4.6
-4 17 -3 6.8 6
-4 -13 3 5.6 7.1
-17 4 3 0.8 5.3
13 4 -3 5.3 5.9
17 -13 -3 0 10.1
13 -17 3 7.2 9.8
17 -4 3 5.5 10.7
-13 17 -3 6.9 5.8
-4 17 3 -1.4 4.3
13 -17 -3 11.4 9.3
4 13 -3 1 4.1
17 -4 -3 5.1 11.4
-17 4 -3 6.6 5.7
17 -13 3 -1.1 8.8
-17 13 3 7.7 5.5
13 -17 -3 7.8 7.5
-4 -13 -3 8.2 7
4 -17 3 9.5 7.2
-4 -13 -3 9.2 9
4 13 -3 -9.8 5.3
17 -13 3 -6.1 5.6
4 -17 3 9 9.8
-13 -4 3 6.2 5.5
17 -14 -3 119.59 16.2
17 -3 3 134.59 16.9
-3 -14 3 118.59 16
3 14 3 146.09 12.1
-17 3 3 137.49 11.9
14 -17 3 150.18 14.2
-3 -14 3 139.69 12.7
-3 17 -3 132.59 11.9
-14 -3 -3 113.19 10.4
14 3 -3 135.99 12
14 -17 3 141.39 16.6
3 -17 -3 91.19 13.8
-14 17 3 158.08 12.3
3 -17 3 130.79 13
-14 -3 3 128.99 11.1
3 14 -3 110.29 10.3
17 -14 3 124.89 12.8
14 -17 -3 133.39 15.2
3 -17 3 134.89 15.8
-14 17 -3 131.49 11.3
-17 14 3 127.29 11.3
14 -17 -3 133.39 13.7
-3 -14 -3 136.69 15
-3 17 3 125.69 10.8
-17 3 -3 130.89 11.9
-3 -14 -3 137.69 13.4
17 -14 3 106.89 14.7
17 -3 -3 107.59 17.6
-15 -2 -3 24.6 6.4
17 -2 3 18.8 11.5
2 -17 -3 15.9 8.8
15 -17 3 16.1 10.6
-2 17 -3 22.5 6.5
15 -17 3 31.7 8.7
2 15 3 21.1 6.6
2 -17 -3 36.3 7.6
-17 2 3 26.9 6.9
-2 -15 3 21.5 10.4
-15 17 3 24 6.4
-2 -15 3 30.7 7.9
15 2 -3 26.8 6.6
17 -2 -3 14.2 5.8
17 -2 -3 -2.3 11.2
15 2 3 -2.6 9
-17 15 3 21 6.2
-2 17 3 20.9 6.4
17 -15 3 3.9 10.2
2 -17 3 23.2 7.5
-15 -2 3 20.3 6.2
-2 -15 -3 17.9 7.4
2 15 -3 18.4 6.1
2 -17 3 14.5 9.5
17 -15 3 25 8.5
-17 2 -3 21.5 6.5
15 -17 -3 29.2 8.2
-2 -15 -3 20 9.4
15 -17 -3 12 9.6
-15 17 -3 24.2 6.4
-16 17 3 12.7 6.1
1 16 3 5.1 6.1
16 -17 3 9.5 10.3
-1 17 -3 15.7 6.2
16 1 -3 14.1 6.6
-16 -1 -3 11.7 6.1
17 -16 -3 18.8 7.3
-1 -16 3 18.8 7.5
-17 1 3 19.8 6.7
1 -17 -3 19 7.1
-1 -16 3 14 10.1
17 -1 3 5.4 10.7
1 -17 -3 13.4 8.6
16 -17 3 20.4 8.5
-16 -1 3 19.9 6.1
-16 17 -3 22.1 6.2
-1 -16 -3 27.1 7.7
-1 -16 -3 27.8 9.7
16 -17 -3 12.7 9.1
-1 17 3 27.2 6.5
16 -17 -3 32.3 8.3
-17 1 -3 29.8 6.7
1 -17 3 32.4 7.7
-17 16 3 25.8 6.3
1 16 -3 27.2 6.5
17 -16 3 23.7 8.4
1 -17 3 15.8 9.7
17 -1 -3 19.7 6.7
17 -16 3 12.9 10.2
17 -17 -3 32.5 7.9
-17 17 -3 13.5 5.6
-17 17 3 14.4 6.2
-17 0 3 17.1 6.6
0 -17 3 11.6 10.1
0 -17 3 10.6 7.2
17 0 -3 8.5 6.4
0 17 3 22.3 6.4
0 17 -3 12.2 6.1
0 -17 -3 22.7 7.4
0 -17 -3 7.2 8.1
17 0 3 -3.3 9.7
-17 0 -3 18.3 6.3
17 -17 3 -8.2 9.2
17 -17 3 23 8.2
18 -9 3 -3.8 10.4
-9 18 -3 5.2 5.9
-9 18 3 -2.8 4.1
18 -9 -3 7.6 10.1
-9 -9 -3 9.8 9.5
-18 9 3 11.9 5.5
9 9 -3 6.5 6.5
9 -18 -3 9.2 8.8
9 -18 3 -7.9 8.2
-9 -9 3 9.9 5.4
9 -18 -3 -0.1 7.1
-18 9 -3 3.7 6.1
9 9 3 4.5 5.9
-9 -9 -3 -0.5 7
8 -18 -3 50.89 10.6
10 -18 3 54.49 9.1
-10 -8 -3 55.79 8
-18 10 -3 67.09 7.8
-10 -8 -3 49.5 10.5
-10 18 3 42 6.3
10 -18 3 32.1 10.3
8 -18 -3 56.19 8.7
8 10 3 65.49 7.9
18 -10 -3 41.4 11.4
-18 8 3 45.6 6.4
-8 18 -3 60.99 7.5
18 -8 3 54.79 12.8
10 8 -3 57.39 7.5
8 10 -3 34.2 7.3
18 -10 3 23.5 11.3
-8 -10 -3 38.7 10.7
-8 -10 -3 25.7 7.9
-18 10 3 37.9 6.4
10 8 3 30.7 6.4
-18 8 -3 33.5 6.6
-10 -8 3 20.6 5.7
-10 18 -3 28.7 6.3
10 -18 -3 30.4 7.9
18 -8 -3 34.6 12
10 -18 -3 32.4 9.8
-18 11 -3 16.1 6.4
-11 -7 -3 0.7 8.8
11 7 -3 19.4 6.5
11 -18 3 16.7 8.5
7 11 3 12.3 6.7
18 -11 -3 10.1 10.2
-7 -11 3 -11.9 8.8
11 -18 3 6.3 9.9
18 -7 3 5.9 10.5
-11 18 3 9.3 5.9
-7 18 -3 19.2 6.1
7 -18 -3 15.4 9
7 -18 -3 12.6 6.9
-18 7 3 14.9 5.1
-7 -11 -3 34.9 10
11 -18 -3 24.1 7.5
7 -18 3 20.7 9.8
18 -7 -3 33.8 12.3
7 -18 3 22.9 6.6
-11 -7 3 36.6 6.5
-18 11 3 32.8 6.3
7 11 -3 26.8 7
18 -11 3 12.3 9.7
-18 7 -3 35.2 6.8
-11 18 -3 40.8 7
11 -18 -3 26.9 9.4
11 7 3 24.7 6.2
-7 -11 -3 28.1 7.7
12 -18 3 -4.7 9.8
12 -18 3 6.2 8.2
18 -12 -3 5.3 10.4
6 12 3 5.2 6.7
12 6 -3 5.3 6
-18 6 3 -7.1 5
18 -6 3 -1.6 10.5
-6 -12 3 -6.3 8.9
6 -18 -3 1 8.4
-18 12 -3 3.3 6
6 -18 -3 -6.5 5.7
-6 18 -3 4.9 5.9
-18 6 3 4.9 4.4
-6 -12 3 -6.1 6.9
-12 18 3 4.3 6
-18 6 -3 2.1 5.9
12 -18 -3 4.1 7.1
6 -18 3 6.6 9.5
6 -18 3 12.1 7.1
-12 -6 3 12.5 5.7
-6 -12 -3 1.3 8.8
12 -18 -3 7.3 9.3
6 12 -3 1.2 5
-6 -12 -3 -0.7 7.2
-18 12 3 2.9 5.5
-12 18 -3 2.5 5.9
6 12 -3 0.1 6.6
18 -6 -3 4.1 10.9
12 6 3 -1.3 4.9
18 -5 3 58.69 12.8
13 -18 3 48.7 11.5
-5 18 -3 72.19 10.2
-13 18 3 79.09 10.4
13 5 -3 83.09 10.4
13 -18 3 87.89 13
5 13 3 92.19 11.1
18 -13 -3 68.79 13
-5 -13 3 89.79 11.9
-18 5 3 76.39 10
-18 13 -3 80.89 9.3
-5 -13 3 52.19 11.4
-5 -13 -3 73.39 9
-13 18 -3 84.29 10.5
-13 -5 3 85.79 10.1
13 -18 -3 87.99 14.2
5 13 -3 99.99 11.8
-18 5 -3 97.29 10.9
5 -18 3 97.69 12.4
13 -18 -3 96.29 12.6
5 -18 3 88.99 14.6
-5 -13 -3 94.29 14.7
-18 13 3 84.59 10.1
18 -5 -3 81.59 14.7
-18 4 3 19.7 6.7
-4 18 -3 16 6
14 4 -3 12.3 6.4
18 -4 3 14.2 11.1
-14 -4 -3 14.2 5.2
18 -14 -3 2.9 9.9
-4 -14 3 12.1 7.4
-4 -14 3 3 9.9
-18 14 -3 0.9 4.7
14 -18 3 22.5 8.3
4 14 3 25.4 6.8
-14 18 3 13.9 6.3
14 -18 3 6.6 10.3
-4 18 3 9 5.3
-4 -14 -3 7.5 7
4 14 -3 7.5 4.9
4 -18 3 6.5 9.3
18 -14 3 3.1 6.7
-14 -4 3 5.6 5.7
-18 14 3 10.2 5.8
4 -18 3 16.8 7.4
18 -4 -3 2.8 10.9
4 14 -3 2.7 5.8
-14 18 -3 5.3 6.1
-18 4 -3 4.2 5.7
14 -18 -3 14.7 9.6
-4 -14 -3 12.3 9.7
14 -18 -3 12.4 7.5
-3 18 -3 4.9 5.9
3 -18 -3 9.3 6.6
15 -18 3 3.4 9.9
-3 -15 3 1.8 7.3
18 -3 3 12.3 10.5
15 -18 3 12.6 8.4
3 15 3 1.6 6.5
-3 -15 3 -0.5 9.5
15 3 -3 7.8 6.1
-15 18 3 9.4 6.2
-18 3 3 1.4 6.5
-15 -3 -3 4.6 5.7
-18 3 -3 9.2 6
18 -15 3 13.2 8.3
3 -18 3 12.4 9.7
-3 -15 -3 10.7 9.4
3 15 -3 6.2 5.4
18 -3 -3 5.3 4.7
-18 15 3 6.7 5.8
-15 18 -3 4.1 6
3 -18 3 14.2 7.2
3 15 -3 -8 5.2
-15 -3 3 6.9 5.8
18 -15 3 -6.8 15.6
-3 18 3 13.7 6.3
15 -18 -3 15.7 7.8
-3 -15 -3 10.9 7.2
15 -18 -3 6.3 9.1
-2 18 -3 7.1 6
2 16 3 10 6.2
16 -18 3 17.8 8.6
2 -18 -3 22.5 7.3
-16 -2 -3 9.2 6.1
-2 -16 3 4.5 7.1
-18 16 -3 -2.4 6.6
-2 -16 3 1.4 9.5
-18 2 3 7.6 6.4
16 -18 3 -6.6 9.8
16 2 -3 4.5 6.3
18 -2 3 -2.1 9.4
18 -16 -3 -7.9 6.4
-16 18 3 9.6 6.3
18 -16 3 -6.5 14.5
2 16 -3 5.5 5.8
-2 -16 -3 7.7 6.9
2 -18 3 15.5 7.2
-16 18 -3 6.1 5.8
-2 18 3 8.3 6
16 -18 -3 17.1 7.7
18 -16 3 12.9 8
18 -2 -3 5.5 5.6
2 -18 3 0 9.2
-16 -2 3 2.4 5.9
-18 2 -3 2.5 5.7
-18 16 3 13.7 5.8
-2 -16 -3 9.5 8.8
16 -18 -3 2.7 8.7
-17 18 3 15.4 6.4
-18 17 -3 4.8 4.7
17 -18 3 19.3 8.4
17 -18 3 -9.4 8.7
-17 -1 -3 11.9 5.9
-18 1 3 12 6.3
-1 18 -3 8.3 5.9
18 -17 -3 22.6 7.6
-1 -17 3 -10 8.8
17 1 -3 10.4 6.4
1 17 3 11.2 6
1 -18 -3 22.3 7.1
-1 -17 3 12.9 7.4
1 -18 3 -9.5 8.6
1 17 -3 3.8 5.7
-1 18 3 11.5 6.5
17 -18 -3 15.7 7.6
-18 1 -3 11.4 5.9
-17 18 -3 5.1 5.6
-17 -1 3 8.7 6.2
18 -1 -3 3.2 6.3
-1 -17 -3 12.5 7
-18 17 3 8.4 5.9
1 -18 3 9.4 7.1
18 -17 3 12 8.2
-1 -17 -3 -0.8 8.3
0 -18 3 37.1 7.5
18 0 -3 36.1 7.1
-18 18 -3 32.9 6
18 -18 3 50.19 8.9
0 18 -3 39 6.5
-18 18 3 40 6.8
18 -18 -3 45.1 8.1
-18 0 3 36.1 6.8
-18 0 -3 40.3 6.7
0 18 3 44.1 7.2
0 -18 -3 48.9 7.7
10 -19 3 -5.6 8.8
19 -10 -3 10.1 10.3
9 -19 -3 12.8 7.5
-9 19 -3 16.8 6
-10 -9 -3 0.2 9.2
-19 9 3 11.4 5.8
-10 -9 -3 9 7.6
10 -19 3 6 7.8
10 9 -3 7.2 6.1
9 10 3 7.5 6.1
-19 10 -3 8.3 6.2
9 -19 -3 7.4 8.9
19 -9 3 1.2 10.7
-10 19 3 6.6 5.8
-9 -10 3 12.8 5.5
-9 -10 -3 17.3 9.3
-10 -9 3 15.4 5.9
10 -19 -3 19.8 7.5
-10 19 -3 19.1 6.1
-9 -10 -3 7.4 7.1
9 -19 3 -11.3 6.1
19 -10 3 -2.8 9.7
19 -9 -3 19.8 11.4
10 9 3 18.3 6.2
9 10 -3 7.7 6.4
-9 19 3 7.9 5.1
-19 9 -3 14.4 6.4
-19 10 3 25.2 6.1
10 -19 -3 8.8 9
19 -11 -3 16.3 10.4
-11 19 3 15 5.9
-11 -8 -3 10.4 6.7
-19 8 3 16.5 5.8
-8 19 -3 16.2 6.2
11 -19 3 -3.9 8.5
8 -19 -3 15.1 7.6
-8 -11 3 17.1 5.6
8 11 3 10.7 6.3
11 -19 3 13.7 8.1
19 -8 3 6.3 10.7
11 8 -3 21.8 6.5
-19 11 -3 18.3 6.7
8 -19 -3 1.1 8.2
-11 -8 3 22.3 6
19 -8 -3 12.2 11.1
-19 8 -3 14.7 6.3
8 -19 3 7.7 6
-8 -11 -3 19.8 7.7
-11 19 -3 17 6.1
8 11 -3 10.8 6.6
11 -19 -3 18.1 9.1
19 -11 3 -4.5 9.9
11 8 3 15.9 6.5
-19 11 3 20.1 6
-8 -11 -3 9.3 9.3
11 -19 -3 19 7.3
-7 -12 3 56.89 6.4
-19 12 -3 60.99 7.7
19 -7 3 39.4 11.6
-7 19 -3 66.69 7.6
7 12 3 60.39 7.8
7 -19 -3 56.59 8.7
12 -19 3 69.29 9.6
19 -12 -3 51.79 12.6
12 -19 3 38 11.1
12 7 -3 59.29 7.5
-12 19 3 54.59 7.3
-19 7 3 73.49 9.1
-7 -12 3 44.4 8
7 12 -3 63.79 8.1
-19 7 -3 59.09 7.6
12 -19 -3 63.89 8.9
-12 -7 3 65.49 7.2
-7 -12 -3 39.5 10.7
-12 19 -3 58.39 7.5
19 -7 -3 55.29 12.9
7 -19 3 83.29 12
12 -19 -3 41 10
-19 12 3 79.69 7.6
12 7 3 64.09 7.9
-7 -12 -3 62.39 9
13 -19 3 111.69 13.5
-19 6 3 95.49 9.5
-6 -13 3 119.79 12.8
6 13 3 116.09 12.1
19 -6 3 107.39 17.3
-13 19 3 112.29 10.9
13 6 -3 110.99 11
-19 6 3 98.99 10.2
-19 13 -3 116.29 11.1
-6 19 -3 114.59 11.2
-19 6 -3 111.69 11.4
-13 19 -3 107.79 11.3
6 -19 3 118.99 12.5
13 -19 -3 110.79 14.8
6 13 -3 112.79 12
13 6 3 83.89 10
-6 -13 -3 85.49 14.3
-6 -13 -3 109.39 12.9
-13 -6 3 114.49 10.8
13 -19 -3 110.09 13.1
-19 13 3 104.59 10.5
19 -5 3 18.8 11.4
-5 -14 3 44 8.5
-5 19 -3 31.9 6.6
5 14 3 35.8 7.4
14 5 -3 39.7 7
-19 14 -3 27.1 5.7
-19 5 3 35.7 6.9
14 -19 3 43.2 9.1
14 -19 3 20.3 10.4
-14 19 3 44.1 7
-5 19 3 18.4 4.9
14 -19 -3 22.2 9
-5 -14 -3 39.5 10.3
5 14 -3 12.6 4.8
5 14 -3 36.9 7.1
-19 5 -3 38 6.9
-5 -14 -3 32.3 8
-14 -5 3 31.1 6.3
19 -5 -3 -0.5 10.2
5 -19 3 -6.1 8.2
-14 19 -3 32.2 6.5
-19 14 3 34.5 6.4
-19 4 3 65.49 8.1
-15 -4 -3 68.29 9.3
-15 19 3 74.19 7.9
15 -19 3 47.7 11.4
15 4 -3 56.09 7.5
-4 -15 3 85.29 9.5
-4 19 -3 74.69 7.9
4 15 3 79.59 8.4
15 -19 3 70.79 9.9
-15 19 -3 52.39 7.4
15 -19 -3 52.49 8.6
4 15 -3 47.3 7.1
4 -19 3 59.69 8.2
-15 -4 3 56.09 7.2
-19 4 -3 53.99 7.5
-4 19 3 45.4 6.7
19 -15 3 53.49 8.6
-19 15 3 57.09 7
4 15 -3 42.3 6.5
-4 -15 -3 61.19 8.8
16 3 -3 10.8 6.1
-16 19 3 13 6.1
3 16 3 14.5 6.3
3 -19 -3 19.7 7
16 -19 3 16.7 8.2
-3 -16 3 11 7.4
-16 -3 -3 15.8 5.9
19 -3 3 -3.5 9.3
-3 -16 3 -7.5 9.4
-3 19 -3 4.1 5.5
-19 3 3 7.5 6.4
16 -19 3 -11.9 8.4
3 -19 3 38.2 7.7
-16 -3 3 24 6.1
-3 -16 -3 24.6 7.7
-19 16 3 26.7 6.2
19 -16 3 29.5 8.4
16 -19 -3 36.8 8
3 16 -3 17.2 5.7
-3 19 3 29.8 6.3
-19 3 -3 29 6.6
-16 19 -3 20.8 6.2
-19 17 -3 -3.2 4.8
17 -19 3 10.9 7.6
-17 19 3 -0.7 5.9
2 -19 -3 14.9 6.8
2 17 3 13.8 6.2
-17 -2 -3 6.1 5.6
-2 19 -3 3.7 5.4
-2 -17 3 4.8 7.1
19 -17 -3 -9.2 6.4
-19 2 3 6.8 6.1
17 2 -3 2 5.9
-17 -2 3 3 5.7
-19 2 -3 1.1 5.7
17 -19 -3 14.4 7.5
19 -17 3 10.3 7.8
2 -19 3 6.1 6.7
-17 19 -3 3.8 5.6
-19 17 3 5.5 5.5
-2 19 3 5.5 6.1
-2 -17 -3 6.1 7
19 -2 -3 3.8 5.1
2 17 -3 2.6 5.2
-1 19 -3 42.1 6.4
-1 -18 3 57.89 8
1 -19 -3 66.59 10.2
-19 1 3 53.89 7.1
19 -18 -3 49.7 7.8
18 1 -3 37.6 6.9
18 -19 3 59.69 8.7
-18 -1 -3 42.2 6.4
1 18 3 47.8 7
-18 19 3 56.89 7.2
1 -19 3 42.6 7.6
-19 18 3 56.49 7.1
-1 -18 -3 52.69 7.8
18 -19 -3 72.49 10.9
1 18 -3 41.6 6.5
-19 1 -3 62.29 7.1
19 -18 3 59.39 8.8
-1 19 3 51.49 7.1
-18 19 -3 55.19 6.8
-18 -1 3 58.69 7.2
19 -1 -3 43.3 6.9
-19 0 -3 35.3 6
-19 0 3 41.5 6.5
-19 19 3 43 6.4
0 -19 3 44.2 7.6
19 -19 -3 51.89 8
19 0 -3 31.2 6
0 19 3 32.1 6.2
0 19 -3 33.6 5.8
19 -19 3 45.2 8.1
0 -19 -3 39.3 7
-19 19 -3 26.4 5.3
20 -10 -3 6 10.3
10 10 -3 9.1 6
10 -20 -3 6.9 7.2
-10 -10 3 12.9 5.7
10 -20 3 -2.2 7.3
-10 20 -3 10.2 5.9
10 -20 -3 -0.4 9
10 10 3 8.4 6.3
20 -10 3 -2.6 10.8
-10 -10 -3 4.7 7.4
-20 10 -3 12.7 6.2
-10 20 3 6 5.6
-20 10 3 11.4 5.8
-11 -9 -3 18.3 7.3
9 11 3 28.5 6.6
-11 20 3 22 6.2
11 9 -3 20.9 6.2
-20 9 3 26.4 6
20 -11 -3 5.1 9.9
-9 -11 3 22.9 6.1
-9 20 -3 21.5 6.2
9 -20 -3 19.1 7.5
-20 11 -3 28.8 7
11 -20 3 18.7 8.1
11 -20 -3 6.3 8.2
-20 11 3 29.4 6.1
11 9 3 18.4 6.5
-9 -11 -3 31 8
-11 20 -3 28.4 6.1
-9 20 3 13.9 5.1
-11 -9 3 23.3 5.8
20 -9 -3 13.6 10.5
11 -20 -3 20.7 7.6
9 11 -3 29.6 6.8
-20 9 -3 28.1 7
8 12 3 30 6.7
12 -20 3 21.7 8.2
20 -8 3 -0.7 9.4
12 8 -3 24.7 6.2
-8 20 -3 23.7 6.3
-20 12 -3 11.9 6.3
8 -20 -3 22.2 8.1
-12 20 3 21.7 6.3
20 -12 -3 1.8 9.2
-20 8 3 18.3 5.9
-12 -8 -3 8 6
-8 -12 3 27.5 6
8 -20 3 22.6 6.8
8 12 -3 20.7 6.5
12 8 3 18.1 6.5
-8 -12 -3 19.4 7.5
12 -20 -3 26 7.6
-8 -12 -3 0.1 9.5
-20 12 3 29.5 6.1
12 -20 -3 7.8 8.2
-20 8 -3 20.8 6.6
-12 20 -3 24.3 6.1
20 -8 -3 6.9 10.2
-12 -8 3 24.2 6
-7 20 -3 85.99 10.6
-7 -13 3 85.69 12
13 7 -3 98.69 10.5
7 13 3 94.49 11
-7 -13 3 83.69 8.3
-20 7 3 86.69 9
7 -20 -3 92.79 11.5
-20 13 -3 104.99 10.5
13 -20 3 89.99 12.6
-13 20 3 103.09 10.2
7 13 -3 119.79 11.7
-7 -13 -3 100.79 12.8
13 -20 -3 111.69 13.1
7 -20 3 117.79 11.8
-13 -7 3 101.99 10.1
-20 13 3 109.09 10.6
13 7 3 87.99 10.7
-13 20 -3 107.29 10.9
-20 7 -3 97.59 11.3
-14 20 3 96.29 10.2
-6 20 -3 78.49 10.2
14 6 -3 86.19 10.4
-20 14 -3 89.79 9.5
-6 -14 3 81.09 11.9
6 14 3 84.79 10.4
-20 6 3 85.89 10.2
14 -20 3 95.39 12.5
14 -20 -3 94.79 12.7
6 -20 3 97.79 11.3
-6 -14 -3 98.79 12.6
-14 -6 3 91.79 10
6 14 -3 102.09 11.3
-20 14 3 92.89 10.1
-20 6 -3 102.39 11
14 6 3 73.99 9.4
-14 20 -3 92.69 10.8
15 5 -3 0.9 5.6
-20 5 3 -3.6 6.2
-20 15 -3 1.7 4.2
-5 20 -3 -2.2 5.5
-15 -5 -3 -1.9 4.8
-5 -15 3 1.4 7.2
5 15 3 1 5.9
15 -20 3 5.5 7.4
20 -5 3 -2 12.9
-15 20 3 5.8 5.7
15 5 3 -3.2 4.1
-20 5 -3 10.1 6
5 15 -3 0.2 4.2
-15 20 -3 6.5 5.7
-5 -15 -3 12.5 7.4
-15 -5 3 9.9 5.4
-20 15 3 10 5.4
-5 20 3 -1.3 4.3
5 -20 3 12.3 6.8
5 15 -3 11.6 6.3
15 -20 -3 11.8 7.3
4 -20 -3 28.1 6.2
16 4 -3 24.6 6.3
-16 20 3 36 6.5
-16 -4 -3 32.8 6.1
-4 -16 3 30.7 7.8
4 16 3 29.1 6.6
-4 20 -3 27.7 6
-20 4 3 29.5 6.8
16 -20 3 26.8 7.8
4 -20 3 29.1 7.3
4 16 -3 14.3 4.7
-20 16 3 28.4 6
4 16 -3 32.5 5.9
20 -16 3 25.1 7.6
-16 20 -3 34.8 6.6
16 -20 -3 45.6 8.3
-4 -16 -3 35 7.7
-16 -4 3 32.4 6.2
-4 20 3 22 5.7
-20 4 -3 29.5 6.3
-17 -3 -3 6 5.4
-3 20 -3 0 5
3 17 3 7 5.7
3 -20 -3 11 6.5
-17 20 3 4.4 5.4
-20 3 3 -2.4 5.7
17 -20 3 4.4 7.3
-3 -17 3 1.1 6.7
17 3 -3 -1.7 5.5
3 -20 3 4.9 6.5
20 -17 3 5.3 7.1
20 -3 -3 1.3 5.1
3 17 -3 0.7 4.3
-20 17 3 4.7 5.1
17 -20 -3 17.1 7.1
-3 20 3 2.9 5.5
-17 -3 3 -3 5.5
-20 3 -3 5.5 5.7
-3 -17 -3 7.1 6.6
-17 20 -3 6.6 5.6
18 2 -3 7.8 5.6
2 -20 -3 26.9 6.6
-18 20 3 15.3 5.4
2 18 3 15.4 5.7
-18 -2 -3 17.5 5.5
-2 -18 3 12.1 6.8
18 -20 3 9.3 7.1
-20 2 3 13.3 5.7
-2 20 -3 9 5.1
-20 18 3 9.5 5.5
2 18 -3 7.6 4.4
2 -20 3 13 6.4
-2 20 3 12.3 5.6
-18 -2 3 6.7 5.3
-20 2 -3 9.3 5.4
18 -20 -3 28.5 7.4
20 -18 3 21.3 7.3
-2 -18 -3 20.1 6.6
-18 20 -3 11.4 5.3
20 -2 -3 0.4 3.8
-1 -19 3 4.1 6.5
-20 1 3 3.5 5.2
20 -19 -3 -2.4 5.4
-19 -1 -3 9 5.2
19 1 -3 6.2 5.1
1 19 3 3.2 5.1
-19 20 3 6.5 5.1
19 -20 3 0 6.7
1 -20 -3 13.1 6.2
-1 20 -3 1 4.7
-20 1 -3 1.2 5.1
20 -1 -3 0.1 3.8
-19 20 -3 4 4.7
19 -20 -3 10.3 6.6
-1 20 3 10.8 5.3
1 -20 3 6.5 6.1
20 -19 3 7.5 7
-20 19 3 1.6 5.1
1 19 -3 -0.9 4.1
-19 -1 3 4.4 5.1
-1 -19 -3 7.2 6.1
0 -20 -3 72.99 9.2
20 -20 -3 33.6 6.1
-20 0 -3 54.49 6.3
-20 0 3 45.8 5.8
20 -20 3 66.89 8.1
-20 20 3 61.79 7.7
0 -20 3 55.19 7.1
0 20 3 39.9 5.7
11 10 -3 7.7 5.5
-10 21 -3 2.5 5.4
11 -21 3 4.8 7.2
-11 21 3 0.1 5.3
-21 11 -3 0.9 5.9
-10 -11 3 6.1 5.4
-11 -10 -3 -1.2 6.8
10 11 3 0.1 5.9
10 -21 -3 6.2 7.5
-21 10 3 8.3 5.5
10 11 -3 2.2 5.6
11 10 3 3.2 6.1
-11 21 -3 6 5.7
-10 -11 -3 2.7 7.6
-21 11 3 2.1 5.4
-21 10 -3 -2.5 5.8
-11 -10 3 6.4 5.4
10 -21 3 -0.8 5.5
-10 21 3 1.5 4.9
11 -21 -3 3.3 7.1
-9 21 -3 9 5.6
-12 -9 -3 6.5 6.2
9 -21 -3 6.2 7.3
12 -21 3 9.2 7.5
-12 21 3 13 5.9
12 9 -3 3.8 5.4
-21 12 -3 12.1 6.1
9 12 3 15.9 6.4
-9 -12 3 9.7 5.1
-21 9 3 11.6 5.4
-12 21 -3 11 5.5
12 -21 -3 14.2 7.2
-9 -12 -3 9.2 7.3
-12 -9 3 12.4 5.5
-21 9 -3 9.1 6
12 9 3 8.8 6
9 12 -3 14.7 5.9
-21 12 3 11.9 5.5
-9 21 3 0.5 4.1
8 -21 -3 136.09 12.6
-21 8 3 114.79 9.8
-8 -13 3 108.79 10.9
8 13 3 151.68 11.7
-13 21 3 154.78 11.3
13 -21 3 133.59 13.1
-8 21 -3 142.19 11.2
-8 -13 3 118.89 9.4
13 8 -3 142.79 11.5
-21 13 -3 140.09 11.2
13 8 3 148.69 11.8
-21 13 3 151.78 11.4
-13 21 -3 153.88 11.7
-21 8 -3 149.79 12.4
-8 -13 -3 146.09 13
8 -21 3 127.99 11.7
8 13 -3 166.38 11.9
13 -21 -3 147.59 14
-13 -8 3 165.28 11.3
-7 21 -3 40.8 6.4
-21 7 3 17.6 4.9
-14 21 3 43.8 6.6
-7 -14 3 34.4 7.5
14 7 -3 35.6 6.3
7 14 3 27.2 6.3
-21 14 -3 25 5.6
14 -21 3 33.1 8
-14 21 -3 48.2 6.6
14 -21 -3 48 8
14 7 3 30.7 6
-7 -14 -3 31.7 7.5
7 14 -3 34.4 6.4
-14 -7 3 43.7 6.3
-21 14 3 28.3 6
7 -21 3 30.9 7
-21 7 -3 32.7 6.7
-15 21 3 21.9 6
-21 6 3 15.9 5.9
6 15 3 14.9 5.8
15 6 -3 17.5 5.7
-6 -15 3 13.6 7.2
-6 21 -3 16.8 5.5
15 -21 3 14.9 7.5
6 15 -3 29 6.2
6 -21 3 22.3 6.8
-6 -15 -3 18.6 7
-21 15 3 18.4 5.5
-21 6 -3 23.7 6
15 -21 -3 22.8 7.5
-15 -6 3 19.1 5.5
-15 21 -3 20.3 5.9
5 16 3 45.1 6.7
-16 -5 -3 34.5 5.4
-16 21 3 51.19 6.5
-5 21 -3 37.4 5.8
-5 -16 3 41.7 7.9
-21 5 3 34.9 6.3
16 5 -3 47.1 6.7
16 -21 3 42.8 8.1
-21 5 -3 54.79 7.1
16 -21 -3 55.99 8.2
5 -21 3 52.49 7.5
-21 16 3 65.99 6.9
-16 21 -3 60.99 6.9
-16 -5 3 56.69 6.7
5 16 -3 62.69 8.9
-5 -16 -3 60.89 7.9
-4 21 -3 32.6 5.6
17 -21 3 34.9 7.5
-17 -4 -3 36.8 5.7
-4 -17 3 42.2 7.6
17 4 -3 38.8 6.2
4 17 3 34.3 6
-21 4 3 37.4 6.4
-17 21 3 35.5 5.9
-17 -4 3 35.3 6
17 -21 -3 43.5 7.3
4 -21 3 32.4 6.9
-21 4 -3 34.7 6.1
-4 -17 -3 40 7.3
-17 21 -3 39.5 6.1
-21 17 3 27 5.6
-18 21 3 5.9 4.8
-21 3 3 5.2 5.2
-3 21 -3 6.7 4.6
3 18 3 11.4 5.2
-3 -18 3 8.7 6.5
18 -21 3 5.8 6.5
3 -21 -3 11.6 5.5
18 3 -3 7.1 5.4
-18 -3 -3 1.6 4.7
-18 -3 3 8.1 4.9
-21 3 -3 11.4 5.2
-3 21 3 -1.3 4.1
-18 21 -3 12.4 5.2
3 -21 3 5.7 6
21 -18 3 6.1 6.3
18 -21 -3 16.4 6.6
-21 18 3 10.1 5.1
-3 -18 -3 14.2 6.2
-21 2 3 15.7 5.1
-2 -19 3 23.8 6.4
19 -21 3 27.5 6.6
2 -21 -3 26.9 5.9
-19 21 3 19.4 5
-2 21 -3 23.7 4.8
2 19 3 22.6 5.2
-19 -2 -3 23.9 5.2
19 2 -3 22.4 5
21 -19 3 24.8 6.7
-21 2 -3 20.7 5.4
-21 19 3 23.8 5.1
-19 21 -3 18.9 4.6
-19 -2 3 24.6 5.3
-2 -19 -3 23.9 6.3
-2 21 3 9.9 4.1
19 -21 -3 33.3 7
2 -21 3 27.3 6.3
1 20 3 13.6 4.6
-1 -20 3 6.7 5.8
1 -21 -3 20.4 5.9
-20 21 3 10 4.2
20 -21 3 16 6.2
-21 1 3 10.1 4.6
-20 -1 -3 13.3 4.9
20 1 -3 1.1 3.2
-1 21 -3 1.2 3.9
-21 20 3 10.1 4.6
-1 -20 -3 18.4 5.7
20 -21 -3 12.1 5.6
21 -20 3 12.4 6.2
1 -21 3 11.7 5.8
-21 1 -3 9.8 4.8
-20 -1 3 7.1 4.7
-1 21 3 2 3.5
-20 21 -3 -3.1 5.7
21 -21 3 2.9 5.6
0 -21 -3 10 5.7
-21 21 3 6.5 4.4
-21 0 -3 6.8 4.7
-21 0 3 3.7 4.5
0 -21 3 7 5.5
-11 -11 3 23 5.4
11 11 3 14.8 6
-22 11 3 21.1 5.3
11 -22 3 13 5.7
-22 11 -3 22.4 6.1
11 -22 -3 14.4 7.3
-11 22 3 15.7 5
-11 22 -3 21.9 5.6
-11 -11 -3 18.5 7.1
11 11 -3 12.2 5.2
10 -22 -3 36.9 7.5
-10 -12 3 38.3 5.6
-10 22 -3 39.5 5.9
12 -22 3 38.5 7.4
10 12 3 38.8 6.6
-12 -10 -3 26.7 6.2
-12 22 3 27.6 5.6
-22 10 3 28.5 5.1
12 10 -3 35.9 5.8
-22 12 -3 39.7 6.4
12 -22 -3 41.3 7.9
-12 -10 3 55.89 6.5
10 12 -3 52.69 6.5
12 10 3 35.8 6.5
-22 10 -3 44.2 6.7
-10 -12 -3 38.7 7.5
-22 12 3 39.6 6.1
-12 22 -3 44.6 6.3
-9 -13 3 0.3 3.9
9 -22 -3 5.9 6.7
-13 22 3 -0.4 5.1
9 13 3 11.2 5.9
13 9 -3 2.8 5.2
-22 9 3 -0.3 3.7
-22 13 -3 -0.6 5.4
13 -22 3 -1.6 6.3
-9 22 -3 3.9 5.1
-22 9 -3 6 5.7
13 9 3 1.1 5.4
-13 -9 3 5.2 5.1
-9 -13 -3 8.7 6.8
13 -22 -3 9.8 7.1
-22 13 3 7.1 5.2
9 13 -3 10.1 5.3
-13 22 -3 5.1 5.4
14 8 -3 63.49 8.6
14 -22 3 63.49 8.3
-8 22 -3 60.99 8.5
8 14 3 63.99 9.1
-22 14 -3 62.89 7.8
-14 22 3 62.79 8.7
14 -22 -3 69.19 10.6
-14 -8 3 70.69 8.2
-22 8 -3 71.29 9.2
-14 22 -3 67.79 8.6
-22 14 3 69.69 8.5
8 14 -3 73.59 8.8
-8 -14 -3 70.79 8.6
14 8 3 58.09 8.3
15 7 -3 51.89 6.4
-7 22 -3 38.3 5.8
-7 -15 3 42.3 7.3
7 15 3 44.2 6.2
-15 22 3 31.9 5.9
15 -22 3 37.3 7.4
15 -22 -3 54.29 7.5
-22 7 -3 47 6.7
-15 -7 3 55.19 6.4
-7 -15 -3 44.2 7.6
-15 22 -3 60.29 6.6
7 -22 3 37.4 6.6
7 15 -3 68.89 8.7
-22 15 3 47 6.1
-6 -16 3 12.6 6.3
16 6 -3 15.8 5.2
16 -22 3 14.6 6.6
-16 22 3 13.2 5.3
6 16 3 16.5 5.4
-22 6 3 11 4.7
-6 22 -3 10.1 4.7
-22 6 -3 18 5.6
-16 -6 3 21.5 5.3
-22 16 3 26.8 5.3
-6 -16 -3 26.1 7
6 -22 3 21.4 6.1
6 16 -3 25.8 5.3
16 -22 -3 25.9 6.5
-16 22 -3 28 5.5
-5 22 -3 2.4 4.6
-17 22 3 -0.1 4.8
17 -22 3 9 6.3
-5 -17 3 5.3 5.9
-22 5 3 5.5 4.9
5 17 3 6.2 4.9
17 5 -3 4 4.9
-17 -5 -3 -3.7 5.9
-5 -17 -3 7.1 6
5 -22 3 7.1 6
-17 22 -3 15 5
-22 17 3 10.3 5
-17 -5 3 4.2 4.8
17 -22 -3 13 6.1
5 17 -3 -2 3.7
-22 5 -3 3.9 5.2
4 18 3 49.2 5.7
-4 22 -3 34.5 5
-22 4 3 40.8 5.5
18 4 -3 39.9 5.8
-18 22 3 42.5 5.4
-4 -18 3 40.3 6.4
18 -22 3 39.2 6.7
-18 -4 3 50.69 5.8
18 -22 -3 61.59 9.5
4 -22 3 46.4 6.6
-22 18 3 47.5 5.8
-4 -18 -3 40.9 6.6
-22 4 -3 55.39 6.3
-18 22 -3 56.29 7.4
-19 -3 -3 6.7 3.7
-19 22 3 7.6 4.4
-3 22 -3 7.1 3.3
19 3 -3 7.8 4.1
-22 3 3 12.2 4.5
3 19 3 11.8 4.7
-3 -19 3 13.7 5.5
19 -22 3 9.1 5.7
-19 22 -3 17.1 4
-3 -19 -3 24.6 6
3 -22 3 15.5 6.1
19 -22 -3 26.4 6.7
-22 3 -3 22.3 4.9
-22 19 3 15.2 4.7
-19 -3 3 17.5 4.7
-20 -2 -3 -0.5 3.3
-2 -20 3 5.3 5.3
-20 22 3 2.8 4.2
20 -22 3 5.5 5.8
-22 2 3 1.6 4.1
2 20 3 4 4.3
2 -22 3 2.1 5.4
-22 20 3 -1.3 4.2
-2 -20 -3 10.6 5.7
20 -22 -3 2.7 4.9
-22 2 -3 8.3 4.7
-20 -2 3 2.3 4.4
12 11 -3 12.7 5.2
-11 23 -3 6.3 4.7
-11 -12 3 5.4 3.7
-23 11 3 -1.5 4.1
11 -23 -3 9.2 6.4
-23 12 -3 6.4 4.9
11 12 3 8.8 5.2
-12 -11 -3 -0.6 5.3
-12 23 3 8.5 4
-23 12 3 3.8 3.7
-12 -11 3 10.6 4.5
12 -23 -3 9.8 6.6
-11 -12 -3 11.7 5.9
-11 23 3 -2.1 4.9
11 12 -3 16.5 5.3
12 11 3 8.6 5.2
-12 23 -3 7.7 4.9
-23 11 -3 4 5.2
13 10 -3 6.6 5
-13 23 3 5.4 4.6
10 13 3 9 5.2
-10 -13 3 -4.3 5.4
10 -23 -3 5.2 5.2
-23 13 -3 10.9 4.8
-10 23 -3 12.9 4.9
13 -23 3 11.9 5.9
10 13 -3 10.2 5
13 10 3 5.3 5
-13 -10 3 11.2 4.8
-23 13 3 4.3 4.2
-13 23 -3 14.4 5.1
13 -23 -3 12 6.7
-23 10 -3 8 5.4
-10 -13 -3 10.9 6.4
-14 23 3 9.4 4.7
-9 23 -3 11.1 4.7
-23 14 -3 0.6 3.8
14 9 -3 14.2 4.9
14 -23 3 10 5.8
9 14 3 13.3 5.5
-14 23 -3 5.9 4.7
14 9 3 3.9 4.3
-23 9 -3 3.5 5
-14 -9 3 14.4 4.7
14 -23 -3 12.4 6.5
9 14 -3 9.3 4.7
-23 14 3 8.6 4.7
-9 -14 -3 7.1 6.1
-15 23 3 3.3 4.6
15 8 -3 6.3 4.8
-8 23 -3 8.1 4.6
8 15 3 8 5.1
15 -23 3 2.3 5.7
-15 -8 3 9.1 4.7
8 15 -3 14.4 4.8
15 8 3 -1.1 3.4
-23 15 3 7.2 4.5
-15 23 -3 18.5 5
-8 -15 -3 10.5 5.9
-23 8 -3 11.4 5.1
15 -23 -3 11.1 6.4
-7 -16 3 -0.4 4.5
-7 23 -3 2 4.3
-16 23 3 2.8 4.6
16 -23 3 2.2 5.5
7 16 3 2 4.9
16 7 -3 4.9 4.7
16 -23 -3 10.5 6.2
-16 23 -3 4.7 4.7
-7 -16 -3 9.1 5.7
7 16 -3 7.6 4.1
-16 -7 3 6.7 4.6
-23 16 3 5.4 4.5
-23 7 -3 6.2 4.7
-17 23 3 11.6 4.5
17 6 -3 15.1 4.9
-6 -17 3 7.4 5.1
6 17 3 13.2 5
17 -23 3 8.7 5.5
-6 23 -3 7.1 4.2
-17 23 -3 15.1 4.7
-17 -6 3 15.5 4.7
-23 6 -3 13.6 4.8
-6 -17 -3 8.3 5.7
-23 17 3 13.3 4.7
17 -23 -3 18.2 6.4
6 -23 3 5.9 5
-18 23 3 7.3 4.4
-5 23 -3 6.4 3.4
5 18 3 3.3 4.7
18 5 -3 5.6 4.5
-5 -18 3 2.6 4.8
18 -23 3 3.4 5.5
5 -23 3 6.3 5.2
-18 -5 3 9.5 4.4
-5 -18 -3 9.1 5.6
-18 23 -3 7.6 4.3
-23 18 3 5.8 4.5
18 -23 -3 15.2 6.2
-23 5 -3 3.9 4.5
19 -23 3 27.5 5.9
4 19 3 33.6 5.2
-4 -19 3 25.4 5.2
-19 23 3 38.7 5.1
-19 -4 3 31 4.8
4 -23 3 25.3 5.4
19 -23 -3 40.7 6.5
-23 19 3 29.8 4.8
-23 4 -3 32.6 4.9
-4 -19 -3 50.09 6.6
12 -24 -3 21.4 5.4
12 12 3 20.5 4.8
-24 12 -3 17.1 4
12 12 -3 20.1 5
-12 24 -3 24.3 4.7
11 13 3 7.7 4.6
-24 13 -3 0.9 3.8
11 -24 -3 -1.3 5.8
13 11 -3 13.3 4.9
-11 24 -3 6.5 4.4
13 -24 -3 2.2 5.3
-24 11 -3 7 4.4
11 13 -3 7.4 4.8
-13 24 -3 12 4.4
13 11 3 5.1 4.2
-11 -13 -3 -1.1 4.9
-13 -11 3 -4.1 3.1
-10 24 -3 15.5 4.6
14 10 -3 14.7 4.9
10 14 3 14.9 4.9
-14 24 3 -2 3.2
14 -24 3 -3.5 3.8
10 14 -3 22.3 4.8
-10 -14 -3 13.6 4.6
-24 10 -3 17.8 4.8
-14 24 -3 16.5 4.7
-14 -10 3 11 3.9
14 -24 -3 16.5 6.1
-15 24 3 -0.1 3.3
-9 24 -3 1.8 4.1
15 -24 3 1.5 4.6
15 9 -3 3.9 4.6
9 15 3 2.8 4.8
-9 -15 -3 2.2 5.3
-24 9 -3 1 4.5
-15 24 -3 1.9 4.2
-15 -9 3 5.7 4.2
15 -24 -3 4.3 5.5
9 15 -3 7.3 4.3
8 16 3 4.8 4.7
16 8 -3 5.7 4.5
-16 24 3 5.5 3.7
-8 24 -3 7.4 4.1
16 -24 3 4.3 5.1
-24 16 3 -2.5 3.6
-16 -8 3 1.7 4.3
-24 8 -3 4.8 4.5
16 -24 -3 3.9 5.9
-8 -16 -3 4 5.6
8 16 -3 -0.7 3.2
-16 24 -3 1.7 4.3
17 -24 3 25.3 5.3
-7 24 -3 22.6 3.6
-17 24 3 29.2 4.4
7 17 3 31.9 5.1
17 7 -3 32.4 5.2
-24 7 -3 40.9 5.2
-17 24 -3 37.4 4.8
-7 -17 -3 37.5 5.7
17 -24 -3 44.9 6.9
-17 -7 3 45.1 5
0 0 4 0 6.3
0 0 4 -2.5 7.9
-1 0 4 71.59 10.3
-1 1 4 61.89 8.9
-1 0 4 66.99 10.3
-1 0 4 54.69 11.2
1 -1 4 59.69 8.7
1 0 4 53.89 8.1
0 -1 4 47.8 10.6
0 -1 4 61.39 9.2
-1 1 4 71.59 12.8
1 -1 4 59.59 8.5
0 -1 4 56.59 9.5
0 1 4 57.19 8
1 -2 4 20.7 6.5
-2 1 4 14.5 9.3
2 -1 4 8.5 5.6
-2 1 4 19.7 7.9
1 1 4 16.7 5.1
-1 -1 -4 17.5 10.7
1 1 4 1.5 6.2
-1 -1 4 16 8.8
-2 1 4 17.7 7.6
-1 -1 4 19.9 7.4
-1 -1 4 21.3 8.2
1 -2 4 17.8 7.6
-1 2 4 21.3 10.3
0 -2 4 22.1 9.1
-2 2 4 27.6 10.8
-2 0 4 28.2 8.8
-2 0 4 29.2 9.9
0 -2 4 15.8 7
2 -2 4 14 6.9
-2 0 -4 18.4 9.9
0 -2 -4 14.6 11.4
2 0 4 15.8 4.3
0 -2 4 22.3 8.5
2 -2 4 10.4 5.6
2 0 4 1.3 5.9
-2 0 -4 31.4 13.2
-2 0 4 20.8 8.5
3 -1 4 1463.35 64.29
-1 -2 4 1550.74 68.09
-3 1 4 1379.36 68.49
1 -3 -4 1332.17 70.49
-2 -1 -4 1312.77 68.59
2 -3 4 1543.65 67.79
-2 3 4 1576.84 71.59
-3 2 -4 1528.95 72.19
-1 -2 4 1478.45 67.89
2 -3 4 1485.05 64.79
-1 -2 4 1529.95 68.89
1 -3 -4 1488.75 67.69
-3 1 4 1267.17 69.09
1 2 4 1377.56 63.29
-3 2 4 1568.74 72.09
-3 1 -4 1582.44 74.49
-3 2 4 1523.65 70.39
-3 1 -4 1339.97 67.49
1 -3 4 1613.04 67.59
-1 -2 -4 1410.26 71.19
-2 -1 4 1472.85 69.99
1 -3 4 1476.45 68.79
1 -3 4 1446.36 69.59
3 -2 4 1393.46 66.79
-2 -1 4 1637.64 70.39
-1 3 4 1514.25 72.69
-2 -1 4 1471.85 69.29
2 -3 -4 1289.37 69.49
0 -3 -4 148.69 18.2
-3 0 -4 152.68 15.5
-3 3 -4 137.39 18.2
0 -3 4 136.39 13.7
3 -3 4 142.49 13.6
-3 0 4 123.69 14.4
-3 0 -4 164.18 20.6
3 -3 4 126.79 8.7
-3 3 4 151.98 17.2
0 -3 -4 138.09 13.1
0 -3 4 165.08 15.5
-3 0 4 141.79 15.5
0 -3 4 143.09 13.6
-3 0 4 139.89 15.8
-4 2 -4 1230.08 62.49
-2 -2 -4 1274.77 60.09
2 -4 -4 1163.48 60.59
2 -4 4 1111.19 53.39
-2 -2 4 1151.68 57.79
-2 -2 4 1243.18 57.69
2 -4 -4 1188.58 58.19
4 -2 4 1176.18 54.09
2 -4 4 1141.69 57.19
-2 4 4 1174.58 60.19
-4 2 4 1150.88 57.89
-2 -2 4 1104.79 56.19
-4 2 4 1179.98 59.59
-3 4 4 132.49 17.7
1 -4 -4 129.09 15.7
-4 1 4 143.09 16.3
-1 -3 4 136.79 16.6
-4 3 -4 124.29 19.7
-3 -1 -4 138.19 21.2
-4 1 4 146.89 17.5
1 -4 -4 124.59 19.6
-1 -3 4 144.79 14.8
-4 1 4 128.59 15.3
3 -4 4 148.79 15.3
-1 -3 4 131.39 13.2
-3 -1 -4 140.29 17.5
-4 3 4 168.38 17.7
-3 -1 4 160.18 17.2
4 -3 4 175.18 14.8
-4 3 4 172.98 18.5
-4 1 -4 146.89 14.7
1 -4 4 186.28 18.2
-1 -3 -4 187.28 20
3 -4 -4 160.28 18.8
-3 -1 4 196.88 16.7
-1 4 4 171.48 20.1
1 -4 4 168.28 14.2
-4 1 -4 180.28 22.3
-3 -1 4 187.78 17.2
-3 4 -4 153.58 18.1
1 -4 4 164.78 14.6
0 -4 -4 375.86 23.1
-4 0 4 414.96 26.6
-4 0 4 361.16 26.4
-4 4 4 428.96 28.2
-4 0 4 405.56 25.8
0 -4 4 395.66 26.2
-4 4 -4 415.46 28.9
-4 0 -4 319.07 28.4
-4 0 -4 404.26 26.1
0 -4 -4 343.87 27.8
4 -4 4 397.16 24.3
0 -4 4 389.36 24
0 -4 4 371.96 21.2
4 -4 -4 353.66 28.3
-3 -2 -4 1203.28 67.19
2 -5 -4 1285.57 66.19
-5 2 4 1265.07 64.29
-2 -3 4 1317.97 59.99
3 -5 4 1244.48 61.89
2 -5 -4 1357.66 63.59
-5 3 -4 1049.59 65.79
-2 -3 4 1289.77 62.69
-3 -2 -4 1346.17 65.09
5 -2 4 1144.09 57.29
-5 2 4 1349.36 62.89
-2 -3 4 1201.28 61.79
-3 5 4 1314.97 64.89
-2 -3 -4 1432.46 69.09
-5 3 4 1318.37 67.79
-2 5 4 1358.46 68.39
-3 -2 4 1451.55 66.59
-5 2 -4 1314.57 71.09
-3 -2 4 1393.86 66.59
2 -5 4 1261.07 61.29
-5 2 -4 1129.69 60.89
3 -5 -4 1490.35 68.29
-5 3 4 1406.36 66.79
2 -5 4 1404.26 66.29
-3 -2 4 1309.57 64.59
5 -3 4 1344.47 62.79
2 -5 4 1241.08 61.59
-1 -4 4 70.89 10.3
5 -4 -4 77.69 17.8
4 -5 4 72.79 12.9
5 -4 -4 49.6 6.6
-5 1 4 96.89 15.7
-5 1 4 90.79 15.3
1 -5 -4 49.1 5.8
-5 4 -4 74.99 18.6
-4 -1 -4 49.6 5.8
-4 -1 -4 51.39 15.9
-5 1 4 92.29 17.4
1 -5 -4 90.19 18.6
-4 -1 -4 91.99 18
1 -5 -4 99.69 16
-4 5 4 88.89 16.6
-4 5 -4 90.39 16.2
4 1 4 57.09 6.7
4 -5 -4 40.9 5.6
-5 4 4 78.49 14.8
5 -4 4 94.59 14.7
-5 1 -4 96.69 20.6
1 -5 4 90.79 15.2
5 -4 4 57.59 6.2
-5 1 -4 89.09 13.6
-1 -4 -4 50.19 9.1
-1 -4 -4 86.99 17
1 -5 4 38 7.2
5 -5 4 262.67 21.7
-5 0 -4 221.08 13.9
-5 0 -4 274.17 29.1
-5 0 4 273.17 22.8
-5 0 4 269.77 23.1
0 -5 -4 292.67 27
-5 5 -4 271.47 27.6
5 -5 -4 262.67 14.7
0 5 4 292.07 25.9
-5 0 4 328.57 25.1
0 -5 4 293.77 24.6
-5 0 -4 316.27 27
-5 5 4 287.77 25.4
0 -5 4 281.37 21
0 -5 -4 285.97 22.5
5 -5 4 249.48 14.4
5 0 4 255.57 15.2
5 -5 -4 291.57 26.7
-3 -3 4 2.2 10.3
3 -6 -4 5.4 3.9
6 -3 4 7.4 4.1
3 -6 -4 5.9 15.4
-3 6 4 6.7 14.2
3 3 4 4.8 4.2
-3 -3 -4 -0.8 17.7
-3 -3 4 3.5 12.6
3 -6 -4 8.9 16
6 -3 4 3.4 10.3
3 -6 4 1.3 8.9
3 -6 4 1 12.2
-6 3 4 6.5 12.1
-3 -3 -4 10.7 17.8
-6 3 -4 -0.8 3.1
-3 -3 4 -2.3 11
-3 -3 -4 0.3 4.2
-6 3 -4 2.7 21.1
-6 3 4 12 15.2
6 -3 4 2.8 4.3
6 -3 -4 4.4 4
-4 6 4 27.9 14.4
-4 -2 -4 22.2 4.7
-2 -4 4 24.5 12.3
4 -6 4 25.3 5
6 -4 -4 22.5 5.1
4 -6 4 29 12.6
-2 -4 4 38.5 13.2
2 -6 -4 28 5.1
-4 -2 -4 33.2 18.2
-4 -2 -4 35.2 19.7
6 -2 4 24.2 6.1
-6 2 4 39.8 17.1
2 -6 -4 26.7 16.6
-6 2 4 35.9 14
2 -6 -4 34.1 15.4
-2 -4 4 15.2 9.7
-6 4 -4 25.6 22.4
6 -2 4 -0.8 9.6
-6 4 4 14.3 13.7
4 -6 -4 5 4
6 -4 4 6.8 4.3
6 -4 4 9.3 10.9
4 2 4 10.1 5.3
-4 -2 4 18.7 13.7
-6 2 -4 0.7 3.6
-6 2 -4 14.8 20.7
-4 6 -4 15.7 13.1
2 -6 4 18 11
-2 -4 -4 9.5 4.2
-6 4 4 9 13.6
4 -6 -4 14.5 15.2
-2 -4 -4 14.6 16.2
2 -6 4 12.7 5.2
-4 -2 4 7.4 11
2 -6 4 7.4 12.6
-2 6 4 8.9 15.5
6 -2 -4 1.1 3.8
-4 -2 4 10.6 12.5
-6 2 -4 7.9 10.7
-6 5 -4 224.78 32.6
-6 1 4 189.08 21
6 -1 4 187.28 12.8
5 -6 4 177.68 11.1
5 -6 4 173.98 20.3
-6 1 4 185.98 21.2
-5 -1 -4 162.08 11
-5 -1 -4 182.58 27.2
-5 -1 -4 184.88 26.4
6 -5 -4 185.08 12.1
-6 1 4 203.88 24
1 -6 -4 165.98 25.3
-1 -5 4 185.18 19.3
6 -5 -4 169.38 25.9
1 -6 -4 220.48 24.1
1 -6 -4 167.18 10.6
-1 -5 4 208.98 22.2
-5 6 4 200.48 23.8
5 -6 -4 193.18 12.4
-1 -5 -4 201.08 12.4
5 -6 -4 217.58 13.2
-5 -1 4 222.98 23.2
-6 5 4 248.18 25.5
6 -5 4 226.68 21.2
1 -6 4 229.18 20
-6 1 -4 237.88 24.9
-5 -1 4 217.78 22.3
5 1 4 196.88 13.4
1 -6 4 216.68 12.9
5 -6 -4 211.28 27
1 -6 4 224.68 22.3
-6 1 -4 189.08 11.9
-5 -1 4 221.78 22.9
-6 1 -4 230.08 29.2
6 -5 4 218.98 12.8
-6 5 4 254.57 23.9
-1 6 4 235.08 25.8
-1 -5 -4 201.18 25.6
-5 6 -4 222.18 25.3
6 -6 -4 503.15 25
0 -6 -4 410.96 24
6 -6 -4 480.05 39.2
-6 6 -4 574.24 41.8
6 -6 4 521.75 33.7
6 0 4 487.35 25
-6 0 -4 486.95 24.1
-6 0 4 518.45 34.5
-6 0 -4 548.65 38.5
0 -6 -4 467.75 37.3
0 -6 4 523.25 35.1
-6 0 4 530.15 35.5
0 -6 -4 475.85 23.9
0 -6 4 503.65 31.4
-6 6 4 574.34 35.9
-6 6 4 551.34 37.3
-6 0 4 537.65 34.9
0 -6 4 499.15 24.6
-6 0 -4 465.95 40.4
6 -6 4 488.15 24.4
0 6 4 501.85 36.9
4 -7 4 205.38 22.9
3 4 4 169.18 11.5
3 -7 -4 204.68 27.5
4 -7 4 189.08 11.7
-4 7 4 218.98 25.1
-7 3 4 206.28 26.2
-3 -4 4 205.78 23.9
3 -7 -4 182.98 11.8
-4 -3 -4 221.98 30.1
7 -4 -4 185.78 12.6
3 -7 -4 209.08 29.3
7 -3 4 193.08 12.7
-4 -3 -4 190.88 11.9
-3 -4 4 205.88 23.8
7 -3 4 174.28 11.3
-7 3 4 221.18 23.6
-7 4 -4 201.58 33.5
-4 -3 -4 197.08 30.4
-4 -3 4 236.38 24.5
7 -4 4 212.38 12.6
4 -7 -4 209.68 12.7
-4 -3 4 188.48 21.7
-7 4 4 242.38 28
4 -7 -4 202.78 30
-4 -3 4 235.08 23.5
7 -3 -4 196.28 12.7
-3 -4 -4 203.58 12.6
-3 7 4 218.58 26.1
4 3 4 202.88 13.2
7 -4 4 190.18 21.2
3 -7 4 198.38 24.3
3 -7 4 205.38 13
-7 4 4 227.88 23.8
-7 3 -4 154.98 29.9
-3 -4 -4 183.38 29.7
5 -7 4 242.18 23.9
-5 -2 -4 228.68 13.7
2 -7 -4 228.38 13.3
7 -2 4 242.38 15.8
-5 -2 -4 236.78 31.1
-7 5 -4 291.47 39
-5 7 4 268.57 27.5
7 -5 -4 220.28 14
5 -7 4 239.58 14.1
2 -7 -4 257.67 29.4
2 -7 -4 245.68 29.7
-2 -5 4 248.78 24
-7 2 4 270.87 25.9
-2 -5 4 270.17 25.3
7 -5 -4 225.28 30.4
-5 -2 -4 245.18 30.4
-7 2 4 243.28 29.4
-5 -2 4 293.27 26.2
2 -7 4 285.37 26.4
-7 2 -4 236.18 14.3
-2 -5 -4 270.17 30.4
-2 7 4 288.97 30.1
-7 5 4 285.07 30.7
5 -7 -4 265.67 15.3
5 2 4 272.37 16
5 -7 -4 249.48 30.9
7 -5 4 267.67 23.8
7 -5 4 265.57 15.1
2 -7 4 268.87 15.4
-5 -2 4 288.67 26.1
7 -2 -4 226.68 14.8
-7 2 -4 303.67 37.7
-7 5 4 290.27 26.7
-2 -5 -4 268.17 15.3
-5 -2 4 302.17 26.4
-1 -6 4 175.88 12.3
-7 6 -4 217.08 34.8
7 -6 -4 141.29 24.1
-7 1 4 179.98 24
1 -7 -4 174.78 11.3
-6 -1 -4 166.48 11.3
7 -6 -4 173.58 12.4
-6 -1 -4 209.98 31.7
-1 -6 4 174.48 22.3
-6 7 4 190.88 27
-7 1 4 158.28 25.9
7 -1 4 174.28 12.9
1 -7 -4 179.28 27.2
1 -7 -4 139.79 24.3
6 -7 4 170.78 11.4
6 -7 4 168.18 24.3
-7 1 4 167.28 24.1
-1 -6 4 169.58 25.9
-6 -1 -4 155.08 26.7
1 -7 4 205.08 24
1 -7 4 200.38 13
-7 6 4 210.68 25.2
-1 -6 -4 167.58 11.5
6 -7 -4 186.78 12.5
7 -6 4 175.08 22
1 -7 4 189.58 23.1
6 -7 -4 163.08 25.4
-7 1 -4 193.58 12
6 1 4 201.18 14.1
-6 -1 4 203.88 25.5
6 -7 -4 195.38 13.1
7 -6 4 193.28 12.8
-1 -6 -4 192.98 27.7
-1 -6 -4 204.18 12.9
-6 -1 4 213.48 25.4
-7 6 4 210.78 27.9
-6 -1 4 200.88 25.7
-1 7 4 228.18 27.7
-7 1 -4 198.68 32.3
-7 7 4 764.92 50.09
0 -7 4 796.12 36.8
7 -7 -4 797.22 37.2
7 -7 -4 817.62 37.4
0 7 4 832.82 50.49
0 -7 -4 794.82 36.2
-7 7 -4 657.33 55.49
-7 0 4 819.42 48.6
-7 0 4 894.81 50.59
0 -7 -4 714.63 50.99
-7 0 -4 786.82 36.4
0 -7 4 825.72 48.1
7 0 4 747.23 37.8
-7 0 -4 747.63 54.79
0 -7 -4 775.62 37.1
0 -7 4 728.73 44.5
7 -7 -4 727.13 52.39
-7 0 4 784.62 50.59
7 -7 4 797.52 36.6
-7 7 4 840.02 48.9
7 -7 4 740.83 46.3
8 -4 -4 643.74 31.7
4 -8 -4 606.44 46.5
-8 4 4 694.23 42.4
-4 -4 4 708.03 42.9
-4 -4 -4 654.43 30.8
-4 -4 4 675.93 42.4
8 -4 4 624.24 31.5
4 -8 -4 635.14 47.1
4 -8 -4 636.24 30.8
-8 4 4 631.84 45.4
8 -4 4 630.54 30.7
4 -8 4 654.53 42.3
4 -8 4 635.04 30.4
-4 -4 -4 623.04 48.1
-4 -4 -4 702.83 49
4 4 4 624.84 31.3
4 -8 4 646.64 31.1
-8 4 -4 695.03 56.19
-4 8 4 656.43 43.5
-8 3 4 53.09 21.2
5 -8 4 65.79 7.9
-3 -5 4 64.49 18.9
-5 -3 -4 47.5 24.6
5 -8 4 53.79 17.7
3 5 4 40 7
8 -3 4 46.9 7.1
-3 -5 4 38.9 6
-5 -3 -4 48.8 7.8
-5 -3 -4 64.49 24.7
3 -8 -4 66.79 7.7
5 -8 4 51.09 7.6
-8 3 4 53.09 17.6
8 -3 4 54.79 8.8
-5 8 4 61.79 20.1
-8 5 -4 54.39 32.4
3 -8 -4 42.3 22.1
8 -5 -4 51.39 8.9
-3 -5 4 51.09 18.3
3 -8 -4 53.39 22.9
8 -5 4 50.39 7.9
-3 -5 -4 75.79 8.7
8 -3 -4 57.49 9.6
-3 -5 -4 73.19 26.1
-5 -3 4 64.49 18.3
-8 5 4 54.09 21.6
5 -8 -4 73.79 9.1
-8 3 -4 53.99 6.8
-3 8 4 56.99 21.2
3 -8 4 65.89 9
3 -8 4 94.69 21.3
-5 -3 4 71.19 18.6
5 3 4 70.79 9.8
-8 5 4 63.29 18.6
5 -8 -4 83.19 25.5
8 -5 4 64.59 8.7
-8 3 -4 61.09 29.4
8 -2 4 97.89 11.8
8 -6 -4 85.79 10
-2 -6 4 121.89 22.2
2 -8 -4 98.99 9.1
-8 2 4 159.38 24.5
-6 -2 -4 105.19 27.7
6 -8 4 86.69 20.4
-2 -6 4 108.89 20.1
-8 2 4 93.69 23.4
6 -8 4 100.79 10
2 -8 -4 30 24.6
2 -8 -4 109.39 26.4
8 -6 -4 90.09 24
-8 2 4 96.89 20.4
-6 -2 -4 103.89 9.1
-8 6 -4 88.49 35.2
-6 8 4 94.59 23.5
-2 -6 4 97.19 9.7
-6 -2 -4 82.79 26.5
8 -6 4 53.39 18.9
8 -2 -4 75.99 10.3
-8 6 4 75.99 22.5
-2 -6 -4 52.69 21.6
6 2 4 91.89 9.9
-2 8 4 90.09 22.4
-8 6 4 95.59 21.8
2 -8 4 94.09 21.8
-2 -6 -4 78.99 9.3
-6 -2 4 103.89 21.6
-6 -2 4 76.59 19.5
6 -8 -4 75.69 10
-8 2 -4 84.59 31.1
6 -8 -4 65.79 23.4
-8 2 -4 76.99 8
2 -8 4 82.59 9.7
6 -8 -4 82.89 9.6
8 -6 4 84.29 9.7
-6 -2 4 57.39 21.3
-7 -1 -4 54.49 27.2
8 -7 -4 108.69 11.7
-7 8 4 129.59 26.2
-7 -1 -4 104.19 27.8
1 -8 -4 106.49 25.9
1 -8 -4 121.19 12
8 -7 -4 91.09 24.2
-7 -1 -4 128.59 10.2
1 -8 -4 126.99 10.1
8 -1 4 125.99 12.7
-1 -7 4 131.49 22.8
-1 -7 4 109.19 20.1
-8 1 4 125.49 26.7
-8 7 -4 63.99 35.8
7 -8 4 134.69 11
-8 1 4 137.89 23
8 -7 -4 127.19 11.2
1 7 4 129.89 25.4
-8 1 4 139.59 24.4
-1 -7 4 131.29 11
7 -8 4 115.79 22.3
-7 -1 4 138.09 23.8
-8 7 4 115.99 25.7
8 -1 -4 99.09 11.3
1 -8 4 118.79 22.4
7 1 4 123.49 12.7
-8 1 -4 81.29 29.2
-8 1 -4 120.69 9.7
7 -8 -4 125.09 10.2
7 -8 -4 113.09 11.6
-7 -1 4 89.79 21.6
-1 -7 -4 115.79 11.2
-1 -7 -4 109.79 9
-8 7 4 115.79 22.1
8 -7 4 71.19 19.8
-1 8 4 95.09 22.9
8 -7 4 119.59 9.9
1 -8 4 121.59 11
-7 -1 4 74.29 23.3
-1 -7 -4 112.69 26.4
7 -8 -4 95.29 26.1
0 -8 4 146.79 11.9
-8 8 4 146.09 25.4
8 -8 4 82.29 21.1
0 -8 4 87.09 20.7
-8 0 4 76.99 26.6
8 0 4 142.69 13.9
-8 0 4 123.29 24
8 -8 -4 144.29 12
-8 0 -4 124.29 31.8
0 -8 -4 144.39 30.4
8 -8 -4 130.49 29.3
-8 0 -4 136.09 11.1
0 -8 -4 141.69 10.5
8 -8 4 152.98 11.7
8 -8 -4 142.59 13.2
-8 8 4 128.59 27.4
-8 0 4 107.59 23
0 -8 -4 140.99 12.4
-9 4 4 760.02 52.79
4 -9 -4 732.03 53.39
-5 -4 -4 777.62 35.9
-5 -4 -4 735.53 54.89
-4 -5 4 777.12 48.9
-5 9 4 724.93 49.8
9 -4 4 742.43 35.6
-5 -4 -4 635.64 53.59
5 -9 4 747.43 48.5
-9 5 -4 722.23 65.19
5 -9 4 806.62 35.8
-4 -5 4 788.62 48.3
9 -4 4 790.92 36.8
4 5 4 761.92 36.4
5 -9 4 802.12 36.3
-9 4 4 780.82 48.8
4 -9 -4 757.62 35.8
9 -5 -4 751.72 36.5
5 -9 -4 647.74 54.09
-9 5 4 823.72 48.9
5 -9 -4 773.02 35.8
4 -9 4 776.22 49.3
-4 9 4 615.64 47.4
9 -5 4 764.62 36.2
4 -9 4 741.13 35.1
-9 4 -4 734.33 62.99
4 -9 4 792.72 36.1
-5 -4 4 779.62 48.4
-9 5 4 765.92 52.99
9 -4 -4 789.62 36.9
5 4 4 763.92 36.5
-5 -4 4 744.33 48.3
-4 -5 -4 655.83 52.69
-4 -5 -4 764.02 35.7
9 -5 4 805.42 35.8
9 -6 -4 275.07 37
-6 -3 -4 162.98 32.7
-6 -3 -4 223.18 13.7
-9 6 -4 117.89 41.1
9 -6 -4 216.18 14.8
6 -9 4 217.48 30.5
3 -9 -4 238.98 33.9
3 6 4 192.88 13.9
6 -9 4 242.98 14.3
-9 3 4 218.08 33.6
-3 -6 4 223.88 14.2
6 -9 4 230.38 14.5
-6 9 4 199.98 31.8
-6 -3 -4 147.99 30.6
3 -9 -4 213.78 13.2
-3 -6 4 236.78 29.2
-9 3 4 240.58 29.9
-3 -6 4 209.98 30.1
9 -3 4 236.98 15.7
-9 6 4 293.47 36
9 -3 -4 262.67 17.2
-9 6 4 258.87 30.1
-6 -3 4 272.07 30.1
-6 -3 4 256.97 29.7
9 -6 4 238.58 15
6 -9 -4 268.17 16.3
3 -9 4 269.67 16
-9 3 -4 271.57 42.3
6 -9 -4 247.08 36.9
-3 -6 -4 270.77 15.9
9 -6 4 280.47 16
3 -9 4 283.27 31.6
6 3 4 258.27 16.3
-3 -6 -4 191.88 31.7
-9 3 -4 217.18 14.3
-2 -7 4 168.58 12.7
-7 -2 -4 168.18 11.7
-9 2 4 139.79 24
-9 2 4 195.78 28.7
7 -9 4 167.08 12.9
2 -9 -4 144.79 29.8
-2 -7 4 88.79 23.6
7 -9 4 176.68 12.6
2 -9 -4 139.39 13.4
2 -9 -4 164.98 11.6
-7 9 4 120.09 26.9
-7 -2 -4 148.59 32.2
9 -2 4 188.48 14.3
7 -9 4 120.09 24.5
-9 2 4 114.69 27.9
-2 -7 4 139.19 24.6
9 -7 -4 162.88 12.1
9 -7 -4 160.98 29.5
-9 2 -4 224.28 13.5
2 -9 4 191.58 31.3
-2 -7 -4 227.18 14.7
7 -9 -4 157.58 30
-7 -2 4 207.18 30.5
-7 -2 4 227.28 31.6
7 -9 -4 210.38 15.3
9 -2 -4 200.08 15.8
2 -9 4 236.08 14.7
7 2 4 215.98 16.3
9 -7 4 232.18 14.4
-9 7 4 165.18 25.9
-9 2 -4 233.38 40.8
-9 7 4 217.58 34.7
-2 -7 -4 232.18 34.1
7 -9 -4 225.68 14.8
-9 1 4 68.29 23.9
-8 9 4 50.89 22.4
1 -9 -4 56.89 28.6
9 -8 -4 70.39 29.2
9 -1 4 82.79 11.8
-9 1 4 10.8 29.1
-8 -1 -4 63.79 9.1
-8 9 4 30.5 26.3
9 -8 -4 49.7 9.8
8 -9 4 -1.1 23.9
-8 -1 -4 60.19 31.2
1 -9 -4 72.19 9.9
-1 -8 4 71.39 10.4
-1 -8 4 69.39 22.5
1 -9 -4 74.39 8.7
9 -8 -4 80.69 10
-9 1 4 59.99 21.8
8 -9 4 76.19 9.9
9 -1 -4 84.69 12.5
1 -9 4 95.19 25
8 -9 -4 83.29 12
-1 -8 -4 107.09 9
-9 8 4 68.09 26.9
-1 -8 -4 105.69 11.1
-8 -1 4 79.69 23.4
8 -9 -4 44.2 27.5
-9 1 -4 102.89 10
8 1 4 116.09 13.1
-1 -8 -4 65.69 27
-8 -1 4 90.89 23.6
-9 8 4 48.3 23.9
9 -8 4 111.69 10.8
1 -9 4 102.19 10.8
-9 1 -4 92.29 35.4
8 -9 -4 106.39 10.7
0 -9 4 93.69 25.6
9 -9 -4 133.39 14.3
0 -9 4 163.48 12.7
9 0 4 162.78 14.4
9 -9 -4 150.08 12.6
9 0 -4 114.19 13.9
-9 0 -4 72.69 34.6
9 -9 4 168.18 12.6
0 -9 -4 65.89 30.2
0 -9 -4 147.09 13.7
-9 0 -4 149.69 11.5
0 -9 -4 150.08 11.5
5 -10 4 560.74 46.2
-5 -5 4 653.73 46.1
5 -10 4 704.23 32.7
5 -10 4 710.03 32.1
-10 5 4 531.15 52.19
10 -5 4 705.73 32.2
5 -10 -4 669.23 32.2
5 -10 -4 560.94 50.89
5 5 4 691.43 33.1
-5 -5 -4 676.03 32.1
10 -5 -4 670.33 33.3
10 -5 4 653.63 32.7
10 -4 4 164.68 12.6
6 -10 4 174.48 12.4
4 -10 -4 123.69 32.9
-10 4 4 89.39 24.3
10 -6 -4 171.68 13.3
10 -4 4 155.88 11.6
4 6 4 160.78 12.5
6 -10 4 167.58 12.7
6 -10 4 84.09 25
-4 -6 4 160.08 12.4
-10 4 4 101.79 31.1
-6 -4 -4 154.28 11.8
-4 -6 4 140.59 25.6
4 -10 -4 151.58 11.8
6 4 4 175.88 14.5
10 -6 4 175.48 13.3
6 -10 -4 176.38 13.3
-10 6 4 132.19 32.3
-4 -6 -4 163.18 12.5
4 -10 4 170.18 12
10 -6 4 185.78 12.9
10 -4 -4 173.18 14.3
4 -10 4 179.98 13.2
-6 -4 4 109.59 26
4 -10 4 151.98 28.3
-10 4 -4 95.79 39.8
3 -10 -4 35 8.4
-10 3 4 23.9 31.6
-7 -3 -4 16.8 30.8
-10 3 4 23.8 24.1
3 -10 -4 30.9 28.8
3 7 4 33.4 6.5
7 -10 4 2.6 24.3
-3 -7 4 35.5 24.4
-7 10 4 5.2 46.2
10 -7 -4 41.3 31.1
-3 -7 4 3.9 26.2
-10 3 -4 29.7 39.5
-10 3 -4 22.9 5.3
-10 7 4 22.5 28.4
3 -10 4 23.1 23.8
-7 -3 4 19.9 22.3
7 -10 -4 4.6 32.5
-10 7 4 -4.6 24.1
-3 -7 -4 24.2 29.1
-7 -3 4 30.4 23.8
2 -10 -4 126.19 10.6
8 -10 4 130.99 12.2
8 -10 4 133.89 10.9
10 -2 4 137.29 13.2
-2 -8 4 129.49 11.7
2 -10 -4 41.8 32.6
-8 -2 -4 130.89 10.9
10 -8 -4 110.99 13.1
10 -8 -4 125.59 11
2 -10 -4 100.59 13.4
-10 2 -4 32.6 39.8
-8 -2 4 36 23.9
2 -10 4 55.59 26.7
8 -10 -4 6.4 37.3
-8 -2 4 8.5 23.5
-2 -8 -4 16.2 29.4
-10 8 4 -4.4 26.9
-1 -9 4 56.19 9.1
10 -9 -4 44.4 10.9
1 -10 -4 30.1 9
10 -9 -4 52.29 9.1
10 -1 4 48.3 9.3
9 -10 4 52.59 8.5
1 -10 -4 2.8 59.09
-10 1 4 3.8 45.9
-1 -9 4 2.3 27.6
-9 -1 -4 46.3 7.9
1 -10 -4 46.6 7.7
9 -10 4 42.4 7.9
9 1 4 63.59 10.6
-10 1 -4 42.3 7.3
1 -10 4 50.89 8.9
-1 -9 -4 1.1 61.59
-9 -1 4 2.1 45.3
10 -9 4 53.29 8.9
9 -10 -4 44.2 8.5
1 -10 4 0.6 33
-10 1 -4 7.3 56.49
-1 -9 -4 50.89 8.8
-1 -9 -4 36.7 6.5
10 -1 -4 22.1 9.7
9 -10 -4 31.6 9.6
10 -10 -4 15.5 7.5
0 -10 4 18.3 7.5
10 -10 4 8.2 6.5
0 -10 -4 17.2 6.2
10 -10 -4 3.9 9.3
10 0 -4 5.9 9.4
0 -10 -4 12.4 7.8
10 -10 4 18.2 7.8
-10 0 -4 12.7 6.5
10 0 4 16.9 7.8
-6 -5 -4 73.79 9.1
6 -11 4 57.09 8.8
-5 -6 4 59.49 8.5
11 -5 4 62.19 8.6
6 -11 4 61.69 10.2
11 -6 -4 74.49 10.5
11 -5 4 70.99 10.3
5 6 4 58.39 9.7
5 -11 -4 56.99 9.4
-11 6 4 -5.3 62.99
5 -11 4 60.99 9.8
11 -5 -4 61.99 10.1
6 5 4 72.69 12.1
-5 -6 -4 60.99 9.7
11 -6 4 63.89 9.6
5 -11 4 66.89 10.4
6 -11 -4 81.69 9.9
11 -6 4 66.19 9.9
-7 -4 -4 233.08 15
7 -11 4 237.28 15.7
-4 -7 4 228.78 15.9
4 -11 -4 228.68 15
11 -4 4 243.18 16.7
11 -7 -4 232.98 16.4
7 -11 4 242.18 15.8
7 -11 -4 215.28 15.4
-4 -7 -4 219.28 14.7
11 -4 -4 220.68 16.8
7 4 4 207.48 16.7
11 -7 4 204.88 14.6
4 -11 4 192.18 13.3
11 -7 4 204.18 14.9
4 -11 4 216.58 15.3
3 -11 -4 78.49 9.6
8 -11 4 76.39 10.9
3 -11 -4 50.89 10.1
8 -11 4 76.39 11.1
11 -8 -4 77.79 11
11 -3 4 72.69 11.9
-3 -8 4 64.09 10.5
-8 -3 -4 72.99 9.6
3 -11 4 97.49 11.3
11 -8 4 73.89 10.2
11 -8 4 89.49 11
11 -3 -4 92.09 13.3
8 -11 -4 84.29 11.9
8 3 4 96.29 13.1
-3 -8 -4 102.09 11.1
11 -2 4 102.79 12.9
-9 -2 -4 119.89 11.1
2 -11 -4 106.19 10.7
11 -9 -4 92.79 14.4
11 -9 -4 111.79 11.9
-2 -9 4 89.89 11.6
9 -11 4 101.09 11.7
9 -11 4 106.09 11.7
2 -11 -4 83.29 12.7
-2 -9 -4 97.29 11.6
11 -2 -4 88.19 14.6
9 -11 -4 103.09 13.2
9 -11 -4 100.29 12.2
9 2 4 109.69 13.3
2 -11 4 113.49 11.9
11 -9 4 113.29 11.8
11 -1 4 38.3 9.6
-1 -10 4 46.2 9.2
1 -11 -4 40 9.3
10 -11 4 19 7.2
11 -10 -4 35.6 8.4
1 -11 -4 34.1 7.5
11 -10 -4 24.1 10.2
-10 -1 -4 35.3 7.7
10 -11 4 44.1 9
10 -11 -4 40.1 8.7
11 -10 4 47.7 9
10 1 4 41 9.8
1 -11 4 49.5 9
-1 -10 -4 44.7 9.4
-11 1 -4 30.9 7.1
10 -11 -4 26.4 9.3
11 -1 -4 28.8 10.8
0 -11 -4 128.29 11.9
11 0 -4 130.89 16.7
11 0 4 137.09 14.4
11 -11 4 139.29 13.5
-11 0 -4 125.19 12.4
11 -11 -4 118.09 14.9
0 -11 4 141.89 13.7
0 -11 -4 147.79 13.9
11 -11 -4 138.49 14.2
6 -12 4 12 7.5
12 -6 -4 1.6 8.1
12 -6 4 4.2 7.9
6 -12 -4 4.7 6.7
6 6 4 -1.8 8.7
-6 -6 4 -3.6 5.8
12 -6 4 10.5 7.3
-6 -6 -4 4.2 6.2
6 -12 4 8.7 7.5
-5 -7 4 110.29 11.6
7 -12 4 116.69 12.1
12 -5 4 116.79 13
5 7 4 90.59 12.1
-7 -5 -4 111.89 11.3
12 -7 -4 122.79 13
7 -12 4 115.49 12.1
5 -12 -4 126.09 11.4
12 -5 4 86.29 10.3
12 -5 -4 154.38 15
7 -12 -4 156.08 13.3
5 -12 4 154.08 12.9
12 -7 4 138.59 13.3
7 5 4 136.19 14.8
12 -7 4 143.89 13.3
5 -12 4 147.59 13.7
-5 -7 -4 141.49 12.6
8 -12 4 127.59 12.7
4 -12 -4 119.59 11.6
8 -12 4 124.39 12.9
12 -4 4 122.39 13.8
12 -8 -4 123.09 13.1
-4 -8 4 114.89 12.9
-8 -4 -4 121.89 11.7
8 4 4 171.28 15.9
12 -4 -4 166.88 16.3
4 -12 4 177.78 14.6
-4 -8 -4 165.08 13.6
12 -8 4 161.48 13.7
12 -8 4 173.68 13.8
8 -12 -4 175.18 14.7
3 -12 -4 8.2 6.8
12 -3 4 9.7 9
3 -12 -4 2.7 8.4
9 -12 4 8.6 7.6
12 -9 -4 -3.9 8.5
-3 -9 4 17 8.6
-9 -3 -4 11.1 7.1
12 -9 -4 6.8 7.6
9 -12 4 15 8.5
12 -9 4 13.2 8
12 -3 -4 12.6 9.8
3 -12 4 12.3 7.9
12 -9 4 -0.4 6.5
-3 -9 -4 14.2 7.5
9 -12 -4 14.5 8.4
9 3 4 13.2 9.4
10 -12 4 60.99 10.1
2 -12 -4 45.3 10
12 -2 4 58.39 11.3
2 -12 -4 50.49 8.6
-2 -10 4 56.09 10.1
12 -10 -4 47.5 9.6
-10 -2 -4 43.8 8.6
12 -10 -4 42.1 11.2
10 -12 4 33.2 8.1
12 -2 -4 29 11.3
12 -10 4 43.6 9.6
10 2 4 30 9.2
10 -12 -4 28.2 9.6
2 -12 4 34.7 8.7
-2 -10 -4 33.3 8.5
12 -11 -4 318.27 21.4
1 -12 -4 286.37 18.2
12 -11 -4 298.97 19.8
11 -12 4 293.27 19.2
12 -1 4 296.47 20.4
-1 -11 4 290.57 19.4
1 -12 -4 273.97 19.9
-11 -1 -4 287.17 18.6
12 -1 -4 308.57 24.3
12 -11 4 314.87 20.3
11 1 4 321.77 21.4
-1 -11 -4 328.97 20.8
11 -12 -4 317.47 20.6
11 -12 -4 349.27 21.9
1 -12 4 315.17 20.4
12 -12 -4 13.8 8.5
12 -12 4 24.1 8.9
12 0 4 31 10.4
0 -12 4 25.3 9.5
12 -12 -4 13.4 9.9
0 -12 -4 1 5.9
-12 0 -4 2.4 6.6
0 -12 -4 21.9 8.8
12 0 -4 12.8 11.5
-7 -6 -4 34 8
7 -13 4 35.8 9.2
6 7 4 17.2 9
13 -7 -4 21.9 8.6
7 -13 4 34.5 8.9
-6 -7 4 16.8 7.3
6 -13 -4 24.6 7.4
13 -6 4 17.6 7.4
13 -6 4 33.5 9.7
6 -13 4 8.2 7.6
-7 -6 4 -2.6 6
-6 -7 -4 15.2 7.5
7 6 4 10.7 9.3
13 -7 4 6.7 7.9
13 -6 -4 10.8 8.8
13 -7 4 8.5 8
6 -13 4 12.2 8.3
7 -13 -4 13.2 7.4
8 -13 4 82.09 11.8
-8 -5 -4 86.69 11.6
13 -5 4 82.39 13.1
-5 -8 4 74.59 11.5
8 -13 4 94.19 12.8
13 -8 -4 88.79 12.7
5 -13 -4 89.69 11.1
-5 -8 -4 68.69 11.4
13 -8 4 75.79 11.5
8 5 4 74.69 13.3
8 -13 -4 75.89 11.4
13 -5 -4 94.79 13.4
13 -8 4 64.39 11.2
5 -13 4 76.99 12.5
5 -13 4 60.39 8.9
13 -9 -4 155.78 14.5
13 -4 4 145.49 14.2
-9 -4 -4 154.48 13.9
4 -13 -4 163.38 13.2
9 -13 4 143.99 13.9
9 -13 4 162.58 14.2
-4 -9 4 154.18 13.7
4 -13 -4 110.79 14.2
13 -9 4 144.09 13.8
9 4 4 137.19 15.7
13 -9 4 115.39 13.2
4 -13 4 144.69 13.8
9 -13 -4 134.89 13.9
13 -4 -4 153.68 16.7
-4 -9 -4 145.99 13.8
-10 -3 -4 373.66 22
13 -10 -4 367.06 22.6
-3 -10 4 368.76 22.3
3 -13 -4 361.66 22.6
13 -3 4 373.66 22.6
10 -13 4 366.66 22
3 -13 -4 351.16 21.2
10 -13 -4 432.36 25
13 -3 -4 444.56 27.7
3 -13 4 410.36 24.8
13 -10 4 419.06 24.4
10 3 4 430.06 25.6
-3 -10 -4 434.76 24.6
2 -13 -4 37 8.3
13 -11 -4 32.8 10.9
-2 -11 4 29.6 9.5
13 -2 4 35.8 10.9
2 -13 -4 32.9 9.5
11 -13 4 38.7 9.7
-11 -2 -4 25.1 8.5
13 -11 -4 33 9.9
11 2 4 50.39 11.3
-2 -11 -4 42.1 9.3
13 -11 4 33.5 9.6
13 -2 -4 31 12.4
11 -13 -4 39.4 10.6
2 -13 4 42.2 10.1
13 -12 -4 160.58 15.7
1 -13 -4 162.68 15.5
13 -1 4 160.18 16.1
1 -13 -4 113.79 11.9
12 -13 4 152.88 15
-1 -12 4 146.59 14.9
-12 -1 -4 111.79 12.9
13 -12 -4 155.78 16.8
12 -13 -4 171.38 16.1
12 1 4 181.08 16.9
13 -1 -4 189.38 21
-1 -12 -4 183.88 16.3
13 -12 4 177.98 16.4
12 -13 -4 197.28 17.3
1 -13 4 182.58 16.7
13 -13 -4 23.5 10.2
0 -13 4 1.2 5
0 -13 -4 23.3 9.3
0 13 4 -1.5 3.9
13 0 -4 1 11.5
0 -13 4 13.8 9.7
13 -13 4 20.2 9.9
13 -13 -4 8.4 9.1
13 0 4 23.7 10.6
13 -13 4 -3.2 5.7
-13 13 4 -0.6 5
-7 -7 4 -5.2 5.8
7 -14 4 5.4 8.6
14 -7 -4 4.4 8.5
7 -14 4 -1.6 7.9
14 -7 4 -2.2 7.5
14 -7 4 3.4 8.8
7 -14 -4 7 7.2
-7 -7 -4 3.7 7.4
7 7 4 4.6 8.3
14 -6 4 210.68 17.2
-6 -8 4 188.28 15.1
8 -14 4 200.68 16.3
14 -8 -4 199.48 16.4
-8 -6 -4 216.28 15.8
6 -14 -4 227.18 15.8
8 -14 4 198.88 15.9
14 -8 4 168.78 15.7
-6 -8 -4 198.08 15.4
6 -14 4 197.48 16.6
8 6 4 178.88 17.2
14 -8 4 195.28 15.9
6 -14 4 182.18 15.2
8 -14 -4 198.18 15.4
14 -6 -4 192.78 17.7
-5 -9 4 196.08 16
5 -14 -4 201.38 16
14 -5 4 232.68 18.2
9 -14 4 187.98 16.5
14 -9 -4 209.08 17.4
9 -14 4 210.68 16.5
-9 -5 -4 217.88 16.4
5 -14 4 282.07 19.1
14 -5 -4 295.27 21.5
14 -9 4 260.67 19.1
9 5 4 258.17 20.3
14 -9 4 263.77 18.4
-5 -9 -4 265.67 18.6
9 -14 -4 275.47 18.8
-10 -4 -4 235.68 17.2
14 -4 4 231.48 18.6
4 -14 -4 170.68 16.7
4 -14 -4 231.68 16.4
14 -10 -4 228.48 17.9
10 -14 4 240.38 17.5
-4 -10 4 222.18 17.2
-4 -10 -4 206.38 16.2
10 4 4 218.08 18.5
4 -14 4 210.48 17
14 -4 -4 224.08 19.8
14 -10 4 203.38 16.8
10 -14 -4 225.98 17.1
14 -10 4 160.18 14.8
3 -14 -4 311.67 20.8
11 -14 4 298.07 21
-3 -11 4 304.47 20.2
14 -3 4 310.37 21.9
14 -11 -4 319.17 21.4
3 -14 -4 314.27 20.1
-11 -3 -4 309.17 20.4
11 -14 -4 314.07 21.2
-3 -11 -4 320.77 21
3 -14 4 314.07 21.3
14 -3 -4 340.37 25.3
14 -11 4 309.47 20.9
11 3 4 333.47 22.7
-2 14 -4 2.5 4.2
-2 -12 4 9.8 8.9
-12 -2 -4 4.9 7.7
14 -12 -4 10.8 9.1
14 -12 -4 5.6 10
12 -14 4 1.2 5.7
12 -14 4 13.7 9.5
2 12 4 2.8 4.2
2 -14 -4 8.4 7.5
12 2 -4 -1.1 4
2 -14 -4 20.1 9.1
14 -2 4 13.7 9.7
12 -14 -4 28.4 10.1
2 -14 4 26.9 10.1
12 2 4 21.6 10.4
-2 -12 -4 19.7 8.8
14 -12 4 24.7 10
2 -14 4 7.3 5.2
14 -2 -4 17.6 12.2
1 -14 -4 146.09 15
13 1 -4 101.39 9.3
14 -13 -4 117.69 16.3
-13 14 4 89.09 9.1
-1 -13 4 141.49 14.7
1 13 4 109.79 9.8
13 -14 4 96.79 12
14 -13 -4 136.09 15.4
-1 -13 4 95.39 10.7
13 -14 4 136.29 15.1
-1 14 -4 108.19 9.4
14 -1 4 140.09 16.1
-13 -1 4 52.49 6.6
14 -13 4 36.2 6.5
1 13 -4 47.2 5.5
-1 14 4 66.19 7.2
0 -14 4 44 10.8
14 0 -4 32.8 6.1
14 -14 4 34.9 7.9
14 -14 -4 47 11.3
0 14 -4 26.2 5.8
14 0 4 29.3 11.2
-14 0 4 23.8 5.1
0 -14 4 33.8 7.5
0 -14 -4 39.9 10
14 -14 4 44 11.4
-14 14 4 35.3 6.1
0 14 4 30.9 6.1
14 -14 -4 27.6 10.4
15 -8 -4 50.99 10.6
15 -7 4 39.9 10.5
7 -15 -4 41.2 8.9
8 -15 4 51.89 10.9
8 -15 4 44.7 10.1
-8 -7 -4 40.5 9.3
7 -15 4 14.3 8.6
15 -7 -4 32.2 10.7
15 -8 4 -1.8 7.7
15 -8 4 22.7 9.8
-15 8 4 3.1 4.4
7 -15 4 31.3 10.3
-7 -8 -4 31 8.8
8 -15 -4 19.2 8
9 -15 4 33.1 9.9
-9 -6 -4 37.3 9.2
6 -15 -4 41.2 9.3
15 -9 -4 29 9.9
-6 -9 4 32.5 9.2
15 -6 4 29.4 9.9
9 -15 4 30.4 9.5
15 -9 4 32.2 10.1
6 -15 4 13.6 7.6
9 -15 -4 50.89 9.9
6 -15 4 40.8 10.6
-6 -9 -4 41.2 9.3
9 6 4 20.9 9.5
15 -9 4 28.9 9.7
15 -6 -4 42.3 11.1
-5 -10 4 117.99 13.8
-10 -5 -4 122.69 14.4
15 -10 -4 121.99 15.2
15 -5 4 119.49 15.7
10 -15 4 114.19 14.3
5 -15 -4 131.29 13.5
10 5 4 124.69 15.8
15 -10 4 114.79 13.5
-15 10 4 77.19 8
-5 -10 -4 81.59 9.3
10 -15 -4 86.69 10.8
-15 5 -4 77.09 8.1
-4 -11 4 76.59 11.3
11 -15 4 67.99 10.9
-4 15 -4 55.79 6.4
4 -15 -4 41.1 9.6
15 -4 4 88.39 14.6
4 -15 -4 60.09 10.2
-11 -4 -4 69.09 11.1
11 4 -4 56.79 8
11 -15 4 46.3 7.4
4 11 4 54.29 8.1
15 -11 -4 78.09 12.6
-4 -11 -4 51.99 7.1
-15 11 4 71.59 8.1
-11 -4 4 64.79 7.8
15 -11 4 77.19 11.8
4 -15 4 41 6.5
4 -15 4 88.79 14.5
11 -15 -4 53.59 7.9
11 4 4 95.19 15.4
-15 4 -4 55.69 6.2
11 -15 -4 95.69 13.3
3 12 4 68.09 9.7
-12 -3 -4 45.5 9.6
-3 15 -4 63.79 7
3 -15 -4 51.69 9.7
12 3 -4 50.29 6.8
15 -3 4 67.89 12.1
3 -15 -4 65.49 10.9
12 -15 4 76.89 11.8
12 -15 4 65.19 8.9
15 -12 -4 64.39 12.2
-3 -12 4 73.59 11.6
-15 3 -4 49.2 6.3
-3 -12 -4 35.4 7.3
12 3 4 58.19 12.3
-3 -12 -4 48.1 10.1
12 -15 -4 52.09 10.6
15 -12 4 62.49 12
15 -3 -4 67.29 14.4
3 -15 4 50.49 7.6
-12 -3 4 38.3 6.1
-15 12 4 46.6 6.2
3 -15 4 51.39 11.2
12 -15 -4 42.5 7.7
-2 -13 4 95.29 11.5
2 13 4 114.39 11
13 2 -4 100.19 10.2
-13 15 4 93.09 10
15 -13 -4 109.19 15.6
13 -15 4 101.59 15.5
2 -15 -4 121.79 14.6
15 -2 4 118.69 16.7
13 -15 4 103.09 12.3
-2 -13 4 110.99 14.4
-2 15 -4 95.49 10.7
-15 13 4 87.49 9.4
2 13 -4 87.99 9.7
2 -15 4 97.49 15.4
-2 -13 -4 96.99 12.1
15 -13 4 70.69 10.2
15 -13 4 98.79 15.5
2 -15 4 90.99 11.1
15 -2 -4 114.89 18.6
-13 -2 4 89.29 9.7
-2 -13 -4 117.59 14.4
13 -15 -4 82.59 11.9
13 -15 -4 116.19 15.6
-2 15 4 89.99 9.2
-15 2 -4 73.79 9.7
13 2 4 115.29 16.1
14 -15 4 13.6 8.1
14 1 -4 11.6 6.2
-1 15 -4 14.5 6.2
-1 -14 4 13.2 9.6
14 -15 4 14.9 10.4
-1 -14 4 13.9 7.2
15 -1 4 15.7 10.8
1 -15 -4 24.8 9.6
1 14 4 6.4 6
1 -15 -4 -0.5 6
-14 15 4 19.4 6.3
-15 1 4 13.6 5.5
15 -14 -4 15.6 10.2
15 -14 -4 12.2 9.6
-14 -1 4 7.6 5.7
15 -14 4 12.7 7.9
15 -14 4 16.3 10.6
14 -15 -4 8.4 6.8
15 -1 -4 -2.4 12.3
-1 -14 -4 17.6 9.3
-15 1 -4 7.1 5.6
14 1 4 8.4 10.8
1 -15 4 15 9.7
1 14 -4 7.9 5.8
-1 15 4 14.4 6.1
15 -1 -4 4.3 5.7
14 -15 -4 13.8 10
1 -15 4 13.9 7
-15 14 4 10.3 5.7
-1 -14 -4 19.1 7.5
15 0 4 23.3 11
-15 0 4 21.6 5.9
0 -15 4 24.4 10.2
15 0 -4 23 6.5
0 -15 4 30.3 7.8
0 -15 -4 28.7 7.6
-15 15 4 23.1 6.6
15 -15 -4 4.7 7.1
0 15 -4 25.4 6.5
15 -15 4 29.6 10.9
15 -15 -4 22.5 10.2
15 -15 4 29.9 8.6
0 15 4 23.8 6.5
-15 0 -4 7.8 5.7
0 -15 -4 24.6 9.7
-8 16 -4 13.5 5.3
8 -16 -4 10.4 6.8
-8 -8 -4 1.6 5.5
-8 -8 -4 19.8 9
16 -8 4 16.8 10.3
16 -8 -4 16.7 10.4
8 -16 4 18 9.4
8 8 -4 9.8 5.3
8 -16 -4 21.9 9
8 -16 4 15.5 10.2
-16 8 4 16.5 4.6
-16 8 -4 15.5 5.8
-9 -7 -4 274.77 19.3
16 -7 4 263.77 20.1
-7 16 -4 234.08 14.4
9 -16 4 264.17 18.6
16 -9 -4 280.37 20.6
9 -16 4 233.28 19
7 -16 -4 237.08 18.1
-16 9 -4 234.28 14.9
9 7 -4 236.38 15
-16 7 -4 251.87 15
-7 -9 -4 235.18 16.2
9 -16 -4 275.17 18.6
-7 -9 -4 276.47 19.2
7 -16 4 270.07 20.4
16 -9 4 242.38 20
9 -16 -4 233.88 16.6
-16 9 4 241.38 14.6
16 -7 -4 287.07 21.9
-9 16 -4 238.98 14.4
10 -16 4 44.1 10.8
16 -6 4 43.7 11.1
6 10 4 49.5 7
-16 10 -4 55.79 6.7
10 6 -4 59.29 7.4
-10 -6 -4 58.79 11
6 -16 -4 71.49 10.7
16 -10 -4 67.69 12.4
-6 -10 4 45.9 10.2
-6 16 -4 51.49 6.8
-6 -10 -4 57.69 8.4
-16 6 -4 61.79 7
-6 -10 -4 81.89 11.9
10 -16 -4 67.79 11.1
16 -10 4 62.59 11.5
16 -6 -4 59.59 12.7
-16 10 4 63.29 8.5
10 -16 -4 55.29 8.5
6 -16 4 75.39 12.4
16 -10 4 36.5 10.1
-16 11 -4 343.77 19
11 5 -4 349.57 19.4
11 -16 4 381.16 23.9
-11 -5 -4 362.46 23.5
-5 -11 4 383.06 23
5 11 4 382.66 19.7
-5 16 -4 338.97 19.3
16 -11 -4 380.76 25.1
16 -5 4 385.16 24.8
5 -16 -4 372.46 22.7
11 -16 4 329.57 20.5
16 -5 -4 371.46 25.2
-16 11 4 299.77 16.9
5 -16 4 341.07 22.6
-16 5 -4 325.17 17.7
16 -11 4 302.67 21.3
11 -16 -4 300.07 19.5
11 -16 -4 352.96 21.6
-5 -11 -4 337.87 21.8
-11 -5 4 299.07 17
-5 -11 -4 306.57 18.7
5 -16 4 296.27 18.1
-4 16 -4 277.37 16.3
16 -12 -4 289.57 22.3
4 12 4 296.87 16.4
-12 16 4 269.37 15.6
-16 12 -4 236.48 15.3
4 -16 -4 271.17 19.5
16 -4 4 299.27 21.7
12 -16 4 286.27 18.3
12 -16 4 295.67 20.7
12 4 -4 274.87 16.5
-4 -12 4 300.57 20.2
12 -16 -4 253.17 17
4 -16 4 300.17 21
-12 -4 4 251.07 14.7
12 -16 -4 275.87 19.5
-16 4 -4 254.97 15.4
4 12 -4 240.08 14.5
16 -12 4 249.58 19.6
4 -16 4 245.58 16.5
-16 12 4 253.07 15
12 4 4 211.98 20
-4 -12 -4 285.67 19.4
16 -4 -4 274.07 23.8
-4 -12 -4 249.18 16.8
16 -3 4 47.4 11.9
3 -16 -4 29.6 9.1
13 3 -4 51.29 7.5
16 -13 -4 39.5 11.6
-13 16 4 47.6 7
-3 -13 4 33.2 10.2
13 -16 4 56.59 9.3
-3 -13 4 59.59 8.3
3 13 4 44 7.3
13 -16 4 44.6 11.8
-3 16 -4 45.2 6.8
16 -3 -4 56.69 8.3
-3 16 4 58.79 7.1
13 -16 -4 80.79 9.9
16 -3 -4 48.7 13.8
-16 3 -4 56.79 7.2
-3 -13 -4 68.79 8.9
3 -16 4 76.39 9
3 13 -4 73.79 9.5
13 3 4 69.69 13.1
-16 13 4 76.09 7.6
16 -13 4 60.99 8.4
16 -13 4 42.6 11.6
3 -16 4 66.59 12
13 -16 -4 65.79 11.7
-3 -13 -4 79.59 13.3
-13 -3 4 75.39 7.6
14 -16 4 177.08 17.8
2 14 4 209.58 14.2
-2 16 -4 198.78 13.9
-2 -14 4 204.88 14.7
2 -16 -4 194.98 17
14 2 -4 190.88 13.9
16 -14 -4 187.38 19.1
14 -16 4 189.48 15.5
16 -2 4 200.48 19.6
-2 -14 4 198.28 17.6
-16 2 4 187.18 12.8
-14 16 4 192.58 13.6
14 -16 -4 189.18 15.5
-2 -14 -4 173.18 14.4
16 -14 4 161.48 17.6
-16 2 -4 166.28 12.7
2 14 -4 170.28 13
-14 -2 4 170.08 12.4
16 -14 4 165.68 15
2 -16 4 180.78 17.5
2 -16 4 172.38 14
16 -2 -4 153.68 12.8
14 2 4 158.88 18.8
-2 16 4 160.88 12.8
-16 14 4 164.38 12.3
-1 -15 4 10.3 9.7
16 -15 -4 -10.4 7.5
15 -16 4 8.8 8.1
1 -16 -4 21.4 7.3
16 -1 4 4.8 10.9
-1 -15 4 7.5 7.2
16 -15 -4 -1.3 13.1
-15 -1 -4 0.7 5.8
-1 16 -4 -1.1 5.9
-16 1 4 2.4 5.7
-15 16 4 2.1 5.8
15 -16 4 -6.2 10.2
1 15 4 3.9 6.1
15 1 -4 4 6.3
-16 15 -4 1.7 5.2
1 -16 -4 10.7 9.3
1 -16 4 15.1 7.4
-15 16 -4 -3.7 5.1
-16 15 4 6.2 5.8
16 -15 4 0.1 10.2
-15 -1 4 8.7 5.8
15 1 4 6.3 10.7
16 -15 4 16.6 8.2
1 -16 4 5.4 9.6
15 -16 -4 14.5 9.7
16 -1 -4 6.3 6.2
1 15 -4 7.4 6.1
-1 16 4 8.9 6.1
15 -16 -4 19.2 8.2
-16 1 -4 12.2 5.9
-1 -15 -4 5.2 9.2
-1 -15 -4 13.2 7.4
16 -16 4 38.4 8.6
0 16 4 25.1 6.6
0 -16 -4 30.9 7.5
16 -16 4 21.4 10.8
0 -16 -4 26.4 9.6
-16 16 4 28.8 6.4
16 -16 -4 44.2 8.8
0 16 -4 30 6.7
16 -16 -4 -1.4 9.2
0 -16 4 36.5 7.7
16 0 -4 23.2 6.7
0 -16 4 15.7 9.8
-16 0 -4 28.2 6.6
-16 0 4 23.5 6.2
16 0 4 20.6 11.5
-8 17 -4 33.9 6.5
8 9 4 35.8 6.8
8 -17 -4 25.2 9.3
9 -17 4 20 9.6
-17 8 4 34.8 6.3
-9 -8 -4 32.7 10
9 8 -4 27.2 7
17 -9 -4 30.6 10.7
-17 9 -4 35.2 6.8
8 -17 -4 32.4 7.8
9 -17 4 25.8 10.3
17 -8 4 26.6 10.9
-9 -8 -4 34.4 7.9
9 -17 -4 36 9.5
-8 -9 -4 30.2 9.9
-8 -9 -4 35.8 7.8
8 -17 4 5.9 8.7
-9 17 -4 27.5 6.2
8 -17 4 29.1 10.8
9 8 4 26.2 5.7
17 -9 4 29.4 11.3
17 -8 -4 41.8 11.9
8 9 -4 27.6 7
-17 9 4 38.5 6.4
9 -17 -4 35.1 7.9
-17 8 -4 28.2 6.5
-7 17 -4 13.6 5.9
7 -17 -4 18.5 9.3
17 -7 4 18.1 11.3
-7 -10 4 -7.5 9.9
-17 10 -4 18 6.3
7 -17 -4 13.3 7.1
7 10 4 15.5 6.5
10 7 -4 0 4.6
10 -17 4 9.7 7.3
-17 7 4 12.8 5.4
-10 -7 -4 13.4 6.5
-10 17 4 -2.9 4.8
10 -17 4 11.2 9.8
-10 -7 -4 18.6 9.7
17 -10 -4 16 10
10 7 -4 15.3 6.4
7 -17 4 12.8 10.5
-7 -10 -4 22.1 9.8
7 10 -4 16.1 6.7
-17 7 -4 11.8 6
-7 -10 -4 16.2 7.6
-10 -7 4 14.2 5.5
10 -17 -4 20.5 9.3
10 -17 -4 21.8 7.8
7 10 -4 8 4.4
17 -10 4 13.5 9.9
17 -7 -4 20.4 10.9
7 -17 4 10.2 6
-17 10 4 23.4 5.7
-10 17 -4 18.6 6
11 -17 4 45.6 8.9
11 6 -4 42.2 7
17 -11 -4 40.8 11.5
-11 17 4 40.2 5.9
6 -17 -4 32.4 7.1
-11 -6 -4 40.4 10.1
-17 11 -4 48.3 7.3
-6 17 -4 44.3 6.6
17 -6 4 39.3 11.5
6 11 4 53.19 7.6
11 -17 4 45.4 11.2
-6 -11 4 21.8 9.1
6 -17 -4 46.2 10.4
6 -17 4 77.19 12.9
-11 -6 4 84.59 9.6
6 11 -4 59.69 7.8
-11 17 -4 80.49 10.4
11 -17 -4 76.59 9.6
-17 11 4 86.29 10
-6 -11 -4 86.29 12.5
6 11 -4 78.89 8.9
-6 -11 -4 84.09 13.7
11 -17 -4 96.59 13.5
17 -6 -4 101.09 17
6 -17 4 84.09 11.6
-17 6 -4 77.19 10.4
12 5 -4 22.7 6.4
-12 -5 -4 1.3 10.8
12 -17 4 40.3 8.7
-5 -12 4 18.3 10.1
12 -17 4 28.4 10.9
-12 17 4 27.5 6.4
-5 -12 4 10.2 6.4
-17 12 -4 29.2 6.5
-5 17 -4 25.6 6.3
17 -12 -4 20.9 10.8
5 12 4 31 7.1
17 -5 4 30.3 11.3
5 -17 -4 19.1 8.2
-5 -12 -4 47.2 10.6
5 -17 4 53.19 12.1
-5 -12 -4 49.1 8.3
-12 17 -4 52.19 7.4
-17 12 4 55.79 6.9
-17 5 -4 58.49 7.3
5 12 -4 49.99 6.7
-5 17 4 42.2 6
12 -17 -4 64.69 9.2
12 -17 -4 41.3 9.9
5 -17 4 53.99 8.3
-12 -5 4 60.39 7.1
17 -5 -4 50.39 13.3
17 -4 4 57.29 13.1
-4 17 -4 65.69 7.7
13 -17 4 62.69 12.2
17 -13 -4 45.8 11.9
-17 13 -4 62.29 7.5
-4 -13 4 69.89 8.8
13 -17 4 70.89 9.7
-13 17 4 77.69 10.6
4 13 4 86.09 8.6
13 4 -4 72.49 10.3
-4 -13 4 49.4 11.7
-4 -13 -4 53.99 8.6
17 -13 4 35.6 10.7
-13 17 -4 40.5 7.2
13 -17 -4 50.49 10.9
-4 -13 -4 41.1 10.2
-17 13 4 58.69 7
17 -13 4 37.8 7.6
-4 17 4 37.9 6.7
17 -4 -4 40 6
-13 -4 4 51.39 6.5
17 -4 -4 48.2 13.5
13 -17 -4 60.09 9.1
4 13 -4 46.3 6.8
-17 4 -4 41.1 6.8
4 -17 4 57.59 8.4
4 -17 4 61.59 12.3
-17 14 -4 40.4 6.4
14 -17 4 48.4 11.7
17 -3 4 51.29 12.9
17 -14 -4 37.6 11.2
14 -17 4 50.79 9.3
-17 3 4 63.19 7.6
-3 -14 4 63.09 8.8
-3 17 -4 48.6 7.2
14 3 -4 58.59 7.7
-3 -14 4 44.4 11.4
-14 17 4 62.39 7.6
3 14 4 75.09 8.3
3 -17 4 34.1 10.7
14 -17 -4 33.2 10.4
17 -14 4 34.1 8.6
17 -3 -4 28.7 6.4
-17 14 4 50.49 6.9
-17 3 -4 43.2 6.9
-3 17 4 41.6 6.9
-14 -3 4 42.9 6.7
-3 -14 -4 32.7 7.7
-3 -14 -4 34.9 10
14 -17 -4 46.6 8.7
17 -3 -4 8.1 11.5
17 -14 4 15.9 10.6
-14 17 -4 29.8 6.5
3 -17 4 36.7 7.9
3 14 -4 25.4 6.3
-15 -2 -4 21.2 6.1
2 15 4 26.2 6.7
15 -17 4 28.6 8.6
17 -2 4 15.1 10.8
2 -17 -4 27.3 7.3
-2 -15 4 21.1 7.4
15 2 -4 18.5 6.6
15 -17 4 12.5 10.7
-2 -15 4 14.6 10.2
-17 2 4 24.3 6.8
2 -17 -4 -2.7 9.5
-17 15 -4 9.7 5
-2 17 -4 19.7 6.3
-15 17 4 27 6.5
2 -17 4 20.4 10
2 15 -4 19.9 6.1
-2 -15 -4 23.1 9.5
17 -2 -4 20.3 6.6
-15 17 -4 18.7 5.9
-17 15 4 34.9 6.7
-15 -2 4 34 6.4
2 -17 4 30.9 7.8
-2 -15 -4 30.3 7.7
17 -15 4 39.3 8.6
-17 2 -4 26 6.4
17 -15 4 27.8 11
15 -17 -4 41.3 8.4
-2 17 4 27.4 6.5
15 -17 -4 24.6 9.4
16 1 -4 4.3 6
-17 16 -4 2.2 4.3
-16 -1 -4 13.6 6
-1 -16 4 1.2 9.5
-16 17 4 3.7 6
17 -1 4 -0.7 10.4
1 16 4 7 6.1
1 -17 -4 17.4 7.4
-17 1 4 3.4 6.3
17 -16 -4 2.2 7.3
1 -17 -4 -0.8 8.7
-1 -16 4 -1.5 6.9
-1 17 -4 2.9 5.8
16 -17 4 6.3 8
16 -17 4 7.7 10.3
1 -17 4 10.3 7.3
-17 16 4 1.2 5.5
16 -17 -4 -0.7 9.3
16 -17 -4 19.5 8
17 -16 4 -2.3 9.6
16 1 4 -5 9.6
-16 -1 4 3.5 5.7
-17 1 -4 3.3 5.8
-1 -16 -4 7.3 6.9
17 -16 4 5.2 7.9
1 16 -4 8.9 6
-1 17 4 2.1 6
1 -17 4 -1.1 9.3
17 -1 -4 -0.8 6.3
-16 17 -4 -4.1 5.1
-1 -16 -4 10.3 8.8
0 -17 4 11.6 7.1
0 -17 -4 10.9 7
0 -17 4 -11.5 8.6
-17 17 4 7 5.9
-17 0 -4 3.4 5.7
0 -17 -4 1.3 9.3
-17 0 4 3.6 5.9
17 -17 4 -8.1 9
-17 17 -4 -4.3 4.5
17 0 4 -5.1 15.3
17 -17 4 12.3 8.1
17 -17 -4 17.3 7.9
0 17 4 10.2 6
17 0 -4 -1.5 6.1
0 17 -4 4.7 5.7
-9 18 -4 92.89 10.7
9 9 4 85.89 10.6
-18 9 4 95.99 10.6
9 -18 -4 80.09 12.6
-9 -9 -4 78.59 12.4
18 -9 -4 93.89 16.8
9 9 -4 89.49 11.6
9 -18 -4 101.19 14.6
18 -9 4 62.19 12.9
-9 -9 -4 114.79 15.2
-18 9 -4 91.59 11
10 -18 4 115.29 13.3
8 10 4 134.99 12.4
-18 10 -4 137.49 12.2
10 8 -4 128.39 12.3
-18 8 4 135.49 11.7
10 -18 4 98.19 15
-8 18 -4 143.99 12
-10 -8 -4 126.09 15.6
8 -18 -4 142.99 15.6
8 -18 -4 126.19 13.2
18 -8 4 128.79 18.3
18 -10 -4 141.09 17.5
-10 -8 -4 136.29 13.7
10 8 4 122.49 11
-8 -10 -4 130.19 15.8
18 -8 -4 149.19 18
-18 10 4 133.39 11.4
18 -10 4 97.39 15.8
10 -18 -4 115.79 13.8
10 -18 -4 155.88 16
8 10 -4 145.19 12.7
-8 -10 -4 132.69 13.2
8 10 -4 113.99 10.1
-10 -8 4 139.29 11.1
-10 18 -4 145.69 11.6
8 -18 4 117.69 11.5
-18 8 -4 139.29 12
-18 7 4 47.9 6.9
18 -7 4 39.7 12.3
18 -11 -4 43.1 12.1
-7 18 -4 37.4 6.6
-18 11 -4 42.7 7.1
7 -18 -4 41.7 8.4
7 11 4 52.79 7.7
-11 18 4 33.8 6.3
7 -18 -4 35.9 9.8
11 -18 4 19.6 10.5
-11 -7 -4 35 7.6
11 7 -4 53.19 7.7
11 -18 4 58.89 9.1
-18 7 -4 80.79 8
-11 -7 4 71.29 9.3
7 11 -4 77.89 11.6
7 -18 4 64.59 8.6
11 7 4 52.29 6.6
11 -18 -4 71.89 9.4
-7 -11 -4 76.69 9.4
-7 -11 -4 66.79 11.7
-18 11 4 78.29 7.6
-11 18 -4 76.69 10.1
11 -18 -4 55.19 10.5
18 -7 -4 73.79 14.3
7 11 -4 60.69 7.2
7 -18 4 61.99 11.9
18 -12 -4 56.79 12.1
-18 6 4 84.09 10
-6 18 -4 81.49 10.4
12 -18 4 56.69 11.8
-12 18 4 77.19 10.2
6 12 4 77.19 10.6
-18 12 -4 88.79 10.7
6 -18 -4 68.69 10.9
18 -6 4 63.69 13.2
-6 -12 4 48.8 7.8
12 6 -4 77.79 10.6
12 -18 4 83.89 10
-6 -12 -4 58.89 11.2
12 -18 -4 86.69 13
-6 -12 -4 76.79 9.5
6 -18 4 70.69 12.5
18 -6 -4 46.1 12.7
-18 12 4 77.39 7.7
-12 18 -4 83.99 10.8
-6 18 4 54.59 8.5
-18 6 -4 73.89 7.9
6 12 -4 69.09 8.5
-12 -6 4 85.39 8
6 12 -4 70.19 7.7
6 -18 4 85.29 12.2
12 -18 -4 50.79 10.6
13 5 -4 109.39 11.3
-18 13 -4 100.39 11.4
13 -18 4 112.39 16.2
-13 18 4 108.99 11.3
18 -5 4 104.79 17.1
5 13 4 119.69 12.1
-5 -13 4 93.19 12.3
18 -13 -4 105.39 17
13 -18 4 105.09 13.5
-5 18 -4 107.89 11.3
-13 18 -4 113.29 11.6
-5 -13 -4 102.99 13.2
5 -18 4 116.39 12.9
-18 13 4 121.39 10.9
18 -5 -4 105.19 17.8
13 -18 -4 117.29 14
13 -18 -4 107.39 14.6
5 -18 4 117.19 15.6
5 13 -4 113.49 11.1
-18 5 -4 116.99 11.5
-5 -13 -4 103.19 15.5
-5 18 4 118.89 11.1
-13 -5 4 119.79 10.7
5 13 -4 110.79 11.4
14 -18 4 55.99 9.2
-4 -14 4 51.59 8.5
-18 14 -4 34.1 6.7
-18 4 4 47.2 7.2
4 14 4 46 7.5
14 4 -4 41.1 7
18 -4 4 31.4 12
-14 18 4 46.5 7.2
14 -18 4 25.3 10.6
-4 18 -4 48.2 7.2
4 -18 4 44.7 10.9
-4 -14 -4 73.49 9.3
4 -18 4 82.29 11.8
-4 18 4 69.59 10.2
-4 -14 -4 44.1 10.5
18 -14 4 70.19 9.5
-18 4 -4 61.59 7.5
4 14 -4 53.19 7.1
14 -18 -4 47.8 10.8
-18 14 4 63.79 7.3
-14 -4 4 74.39 7.6
14 -18 -4 89.09 13.1
18 -4 -4 54.99 7
-14 18 -4 69.69 8.2
15 3 -4 47.1 7.5
15 -18 4 26.1 11
-15 18 4 50.29 7.2
-3 -15 4 32.7 7.8
-18 3 4 38.7 7.1
-3 18 -4 43.2 7
-18 15 -4 39.8 6.2
18 -3 4 30.2 11.9
3 -18 -4 43.2 7.3
15 -18 4 47 9.1
-15 -3 -4 44.3 6.5
3 15 4 41.1 7.4
-15 -3 4 55.09 6.9
-3 18 4 50.99 7.3
3 -18 4 66.59 8.6
15 -18 -4 77.09 9.9
18 -15 4 64.59 9.6
-3 -15 -4 48.6 8.6
3 15 -4 46.6 7.1
-18 15 4 48.7 6.9
-3 -15 -4 31.9 10.1
-15 18 -4 51.19 7.5
-18 3 -4 53.19 7.3
3 -18 4 37.6 10.5
18 -3 -4 42.6 7.4
-18 2 4 18.1 6.4
2 -18 -4 24.5 7.1
16 -18 4 2.2 9.6
-16 -2 -4 17.9 6
-2 18 -4 15.9 6
-18 16 -4 3.2 4.4
18 -2 4 -7.7 9.4
2 16 4 16.9 6.5
16 2 -4 14.9 6.3
-2 -16 4 22.6 7.3
16 -18 4 24.6 8.5
-16 18 4 29.4 6.7
-2 -16 -4 3.1 8.2
-2 -16 -4 13.4 7.2
-18 2 -4 7.5 5.8
18 -2 -4 7.4 5.8
2 16 -4 8.5 5.6
-2 18 4 4.2 5.9
-18 16 4 4 5.4
16 -18 -4 16.3 7.7
2 -18 4 -0.6 8.7
2 -18 4 15.7 7.3
18 -16 4 10.3 8
-16 18 -4 1.2 6
-16 -2 4 4.2 5.5
-17 -1 -4 44.8 6.7
1 17 4 52.19 7.4
-1 18 -4 46.2 6.9
18 -17 -4 39.3 7.8
-1 -17 4 52.19 8.2
-18 1 4 56.39 7.3
17 -18 4 54.99 9.4
17 1 -4 40.8 7.2
1 -18 -4 78.29 11.3
-17 18 4 65.89 7.6
-1 18 4 51.09 7
-18 17 4 40.3 6.7
1 17 -4 34.1 6.6
1 -18 4 47 7.9
17 -18 -4 54.59 9
-18 1 -4 39.8 6.6
-1 -17 -4 56.29 8.2
-17 -1 4 44.6 7
18 -17 4 56.89 9
18 -1 -4 38.7 6.9
18 -18 -4 12.6 7.5
18 0 -4 5.3 5.7
0 18 4 4.2 6
18 -18 4 9.3 7.8
-18 18 -4 -4.8 4.4
-18 0 -4 7.7 5.6
-18 18 4 2 5.7
0 18 -4 0.7 5.4
0 -18 4 6.9 6.6
0 -18 -4 13.7 7
-18 0 4 1.3 5.8
-10 -9 -4 44 8.4
19 -10 -4 26.4 11.5
9 10 4 41.7 7
10 -19 4 34.2 8.1
9 -19 -4 45.7 8.4
-9 -10 4 41.6 6.4
9 -19 -4 27.8 9
19 -9 4 16.9 10.5
-19 10 -4 49 7.3
10 9 -4 45.2 7.3
-19 9 4 52.89 7
-9 19 -4 53.79 7.1
-19 9 -4 53.59 7.4
-9 -10 -4 26 9.4
-19 10 4 45.4 6.7
9 -19 4 35.4 6.9
10 -19 -4 39.3 9.9
-10 19 -4 55.49 7.1
10 9 4 48.3 7.2
9 10 -4 50.59 7.5
19 -9 -4 29.3 11.4
9 10 -4 35.7 5.5
-9 -10 -4 44.7 8.3
-10 -9 4 48.6 6.4
10 -19 -4 42.7 8.1
8 -19 -4 156.18 14.5
-19 11 -4 158.58 12.6
19 -8 4 128.69 17.7
-8 -11 4 153.88 11.6
8 11 4 163.98 12.8
11 8 -4 158.28 12.6
-11 -8 -4 161.48 14.2
11 -19 4 143.79 14.4
-11 19 4 142.29 11.4
-19 8 4 153.88 12.2
19 -11 -4 144.79 17.9
-8 19 -4 152.38 11.9
-11 -8 4 178.38 12.6
8 11 -4 164.58 11.7
-19 8 -4 175.28 13.2
11 -19 -4 169.78 15.1
11 -19 -4 158.48 16.3
-8 -11 -4 164.78 16.7
-11 19 -4 176.68 12.7
-8 -11 -4 163.88 14.5
19 -8 -4 146.19 19.1
8 -19 4 179.18 13.8
-19 11 4 181.88 12.6
8 11 -4 175.98 13.7
11 8 4 169.68 12.5
7 12 4 59.79 7.9
19 -7 4 39.4 12.4
-12 -7 -4 50.59 7.8
19 -12 -4 34.1 11.6
7 -19 -4 61.39 8.9
-19 7 4 65.29 7.5
12 7 -4 61.59 7.7
-7 19 -4 69.39 7.6
-12 19 4 56.29 7.3
12 -19 4 61.79 9.4
-19 12 -4 60.89 7.6
12 7 4 61.69 7.4
19 -7 -4 57.59 13
-19 12 4 60.69 7.1
-12 19 -4 55.19 7.3
-19 7 -4 83.39 8.3
7 12 -4 82.89 11.2
12 -19 -4 49.1 10.6
12 -19 -4 81.89 9.6
7 12 -4 59.19 7.1
-7 -12 -4 62.59 8.6
-12 -7 4 72.29 9.7
-7 -12 -4 51.19 11.2
7 -19 4 78.49 12
-19 13 -4 20.6 6.5
13 -19 4 2.9 8.9
-6 19 -4 24.6 6.3
-19 6 4 25.4 6.3
19 -6 4 10.9 11.2
19 -13 -4 7.6 9.5
6 -19 -4 19.6 7.2
-13 19 4 27 6.5
13 -19 4 23.5 8.4
-6 -13 4 24.4 7.7
13 6 -4 24.3 6.4
6 13 4 32.5 7.1
6 -19 4 -5.2 8.6
-13 -6 4 15.1 5.9
-6 19 4 17.2 5.5
-19 13 4 10.9 5.6
6 -19 4 26.1 7.8
-6 -13 -4 11.2 9.3
13 -19 -4 12.5 8.9
13 -19 -4 18.6 7.6
19 -6 -4 2.9 10.3
-19 6 -4 8.7 6.1
19 -6 -4 1.7 4.4
-13 19 -4 15.2 6
-6 -13 -4 21.4 7.5
6 13 -4 21.9 6.9
6 13 -4 9.5 6
-19 5 4 12.8 5.7
-5 19 -4 20.4 6.1
-14 19 4 17.1 6.2
-5 -14 4 16.8 7.8
-19 5 4 3.3 5.7
5 14 4 18.9 6.9
14 5 -4 12.9 6.1
14 -19 4 17.6 8.3
-19 14 -4 17.2 6.1
14 -19 4 -2.1 8.8
19 -5 4 -1.7 10.3
-14 19 -4 10.6 6.2
5 14 -4 7.3 5.8
-5 -14 -4 12.8 9.1
-5 19 4 7.1 5.8
19 -14 4 5.4 7.2
5 -19 4 -4.2 8.6
14 -19 -4 17 7.5
5 -19 4 17.5 7.3
19 -5 -4 6.2 4.7
5 14 -4 21.5 6.4
-14 -5 4 15.8 5.9
-19 5 -4 16.6 6.3
-19 14 4 12.5 5.5
-5 -14 -4 10.3 7.3
14 -19 -4 6.1 8.4
-19 15 -4 114.19 10.9
-19 4 4 137.59 11.7
-4 19 -4 132.79 11.5
-19 4 4 116.29 10.3
15 4 -4 122.49 11.6
15 -19 4 127.69 13.4
4 15 4 127.79 12.1
-4 -15 4 137.79 12.9
-15 19 4 139.99 11.8
4 -19 4 112.39 12.1
19 -15 4 99.79 12.8
-15 -4 4 101.99 9.9
-19 4 -4 90.19 10.9
19 -4 -4 95.39 10.4
15 -19 -4 114.19 12.8
4 15 -4 96.49 10.6
-15 19 -4 95.29 10.9
-19 15 4 105.59 10.5
-4 -15 -4 100.29 12.9
-4 19 4 106.99 10.9
3 -19 -4 74.69 10.6
3 16 4 54.19 7.4
16 -19 4 65.59 9.3
16 3 -4 53.79 7.2
-3 -16 4 56.09 8.3
-16 -3 -4 69.39 9.2
-16 19 4 63.59 7.5
-3 19 -4 51.79 7
-19 3 4 53.39 7.5
-19 16 4 69.09 9.3
3 16 -4 44 6.9
-19 3 -4 60.89 7.6
19 -16 4 70.19 9.3
-3 -16 -4 75.39 9.1
-16 19 -4 65.79 7.5
-16 -3 4 58.89 7.2
16 -19 -4 90.69 12.5
3 -19 4 69.79 10.4
-3 19 4 41.3 6.8
19 -3 -4 49.7 7.1
2 -19 -4 33.5 6.9
-2 -17 4 31.3 7.3
-17 -2 -4 27.9 5.9
-19 2 4 22 6.3
17 2 -4 31.9 6.8
-17 19 4 26.9 6.4
-2 19 -4 23.7 6.1
2 17 4 30.7 6.4
17 -19 4 35 8.1
-19 17 4 18.7 5.7
-17 -2 4 16 5.8
19 -17 4 30.7 8.2
2 -19 4 26.6 7.1
17 -19 -4 27.2 7.9
2 17 -4 18.4 5.8
-17 19 -4 19 5.9
19 -2 -4 14.5 6.1
-19 2 -4 14.4 5.8
-2 -17 -4 16.1 6.9
-2 19 4 21 6.1
-18 -1 -4 -0.5 5.5
19 -18 -4 -1.7 5.5
-19 1 4 1.9 5.6
1 18 4 5.5 5.8
-1 19 -4 2.9 4.9
18 -19 4 4 7.5
1 -19 -4 8.3 6.6
-1 -18 4 8.9 6.6
18 1 -4 -2 5.3
-18 19 4 -1.4 5.4
-18 -1 4 2.9 5.7
-19 1 -4 9.1 5.5
19 -1 -4 4.7 5.5
19 -18 4 3.3 7.4
-1 19 4 13.2 5.9
-1 -18 -4 10.4 6.5
-19 18 4 5.2 5.5
1 18 -4 8.4 5.2
-18 19 -4 -1.3 4.3
1 -19 4 0.3 6.2
18 -19 -4 15.9 7
-19 0 4 12.7 5.6
0 19 -4 12.6 5.2
-19 0 -4 15.5 5.6
19 -19 4 13.7 6.9
19 -19 -4 21.1 6.8
0 19 4 15.7 5.5
0 -19 4 9.3 6.5
19 0 -4 8.2 5.4
-19 19 4 14.5 5.4
0 -19 -4 26.4 6.6
-10 -10 -4 168.38 14.5
10 -20 -4 171.28 14.9
-20 10 4 177.98 12.6
-10 -10 4 179.28 12.6
-10 20 -4 164.78 12.8
10 10 -4 179.58 12.9
-20 10 -4 175.08 13.2
10 10 4 181.08 12.7
-9 20 -4 157.88 12.3
9 11 4 156.08 12.4
-20 9 4 155.88 12
-11 -9 -4 151.98 14
11 9 -4 165.78 12.4
-20 11 -4 167.78 12.6
-9 -11 4 163.38 11.6
11 -20 4 135.79 13.5
9 -20 -4 154.68 14.1
-11 20 4 144.29 11.3
11 -20 -4 178.78 15
9 -20 4 157.98 13.3
-20 9 -4 185.88 13.2
-11 -9 4 185.28 12.2
9 11 -4 197.58 13.5
-9 -11 -4 185.38 14.9
-20 11 4 189.38 12.9
11 9 4 173.28 12.8
-11 20 -4 177.68 12.8
-12 -8 -4 103.89 12.4
-8 -12 4 111.09 10
8 -20 -4 99.99 12.7
8 12 4 102.69 11.3
-12 20 4 100.79 10.1
12 -20 4 110.19 12.6
12 8 -4 102.49 10.9
-20 12 -4 115.39 11
-20 8 4 117.09 10.6
-8 20 -4 98.59 10.9
-12 -8 4 93.09 10.1
8 12 -4 104.99 11.2
-8 -12 -4 89.19 12.8
12 8 4 90.39 10.4
-20 12 4 92.19 10
-12 20 -4 88.49 10.2
12 -20 -4 83.99 12.5
-20 8 -4 86.69 10.9
8 12 -4 82.49 9
8 -20 4 103.79 11.5
-20 7 4 32.7 6.5
-20 13 -4 26 6.6
13 -20 4 35.1 8.5
-7 -13 4 16.2 7.2
-7 20 -4 31 6.3
7 -20 -4 23.1 7.4
-13 20 4 27.8 6.3
-7 -13 4 34.2 5.9
13 7 -4 29.3 6.4
7 13 4 28.9 6.8
13 -20 -4 35 7.8
-20 7 -4 34.1 6.7
7 -20 4 40.2 7.6
-7 -13 -4 2.2 12.2
-13 20 -4 25.5 6.1
7 13 -4 29.7 6.7
-7 -13 -4 34 7.9
-20 13 4 24.9 5.9
13 7 4 15.8 5.5
-13 -7 4 29.2 5.9
7 13 -4 22.8 5.5
14 -20 4 47.4 8.6
14 6 -4 33.9 6.4
-6 -14 4 33.1 5.7
-20 6 4 32 6.1
-14 20 4 35.4 6.5
6 14 4 36.8 6.9
-20 14 -4 28.2 6.4
-6 -14 4 30.1 7.9
-6 20 -4 45.2 6.8
-6 20 4 57.99 6.8
-6 -14 -4 82.19 9.3
-20 14 4 62.39 7
6 -20 4 81.39 11
6 14 -4 74.79 10.6
-14 20 -4 65.29 7.6
6 14 -4 50.39 6.8
-20 6 -4 59.79 7.3
14 -20 -4 60.89 8.6
-14 -6 4 67.69 7.2
-5 -15 4 8 3.8
-5 -15 4 19.4 7.5
-20 15 -4 20.7 5.8
-20 5 4 17.9 5.4
15 -20 4 25.5 7.9
15 5 -4 20.3 6.2
-15 20 4 18.4 6
-20 5 4 13.6 6
5 15 4 23.2 6.4
-5 20 -4 25.5 6.1
-20 15 4 15.1 5.5
20 -15 4 0.5 6.3
5 -20 4 13 6.7
5 15 -4 13.4 5.5
-15 20 -4 13.1 5.9
15 -20 -4 18 7.3
-5 20 4 9.4 5.7
-15 -5 4 7.3 5.3
5 15 -4 7.3 5.6
-20 5 -4 15.9 6.1
20 -5 -4 1.3 4.2
-5 -15 -4 9.3 6.7
-20 4 4 7.5 5.8
4 -20 -4 -4.9 5.6
4 16 4 16.2 6.2
-20 16 -4 6 4.4
-4 20 -4 12.9 5.4
-16 -4 -4 7.8 4.5
-20 4 4 5.6 4
-16 20 4 18.2 6
16 4 -4 8.4 5.7
16 -20 4 19.1 7.5
-4 -16 4 12.2 7.2
-16 -4 4 21.2 5.8
-20 4 -4 24.8 6.2
20 -16 4 18.3 7.7
-20 16 4 17.8 5.4
-16 20 -4 16.9 5.6
20 -4 -4 11.1 4.6
16 -20 -4 24.1 7.2
-4 -16 -4 24.3 7
4 16 -4 15.7 5.7
-4 20 4 18.6 5.8
4 -20 4 28.7 7
17 -20 4 27.2 7.5
3 -20 -4 25.7 6
-3 20 -4 19.4 5.5
3 17 4 22.9 6.1
17 3 -4 24 6.4
-17 20 4 30.2 6.2
-20 3 4 20.6 5.9
-3 -17 4 22.8 7.1
-17 -3 -4 22.8 5.4
3 17 -4 15.1 5.6
20 -3 -4 5.6 5
20 -17 4 9.9 7.4
-17 20 -4 15.6 5.5
3 -20 4 11.3 6.4
-20 3 -4 15.9 5.7
-3 20 4 18.2 5.9
17 -20 -4 19.8 7
-17 -3 4 10 5.4
-3 -17 -4 12.7 6.4
-20 17 4 9.6 5.3
18 -20 4 43.1 7.5
-18 -2 -4 61.09 8.3
-2 -18 4 46.6 7.5
-18 20 4 44.5 6.2
2 -20 -4 65.59 9.6
2 18 4 46.1 6.5
-2 20 -4 41.5 6
-20 2 4 33.4 6.3
18 2 -4 47.3 6.4
-20 2 -4 30 5.8
-20 18 4 39.8 6.2
-18 20 -4 25.4 4.9
20 -18 4 37.2 7.6
2 -20 4 39.9 6.9
-2 20 4 31.7 6.2
18 -20 -4 37.9 7.6
-18 -2 4 33 5.9
20 -2 -4 26.1 5.5
2 18 -4 26.8 5.6
-2 -18 -4 37.4 6.8
-20 1 4 11.7 5.2
-19 -1 -4 16.4 5.2
-19 20 4 8.9 4.9
-1 -19 4 4.3 6
19 -20 4 11.3 6.7
1 -20 -4 25.5 6.3
-1 20 -4 10.4 4.6
19 1 -4 11 5.1
1 19 4 9.5 5.2
-1 -19 -4 23.1 6.2
19 -20 -4 22.2 6.9
-20 19 4 11.4 5.1
-1 20 4 20.2 5.5
20 -1 -4 13.2 5
20 -19 4 7 6.5
1 -20 4 10.1 5.8
1 19 -4 10.8 4.8
-20 1 -4 15.8 5.4
-19 -1 4 8 5
0 -20 4 11.5 5.8
20 -20 4 6 6.1
-20 20 4 7.1 4.7
20 0 -4 3.9 4.2
0 -20 -4 14.4 5.9
0 20 -4 8.2 4.1
-20 0 4 3.2 4.6
0 20 4 6.1 4.7
-20 0 -4 6.6 4.8
-11 -10 -4 49 8.1
11 -21 4 48.1 8
-21 10 4 70.59 9.2
-21 11 -4 67.69 9.3
-10 -11 4 74.99 8.8
11 10 -4 65.39 9.5
-11 21 4 37.2 5.7
10 11 4 56.69 7.4
10 -21 -4 65.39 8.7
-10 21 -4 58.59 6.8
-11 21 -4 72.19 7.4
-11 -10 4 67.29 9
-10 -11 -4 60.79 8.8
-21 10 -4 53.59 7.2
11 -21 -4 47.2 8.4
-21 11 4 72.39 7.2
10 11 -4 63.39 7.4
11 10 4 46.9 7.1
-12 21 4 54.39 6.8
-12 -9 -4 50.99 7.9
12 -21 4 51.49 8.4
-9 21 -4 66.79 7
9 -21 -4 57.99 8.5
-21 12 -4 58.79 7.2
-21 9 4 53.59 6.8
9 12 4 50.89 7
-9 -12 4 56.49 6.6
12 9 -4 50.99 6.9
12 -21 -4 73.89 9.3
12 9 4 49.5 7.1
-12 -9 4 82.49 9.4
-21 12 4 72.39 9.3
-12 21 -4 65.29 9.2
9 12 -4 75.99 9.9
-21 9 -4 82.79 8.2
9 -21 4 57.79 7.5
-9 -12 -4 74.79 9
-8 21 -4 100.19 10
-8 -13 4 90.19 9.4
8 13 4 93.99 10.4
-21 13 -4 88.39 10
-21 8 4 83.99 9.4
-13 21 4 95.09 9.9
13 -21 4 77.89 11.8
13 8 -4 95.09 9.9
8 -21 -4 89.59 11.1
8 13 -4 131.89 11.1
-8 -13 -4 121.99 12.6
-21 13 4 119.09 10.1
-13 -8 4 120.59 10.4
13 -21 -4 114.59 12.5
-21 8 -4 112.49 10.6
13 8 4 92.49 10.1
-13 21 -4 120.99 10.5
8 -21 4 120.79 11.2
-7 -14 4 30.2 7.2
-21 7 4 37.5 6
-7 -14 4 39.3 5.6
14 -21 4 37.4 7.8
-21 14 -4 33.1 6
7 14 4 54.29 7
14 7 -4 43.1 6.8
-7 21 -4 41.4 6.4
-14 21 4 41 6.4
14 -21 -4 45.5 8.1
-14 21 -4 54.39 6.8
-14 -7 4 61.89 8.3
7 14 -4 72.49 9.2
-21 7 -4 57.39 7.1
-21 14 4 62.49 7
7 -21 4 57.69 7.8
-7 -14 -4 51.79 8.3
-6 -15 4 1.2 6.7
15 6 -4 10.3 5.5
6 15 4 12.8 5.6
15 -21 4 13.8 7.4
-21 6 4 7.8 4.2
-15 21 4 11.4 5.6
-21 15 -4 11.7 5.1
-6 21 -4 7.5 5.1
-6 -15 4 -1.4 3.5
-6 -15 -4 17.7 7.1
-15 21 -4 16.7 5.7
-21 6 -4 16.9 5.9
6 15 -4 6.3 4.2
-21 15 4 18.4 5.3
15 -21 -4 14.7 7.1
-15 -6 4 24.1 5.2
6 15 -4 21.4 5.7
6 -21 4 14.3 6.5
-5 21 -4 62.49 8.6
-16 21 4 70.39 8.7
16 -21 4 72.69 8.8
5 16 4 72.99 9.1
-5 -16 4 69.39 8.3
16 5 -4 64.99 8.8
-21 5 4 56.59 6.5
5 -21 4 67.39 9.7
-21 5 -4 71.29 7.4
5 16 -4 57.59 7.4
16 -21 -4 87.69 11.4
-16 21 -4 67.49 8.7
-16 -5 4 63.79 8.4
-21 16 4 68.99 8.5
-5 -16 -4 70.59 10.5
17 -21 4 109.89 11.1
17 4 -4 105.99 9.9
-4 21 -4 97.19 9.4
-17 21 4 110.49 9.3
4 17 4 111.49 9.5
-21 4 4 115.09 9.9
-4 -17 4 106.09 10.5
-4 -17 -4 108.49 11.1
4 17 -4 78.59 8.1
4 -21 4 109.49 10
-17 21 -4 111.19 9.4
-21 4 -4 98.49 9.6
17 -21 -4 123.29 11.3
-21 17 4 104.49 8.9
-4 21 4 96.59 9
-17 -4 4 95.29 9.1
-21 3 4 4.1 5.1
3 18 4 7.2 4.7
-18 -3 -4 5.1 3.9
18 -21 4 6.7 6.2
18 3 -4 6.2 4.7
-3 21 -4 6.8 4.4
-18 21 4 6.4 4.7
3 -21 -4 -5.4 5.8
-3 -18 4 8 6.5
-21 18 4 9.7 5.1
3 -21 4 11.8 5.9
21 -18 4 6.3 6.4
3 18 -4 3.1 4.1
-21 3 -4 13.4 5.2
-3 -18 -4 12.6 6.3
-18 -3 4 11.2 5
-18 21 -4 12.2 4.3
18 -21 -4 21.3 6.8
-3 21 4 13 4.9
19 2 -4 62.89 7.9
-21 2 4 54.99 7.6
19 -21 4 67.39 9.3
-19 21 4 74.89 7.6
2 19 4 64.39 7.6
-19 -2 -4 57.89 6.5
-2 -19 4 60.49 9.1
-2 21 -4 64.69 7.4
-19 -2 4 44.8 5.8
2 -21 4 50.39 6.7
21 -19 4 40.1 7.2
-21 19 4 58.99 6.1
-21 2 -4 54.49 6.3
19 -21 -4 67.29 9.4
-2 21 4 49.4 7.5
-2 -19 -4 62.99 9.1
-20 -1 -4 15.9 4
-1 -20 4 5 5.5
-1 21 -4 4.8 3.2
1 -21 -4 8.6 4.6
20 -21 4 18.6 6.3
-20 21 4 14.5 4.6
-21 1 4 10.9 4.5
1 20 4 9 4.5
20 1 -4 7.4 3.5
1 -21 4 6.4 5.5
-1 21 4 3.6 4
20 -21 -4 -3.4 6.2
21 -20 4 9.7 6.1
-20 -1 4 8.4 4.3
-1 -20 -4 17.1 5.7
-21 20 4 8.3 4.3
-21 1 -4 17.3 4.8
21 -21 4 83.79 8.8
-21 0 4 75.09 7.4
0 -21 4 84.79 8.5
-21 21 4 86.69 7.4
-11 -11 -4 32.7 7.1
-22 11 -4 45 6.4
11 11 -4 38.4 6.3
11 -22 -4 38.6 7.6
-11 22 -4 42.2 6.2
11 11 4 43.6 6.5
-11 -11 4 45.4 6
-22 11 4 42.6 6
-22 12 -4 0.8 5.3
-12 -10 -4 6.2 6.2
10 -22 -4 4.8 6.3
12 10 -4 2.1 5.1
10 12 4 3 5.6
-10 -12 4 1.2 4.7
-22 10 4 5.9 5
-12 22 4 -1.6 4
-10 22 -4 1.6 4.9
12 -22 4 3.6 6.1
12 -22 -4 10.4 6.9
10 12 -4 12.6 5.6
-22 10 -4 13.7 5.6
-12 -10 4 10.9 5.1
-12 22 -4 7.3 5.1
-22 12 4 16.6 5.3
-10 -12 -4 8 6.7
12 10 4 7.9 5.5
-22 9 4 45.6 5.8
9 13 4 46.9 6.6
-22 13 -4 47.4 6.2
9 -22 -4 32.4 6.9
13 -22 4 37.9 7.3
-9 -13 4 38.7 5.4
-9 22 -4 52.69 6.4
-13 22 4 38.6 5.8
13 9 -4 50.69 6.4
-13 -9 4 75.59 8.4
-13 22 -4 81.09 9.1
-22 13 4 77.69 8.8
-9 -13 -4 80.29 10.5
-22 9 -4 80.89 9.2
13 -22 -4 87.29 10.9
9 13 -4 74.19 9
13 9 4 57.29 8.3
-8 22 -4 50.69 6
-8 -14 4 27.8 4.4
8 14 4 61.29 8.5
-22 8 4 32.9 4.7
14 -22 4 44.5 7.3
-22 14 -4 44.5 6.2
-14 22 4 46.1 6
14 8 -4 56.59 8.4
8 14 -4 80.49 8.9
-8 -14 -4 57.89 7.8
-14 -8 4 68.79 8
-22 8 -4 75.39 8.9
8 -22 4 58.49 8.8
-22 14 4 82.49 8.3
-14 22 -4 75.29 8.9
14 -22 -4 70.49 10.8
15 7 -4 9.9 5.2
-7 -15 4 -0.4 5
15 7 -4 19 5.3
7 15 4 11.3 5.5
-7 22 -4 9.2 4.7
-22 7 4 -1.5 4.6
-15 22 4 9.8 5.2
-22 15 -4 14 4.4
15 -22 4 8.8 6.5
15 -22 -4 33 7.1
-22 7 -4 34.7 5.8
7 -22 4 41.3 6.6
-15 -7 4 33.1 5.3
7 15 -4 23.1 5.2
-15 22 -4 33.2 5.6
-22 15 4 27.2 5.1
-7 -15 -4 23.5 6.5
16 -22 4 61.39 9.5
16 6 -4 58.79 8.1
-6 22 -4 61.79 7.8
-6 -16 4 57.79 9
-16 22 4 46 6.1
6 16 4 58.69 7.9
-16 -6 4 65.39 7.9
-6 -16 -4 71.79 9.9
-22 6 -4 73.09 8.4
16 -22 -4 69.89 10.1
-22 16 4 70.19 7.8
6 -22 4 69.19 9.1
-16 22 -4 72.99 8.1
17 5 -4 34.6 5.6
5 17 4 33.3 5.4
-17 22 4 28.6 5.3
17 -22 4 37.5 6.8
-5 22 -4 52.39 7
-5 -17 4 31.6 6.2
-17 -5 4 53.59 6.1
-17 22 -4 56.89 7.8
5 -22 4 55.09 6.8
-22 5 -4 57.49 7.9
17 -22 -4 64.29 9.8
-22 17 4 53.79 7.5
-5 -17 -4 63.09 9.4
-4 -18 4 8.6 5.1
4 18 4 11.5 4.7
18 -22 4 9.5 5.7
18 4 -4 10.4 4.7
-18 22 4 6.6 4.5
-4 22 -4 12.7 4.3
-22 4 4 1.1 3.3
4 -22 4 7.1 5.5
-18 22 -4 8 3.8
-4 -18 -4 7.9 5.8
-22 4 -4 14.1 4.8
-22 18 4 8.7 4.6
18 -22 -4 15 6.2
-18 -4 4 12.4 4.7
-3 22 -4 65.49 6.3
-3 -19 4 70.69 8.4
19 3 -4 71.29 7.1
-19 22 4 69.99 7.1
3 19 4 69.59 7.3
19 -22 4 71.49 9.3
-22 3 -4 71.29 7.6
-3 -19 -4 74.19 8.9
-19 -3 4 64.79 7.3
-22 19 4 63.69 7.5
3 -22 4 64.19 8.5
19 -22 -4 78.99 9.6
2 20 4 11.4 4.2
-20 22 4 12 4.3
20 -22 4 11.9 5.4
20 2 -4 1.3 3.8
-2 -20 4 10 5.3
-20 -2 4 20.8 4.7
-22 2 -4 18.9 4.6
-2 -20 -4 20.7 5.7
2 -22 4 17 5.6
-22 20 4 14.7 4.5
11 12 4 27 5.3
-12 -11 -4 17.7 5
11 -23 -4 25.3 6.4
-23 12 -4 32.3 5.4
-11 -12 4 38 5.2
-11 23 -4 27.9 5.2
12 11 -4 27.9 5.3
-23 11 4 24.3 4.5
-23 11 -4 17.4 5.1
11 12 -4 25 5.5
12 -23 -4 25 6.3
12 11 4 15.9 5.2
-12 -11 4 18.3 4.7
-12 23 -4 18.1 5
-23 12 4 17.2 4.8
-11 -12 -4 19 6.5
-23 13 -4 24.1 5.1
10 13 4 24.4 5.4
-10 -13 4 20.8 4
-10 23 -4 26.6 5.1
10 -23 -4 17.8 5.6
13 10 -4 25.3 5.3
10 13 -4 38.6 5.7
13 10 4 22.1 4.8
-23 13 4 28.3 5.1
-13 23 -4 31 5.2
-10 -13 -4 29.9 6.5
-13 -10 4 32.8 5.1
13 -23 -4 27 6.4
-23 10 -4 35.4 5.5
9 14 4 5.5 5.2
-23 14 -4 8.1 3.9
14 -23 4 4.8 5.7
-14 23 4 2.8 3.5
-9 23 -4 9.6 4.6
14 9 -4 7.9 4.9
-14 23 -4 26.8 5
-23 14 4 24.7 4.9
9 14 -4 22.2 5
-14 -9 4 22.9 4.8
14 -23 -4 19.1 6.2
-9 -14 -4 21.3 6.2
-23 9 -4 23.3 5.3
15 8 -4 24.4 5.1
8 15 4 27.2 5.4
15 -23 4 23.5 6.1
-8 23 -4 21.9 4.8
-15 23 4 21.1 4.5
-15 23 -4 45.4 5.5
-23 8 -4 39 5.6
15 -23 -4 49.99 7
-23 15 4 43 5.2
8 15 -4 30.6 4.9
-8 -15 -4 39.2 6.5
-15 -8 4 52.39 7
16 -23 4 8.7 5.6
7 16 4 15.8 5
-7 23 -4 15.1 4.6
16 7 -4 10.5 4.8
-16 23 4 10.6 4.3
-23 16 4 15.1 4.5
16 -23 -4 18.9 6.3
-7 -16 -4 21.8 6.1
-16 23 -4 20.3 4.6
-23 7 -4 14.4 5
7 -23 4 3.6 4.5
-16 -7 4 15.7 4.7
17 -23 4 1.3 5.4
-6 23 -4 2.4 3.8
-6 -17 4 -7.5 5.2
17 6 -4 2.6 4.5
-17 23 4 3.3 4.1
6 17 4 -2.9 4.5
-6 -17 -4 -0.4 5.4
-23 17 4 1.3 4.6
6 -23 4 -2.4 4.7
-17 -6 4 -1.5 4.3
-23 6 -4 4.9 4.6
-17 23 -4 1.4 3.9
17 -23 -4 6.4 6.1
18 -23 4 18.8 5.3
-18 23 4 20.7 4.2
18 5 -4 17.2 4.5
-5 23 -4 19.3 3.9
5 18 4 16 4.6
5 -23 4 12.2 5.3
-18 -5 4 20.3 4.4
18 -23 -4 24.4 6.2
-23 5 -4 19.2 4.8
-23 18 4 18.4 4.7
-5 -18 -4 15.7 5.6
-12 -12 4 -4.4 3.1
-24 12 -4 3.6 4.1
-12 24 -4 3.1 4.8
12 12 -4 3 4.7
12 -24 -4 0.5 4.7
12 12 4 -2.5 3.6
13 11 -4 20 4.9
-11 24 -4 15.7 4.5
11 -24 -4 0.5 5.5
-24 13 -4 5.4 3.2
11 13 4 14.9 4.6
13 11 -4 17.8 5.3
11 13 -4 19.6 4.8
-24 11 -4 19.6 4.6
-13 -11 4 8.1 3.5
-11 -13 -4 2 4
13 11 4 -3.3 3.5
13 -24 -4 22.7 5.6
-13 24 -4 21.4 4.7
-10 24 -4 6.3 4.2
14 10 -4 3 3.9
10 14 4 9.7 4.7
14 10 -4 9.4 4.7
10 14 -4 17.1 4.5
14 -24 -4 20.3 6
-10 -14 -4 10 4.8
-14 -10 4 14.5 4.1
-14 24 -4 20.1 4.7
-24 10 -4 12.9 4.9
15 9 -4 25.4 4.9
9 15 4 14 4.8
-9 24 -4 24.7 4.5
-15 24 -4 37.9 5.3
-9 -15 -4 35.6 5.8
-24 9 -4 33.7 5.2
-15 -9 4 39.1 5
15 -24 -4 40.5 6.4
8 16 4 8 4.5
16 8 -4 14 4.6
16 -24 4 1 4.1
-8 24 -4 11.6 4.4
-8 -16 -4 16.5 5.4
16 -24 -4 17 6.1
-24 8 -4 13.3 4.8
-16 24 -4 10.9 3.9
-16 -8 4 19.8 4.6
0 0 5 1.8 8.3
0 0 5 1.4 8.3
0 0 5 6.7 11.2
-1 0 5 22.8 11.7
1 -1 5 20.9 8.2
0 -1 5 21.5 9.1
1 0 5 22.6 8
0 -1 5 18.6 11.3
-1 1 5 26.6 13.1
0 -1 5 18.2 9.3
-1 0 5 30.4 9.9
-1 1 5 28 10.1
-1 0 5 25.9 9.5
0 1 5 29 12.6
1 -1 5 18.4 8.4
-1 1 5 24.4 9.6
0 1 5 32.8 9.2
-2 1 5 312.37 24.3
-2 1 5 331.27 22.4
1 -2 5 318.87 21.3
-1 -1 5 328.87 22.2
1 -2 5 287.07 19.3
1 1 5 298.57 17.2
2 -1 5 253.27 17.9
1 -2 5 335.57 23
-1 2 5 279.47 19.3
-1 -1 5 304.07 23.1
-2 1 5 284.47 20.7
-1 -1 5 332.97 21.1
-1 2 5 319.57 25.5
2 -2 5 7.2 8.4
-2 0 5 11.9 11.1
-2 2 5 12.6 12.5
2 0 5 10.8 5.7
0 -2 5 10.9 8.5
-2 0 5 20.5 10
0 2 5 19.9 12.8
-2 0 5 13.5 10.1
0 -2 5 21.6 10.1
0 -2 5 17.5 11.4
2 -2 5 12.6 7.5
0 2 5 14.3 7.5
-3 2 -5 93.59 7
1 2 5 103.69 8.2
-2 -1 -5 150.08 19.3
1 -3 -5 73.69 6.7
3 -1 5 111.99 10.3
-3 2 5 139.39 18.8
1 -3 5 143.49 17.8
1 -3 5 159.68 17.4
-2 -1 5 163.88 16.6
-2 -1 5 185.78 17.7
-3 1 -5 154.68 22.9
3 -2 5 150.08 13.9
-1 -2 -5 162.68 22.1
-2 -1 5 165.38 17.1
-3 2 5 146.29 17
-1 -2 -5 114.69 8.6
-1 3 5 170.28 20.9
1 -3 5 150.88 14.4
3 -2 5 139.09 12.3
3 -3 5 54.09 10.7
-3 0 -5 46.6 17.1
-3 0 5 73.69 14.8
3 -3 5 33.4 5.3
0 -3 -5 49 5.4
-3 0 -5 59.89 13.7
0 -3 5 55.89 12.7
0 -3 -5 79.49 18.8
0 -3 5 57.69 11.8
-3 0 5 73.99 13.6
0 3 5 46.9 14.2
-3 0 5 74.09 14.9
0 -3 5 67.39 13
-3 3 5 72.29 16.3
3 -3 5 29.8 6.9
-3 0 -5 41.7 5.8
2 -4 5 297.57 19.5
-2 -2 5 358.96 24.1
-4 2 5 363.66 25.4
-4 2 -5 314.17 16.7
-2 -2 -5 365.26 28.5
-2 -2 5 338.67 25.5
-2 4 5 368.06 28.9
-4 2 5 311.77 26.7
2 -4 -5 318.77 16.4
-2 -2 5 327.37 24
-2 -2 -5 278.47 16.2
4 -2 5 271.57 19.5
2 -4 5 364.06 24.5
2 2 5 342.47 17.5
-4 2 -5 350.96 30.7
-4 1 5 35.8 12.9
-4 1 5 26.8 11.7
-1 -3 5 24.5 12
4 -1 5 7.7 3.8
3 -4 5 30.2 11.1
3 -4 5 14.4 4.2
4 -3 -5 14.5 4.5
3 -4 5 1.1 6.5
-3 4 5 26.8 14.7
1 3 5 21.6 5.2
1 -4 -5 33.5 16.6
-3 -1 -5 38.2 14.6
-3 -1 -5 18.2 4.3
-4 1 5 27.5 13.2
-1 -3 5 20.9 10.3
-4 3 -5 35.2 16.9
1 -4 -5 18.3 4.2
-1 -3 5 19.8 12.5
-3 -1 5 27.7 12.2
-4 3 5 32.4 12.6
-3 -1 5 32.4 11.9
-4 1 -5 23 16.9
-1 -3 -5 41.7 16.8
-4 1 -5 34 12.5
-4 3 5 26.4 12.6
-1 -3 -5 28.7 4.8
-4 1 -5 28.2 5.1
4 -3 5 33.9 9.9
-1 4 5 28.1 15.5
-3 -1 5 40.6 13.4
1 -4 5 22.7 9.8
4 -3 5 33.1 5.4
1 -4 5 32 13.7
1 -4 5 31.2 12
3 1 5 29.5 6.1
0 4 5 654.63 41.3
0 -4 -5 635.44 41.1
4 -4 5 595.84 33.9
-4 4 5 660.33 39.7
4 0 5 540.55 28.6
-4 4 5 630.64 38.1
-4 4 -5 601.64 39.6
0 -4 5 546.15 32.3
-4 0 5 638.74 38.1
0 -4 5 665.83 37.7
4 -4 5 555.84 28.1
0 -4 5 636.54 34.6
-4 0 -5 585.34 28.4
-4 0 5 542.85 35.9
-4 0 -5 598.84 36.1
-4 0 5 691.53 38.4
-4 0 -5 591.24 43.1
0 -4 -5 614.24 28.4
-5 2 5 1191.58 59.99
3 -5 5 1146.79 56.19
2 -5 -5 1172.48 61.69
-3 5 5 1135.79 59.89
-2 -3 5 1055.19 53.79
-5 3 -5 1102.09 48.5
2 -5 -5 1129.19 56.59
-2 -3 5 1014.3 55.49
2 3 5 1009.7 48.8
-2 -3 5 1100.59 56.99
-5 2 5 1174.08 57.49
-3 -2 -5 1045.8 48.4
-3 -2 -5 936.01 57.59
5 -3 -5 1009.2 48.7
2 -5 -5 1015.3 48.2
-5 3 -5 1084.89 62.09
5 -3 5 1049.3 48.5
3 2 5 1035 49.1
-5 2 -5 944.41 61.49
-5 2 -5 1106.89 48.7
-5 3 5 1175.48 58.29
-2 5 5 1233.18 61.49
-2 -3 -5 933.71 58.59
-5 3 5 1060.79 58.29
-3 -2 5 1119.29 55.79
3 -5 -5 1099.29 58.09
-2 -3 -5 1060.79 48.5
3 -5 -5 1034.6 48.3
-3 -2 5 1143.69 57.59
-3 -2 5 1077.39 56.79
2 -5 5 1168.18 57.19
1 -5 -5 454.95 36.8
-4 -1 -5 497.55 35
-5 4 -5 522.35 38.1
1 4 5 454.65 24.1
5 -4 -5 483.35 24.2
-4 -1 -5 467.75 38.9
-1 -4 5 449.86 32.9
-4 5 5 467.75 34.4
4 -5 5 480.95 23.6
-5 1 5 464.65 32.6
1 -5 -5 499.55 23.6
-1 -4 5 520.05 31.7
-5 1 5 507.65 34.6
-5 1 5 523.35 33.4
4 -5 5 480.75 30.8
5 -1 5 469.05 24.2
-4 -1 -5 485.55 23.6
-4 -1 5 539.65 33.1
-5 4 5 516.55 33.7
-5 4 5 496.95 34.9
-1 -4 -5 407.86 22.5
4 -5 -5 480.35 35.8
5 -4 5 439.06 23
-5 1 -5 475.05 23.2
4 -5 -5 427.96 22.7
1 -5 5 427.76 27.7
-1 -4 -5 464.05 22.9
-1 5 5 482.25 35.9
1 -5 5 498.85 33.2
-4 -1 5 509.75 33.4
-4 -1 5 538.25 33.6
4 1 5 450.45 23.4
-1 -4 -5 504.15 37.2
5 -4 5 483.35 29.3
-5 1 -5 497.45 39.6
-5 5 -5 154.58 23.8
-5 0 -5 103.09 23.5
-5 0 -5 136.89 10.2
5 0 5 142.49 11.6
-5 0 5 142.09 20.9
5 -5 -5 183.18 25.8
-5 0 5 148.49 23.1
-5 0 -5 118.29 19.4
5 -5 -5 143.79 10.7
-5 0 5 177.18 24.6
5 -5 5 131.39 9.9
5 -5 5 148.89 18.3
0 -5 -5 143.99 10.1
0 -5 5 126.59 17.5
-5 5 5 148.39 23.5
-5 5 5 146.09 22.8
0 -5 5 142.49 10.6
0 -5 5 157.88 23.2
0 5 5 159.28 25.4
0 -5 -5 114.29 22
-3 -3 -5 19.8 19.9
-3 -3 5 7.4 15.2
-6 3 5 1.7 14.3
3 3 5 7.7 6
6 -3 -5 3.7 5.5
-3 -3 -5 5.4 4.9
3 -6 -5 3.5 17.3
-3 -3 5 0.5 12.9
-3 6 5 9.4 17
3 -6 5 2.1 4.5
6 -3 5 6 5.4
-6 3 -5 7 22.9
3 -6 -5 4.1 5
6 -3 5 2.7 4.9
-6 3 5 4.9 16.4
-3 -3 5 11.3 14.7
-6 3 -5 9.4 5
3 -6 5 8.4 14.4
2 4 5 107.99 10.5
-6 2 5 155.28 22.3
4 -6 5 108.89 17.5
4 -6 5 115.69 9.7
6 -2 5 123.39 11.1
2 -6 -5 151.58 26.6
6 -4 -5 111.39 10.3
2 -6 -5 96.99 20.2
-6 2 5 143.39 23.8
6 -2 5 106.09 8.9
-6 4 -5 133.59 27.6
-4 -2 -5 144.19 24.7
-4 -2 -5 110.59 9.3
-2 -4 5 113.19 18.6
-6 2 5 139.49 21.4
-4 6 5 129.79 22.4
2 -6 -5 105.19 9.3
-2 -4 5 105.69 18.2
-4 -2 -5 90.99 22.8
-6 2 -5 94.29 8.8
-2 6 5 109.29 21.2
-2 -4 -5 67.79 21
-2 -4 -5 94.99 8.9
6 -4 5 88.09 8.4
-4 -2 5 119.79 18.8
-4 -2 5 78.19 17.4
4 2 5 93.69 10
-6 2 -5 100.59 25.9
4 -6 -5 96.69 8.9
6 -2 -5 90.99 9.1
-2 -4 -5 93.59 8.9
2 -6 5 105.49 18.7
-4 -2 5 132.99 21.1
4 -6 -5 119.59 22.1
-6 4 5 115.89 20.2
-6 4 5 125.79 22.5
-6 1 5 664.63 42.6
1 5 5 696.53 33.3
6 -5 -5 727.43 33.3
-1 -5 5 752.52 43.9
-5 -1 -5 657.13 49.8
1 -6 -5 603.44 46
1 -6 -5 715.23 32.4
-6 1 5 725.63 45.4
-5 -1 -5 709.83 32.6
-6 5 -5 728.43 49.4
6 -1 5 710.73 33.6
-1 -5 5 690.83 40.6
-1 -5 5 659.53 32.5
5 -6 5 638.84 40.3
-6 1 5 649.93 42.8
5 -6 5 695.83 32.5
-5 -1 -5 653.93 45.1
-5 6 5 669.13 44.8
-6 5 5 795.72 48.9
6 -5 5 709.13 34.8
5 -6 -5 753.82 34.9
-6 1 -5 774.52 35
-6 5 5 823.62 47.2
-1 -5 -5 700.63 49
5 -6 -5 621.44 48.2
5 1 5 716.43 35.6
1 -6 5 721.23 35.2
-1 6 5 764.02 48.5
-6 1 -5 755.92 52.99
-5 -1 5 705.33 45.3
-1 -5 -5 772.02 34.8
-1 -5 -5 711.13 34.9
-5 -1 5 847.82 45.9
1 -6 5 786.42 45.9
-5 -1 5 763.12 46.7
-6 0 5 29.1 17.3
-6 0 -5 33.1 6.5
6 -6 5 31.8 7.1
-6 0 -5 0.9 20.8
-6 6 5 24.2 17.6
0 -6 -5 28.3 5.8
-6 6 5 14.3 18
0 6 5 24.2 21.5
0 -6 -5 26.9 6.3
-6 6 -5 23.7 22.1
0 -6 -5 18.5 22
-6 0 5 35.4 19.5
6 -6 -5 25.9 6.2
0 6 5 20.9 6.3
6 -6 5 28.6 15.8
-6 0 -5 34.6 23.3
6 -6 -5 31.4 6.6
0 -6 5 25.2 6.7
6 0 5 35.4 8.2
0 -6 5 25.7 17.3
-6 0 5 28.7 16.5
0 -6 5 23.7 15.2
6 -6 -5 19.7 21.7
4 -7 5 378.16 31.1
-7 3 5 357.96 31.4
-4 -3 -5 368.26 19
-4 -3 -5 384.66 39
-7 3 5 342.97 34.2
3 -7 -5 356.16 18.7
-4 7 5 365.66 33.6
-3 -4 5 341.17 30.9
3 4 5 346.77 19.8
7 -3 5 355.36 19.2
3 -7 -5 382.56 38.7
-7 4 -5 412.96 43.5
4 -7 5 356.36 19
3 -7 -5 282.97 36
7 -4 -5 366.56 20
-3 -4 5 350.76 32.5
-7 4 -5 375.96 19
7 -3 5 352.76 20.5
4 -7 -5 370.36 36.5
-3 -4 -5 407.36 21.2
-7 4 5 403.86 36.2
3 -7 5 398.76 21.4
3 -7 5 419.86 33.3
-7 4 5 441.66 34.4
7 -3 -5 406.66 21.9
4 3 5 407.16 22
7 -4 5 389.66 21.8
-3 -4 -5 428.56 40.3
-4 -3 5 427.66 33.2
-7 3 -5 414.76 21
7 -4 5 402.36 20.8
-7 3 -5 387.76 43.9
4 -7 -5 438.96 21.3
-3 7 5 374.76 35.4
-4 -3 5 451.25 33.4
-5 -2 -5 13.7 21.6
-7 2 5 22.5 16.3
2 -7 -5 37 6.4
-5 -2 -5 24.3 23.5
-7 5 -5 27.4 27.6
2 5 5 26.4 6.8
-5 7 5 27.1 18.7
-2 -5 5 28.1 6.4
7 -2 5 26.2 6.7
-2 -5 5 17.6 16.5
7 -5 -5 43.9 7.8
-7 2 5 17 20.5
-2 -5 5 31.5 16.2
2 -7 -5 32.6 23.3
2 -7 -5 4.6 23.4
-5 -2 -5 33.5 6.4
7 -2 5 34.9 8
5 -7 5 21.5 6.8
-7 2 5 30.6 17.9
5 -7 5 23.1 15.8
2 -7 5 21.4 17.5
5 -7 -5 15.5 6.1
5 2 5 20.8 6.6
7 -5 5 3.7 17.1
-2 -5 -5 26.5 6.8
-2 7 5 10.1 19.5
-2 -5 -5 11.9 23.4
7 -2 -5 20.1 6.4
5 -7 -5 5.3 23.3
-5 -2 5 13.9 16.9
-7 5 5 31.3 20.8
-2 -5 -5 15.4 5.8
2 -7 5 16.5 6.3
7 -5 5 22.2 6.7
-7 5 5 17.1 17.3
-7 2 -5 11.8 25.3
-7 2 -5 17.2 6.1
-5 -2 5 16.5 16.9
-5 -2 5 15.6 18.1
-7 1 5 932.11 57.39
7 -1 5 912.11 42.9
7 -6 -5 889.91 60.39
-1 -6 5 937.41 43.4
6 -7 5 972.8 43.3
-1 -6 5 953.7 55.99
1 -7 -5 954.5 42.9
1 6 5 955.8 58.99
1 -7 -5 859.91 58.49
-6 -1 -5 936.31 62.99
7 -1 5 994.9 44.7
7 -6 -5 979.9 44.1
-6 7 5 915.81 57.89
1 -7 -5 864.71 43.3
-7 1 5 966.7 55.39
1 6 5 922.31 43.9
-6 -1 -5 988.5 43.3
6 -7 5 798.22 51.99
-7 1 5 997.4 56.09
-6 -1 5 1048.8 58.59
-6 -1 5 970.7 57.09
6 -7 -5 1029.4 45.7
-7 6 5 1084.29 59.19
-7 6 5 1026.9 60.89
-1 -6 -5 1012.6 45.1
-7 1 -5 958.8 66.09
7 -6 5 1018.2 45.4
6 1 5 1022.6 46.4
6 -7 -5 866.71 61.19
-1 7 5 1013.7 60.69
-1 -6 -5 1013.1 45.8
7 -1 -5 826.62 45.3
1 -7 5 1014.1 57.29
-7 1 -5 951.2 45.1
1 -7 5 954.2 45.4
-7 7 5 252.57 31.6
0 -7 -5 260.17 15.1
0 -7 5 254.17 15.8
-7 0 -5 232.48 39.1
-7 0 5 212.08 30.5
-7 0 5 250.77 31.5
0 7 5 255.27 16.4
-7 0 5 256.87 31.1
7 -7 -5 270.47 16.2
7 -7 -5 191.68 32.1
7 -7 5 271.37 16
-7 7 5 233.78 32.3
-7 0 -5 259.87 15.4
0 7 5 233.18 33.9
0 -7 5 263.17 29.6
7 0 5 264.97 16.8
0 -7 -5 230.78 35.4
0 -7 -5 275.87 16.6
7 -7 -5 262.27 16.4
8 -4 5 959.9 43.9
-8 4 5 934.11 56.39
-4 -4 5 905.21 55.89
-8 4 -5 980.7 43.8
4 4 5 942.61 44.3
4 -8 5 894.01 55.89
-8 4 5 1033.3 61.19
-4 -4 5 1007.4 57.49
-4 -4 -5 939.31 43.8
4 -8 5 960.6 44.2
8 -4 -5 975.4 44.8
-4 8 5 869.81 57.89
4 -8 -5 954.2 43.9
8 -4 5 912.01 44.7
4 -8 5 962.1 43.6
-8 3 5 148.69 27.6
5 -8 5 157.08 11.8
3 5 5 143.69 12.4
-8 3 5 161.18 24.8
8 -3 5 168.48 14
-8 5 -5 101.59 34.6
-5 -3 -5 153.08 11.2
-3 -5 5 134.09 11.1
3 -8 -5 133.39 28.1
-3 -5 5 164.88 25.8
8 -5 -5 151.58 11.8
-5 8 5 144.59 26
-5 -3 -5 65.09 28.3
-5 -3 -5 182.08 34.9
5 -8 5 131.89 22.5
3 -8 -5 152.08 11.5
-3 -5 5 148.89 23.5
8 -3 5 157.58 11.7
-3 -5 -5 140.89 31
-3 -5 -5 145.09 11.6
5 3 5 145.79 11.9
-8 5 5 167.58 29.8
8 -5 5 133.39 11.4
8 -5 5 147.79 11.9
3 -8 5 146.29 24.1
5 -8 -5 152.68 12
-5 -3 5 144.59 24.5
-5 -3 5 168.18 25.6
3 -8 5 155.58 12.1
-8 3 -5 91.39 32
8 -3 -5 156.88 12.8
5 -8 -5 61.19 27.9
-8 5 5 143.39 24.4
-8 3 -5 146.19 11.5
-3 8 5 131.99 26.2
-6 -2 -5 926.81 41.7
-8 2 5 805.52 57.19
8 -2 5 882.41 41.6
-8 2 5 917.51 55.29
-6 8 5 917.21 57.69
-2 -6 5 906.81 55.09
8 -2 5 910.31 43.4
-2 -6 5 930.61 41.9
8 -6 -5 930.41 42.7
6 -8 5 968.8 42
2 6 5 899.61 42.4
-8 2 5 910.11 55.09
2 -8 -5 759.52 59.99
-6 -2 -5 794.42 60.99
2 -8 -5 886.01 41.4
-8 2 -5 842.02 66.39
-2 -6 -5 960.8 44
-8 6 5 950.2 58.19
2 -8 5 946.41 43.7
-2 -6 -5 972.4 43.3
6 2 5 994.7 44.4
-8 6 5 958.9 61.29
-6 -2 5 824.82 55.19
-8 2 -5 943.91 43.5
8 -6 5 983.4 43.5
-2 8 5 792.42 56.99
-6 -2 5 952.5 58.09
-2 -6 -5 894.31 62.19
6 -8 -5 1009.9 44.2
2 -8 5 930.31 56.89
8 -2 -5 928.91 44.5
8 -1 5 234.28 15
8 -1 5 254.27 17.8
-7 -1 -5 256.07 15.1
8 -7 -5 249.97 16.2
-7 8 5 250.27 32.3
-8 1 5 231.98 33.8
1 -8 -5 252.07 36.1
-1 -7 5 234.38 33
8 -7 -5 246.58 16.1
1 7 5 234.78 16.1
-7 -1 -5 209.98 37.4
-1 -7 5 260.57 15.8
1 -8 -5 248.18 15
7 -8 5 274.97 15.9
-7 8 5 234.28 34.4
1 -8 -5 259.67 17.1
-8 1 5 231.28 33.2
8 -7 -5 173.78 33.7
7 -8 -5 286.87 17.4
8 -7 5 307.57 17
-1 8 5 260.07 17.2
7 -8 -5 280.97 17.3
-8 7 5 276.87 33.9
-8 1 -5 190.18 36.4
-1 -7 -5 293.07 17.5
8 -1 -5 283.87 17.6
1 -8 5 265.47 16.6
-1 -7 -5 272.97 15.9
-1 -7 -5 229.28 37.3
-8 1 -5 276.37 16.2
-7 -1 5 260.27 34.8
7 1 5 287.07 18.3
-8 7 5 238.38 36.7
-7 -1 5 253.67 33
1 -8 5 257.77 32.2
8 -8 -5 4.6 30.7
0 -8 -5 78.69 9.3
-8 0 -5 72.69 9.2
0 8 5 65.59 9.9
8 -8 -5 66.29 10.2
-8 0 -5 57.89 33.5
0 -8 5 70.79 9.9
0 -8 -5 58.39 30.4
8 0 5 74.19 12.4
-8 8 5 37.9 26.8
8 -8 5 73.49 9
0 -8 -5 72.39 11.2
-8 0 5 64.69 24.9
-8 0 5 41.8 22.9
0 8 5 3.8 34.1
-8 8 5 25.4 22.4
0 -8 5 62.19 23.2
8 -8 -5 85.49 10.5
9 -4 5 633.04 29.8
4 5 5 596.64 30
4 -9 -5 605.64 29.6
-5 -4 -5 598.24 29.7
9 -5 -5 615.74 30.8
5 -9 5 632.34 29.6
-9 4 5 575.44 44.6
4 -9 -5 548.35 51.19
-9 4 5 530.85 47.6
-4 -5 5 544.85 43.9
9 -4 5 614.14 30.9
5 -9 5 619.64 30.3
-9 5 5 604.44 47.3
4 -9 5 730.13 33.9
5 -9 -5 716.63 33.8
9 -5 5 697.33 34.3
-4 -5 -5 718.33 33.7
-9 5 5 656.13 52.49
5 4 5 713.83 34.5
-5 -4 5 621.64 48.8
4 -9 5 680.73 33
9 -4 -5 704.83 34.8
9 -5 5 706.33 33.5
-9 4 -5 691.93 33.3
6 -9 5 553.94 26.7
3 -9 -5 484.75 50.19
-9 3 5 469.65 43.5
-6 -3 -5 523.25 26.5
-3 -6 5 466.55 41.6
9 -3 5 556.74 28.5
3 -9 -5 512.25 26.4
-3 -6 5 535.75 26.8
6 -9 5 557.94 27.2
3 6 5 533.35 27.4
-9 3 5 460.05 41.9
-6 -3 -5 445.16 49.5
9 -3 5 554.54 26.7
9 -6 -5 558.64 27.8
9 -6 5 622.74 29.4
-6 -3 5 574.24 44.9
-9 3 -5 585.64 28.8
6 -9 -5 608.24 29.9
-6 -3 5 473.95 42.6
-9 6 5 541.05 49.6
9 -3 -5 612.74 30.9
9 -6 5 536.05 28.9
-3 -6 -5 584.04 28.6
6 3 5 601.54 30
3 -9 5 614.54 29.5
-3 -6 -5 623.64 29.8
-7 -2 -5 105.19 36.2
-7 -2 -5 157.18 12.3
2 -9 -5 77.89 30.4
-9 2 5 103.59 26.1
9 -2 5 165.28 14.7
-2 -7 5 173.58 12.9
-2 -7 5 107.19 26.7
9 -2 5 170.28 12.1
-9 2 5 89.19 26.8
2 -9 -5 171.38 14.3
7 -9 5 178.98 12.9
9 -7 -5 173.58 13.6
2 -9 -5 163.28 12
2 7 5 162.38 13.2
7 2 5 163.98 14.7
-7 -2 5 98.29 27
-2 -7 -5 155.28 11.4
-9 2 -5 157.78 12.3
-2 -7 -5 152.18 13.3
-7 -2 5 98.79 26
2 -9 5 153.88 12.9
7 -9 -5 151.08 13
-9 2 -5 72.59 38.8
9 -7 5 168.58 12.8
-9 7 5 80.79 29.8
9 -2 -5 161.08 14.4
-9 1 5 11.4 26.6
9 -1 5 83.79 7.9
-1 -8 5 9.6 23.5
9 -8 -5 5.1 41.2
-8 9 5 2.5 27.8
-8 -1 -5 4.8 33.3
-8 9 5 -0.4 34.9
-9 1 5 15.6 26.7
1 -9 -5 8.6 30.6
-9 1 -5 17.3 38.8
9 -9 -5 983.4 46
9 -9 -5 1022.3 47
0 -9 -5 1007.4 46.6
0 -9 -5 990.3 44.8
-9 0 -5 973.5 45
9 0 5 969.5 46.8
9 -9 5 981.3 45.1
0 9 5 794.32 44.8
0 -9 5 944.01 45.2
5 -10 -5 198.98 14.3
5 5 5 211.78 15.6
10 -5 5 201.68 14.3
10 -5 -5 205.28 15.6
5 -10 5 201.98 14.9
10 -5 5 187.28 15.1
-5 -5 -5 196.48 14
5 -10 5 199.98 13.9
6 -10 5 88.69 11.1
4 6 5 88.09 11.7
4 -10 -5 0.7 37.3
-4 -6 5 90.19 10.5
10 -4 5 91.49 10.6
4 -10 -5 87.49 10.2
10 -6 -5 97.19 11.7
-10 4 5 0.9 29.2
6 -10 5 98.19 10.8
-6 -4 -5 82.99 9.8
10 -4 5 83.69 12
10 -4 -5 67.99 11.8
10 -6 5 65.79 10.4
-6 -4 5 4.9 26.5
-4 -6 -5 65.79 10
6 4 5 66.09 11.7
-10 6 5 -6.1 30.6
6 -10 -5 65.69 10.4
4 -10 5 67.69 10.5
10 -6 5 75.49 10.3
4 -10 5 74.09 9.7
-10 4 -5 57.99 8.7
3 -10 -5 234.28 15.2
7 -10 5 242.28 15.7
10 -3 5 228.88 15.3
7 -10 5 237.58 16.3
-7 -3 -5 218.88 15.1
3 7 5 238.28 16.2
-3 -7 5 224.48 15.7
10 -7 -5 234.88 15.8
10 -3 5 229.08 17.1
10 -7 5 252.67 15.9
10 -3 -5 241.78 17.9
10 -7 5 203.18 14.8
-3 -7 -5 244.48 16.4
7 -10 -5 237.58 15.7
7 3 5 254.17 17.9
-3 -7 -5 208.68 14.1
3 -10 5 244.18 16
-10 3 -5 238.58 15.2
10 -8 -5 518.25 29.4
10 -8 -5 572.04 29.2
2 -10 -5 555.54 30.3
10 -2 5 570.94 30.4
-2 -8 5 559.84 28.9
8 -10 5 589.94 29.1
8 -10 5 570.24 28.7
-8 -2 -5 578.84 28.5
2 -10 -5 563.24 28.2
2 8 5 541.05 28.9
8 2 5 521.95 28.1
8 -10 -5 501.55 27.8
-10 2 -5 513.35 26.2
2 -10 5 517.55 26.9
10 -8 5 529.65 26.8
10 -2 -5 525.55 29.4
-2 -8 -5 501.95 26.1
-2 -8 -5 510.45 27.7
10 -9 -5 221.48 16.1
1 -10 -5 216.58 17
-1 -9 5 210.88 15.3
9 -10 5 213.08 15.4
10 -9 -5 215.38 17.5
1 -10 -5 217.38 14.5
10 -1 5 207.88 16.1
-9 -1 -5 214.38 15.2
9 -10 -5 223.38 16.2
-1 -9 -5 220.98 14.6
-1 -9 -5 228.58 16.7
9 -10 -5 221.98 17.4
10 -1 -5 195.98 18.7
1 -10 5 210.78 15.6
9 1 5 215.58 17.6
-10 1 -5 231.78 15.4
10 -9 5 224.78 14.8
10 0 5 303.77 20.2
10 0 -5 266.37 20.5
0 -10 -5 277.57 17.3
0 -10 -5 284.67 19.9
10 -10 5 292.27 18.2
-10 0 -5 302.37 18.2
10 -10 -5 258.07 20.5
10 -10 -5 295.17 18.7
0 -10 5 279.67 18.6
5 -11 -5 387.56 21.6
5 6 5 390.06 22.8
6 -11 5 379.56 21.4
-6 -5 -5 368.06 21.2
11 -6 -5 380.66 22.8
6 -11 5 399.56 21.9
11 -5 5 371.36 22.2
11 -5 5 371.16 21.7
-5 -6 -5 424.06 23.4
6 5 5 433.36 24.9
5 -11 5 423.86 22.9
6 -11 -5 411.16 23.5
5 -11 5 442.06 23.7
11 -5 -5 410.76 24.3
11 -6 5 420.76 23.9
11 -6 5 430.86 23.3
7 -11 5 339.17 19.6
11 -4 5 323.37 19
7 -11 5 327.67 19.2
11 -4 5 316.97 20.2
11 -7 -5 325.97 20.3
4 -11 -5 314.37 18.8
4 7 5 319.87 20.2
-7 -4 -5 308.77 18.7
-4 -7 5 309.37 19.4
-4 -7 -5 402.96 22.4
11 -4 -5 390.76 24.4
11 -7 5 417.86 22.1
11 -7 5 374.96 22.4
4 -11 5 345.67 20.6
7 4 5 412.76 24.2
-11 4 -5 366.16 21.1
4 -11 5 413.46 22.7
7 -11 -5 413.26 22.9
8 -11 5 370.06 20.7
3 -11 -5 299.17 21.6
3 8 5 330.47 21.2
3 -11 -5 356.16 20.3
-3 -8 5 365.76 20.9
11 -8 -5 360.26 21.7
8 -11 5 363.66 21
11 -3 5 372.66 22.5
-8 -3 -5 367.46 20.4
11 -8 5 392.56 22
-3 -8 -5 402.66 22.7
8 3 5 378.06 24
3 -11 5 400.26 22.4
8 -11 -5 389.06 23
-11 3 -5 363.86 21
11 -3 -5 409.76 25
-9 -2 -5 382.56 21.4
11 -9 -5 352.96 22
2 -11 -5 363.56 20.6
11 -2 5 381.56 23
2 -11 -5 294.67 22.5
-2 -9 5 372.26 21.5
9 -11 5 374.56 21.7
11 -9 -5 380.36 22.9
9 -11 5 365.76 21.3
11 -2 -5 320.77 24.2
-2 -9 -5 327.37 19.3
-2 -9 -5 370.46 21.8
9 -11 -5 358.46 22.4
-11 2 -5 366.76 20.4
9 2 5 357.06 22.7
11 -9 5 361.56 20.9
2 -11 5 355.86 21.1
1 -11 -5 10.8 6.8
11 -1 5 11.4 9.2
-10 -1 -5 14.2 7.4
11 -10 -5 19.1 8
11 -10 -5 0.7 9.9
1 -11 -5 8.5 9.2
10 -11 5 15.9 8.1
10 -11 5 17.3 8.1
-1 -10 5 10.4 8.2
-1 -10 -5 26.7 7.4
-11 1 -5 31.2 8.1
11 -10 5 31.3 8.6
-1 -10 -5 31.2 9.1
1 -11 5 41.6 9.2
10 -11 -5 10.2 9.2
10 1 5 34.4 10.1
11 -1 -5 22.4 11.3
11 -11 5 28.7 8.4
11 -11 5 59.49 10.4
0 -11 -5 35.6 8
0 -11 -5 46.9 10.4
11 -11 -5 20 10.5
11 0 -5 32.7 11.5
-11 0 -5 36.5 8.4
11 -11 -5 36.2 9
0 -11 5 63.19 10.8
11 0 5 47.4 11
6 6 5 24 10.3
6 -12 5 18.3 8.3
12 -6 -5 19.3 8.7
12 -6 5 22.2 9.3
6 -12 5 14.5 8.1
6 -12 -5 19 7.8
12 -6 5 18 8
-6 -6 -5 19.1 7.4
7 -12 5 100.29 12.1
-5 -7 5 86.59 11.8
-7 -5 -5 91.49 11.5
12 -7 -5 94.09 12.8
7 -12 5 94.69 12.7
12 -5 5 95.29 13.1
5 -12 -5 91.29 11.3
12 -5 5 93.59 11.4
5 7 5 86.59 13.2
-5 -7 -5 75.99 11.5
7 5 5 79.29 13.8
7 -12 -5 75.29 11.5
12 -5 -5 78.29 12.3
12 -7 5 62.19 11.6
5 -12 5 79.19 12.2
12 -7 5 84.09 10.9
5 -12 5 62.69 10.3
-4 -8 5 174.68 15.4
12 -8 -5 190.78 15.9
8 -12 5 189.28 15.7
-8 -4 -5 191.78 14.3
12 -4 5 194.08 16.5
4 8 5 172.88 15.2
4 -12 -5 177.18 14.3
8 -12 5 190.28 15.2
12 -8 5 153.18 13.6
12 -4 -5 138.79 16
8 4 5 149.49 16.3
8 -12 -5 153.98 14
4 -12 5 139.99 14.1
-4 -8 -5 137.69 13.3
12 -8 5 120.79 13.5
3 -12 -5 17 9.4
9 -12 5 27.4 9
12 -9 -5 36.8 9
3 -12 -5 31.9 7.6
-3 -9 5 27.6 9.4
9 -12 5 38.8 9.6
12 -3 5 45.2 10.8
-9 -3 -5 33.7 8.1
12 -3 -5 29.6 11.5
9 -12 -5 25.7 8.6
3 -12 5 45.7 9.8
12 -9 5 33.2 8.9
-12 3 -5 17.4 6.7
-3 -9 -5 28.4 8.5
9 3 5 28.3 10.5
-2 -10 5 136.39 14.4
12 -10 -5 141.09 14.4
-10 -2 -5 149.99 14
10 -12 5 140.59 14.9
10 -12 5 134.09 14.1
12 -2 5 146.09 15.7
2 -12 -5 146.39 13.1
12 -10 -5 140.69 16.2
2 -12 -5 138.79 15.5
10 -12 -5 136.79 15.3
2 -12 5 142.49 14.5
12 -10 5 132.09 14
12 -2 -5 119.69 18.8
-12 2 -5 127.79 12.5
10 2 5 146.09 16.5
-2 -10 -5 147.89 14.6
-1 -11 5 305.57 20.6
1 -12 -5 304.77 19.2
1 -12 -5 257.37 20.8
11 -12 5 313.77 20.2
12 -1 5 300.57 21.3
-11 -1 -5 308.77 19.8
12 -11 -5 299.87 20.5
12 -11 -5 304.57 22
12 -1 -5 295.57 24.5
1 -12 5 288.37 19.9
11 -12 -5 281.87 21
12 -11 5 289.57 19.4
-1 -11 -5 302.77 20.3
-12 1 -5 266.57 18.4
11 1 5 297.07 21
-12 0 -5 -2.2 7.6
0 -12 -5 4.6 6.8
12 -12 5 -0.7 8.3
12 0 5 14.7 10.2
12 0 -5 -2 11.4
12 -12 -5 7.2 8.9
12 -12 -5 5.3 10.1
0 -12 5 0.7 8.8
0 -12 -5 9.9 9.3
13 -7 -5 70.39 12.9
13 -6 5 80.99 12.4
-7 -6 -5 72.59 10.1
6 7 5 67.29 12.5
7 -13 5 76.99 10.9
6 -13 -5 69.49 11.2
13 -6 5 68.59 10.5
7 -13 5 72.99 12.3
13 -7 5 78.49 12.3
13 -6 -5 90.99 14.3
6 -13 5 91.49 13.5
7 6 5 83.29 14.7
6 -13 5 80.19 11.9
-6 -7 -5 84.39 12.2
13 -7 5 78.29 13.6
7 -13 -5 85.89 12
5 8 5 106.99 15.1
-8 -5 -5 153.08 14.1
13 -8 -5 151.58 15.2
8 -13 5 155.68 14.5
8 -13 5 153.18 14.4
-5 -8 5 142.09 14
5 -13 -5 160.08 13.7
13 -5 5 138.19 15.7
13 -8 5 180.68 16
5 -13 5 148.59 13.8
13 -8 5 187.38 15.6
-5 -8 -5 191.68 15.4
8 -13 -5 198.28 15.9
5 -13 5 211.58 16.6
13 -5 -5 193.48 18.1
8 5 5 196.78 18.2
13 -9 -5 166.58 16
-9 -4 -5 178.38 15.2
4 -13 -5 160.18 14.3
9 -13 5 170.18 15.4
13 -4 5 170.18 16.3
-4 -9 5 161.58 15.6
9 -13 5 162.78 15.1
9 -13 -5 198.28 16.9
13 -9 5 205.68 16.3
13 -4 -5 200.78 19.3
13 -9 5 152.98 14.9
9 4 5 208.98 18.3
-4 -9 -5 207.08 16
4 -13 5 196.98 16.7
3 -13 -5 157.18 16.7
-3 -10 5 166.88 16.5
13 -3 5 187.38 17.3
13 -10 -5 186.38 16.8
10 -13 5 179.88 16.1
3 -13 -5 198.58 15.2
-10 -3 -5 198.18 16
10 -13 5 191.18 16.3
10 -13 -5 202.88 17.3
13 -10 5 203.88 17.2
3 -13 5 189.68 16.9
10 3 5 201.38 18.3
13 -3 -5 224.98 21
-3 -10 -5 209.98 17.1
13 -11 -5 7.7 10
11 -13 5 26.5 9.8
-11 -2 -5 15.1 8.5
11 -13 5 8.2 8.2
2 -13 -5 18.9 8
-2 -11 5 19.6 9.8
13 -2 5 14.3 10.6
2 -13 -5 15.5 9.6
13 -11 -5 20.1 9.5
13 -11 5 4.9 8.6
13 -2 -5 11.4 12.4
2 -13 5 -1.9 8.7
11 2 5 12.4 10.4
11 -13 -5 5.8 9.1
-2 -11 -5 6.9 8.8
-13 2 -5 -0.7 6.8
-12 -1 -5 61.19 10.5
13 -1 5 78.79 13.5
13 -12 -5 64.29 12.7
12 -13 5 79.39 12.2
13 -12 -5 57.49 11.2
1 -13 -5 73.09 12
-1 -12 5 57.39 11.3
1 -13 -5 49.8 9.2
13 -1 -5 52.89 14.4
13 -12 5 67.49 11.5
12 1 5 74.89 13.1
1 -13 5 82.69 12.5
-1 -12 -5 91.29 14.4
12 -13 -5 63.89 11.8
0 -13 -5 59.89 11.2
0 -13 5 42.7 7
13 -13 5 59.09 11.7
13 0 -5 48.1 6.3
13 -13 -5 71.29 12.8
13 0 5 55.19 11.9
0 13 -5 45.6 6
0 13 5 43.5 6.1
13 -13 5 41.4 7.4
0 -13 5 57.69 11.6
7 7 5 7.8 10.7
7 -14 5 0.3 8.8
7 -14 5 12 9.3
14 -7 5 6.2 8.7
-7 -7 -5 14.8 8.2
14 -7 -5 2.9 9.2
14 -7 5 9.3 9.6
7 -14 -5 8.7 8.2
8 -14 5 -4.1 8.5
-6 -8 5 -14.3 6.9
6 8 5 6.3 9.6
14 -8 -5 5.6 9
8 -14 5 7.3 9.2
14 -6 5 -0.6 9.6
6 -14 -5 2.7 7.6
14 -6 5 -0.6 7.5
-8 -6 -5 3.9 7.6
8 6 5 4.1 10.9
8 -14 -5 6 8.2
14 -8 5 16.6 9.4
14 -6 -5 7.2 10
-6 -8 -5 6 7.9
14 -8 5 -0.5 8.8
6 -14 5 4.4 9
6 -14 5 -2 7.7
5 -14 -5 34.3 9.1
-5 -9 5 21.3 9.2
9 -14 5 34.5 10
9 -14 5 32.1 10
14 -5 5 32.5 11
-9 -5 -5 30.6 8.8
14 -9 -5 30.4 10.1
5 -14 5 40.5 10.3
14 -5 -5 50.99 12.6
-5 -9 -5 58.99 10.4
9 -14 -5 50.99 10.5
9 5 5 47.3 12.2
14 -9 5 34.6 9.6
14 -9 5 54.39 10.8
-4 -10 5 3.9 9
14 -4 5 -0.4 10
-10 -4 -5 9.4 8.4
10 -14 5 2.7 8.9
4 -14 -5 2.2 8
4 -14 -5 -1.8 9
14 -10 -5 3.7 9
-4 14 -5 -1.6 3.9
10 -14 5 5.9 9.6
10 4 -5 -1 4
14 -10 5 -3.4 7
10 4 5 13.3 10.7
14 -4 -5 27 12.3
14 -10 5 22.8 9.8
-14 10 5 2 3.7
10 -14 -5 17.4 9.3
4 -14 5 13.7 9.4
-4 -10 -5 14.6 8.4
3 11 5 57.49 8.1
11 3 -5 95.69 8.5
3 -14 -5 115.49 14.9
-3 14 -5 88.09 8.6
-14 11 5 94.99 8.1
12 2 -5 24.4 5.8
2 12 5 30.7 6.1
-2 14 -5 25.1 5.5
12 -14 5 24 10.5
2 -14 -5 22.9 8.5
12 -14 5 25.9 7.5
14 -12 -5 11.2 9.8
2 -14 -5 30.5 10.2
14 -2 5 36.7 12.1
-2 -12 5 35.1 10.8
14 -12 -5 32.6 10.9
-12 -2 -5 30.1 9.4
12 2 5 15.8 10.9
14 -2 -5 8.6 4.5
2 12 -5 11.1 5
12 -14 -5 17.6 9.8
2 -14 5 9.3 6.4
12 -14 -5 -9 7.6
2 -14 5 9.2 9.7
-2 -12 -5 -0.7 6.1
-2 -12 -5 8.4 9.1
14 -2 -5 19.9 13
14 -12 5 3.9 10.3
-14 12 5 13.6 4.8
-12 -2 5 0.9 4
-14 2 -5 -4.1 4.8
-2 14 5 11 4.8
14 -12 5 5.9 5.8
-1 14 -5 40.6 6.5
13 1 -5 48.5 7
1 -14 -5 50.29 10.8
1 13 5 47.7 7.2
14 -1 5 63.19 13.3
-1 -13 5 45.3 11.2
14 -13 -5 43.8 11.3
14 -13 -5 42.8 11.3
13 -14 5 53.19 8.8
13 -14 5 47.5 11.6
-1 -13 5 43.6 7.5
-13 14 5 37.5 5.7
14 -1 -5 61.99 9.1
-1 -13 -5 37.1 7.2
14 -13 5 86.89 12.9
13 1 5 85.39 14
-1 14 5 64.49 9.5
1 13 -5 63.79 7.1
1 -14 5 88.99 13.3
14 -13 5 52.79 8.5
-1 -13 -5 67.39 11.5
13 -14 -5 58.69 11.6
-14 13 5 63.89 8.9
-13 -1 5 42.5 5.7
1 -14 5 62.19 8.5
14 -14 5 10.5 7.8
0 14 5 1.7 5.9
14 -14 -5 8.5 10.2
-14 14 5 5.6 5.6
-14 14 -5 0.1 4.4
-14 0 -5 -6.1 4.8
0 14 -5 -0.4 5.7
-14 0 5 -5 4.5
0 -14 5 -3.3 9.7
14 -14 5 5.7 10.4
0 -14 -5 12.1 9.5
0 -14 5 6.9 7
14 0 -5 2.1 5.9
14 0 5 4.6 10.5
0 -14 -5 -3.7 6.2
8 -15 5 27.3 9.7
-15 8 -5 28.7 6
15 -8 -5 40.4 11.5
7 -15 -5 43.8 9.8
-8 -7 -5 29 8.9
15 -7 5 33.4 11.2
8 -15 5 40 11.2
-7 -8 -5 22.7 8.8
15 -8 5 12.5 9.2
-7 -8 -5 10.4 6
8 -15 -5 10.4 6.6
8 7 5 0.9 9.8
7 -15 5 14.2 9.1
8 -15 -5 23.5 9.2
-8 15 -5 -2.3 4.5
7 -15 5 31.6 10.5
15 -7 -5 23.2 10.4
7 8 -5 -0.4 4.2
-15 7 -5 16.5 5.4
15 -8 5 21 10.1
9 -15 5 8.3 10.1
-9 -6 -5 6.4 8.5
6 -15 -5 -5.2 5.6
9 6 -5 -0.2 4.4
-6 -9 5 -10.6 7.2
9 6 -5 0.1 4.4
-15 9 -5 -1.4 4.9
15 -9 -5 -0.8 9.4
-6 15 -5 0.2 4.5
-9 -6 -5 -4.1 6.6
9 -15 5 3.7 9.2
6 -15 -5 8.9 8.2
15 -6 5 8.7 10.2
9 6 5 5.9 10.8
6 -15 5 8.1 9.5
-15 6 -5 -0.8 5.2
15 -9 5 9.6 9.5
9 -15 -5 8.9 8.3
-15 9 5 7.3 4.9
15 -6 -5 13.9 11
6 9 -5 -0.2 4.1
-6 -9 -5 2.2 6.5
6 -15 5 -3.6 7.2
-6 -9 -5 10.4 8.5
15 -9 5 0.1 9
9 -15 -5 4.9 7
5 -15 -5 40 9.7
-5 15 -5 32.8 5.8
-5 -10 5 39.6 10.2
-10 -5 -5 45.9 10.4
15 -5 5 37.4 10.8
10 -15 5 38.4 10.7
10 -15 5 31.5 10.4
5 10 5 24.9 5.2
15 -10 -5 42.7 11.2
-15 10 -5 39.8 6.2
10 5 -5 41.2 6.4
10 -15 -5 53.09 10.3
5 10 -5 31.6 5.3
-5 -10 -5 43.4 8.1
-5 -10 -5 54.69 10.2
15 -10 5 50.79 11.7
15 -5 -5 45.3 12.7
5 -15 5 68.09 12.4
10 5 5 54.29 12.2
-15 10 5 44.7 6.1
-15 5 -5 39.9 6.2
10 -15 -5 55.89 9.1
-4 -11 5 125.79 15.1
-4 15 -5 109.29 10.6
11 -15 5 126.19 15.5
4 -15 -5 120.79 14.6
15 -4 5 133.59 16.5
4 11 5 108.09 10.8
11 4 -5 105.29 10.9
-15 11 -5 115.69 10.4
-11 -4 -5 124.69 15.1
11 -15 5 107.19 12.6
15 -11 -5 121.59 16
15 -4 -5 108.29 18.6
4 11 -5 96.69 9.4
-4 15 5 68.49 8.5
-15 4 -5 88.69 10.2
4 -15 5 103.19 13.7
11 -15 -5 89.59 10.5
-4 -11 -5 107.29 14.2
11 -15 -5 121.69 14.6
11 4 5 109.09 16.9
-11 -4 5 89.79 8.9
4 -15 5 85.09 11.8
-4 -11 -5 84.69 12.7
15 -11 5 107.79 16
-15 11 5 85.99 9.5
15 -3 5 109.49 16.4
3 -15 -5 83.49 12.8
15 -12 -5 95.89 15.4
12 3 -5 83.19 10.4
12 -15 5 98.39 15.7
-3 15 -5 91.39 10.4
-3 -12 5 102.29 15
-15 12 -5 96.59 9.4
12 -15 5 92.79 12.6
3 12 5 90.29 11.1
-12 -3 -5 98.79 14.2
3 -15 5 96.69 15.8
-3 -12 -5 117.29 14.7
12 -15 -5 89.89 14.1
12 -15 -5 98.99 15.4
-3 -12 -5 87.29 13
3 -15 5 97.69 12.4
12 3 5 109.19 17.3
3 12 -5 97.49 10.4
-12 -3 5 94.69 9.3
-15 3 -5 91.59 10.4
-15 12 5 89.79 9.9
15 -12 5 105.99 15.4
15 -3 -5 125.59 19.7
15 -3 -5 96.89 9.7
-3 15 5 95.39 10
-15 13 -5 70.69 9.3
15 -2 5 86.89 14.3
13 2 -5 86.79 8.7
2 -15 -5 88.99 13.8
-2 -13 5 73.39 11.3
15 -13 -5 73.79 13.1
13 -15 5 79.39 12.8
-2 15 -5 75.79 10.4
-13 15 5 69.59 9.6
13 -15 5 68.79 9.4
2 13 5 71.29 10.9
-2 -13 5 78.69 12.6
-15 13 5 74.69 9.7
15 -13 5 73.79 12.5
-2 15 5 87.69 10.2
15 -2 -5 86.29 10.2
2 -15 5 81.59 12
2 13 -5 84.59 10.5
13 2 5 70.49 13.3
13 -15 -5 90.29 10.8
-13 -2 5 78.99 9.6
2 -15 5 94.39 14.8
-15 2 -5 72.99 9.9
15 -2 -5 48.3 13.9
15 -13 5 91.89 12.5
-2 -13 -5 66.39 11.8
13 -15 -5 103.19 15.9
-2 -13 -5 81.59 12.6
-15 1 5 61.89 6.8
-1 -14 5 60.89 8.5
14 1 -5 64.29 7.8
1 -15 -5 69.09 11.7
-1 15 -5 72.69 8
14 -15 5 45.6 11.8
-14 15 5 66.19 7.6
-1 -14 5 67.09 12
1 14 5 65.09 7.9
-15 14 -5 58.89 6.9
15 -1 5 57.39 12.8
14 -15 5 77.69 11.9
15 -14 5 51.19 11.7
-1 -14 -5 56.39 11.5
1 -15 5 61.59 8.8
-15 1 -5 45.3 6.6
-1 -14 -5 51.09 8.9
14 -15 -5 45.3 8.8
-1 15 5 48.3 7
14 1 5 45.8 12.5
1 -15 5 36.4 11
-15 14 5 48.7 7
15 -14 5 62.89 9.5
15 -1 -5 55.49 7.7
14 -15 -5 57.59 12.1
-14 -1 5 42.3 6.6
1 14 -5 53.29 7.3
-15 0 -5 125.39 11.4
15 -15 5 150.28 17.3
15 0 -5 131.09 12.3
0 -15 5 137.49 16.4
15 -15 -5 98.39 14.8
0 -15 -5 133.99 16
-15 0 5 144.19 11.4
-15 15 -5 136.09 10.9
0 15 5 151.08 12.7
15 0 5 146.39 18
0 -15 -5 158.48 14.3
0 15 -5 142.79 12.2
15 -15 5 149.59 14.8
0 -15 5 135.59 13.3
-15 15 5 140.99 11.9
8 8 -5 28.9 5.3
-8 -8 -5 21.7 9.3
8 -16 5 25.3 11.1
8 -16 -5 36.8 9.9
-8 -8 -5 33.5 8.1
-16 8 -5 30 6.6
8 -16 5 25.2 9.5
-16 8 5 28.4 5.9
16 -8 -5 41.7 11.8
8 -16 -5 22.4 7.5
-8 16 -5 26.4 6
16 -8 5 32.5 10.9
8 8 -5 21.1 5.8
9 -16 5 -0.1 9.6
7 -16 -5 12.8 7.4
9 -16 5 -7.5 9.2
7 9 5 3.7 5.1
16 -7 5 9.7 10.4
-9 -7 -5 15.4 9
-16 9 -5 12.5 6.2
-7 16 -5 7.4 5.8
7 -16 -5 11.2 8.9
-9 -7 -5 7.7 6.7
9 7 -5 4.3 5.9
16 -9 -5 20.9 10.9
9 7 -5 7.9 4.5
9 -16 5 9.3 10
7 9 -5 7.9 5.2
-16 9 5 3.9 5.5
16 -9 5 1 9.8
-7 -9 -5 10 9.1
9 -16 -5 1.9 7.4
-16 7 -5 7 6.1
7 9 -5 -3.5 5.1
-7 16 5 0.1 3.7
7 -16 5 15.6 10.8
9 -16 -5 7.1 8.4
-7 -9 -5 -0.5 7.3
16 -7 -5 15.7 11.3
7 -16 5 -4.2 7.6
16 -9 5 -4.3 8.9
-9 16 -5 5.4 5
10 -16 5 32.9 11.2
-10 -6 -5 29.2 9.8
10 6 -5 30.2 6.8
-6 16 -5 40 6.6
10 6 -5 35.5 5.6
10 -16 5 25.9 9.8
16 -10 -5 53.49 12.3
10 -16 5 32.8 7.5
6 -16 -5 32.5 7.4
-10 -6 -5 29.5 6.8
-16 10 -5 37.6 6.9
16 -6 5 37.7 12
6 -16 -5 49 10.2
6 10 5 37.4 6.6
16 -10 5 1.5 9.1
-6 16 5 24.4 4.7
16 -10 5 22.3 10
16 -6 -5 50.69 13.3
-10 16 -5 20 5.3
-16 6 -5 22.9 6.4
-16 10 5 40 6.2
6 10 -5 33.5 6.1
-6 -10 -5 31.8 8
-6 -10 -5 48.4 11
6 -16 5 44.3 11.6
10 -16 -5 38.4 10.1
10 -16 -5 40.2 8.6
-5 16 -5 30.4 6.3
16 -11 -5 33 10.8
-11 -5 -5 34.7 10.4
5 -16 -5 18.3 6.2
-16 11 -5 37.3 6.9
11 5 -5 26.5 6.6
11 -16 5 43.5 8.6
5 -16 -5 35.8 9.6
-5 -11 5 18.6 9.3
11 -16 5 33.9 11.1
16 -5 5 37.3 12
11 5 -5 25.9 5.1
5 11 5 36.1 6.9
16 -11 5 69.69 12.8
16 -5 -5 61.19 13.7
-5 -11 -5 59.29 11
5 11 -5 64.89 7.3
-5 16 5 50.29 6.3
-16 11 5 62.89 7
5 -16 5 57.39 12.1
-5 -11 -5 62.59 9.1
11 -16 -5 69.99 9.9
5 -16 5 64.09 8.7
11 5 5 37.9 11.7
11 -16 -5 51.89 10.8
-11 -5 5 63.89 7
16 -5 -5 45 6.1
-16 5 -5 47.7 6.9
-4 16 -5 49 7
16 -4 5 44.1 12.7
12 -16 5 54.39 8.8
-16 12 -5 53.09 7.5
16 -12 -5 46.5 12.2
-12 16 5 32.2 5.8
12 -16 5 35.5 11
-12 -4 -5 35.7 9.6
-4 -12 5 27.3 6.7
12 4 -5 54.69 7.4
12 4 -5 47.4 6.1
4 12 5 42.3 7
4 -16 -5 36.5 9.3
-4 -12 5 33 10.5
-12 -4 5 41.8 6.3
-4 -12 -5 38.3 8.6
12 4 5 41.1 12.2
16 -12 5 37.6 7.5
16 -12 5 40.1 11.7
-16 4 -5 36.4 6.7
-4 16 5 45 6.6
4 12 -5 50.99 6.8
-16 12 5 46.9 6.7
4 -16 5 45.6 8.4
12 -16 -5 36.2 8.9
12 -16 -5 42.8 10.7
16 -4 -5 43.6 13.9
16 -4 -5 43.9 6.7
-4 -12 -5 45.4 10.8
4 -16 5 35 11.3
-3 16 -5 167.18 13.2
-16 13 -5 180.18 13
-3 -13 5 160.18 16.7
13 -16 5 185.38 18.1
16 -3 5 190.88 19.1
13 3 -5 177.08 13.1
3 13 5 181.08 13.2
-3 -13 5 178.78 14.1
16 -13 -5 165.68 18.4
-13 16 5 176.08 12.9
13 -16 5 179.68 15
16 -3 -5 149.99 20.5
-16 3 -5 138.89 12.2
13 -16 -5 168.28 17.4
16 -3 -5 152.18 12.3
-3 -13 -5 136.19 14.5
-3 16 5 149.99 12.2
-13 -3 5 153.78 11.8
-3 -13 -5 166.18 17
3 -16 5 146.89 13.6
16 -13 5 135.29 17.8
3 -16 5 137.29 17
16 -13 5 158.18 14.4
13 -16 -5 169.78 15.9
3 13 -5 146.89 12.1
13 3 5 135.69 17.8
-16 13 5 133.39 11.1
-16 14 -5 79.19 10.4
-2 16 -5 74.49 7.9
2 14 5 77.49 10.6
16 -2 5 91.59 16.5
16 -14 -5 49.8 12.5
14 2 -5 74.39 11.1
-2 -14 5 66.99 12.1
14 -16 5 88.99 13.1
14 -16 5 79.59 13
-2 -14 5 91.29 11.8
-14 16 5 80.49 8.1
-16 2 5 75.09 7.5
-14 -2 5 50.19 6.8
16 -14 5 53.69 12.7
16 -14 5 55.19 9.3
-2 -14 -5 57.09 11.3
14 2 5 49.7 13.2
2 14 -5 63.49 7.6
-2 -14 -5 53.49 8.7
-16 2 -5 57.69 7.5
-2 16 5 53.09 7.5
2 -16 5 67.99 8.9
-16 14 5 57.59 7.1
14 -16 -5 61.79 9.9
14 -16 -5 54.89 11.9
2 -16 5 49.6 11.4
16 -2 -5 66.49 8
1 -16 -5 92.59 12.2
1 15 5 56.99 7.8
15 1 -5 68.99 8.1
-16 15 -5 58.79 7.4
15 -16 5 64.69 9.4
15 -16 5 49 11.8
-1 16 -5 52.59 7.3
16 -1 5 47.9 12.3
-16 1 5 67.49 7.4
-1 -15 5 52.49 11.4
-1 -15 5 67.79 8.7
-15 -1 -5 48.5 6.6
-15 16 5 63.19 7.6
16 -1 -5 72.89 8.3
1 -16 5 74.39 11.4
-1 -15 -5 54.29 11.2
-16 15 5 71.79 7.7
-16 1 -5 77.49 10.6
16 -15 5 63.59 12.4
15 -16 -5 94.59 14.4
15 -16 -5 37.2 10.6
-15 -1 5 70.89 7.5
1 15 -5 71.09 7.9
16 -15 5 65.09 9.6
1 -16 5 53.29 11.7
-1 16 5 56.19 7.5
15 1 5 60.89 13.2
-1 -15 -5 58.19 8.7
-16 0 5 60.89 7.3
0 -16 5 46.1 10.9
-16 16 -5 44.9 6.3
16 -16 5 45.4 11.8
0 16 -5 54.49 7.3
16 0 5 28.3 11.4
0 -16 -5 82.09 12.5
16 -16 -5 67.99 9.5
0 -16 5 72.09 8.8
-16 0 -5 62.19 7.4
16 -16 5 52.59 9
16 0 -5 55.49 7.7
-16 16 5 62.09 7.6
0 16 5 44.1 7.2
-8 17 -5 38.6 6.8
8 9 5 37.8 6.8
8 -17 -5 26.4 9.5
-9 -8 -5 26.9 9.9
17 -9 -5 30.9 11.3
-17 8 5 41.9 6.6
-9 -8 -5 37.9 8.1
-17 9 -5 42.3 7.1
9 8 -5 32.7 7.2
17 -8 5 25.7 11.3
9 -17 5 21.3 10.1
8 -17 -5 33.1 8.3
9 8 -5 29 5.7
9 8 5 12 5.3
8 9 -5 26.6 5.8
8 -17 5 24.8 6.8
9 -17 -5 29 9.5
9 -17 -5 21 7.7
-8 -9 -5 20.9 7.9
-17 8 -5 27.4 6.5
17 -8 -5 41 12.6
8 9 -5 27.1 7.2
17 -9 5 18.6 10.8
-8 -9 -5 21.2 9.7
8 -17 5 32.4 11.2
-9 17 -5 23 6.5
-17 9 5 31.8 6.4
-7 17 -5 20.2 6.3
10 -17 5 6.5 9.9
10 -17 5 13.4 7.5
10 -17 5 -0.7 11.4
17 -10 -5 15.6 10.8
7 -17 -5 13.9 7.6
-17 10 -5 24.4 6.6
10 7 -5 13.4 6.6
17 -7 5 16.9 11.1
7 10 5 17.7 6.5
7 -17 -5 17.4 9.6
-10 -7 -5 16.5 7.7
-10 -7 -5 17.5 9.8
10 7 -5 16.8 5.4
7 10 -5 7.6 6.5
-7 -10 -5 13.6 7.5
-7 -10 -5 12.5 9.4
-17 7 -5 9.3 6.3
-17 10 5 8.5 5.7
10 7 5 -2.5 5.1
17 -7 -5 2 4.3
17 -7 -5 28.3 12.1
10 -17 -5 10.2 9
17 -10 5 -6 9.1
7 10 -5 15.6 5.9
7 -17 5 20.6 11.3
-10 17 -5 9.7 5.9
7 -17 5 16.4 7.4
-7 17 5 11.7 4.9
10 -17 -5 19.5 7.9
6 -17 -5 40.2 10.2
11 -17 5 34.9 10.8
-17 11 -5 48.7 7.2
11 6 -5 36.5 6.1
-11 -6 -5 43.2 10.7
6 -17 -5 58.39 8.9
6 11 5 63.29 8.2
-6 17 -5 59.69 7.4
-11 -6 -5 46.3 7.9
17 -11 -5 39.9 11.6
17 -6 5 34.4 11.8
11 -17 5 61.79 9.3
11 6 -5 60.09 7.8
6 -17 5 45.1 8.4
-11 -6 5 59.89 7
17 -6 -5 38.5 6.1
11 -17 -5 47.7 10.6
6 11 -5 49.3 7
17 -6 -5 50.49 13.8
-17 6 -5 46.6 7.1
11 -17 -5 62.79 9.5
-11 17 -5 49.6 7.3
-17 11 5 63.69 7
-6 17 5 58.49 6.9
-6 -11 -5 43.5 8.4
6 -17 5 46.1 12.2
-6 -11 -5 63.49 11.5
-12 -5 -5 1.4 8.6
-17 12 -5 9.7 6.1
5 12 5 15.8 6.7
-12 -5 -5 8.6 5.9
12 -17 5 14.5 8
-5 17 -5 0.4 5.8
17 -12 -5 14.6 10.9
-12 17 5 7.1 5.6
-5 -12 5 -6.9 8.1
5 -17 -5 13.5 8.2
12 -17 5 0.1 10.2
-5 -12 5 0.6 6
12 5 -5 16.9 5.4
5 -17 -5 8.1 6.4
12 5 -5 7.1 6.1
17 -5 5 14.3 11.1
17 -5 -5 26.6 13.1
-5 -12 -5 9.6 7.4
-17 5 -5 11.8 6.2
-12 17 -5 9.6 6.1
5 -17 5 11.6 7.3
-17 12 5 7.9 5.6
5 -17 5 8.2 10.7
17 -5 -5 9.8 5.8
5 12 -5 -6.3 9.5
17 -12 5 -6 9.6
-5 -12 -5 9.9 9.4
12 -17 -5 18.4 9.4
12 -17 -5 4.8 7.7
5 12 -5 12.3 5.8
-5 17 5 9.1 5.7
17 -12 5 12.2 6.8
-12 -5 5 9.6 5.4
-4 17 -5 7.7 5.9
13 4 -5 5.1 6.1
4 -17 -5 -0.9 5.9
-17 13 -5 7.5 6.1
17 -13 -5 5.1 10.7
13 -17 5 13.4 8.1
-4 -13 5 -0.3 8.7
13 -17 5 8.9 10.3
-4 -13 5 7.1 7.3
-13 17 5 6.1 6.1
4 13 5 7.4 6.4
17 -4 5 4.9 11.5
17 -4 -5 19.1 6.3
-4 -13 -5 19.7 9.8
-13 17 -5 20 6.2
4 -17 5 15 7.3
4 -17 5 18.8 10.8
-17 4 -5 24.6 6.4
-4 17 5 21 6.4
17 -4 -5 20.4 11.9
4 13 -5 20.9 6.1
-13 -4 5 21.3 6
-4 -13 -5 20.5 7.8
13 4 5 -3.4 10.2
17 -13 5 13.1 10.5
17 -13 5 14.8 8.2
-17 13 5 17.3 5.8
13 -17 -5 23.8 10
13 -17 -5 30.3 8.9
17 -14 -5 45.6 11.4
-17 14 -5 73.19 7.9
-14 17 5 80.89 10.4
14 -17 5 49.5 11.6
-3 17 -5 72.69 8
3 14 5 68.89 8.2
-17 3 5 66.59 7.3
17 -3 5 70.49 13.4
14 -17 5 90.49 12.5
14 3 -5 81.09 8.4
-3 -14 5 87.89 9.5
-3 -14 5 59.59 11.5
14 -17 -5 51.69 11.2
14 -17 -5 115.89 14.2
-3 17 5 86.99 10.8
3 -17 5 87.59 11.9
-3 -14 -5 91.69 14.4
3 14 -5 81.69 10.2
17 -14 5 53.39 11.9
17 -14 5 88.59 13.2
-17 3 -5 88.59 10.8
17 -3 -5 81.29 10.9
3 -17 5 55.29 12
-14 -3 5 78.49 9.8
-14 17 -5 64.49 7.4
-17 14 5 80.69 10
-3 -14 -5 94.09 13.1
-2 17 -5 46 7
-15 17 5 55.99 7.4
-15 -2 -5 44.7 6.4
2 15 5 69.49 8.1
15 -17 5 48.2 12
-2 -15 5 43.2 10.6
-2 -15 5 54.49 8.3
-17 15 -5 56.89 7.4
2 -17 -5 51.09 7.8
15 2 -5 65.49 7.9
17 -2 5 41.8 12.3
-17 2 5 61.59 7.7
15 -17 5 61.19 9.5
15 -17 -5 50.69 9.1
-2 -15 -5 38 8.1
17 -2 -5 29.3 6.6
15 -17 -5 11.9 9.2
2 -17 5 21.6 10.5
17 -15 5 45.4 8.6
-17 2 -5 44.5 6.9
17 -15 5 10.5 10
2 -17 5 41.7 7.9
2 15 -5 35.6 6.4
-15 -2 5 37.7 6.4
-2 17 5 43.2 7
-17 15 5 34.9 6.5
-2 -15 -5 24.2 9.7
-17 1 5 159.48 12
1 -17 -5 171.38 13.9
16 -17 5 168.58 14.5
1 16 5 152.08 12.6
-16 -1 -5 153.58 11.9
16 1 -5 142.09 12.6
16 -17 5 101.59 16.1
-1 17 -5 137.39 12.3
-16 17 5 159.38 12.2
-1 -16 5 163.28 13.3
-17 16 -5 141.19 11.7
1 -17 5 126.09 12.7
-17 1 -5 113.99 11.3
16 -17 -5 140.99 14.2
-17 16 5 117.79 11.1
1 16 -5 104.49 10.8
-16 -1 5 114.19 10.7
17 -1 -5 118.29 11.5
1 -17 5 82.29 14.3
-1 -16 -5 138.49 13.5
-1 17 5 110.49 11.3
17 -16 5 126.09 13.7
0 -17 5 174.48 13.1
-17 0 5 164.48 12.1
0 17 5 162.88 12.7
0 -17 -5 187.28 14.3
-17 17 -5 128.39 10.9
17 0 -5 164.88 12.7
17 -17 -5 178.98 14.6
0 17 -5 160.18 12.4
-17 0 -5 157.88 12.3
17 -17 5 175.58 14.9
-17 17 5 164.28 12.3
9 9 5 25.4 6.7
9 -18 5 3.5 11.9
-18 9 -5 28.8 6.6
9 -18 -5 31.5 8.1
-18 9 5 31.5 6.4
9 9 -5 23.1 6.9
9 -18 -5 24.2 9.7
-9 18 -5 30.3 6.5
9 -18 5 34.7 7.3
-9 -9 -5 35.3 8
-9 -9 -5 24.3 10
9 9 -5 25.2 5.8
18 -9 5 1.2 9.7
18 -9 -5 15.9 11.4
18 -10 -5 21.6 11.3
10 8 -5 16.4 5.7
8 -18 -5 9.7 9.1
18 -8 5 3.7 10.6
8 -18 -5 6.5 7.4
-10 18 5 0.1 6.1
10 -18 5 8.3 5.8
-10 -8 -5 13 9.6
10 -18 5 -4.5 9.3
-8 18 -5 7.9 6
10 -18 5 10.8 7.8
-18 8 5 11.5 5.9
8 10 5 11.4 6.4
-18 10 -5 17.2 6.4
10 8 -5 15.7 6.5
-10 -8 -5 9.7 7.5
10 -18 -5 17 9.3
18 -8 -5 0.6 4.3
8 -18 5 3.6 9.8
-10 -8 5 17.3 5.8
-8 -10 -5 13.4 7.6
8 10 -5 20.2 7.2
18 -10 5 -3.5 10.6
-8 18 5 11.6 4.8
-10 18 -5 14.1 6.2
18 -8 -5 13.5 11.7
-18 10 5 17.5 5.9
-18 8 -5 14.2 6.2
10 8 5 8 5.4
8 -18 5 16 7.7
-8 -10 -5 14.3 9.6
8 10 -5 7.7 5.6
10 -18 -5 11.6 7.6
11 7 -5 68.59 7.2
11 -18 5 83.69 10
-7 18 -5 75.69 7.7
18 -7 5 48.1 12.9
7 11 5 71.29 8.1
7 -18 -5 42.2 9.8
-11 -7 -5 60.19 8.9
-18 11 -5 67.89 7.8
18 -11 -5 63.99 12.8
-18 7 5 69.19 7.4
7 -18 -5 54.99 8.8
11 7 -5 59.69 8
11 -18 -5 77.39 9.5
-11 18 -5 46.1 7.2
-7 -11 -5 45.1 10.7
18 -7 -5 47.9 13.6
18 -7 -5 36 5.8
7 11 -5 64.09 8.4
-11 -7 5 58.19 6.9
7 11 -5 54.39 6.9
7 -18 5 32.3 11
11 -18 -5 44.9 10.2
-18 7 -5 70.89 7.9
7 -18 5 69.59 9
-18 11 5 69.29 7.2
-7 18 5 67.49 9.6
-7 -11 -5 52.19 8.7
-12 -6 -5 17.2 7.2
6 -18 -5 6.3 7.1
18 -12 -5 19.1 11.3
12 -18 5 7.1 10
-18 12 -5 17 6.3
-12 18 5 20.3 6.1
18 -6 5 10.1 11.4
-6 18 -5 21.2 6.2
6 12 5 12 6.7
6 -18 -5 2.3 9.8
12 6 -5 17.6 6.5
12 -18 5 25.7 8.6
6 12 -5 16.6 5.9
-18 12 5 12.6 5.8
12 -18 -5 16.1 7.5
18 -6 -5 11.4 5.6
18 -6 -5 9.3 11.5
-6 -12 -5 17 7.8
6 12 -5 21.4 6.6
-12 18 -5 17.9 6.5
6 -18 5 10 10.4
-6 18 5 19.3 6
18 -12 5 -1.1 6.3
-12 -6 5 16.2 6
12 -18 -5 13.4 9.4
-6 -12 -5 19.7 9.8
6 -18 5 32.4 8
-18 6 -5 14.9 6.4
-13 18 5 72.29 8.1
13 -18 5 81.49 12.7
18 -5 5 58.29 13.7
-5 18 -5 72.59 7.8
5 13 5 75.29 10.9
13 -18 5 44.5 11.1
-18 13 -5 80.99 8.3
13 5 -5 58.79 7.6
18 -13 -5 43.3 11.7
-5 -13 5 71.49 8.9
5 -18 -5 68.49 10.6
5 -18 5 69.59 12.6
-18 5 -5 76.69 10.4
13 -18 -5 90.29 12.9
18 -5 -5 72.29 10.8
-5 -13 -5 67.99 12.2
5 -18 5 89.19 12.2
-5 18 5 82.79 10.8
-13 18 -5 85.09 10.8
-5 -13 -5 78.39 9.7
5 13 -5 74.39 10.5
-13 -5 5 77.49 9.8
13 -18 -5 54.79 10.9
18 -13 5 88.99 12.1
-18 13 5 89.09 8.1
14 4 -5 134.29 12.3
-4 18 -5 142.19 11.6
14 -18 5 99.59 15.9
4 14 5 149.39 12.2
-14 18 5 145.89 12.3
18 -4 5 117.29 17.9
14 -18 5 148.89 14.1
-18 14 -5 139.39 12.3
-4 -14 5 153.68 13
18 -4 -5 116.19 11.7
14 -18 -5 87.59 13.9
14 -18 -5 122.89 13.6
4 14 -5 100.29 11
4 -18 5 128.79 12.6
-4 -14 -5 115.29 12.9
-18 14 5 116.29 10.9
-14 18 -5 115.09 11.5
-4 -14 -5 94.69 14.8
-18 4 -5 106.29 11.3
-4 18 5 104.79 11.2
18 -14 5 117.89 13.3
-14 -4 5 112.59 10.7
-18 15 -5 184.18 13.2
-18 3 5 191.98 12.8
-3 -15 5 194.28 14.4
3 15 5 175.98 13.7
15 -18 5 183.48 15.2
15 3 -5 180.78 13.7
-3 18 -5 183.58 13.4
-15 18 5 204.28 13.7
-18 3 -5 171.68 12.8
18 -15 5 164.88 14.8
3 -18 5 182.18 14.1
18 -3 -5 159.58 13.1
-3 18 5 163.98 12.7
15 -18 -5 183.28 15.2
-18 15 5 162.48 12.4
3 15 -5 166.38 12.7
-15 -3 5 161.18 12
-15 18 -5 158.78 12.1
-3 -15 -5 164.08 14.4
-16 18 5 22 6.4
-2 -16 5 26 7.4
2 16 5 28.9 6.7
16 2 -5 31.4 6.7
-18 16 -5 20.7 6
-16 -2 -5 22.2 5.7
2 -18 -5 38 7.3
-18 2 5 25.3 6.5
16 -18 5 30.7 8.3
-2 18 -5 20.5 6.1
2 -18 5 28.2 7.4
2 16 -5 13.4 5.7
-16 -2 5 26.4 6.1
16 -18 -5 36.7 8.2
-2 18 5 23.1 6.2
-2 -16 -5 26.9 7.5
18 -2 -5 15 6.4
-18 2 -5 25.1 6.3
-18 16 5 24.7 6.1
18 -16 5 30 8.3
-1 18 -5 10.1 5.6
-18 1 5 20.6 6.2
18 -17 -5 -1.8 6.5
17 -18 5 21.4 8
1 17 5 13.7 6.3
-18 17 -5 15.1 4.9
1 -18 -5 28.5 7
-17 18 5 19.2 6.2
-17 -1 -5 24.9 6.1
17 1 -5 16.1 6
-1 -17 5 27.3 7.2
-1 -17 -5 23.1 7.2
-17 -1 5 9.8 5.7
1 -18 5 15.6 6.7
18 -17 5 17.5 8
-17 18 -5 2.5 5.2
1 17 -5 7.8 5.5
-18 1 -5 20.9 5.9
18 -1 -5 17.5 6.1
17 -18 -5 33.6 8.2
-18 17 5 16.8 5.8
-1 18 5 11.6 5.8
-18 18 5 67.79 9.3
18 -18 -5 77.59 11.5
18 -18 5 63.79 8.9
-18 0 5 61.69 7.4
0 18 5 73.39 9.6
18 0 -5 65.39 7.5
-18 0 -5 65.89 8.9
0 -18 -5 86.59 11.1
0 -18 5 65.69 8.2
0 18 -5 64.59 7.1
10 -19 5 7.2 5.8
10 9 -5 -0.4 6
-19 9 5 8.9 5.7
10 -19 5 4.9 7.3
-19 10 -5 4.8 6.1
19 -9 5 -5.3 16.2
10 9 -5 2.7 5.3
-9 -10 5 9.4 5.7
-9 19 -5 7.7 5.8
9 10 5 3.8 6
-10 -9 -5 1.4 7.3
-10 -9 -5 1.5 8.3
9 -19 -5 3.1 8.2
19 -10 -5 0.1 10.6
9 -19 -5 3.5 7.1
-10 19 5 0.4 4.2
-9 -10 -5 2.4 8.5
-19 9 -5 8.8 6.1
-9 19 5 3.1 4.3
-19 10 5 16.3 5.8
-9 -10 -5 10.2 7.4
10 -19 -5 4.6 8.7
9 -19 5 10.5 7
9 10 -5 11.9 6.6
10 -19 -5 15 7.6
-10 19 -5 14.6 5.9
19 -9 -5 9.1 10.6
9 10 -5 8 5.4
-10 -9 5 16.1 5.7
10 9 5 10.5 5.8
8 11 5 65.49 7.9
11 8 -5 66.69 8
11 8 -5 53.79 6.7
-19 11 -5 74.29 8
19 -11 -5 33.4 11.4
-11 -8 -5 60.49 8.9
-19 8 5 61.89 7.3
-8 19 -5 64.39 7.6
11 -19 5 51.69 9.1
8 -19 -5 65.89 9.3
-19 8 -5 74.79 7.9
11 -19 -5 41.8 10.3
8 -19 5 69.39 8.7
11 8 5 47.9 6.7
19 -8 -5 26.9 11.3
11 -19 -5 55.69 9
-11 19 -5 53.69 7.4
-8 -11 -5 38.2 9.8
-8 -11 -5 55.19 8.7
8 11 -5 47.7 6.5
8 11 -5 49.5 7.7
-11 -8 5 53.79 6.7
-8 19 5 60.59 9
-19 11 5 55.89 6.9
12 7 -5 51.09 7.4
7 12 5 54.89 7.8
-12 -7 -5 55.99 8.9
-12 19 5 46.3 6.8
-7 19 -5 55.99 7.2
7 -19 -5 42.7 8.4
-19 7 5 61.79 7.3
12 -19 5 61.19 9.3
-19 12 -5 51.19 7.2
-7 -12 -5 21.5 9.3
-12 -7 5 38.9 6.4
7 12 -5 39.3 7.5
-19 12 5 37.7 6.3
12 -19 -5 21.1 9.6
-19 7 -5 50.09 7.1
-7 19 5 41.1 6.6
-12 19 -5 41.9 6.9
12 -19 -5 43.4 8.7
-7 -12 -5 49.4 8.8
19 -7 -5 24.5 5.2
7 -19 5 43.4 8
7 12 -5 31.6 6
-13 -6 -5 7.6 6.3
13 -19 5 -3.8 11.8
6 -19 -5 7.2 6.9
-6 -13 5 -1.1 6.7
13 -19 5 8.1 7.8
-13 19 5 3.6 5.7
6 13 5 10.3 6.6
19 -6 5 -1.6 9.8
19 -13 -5 0.2 9.3
13 6 -5 7.7 5.9
-19 13 -5 3.6 6.1
-19 6 5 7.4 5.8
-6 19 -5 11.1 5.9
-19 6 -5 9.6 6
19 -13 5 -6.1 6.1
-13 19 -5 13.3 6.2
13 -19 -5 4.3 8.3
-13 -6 5 12.3 5.5
19 -6 -5 7.8 5.8
6 -19 5 12.4 7.3
-19 13 5 16.7 5.6
-6 -13 -5 15.5 7.7
-6 -13 -5 5.7 8.5
6 13 -5 7.1 5.8
6 13 -5 20.2 6.5
13 -19 -5 13.2 7.9
-6 19 5 8.6 5.9
-5 -14 5 23 7.7
-5 19 -5 30.3 6.2
-19 14 -5 20.6 6.2
14 -19 5 26.6 8.3
5 14 5 31.2 7
14 -19 5 -3.6 11.1
-14 19 5 21.5 6.3
-19 5 5 14.9 5.7
5 -19 -5 5.2 5.5
14 5 -5 17.6 6.2
-5 -14 -5 4.3 8.4
19 -5 -5 8.1 6
-19 14 5 5.3 5.5
14 -19 -5 24.9 7.8
5 -19 5 21 7.4
-5 19 5 17.9 6.1
-19 5 -5 15.9 6.1
14 -19 -5 0.2 8.2
19 -14 5 16.3 7.6
5 14 -5 -2.5 5
5 14 -5 13.1 6.1
-14 19 -5 13.2 6
-14 -5 5 12.5 5.7
-5 -14 -5 14.2 7.6
15 4 -5 4.7 5.3
15 -19 5 20.7 8
-19 15 -5 10.6 5.8
-4 19 -5 5.3 5.4
-4 -15 5 9.1 7.1
4 15 5 11.6 6.5
19 -4 5 -3 12.6
-19 4 5 1.7 5.3
15 4 -5 13.6 6
-15 19 5 20.8 6.3
19 -15 5 15.6 7.8
-19 15 5 18.4 5.8
4 -19 5 20.2 7.2
4 15 -5 13.7 5.8
-15 -4 5 15.4 5.6
19 -4 -5 11.5 6.2
-4 19 5 13 5.9
-15 19 -5 22.2 6.1
-19 4 -5 15 6.1
-4 -15 -5 20.3 7.5
15 -19 -5 23.1 7.9
3 16 5 136.99 12
-16 19 5 156.18 11.7
16 -19 5 142.99 13.6
-19 3 5 146.09 11.5
16 3 -5 147.79 11.9
-3 19 -5 136.89 11.2
-3 -16 5 156.48 12.5
-19 16 -5 145.99 11.1
-16 -3 5 102.29 10.2
19 -3 -5 114.49 11.2
-3 -16 -5 129.29 12.7
16 -19 -5 143.09 13.5
19 -16 5 111.59 12.8
-16 19 -5 95.29 10.2
-19 3 -5 114.79 10.4
-3 19 5 113.99 10.9
3 16 -5 107.99 10.2
3 -19 5 115.59 11.7
-19 16 5 111.79 10
-2 19 -5 63.29 8.9
17 -19 5 66.59 8.8
-19 2 5 67.69 9.3
-19 17 -5 59.99 7.6
-17 -2 -5 68.99 8.6
2 17 5 68.19 9.5
-2 -17 5 69.09 10.3
2 -19 -5 87.09 10.5
17 2 -5 65.19 9.9
-17 19 5 82.99 8
2 17 -5 53.89 6.8
-2 -17 -5 72.39 10.6
-19 17 5 69.79 7.1
-2 19 5 60.39 9.2
-19 2 -5 70.49 7.4
19 -2 -5 51.19 7.1
-17 -2 5 61.19 7.1
17 -19 -5 93.89 12.3
2 -19 5 59.19 7.7
19 -17 5 68.79 9
-18 -1 -5 13.6 5.4
18 -19 5 17.1 7.4
-19 1 5 5.2 5.4
1 -19 -5 22.2 6.6
-18 19 5 4.1 5.5
18 1 -5 9.5 5.3
1 18 5 14.1 5.8
-1 -18 5 8.2 6.2
-1 19 -5 6 4.9
19 -18 5 11.6 7.1
1 -19 5 10.4 6.4
18 -19 -5 25.5 7.6
-19 18 5 12.7 5.6
19 -1 -5 6.8 5.4
1 18 -5 8.5 5.1
-1 -18 -5 25.3 6.9
-18 -1 5 14.1 5.6
-1 19 5 10.4 5.7
-19 1 -5 14.6 5.6
0 19 -5 2.1 4.5
-19 0 -5 10.3 5.1
0 -19 5 1.6 5.9
0 -19 -5 16.2 6.5
19 -19 -5 -1.6 5.7
19 -19 5 6.1 6.8
0 19 5 3.6 5
-19 0 5 -0.6 4.9
19 0 -5 3.5 5.1
-19 19 5 0.5 5.1
-10 -10 -5 68.99 9
-10 -10 5 72.39 9.3
-10 20 -5 67.99 7.4
10 10 -5 60.89 7.9
10 10 -5 58.79 6.8
-20 10 -5 84.99 8
10 10 5 56.29 7.2
-20 10 5 69.69 7.3
10 -20 5 45 6.8
10 -20 -5 75.49 9.5
-9 -11 5 67.79 9
-20 11 -5 61.49 7.5
11 -20 5 43.8 8.3
-20 9 5 57.79 6.9
-9 20 -5 58.69 7.1
11 9 -5 50.99 7.3
11 9 -5 36.6 5.8
9 -20 -5 61.19 8.9
9 11 5 54.39 7.3
-11 -9 -5 47.2 8.5
9 11 -5 30.6 6
9 11 -5 46.5 7.2
11 9 5 33.1 6.6
9 -20 5 37.2 7.4
11 -20 -5 40.2 8.3
-9 -11 -5 49.6 8.3
-20 9 -5 40.1 6.8
-20 11 5 42.5 6.4
-11 20 -5 43.7 6.8
-11 -9 5 50.89 6.9
-20 8 5 11.4 5.8
-12 -8 -5 9.9 7.1
-12 20 5 2.3 4.8
-8 20 -5 6.6 5.4
12 8 -5 10.8 5.9
8 -20 -5 11.3 7
-8 -12 5 22.4 5.9
12 -20 5 10 7.6
-20 12 -5 9.7 6
8 12 5 12.6 6.2
-20 8 -5 17.3 6.1
-12 -8 5 16.6 5.5
-20 12 5 15.4 5.5
-12 20 -5 11.1 5.5
8 -20 5 20 7
20 -8 -5 -0.2 5.9
-8 -12 -5 22.5 7.5
8 12 -5 18.6 6.3
-8 20 5 11.1 5
8 12 -5 13.3 5.2
12 -20 -5 12.7 7.4
12 8 5 0.5 5.2
-7 -13 5 69.79 9
-13 20 5 70.89 9.4
-20 7 5 70.79 9.2
-7 20 -5 79.69 9.4
-20 13 -5 77.89 9.9
7 -20 -5 54.89 8.2
-13 -7 -5 72.29 10.3
7 13 5 75.69 10.6
13 7 -5 73.99 10
13 -20 5 77.69 11.9
7 13 -5 88.49 10.6
-13 -7 5 71.29 9
-7 20 5 66.39 9.2
7 -20 5 86.99 11.4
-20 7 -5 75.29 7.7
-20 13 5 69.39 9.4
7 13 -5 65.99 7.4
13 -20 -5 64.99 8.9
-13 20 -5 74.39 10.2
-7 -13 -5 75.69 9.1
14 -20 5 3 7.4
-14 20 5 1.6 5.5
-20 6 5 3.7 5.4
14 6 -5 4.9 5.6
-14 -6 -5 2.7 6
-6 20 -5 -2 5
6 14 5 2.2 5.9
-6 -14 5 -7.3 6.7
-20 14 -5 -4.6 5.4
6 -20 -5 -0.3 5.7
-20 6 -5 5 5.5
6 14 -5 4.2 5.2
20 -6 -5 3.3 4.6
-14 -6 5 6.3 5.2
-6 -14 -5 -1.6 6.9
-14 20 -5 9.4 5.7
14 -20 -5 14.5 7.3
-20 14 5 7.4 5.4
6 14 -5 9.6 5.4
20 -14 5 -10.9 5.8
6 -20 5 6.8 6.7
-6 20 5 5.4 5.7
-15 20 5 101.59 10.3
-5 -15 5 87.39 10.6
-20 15 -5 94.39 9.9
-20 5 5 104.99 9.6
15 -20 5 110.19 11.9
15 5 -5 88.49 10.8
5 15 5 99.19 10.7
-5 20 -5 106.19 10
15 5 -5 99.09 10
20 -5 -5 102.19 10
-20 15 5 106.19 9.7
20 -15 5 83.79 11.6
5 -20 5 113.29 11.3
-15 -5 5 105.49 9.5
-5 -15 -5 104.89 12.2
15 -20 -5 113.99 12.8
-5 20 5 102.69 10
-15 20 -5 118.59 10.3
5 15 -5 106.09 10.1
-20 5 -5 100.29 10.3
-20 16 -5 167.18 11.3
-20 4 5 157.38 11
16 -20 5 179.68 13.6
4 16 5 174.88 12.7
-4 20 -5 177.48 11.7
-16 20 5 183.48 11.9
16 4 -5 169.38 12
-4 -16 5 178.78 13.1
-20 4 5 148.79 11
-16 -4 5 161.78 11.2
20 -4 -5 146.59 11.6
-20 4 -5 155.28 11.9
4 -20 5 154.68 12.2
4 16 -5 156.58 11.3
-4 -16 -5 161.38 13.4
-4 20 5 149.99 11.5
16 -20 -5 180.48 13.9
20 -16 5 154.08 13.1
-20 16 5 157.08 11.1
-16 20 -5 150.68 11.2
17 -20 5 29.8 7.3
-20 3 5 22.3 4.4
-3 20 -5 23.6 5.3
-20 3 5 19.8 5.7
-17 20 5 26 5.8
-20 17 -5 10.9 3.9
3 17 5 25.3 5.9
-3 -17 5 23.5 6.8
17 3 -5 19.2 5.7
3 -20 5 22.9 6.6
-17 20 -5 5.7 4.2
-20 3 -5 26 5.7
-3 -17 -5 30.6 7.1
20 -17 5 19.6 7.3
3 17 -5 16.5 5.4
-17 -3 5 19.5 5.3
17 -20 -5 38 7.7
20 -3 -5 18.3 5.7
-20 17 5 21.2 5.4
-3 20 5 31.5 5.9
-18 -2 -5 52.19 6.7
18 2 -5 74.29 8.4
-2 20 -5 74.19 8
-18 20 5 74.79 8.5
2 18 5 77.59 8.8
2 -20 -5 55.89 8.6
-2 -18 5 77.59 9.6
-20 2 5 75.89 8.4
18 -20 5 64.19 9.9
20 -18 5 67.19 10.1
-18 -2 5 73.39 8.2
-20 18 5 67.39 8.5
18 -20 -5 96.49 10.6
2 18 -5 67.69 8.6
20 -2 -5 69.29 8.6
-2 -18 -5 84.99 10
-20 2 -5 82.39 8.7
2 -20 5 69.19 9.3
-2 20 5 76.19 8.8
-20 1 5 48.8 6
-19 20 5 55.69 6.3
-1 20 -5 58.89 7.5
19 1 -5 56.49 7.8
19 -20 5 51.09 7.4
1 -20 -5 56.79 8
-19 -1 -5 53.79 7
-1 -19 5 59.29 8.8
1 19 5 62.89 8.2
-20 19 5 42.4 5.6
-1 -19 -5 40.6 6.7
-20 1 -5 38.3 5.7
20 -1 -5 28.8 5.3
1 19 -5 46 5.7
20 -19 5 38.5 7.1
-19 -1 5 40.2 5.5
-1 20 5 45.1 5.9
19 -20 -5 30.8 5.9
1 -20 5 42.1 6.5
0 20 5 -2.2 4.6
0 20 -5 2.2 4
0 -20 -5 7.8 5.3
-20 0 -5 6 4.3
-20 0 5 -5.5 4.3
-20 20 5 3.2 4.4
20 -20 5 0 6
20 0 -5 -0.1 4.2
0 -20 5 1.8 5.3
-11 -10 -5 81.39 11
-10 -11 5 84.89 9.5
-21 10 5 78.89 9.5
-10 21 -5 87.09 9.5
10 11 5 77.69 9.3
10 -21 -5 83.59 11.1
11 10 -5 82.79 9.6
-21 11 -5 76.49 9.6
-11 -10 5 101.19 9.7
10 11 -5 85.79 8.7
-21 10 -5 101.89 10.1
-11 21 -5 108.69 10.4
-21 11 5 106.29 9.8
10 11 -5 111.79 10.6
11 -21 -5 104.29 12
11 10 5 96.89 10.1
-10 -11 -5 109.49 11.8
9 12 5 131.19 11
-21 12 -5 149.99 11
12 -21 5 115.59 12
-9 -12 5 149.59 10.9
-9 21 -5 132.09 11
-21 9 5 135.59 10.5
9 -21 -5 135.39 12.5
12 9 -5 139.99 11.3
-12 -9 -5 134.19 12.2
12 9 5 119.89 10.3
9 12 -5 126.09 10
-12 -9 5 137.39 10.7
9 12 -5 155.38 11.8
12 -21 -5 129.69 13.1
9 -21 5 132.39 11.5
-21 12 5 138.99 10.8
-12 21 -5 141.09 10.9
-21 9 -5 143.49 11.2
-9 -12 -5 144.69 12.8
13 8 -5 5.7 5.5
13 -21 5 5.6 6.9
-13 21 5 -4.7 4.7
-8 21 -5 3.9 5.1
8 -21 -5 3.4 6.3
-8 -13 5 3 5
-13 -8 -5 5.2 5.8
-21 13 -5 2.5 5.3
-21 8 5 -2.4 5.2
8 13 5 3 5.7
-13 21 -5 5.7 5.3
-21 13 5 4.1 5
-8 21 5 -1.8 3.7
8 13 -5 4.1 4.8
-13 -8 5 7 5.1
-21 8 -5 4.1 5.5
13 -21 -5 0.9 6.8
8 13 -5 6.4 5.7
-8 -13 -5 4.8 6.6
8 -21 5 7.5 6.2
13 8 5 -5.9 3.8
-21 7 5 27.4 5.7
-21 14 -5 26.6 5.6
-14 21 5 14.4 5.6
-7 21 -5 26.4 5.5
7 -21 -5 17.2 6.1
14 -21 5 21.3 7.2
-7 -14 5 18.4 5.2
14 7 -5 22.9 6.7
14 7 -5 20.7 5.9
7 14 5 21.2 6
7 14 -5 17.1 5.6
-7 21 5 12.1 4.8
-14 -7 5 16.1 5.2
7 14 -5 7.3 5
-21 7 -5 15.5 5.5
-7 -14 -5 16 6.8
7 -21 5 18.2 6.6
-14 21 -5 14.7 5.5
-21 14 5 14.5 5.1
14 -21 -5 18.6 7
15 -21 5 32 7.1
-21 15 -5 40.2 5.9
15 6 -5 23 6.4
-6 21 -5 31.8 5.6
-21 6 5 33.6 5.4
-15 21 5 35.4 5.9
-6 -15 5 27.1 6.8
-6 -15 5 32.9 5
6 15 5 31.8 6
15 6 -5 29.9 5.9
-21 6 -5 23.3 5.6
-21 15 5 18.3 5.2
-6 -15 -5 28.3 6.9
6 -21 5 17.8 6.3
15 -21 -5 31.3 7.1
-15 -6 5 25 5.3
-6 21 5 22.8 5.3
-15 21 -5 20.5 5.4
6 15 -5 20 5.1
-5 -16 5 -1 3.4
-21 16 -5 6.1 4.3
16 -21 5 6.2 6.3
-21 5 5 8.9 4.2
-16 21 5 9.6 5.1
16 5 -5 4.7 5.1
-5 21 -5 6.8 4.9
5 16 5 7.7 5.4
-5 -16 5 2.4 6.3
5 -21 5 6.4 5.9
5 16 -5 2.7 4.6
16 -21 -5 15.5 6.7
-16 21 -5 8.7 4.8
21 -5 -5 0.5 3.6
-16 -5 5 6.4 5.1
-5 -16 -5 3.9 6
-5 21 5 6.7 5.1
-21 5 -5 7.5 5
-21 16 5 10.1 4.8
17 4 -5 58.99 7.9
4 17 5 61.59 8.1
-4 21 -5 64.39 7.7
-4 -17 5 57.19 7.5
-17 21 5 67.19 8
17 -21 5 61.49 9.4
21 -17 5 39.3 6.5
17 -21 -5 84.79 10.1
-4 -17 -5 53.79 7.2
-17 -4 5 59.29 7.8
4 -21 5 50.79 6.8
-21 17 5 63.69 7.7
4 17 -5 60.59 7.5
-21 4 -5 48 6
-4 21 5 63.49 8.1
-3 -18 5 19 5.8
18 -21 5 18.5 6
18 3 -5 15.4 4.8
3 18 5 19.2 4.9
-21 3 5 5.4 3.6
-18 21 5 12.7 4.7
-3 21 -5 20.5 4.6
-21 18 5 19.1 4.9
3 -21 5 17.1 5.7
-3 21 5 17.8 5.1
18 -21 -5 23.5 6.5
-18 -3 5 19.7 4.8
-3 -18 -5 24.8 6
-21 3 -5 20 4.9
3 18 -5 19.5 4.6
21 -18 5 13.3 6.3
2 19 5 6.8 4.9
19 2 -5 1.2 4.3
-2 21 -5 0.7 3.9
19 -21 5 3.2 5.9
-21 2 5 -5.3 3.7
-19 21 5 -2.6 4.3
-2 -19 5 -1.1 5.4
2 19 -5 3.1 3.6
2 -21 5 0.7 5.1
-21 2 -5 6.6 4.5
21 -19 5 -3.2 5.9
-21 19 5 0 4.4
21 -2 -5 1.1 3.3
-19 -2 5 2.9 4.4
-2 21 5 1.9 4.6
19 -21 -5 4.6 4.8
-2 -19 -5 10 5.5
-20 21 5 15.5 4.5
20 1 -5 10.2 3.7
-1 21 -5 10.4 3.6
20 -21 5 12.5 6
-21 1 5 3.1 3.4
-1 -20 5 11.6 5.5
1 20 5 13.2 4.4
1 -21 5 16.7 5.6
21 -20 5 7.8 5.7
-1 21 5 15.3 4.3
-1 -20 -5 15.7 5.2
-21 20 5 16.7 4.6
-20 -1 5 10.5 4.3
-21 1 -5 18 3.9
-22 11 -5 151.28 11
-22 11 5 153.18 10.7
11 -22 -5 141.99 12.2
-11 22 -5 154.18 10.7
-11 -11 5 155.08 10.6
11 11 5 151.38 11
-11 -11 -5 147.69 12.1
11 11 -5 160.48 11.1
10 -22 -5 6.6 6.2
12 10 -5 11 5.3
-12 -10 -5 9.4 6.2
12 -22 5 -7.5 4.8
10 12 5 3.4 5.4
-10 -12 5 6.6 4.7
-22 12 -5 10 5.2
-10 22 -5 10.8 5
-22 10 5 3.8 4.8
-12 -10 5 9.6 4.9
-22 10 -5 4.1 5
12 10 5 0.8 4.7
10 12 -5 -1.5 4.3
-10 -12 -5 -3.7 6.1
-12 22 -5 6.4 4.9
-22 12 5 8.6 4.8
12 -22 -5 6.3 6
10 -22 5 -8.9 5.6
10 12 -5 12.8 5.3
-22 9 5 49.7 5.9
9 13 5 43 6.2
13 9 -5 39.9 6
9 -22 -5 36 6.9
-13 -9 -5 26.5 5.6
-9 -13 5 47.4 5.7
-22 13 -5 44.3 5.9
13 -22 5 34.1 6.9
-9 22 -5 35.6 5.5
9 -22 5 32.4 5.5
-13 22 -5 45.3 6
-9 -13 -5 49.8 7.1
-22 13 5 50.29 5.9
-22 9 -5 42.9 6.1
13 -22 -5 47.6 7
-13 -9 5 58.19 7.8
9 13 -5 57.69 8.4
8 14 5 43 6
-22 14 -5 42.4 5.6
-22 8 5 38.6 5.5
14 8 -5 39 6.9
-8 22 -5 36.4 5.4
8 -22 -5 25.7 5.4
14 -22 5 33.3 6.9
-8 -14 5 48 5.5
14 8 -5 40.9 5.8
-22 8 -5 44.3 6
-8 -14 -5 32 6.6
-22 14 5 33.3 5.5
-14 22 -5 40 5.4
14 -22 -5 42.7 7.4
8 14 -5 38.4 5.5
-14 -8 5 36.2 5.4
8 -22 5 35.6 6.2
15 -22 5 -5.2 5.9
15 7 -5 7.4 4.8
-15 22 5 2.2 4.3
-7 -15 5 0.8 3.3
-22 15 -5 4.4 4.7
7 15 5 3.6 4.7
15 7 -5 7.7 4.9
-22 7 5 3.1 3.7
-7 22 -5 5.2 4.5
-7 -15 -5 8.9 5.9
7 -22 5 4.8 5.4
-22 15 5 3.3 4.4
-15 -7 5 5.3 4.7
7 15 -5 0.1 3.8
-22 7 -5 6.4 4.9
-15 22 -5 8.5 4.8
15 -22 -5 9.3 6.1
16 -22 5 65.99 7.5
-6 22 -5 64.09 7.8
16 6 -5 57.69 7.7
-16 22 5 53.69 7.2
6 16 5 60.29 7.7
16 -22 -5 80.99 10
6 -22 5 72.19 8.7
-6 -16 -5 75.49 9.2
-22 6 -5 77.89 8
-16 -6 5 70.09 7.8
-16 22 -5 76.99 7.8
-22 16 5 73.59 7.7
-5 22 -5 15 4.4
17 5 -5 19.9 4.6
5 17 5 12.3 4.7
17 -22 5 18.1 5.9
-17 22 5 9 4.6
-5 -17 5 6.5 4.9
5 -22 5 18.1 5.6
17 -22 -5 23.3 6.1
-5 -17 -5 23.5 6.2
-17 -5 5 15.6 4.8
-22 17 5 19.4 4.7
-22 5 -5 21.4 5
-4 -18 5 -0.9 5
-18 22 5 0.7 4.2
4 18 5 1.2 4.6
-4 22 -5 6.8 4
18 -22 5 -1.3 5.5
18 4 -5 9.2 4.4
-22 4 -5 10.5 4.6
18 -22 -5 14.6 5.5
4 -22 5 4.3 5.2
-4 -18 -5 11.1 5.7
-18 -4 5 7.2 4.4
-22 18 5 14.7 4.7
3 19 5 45.4 6.6
-19 22 5 28.3 4.5
-3 22 -5 44.9 6.1
-3 -19 5 37.2 5.6
19 3 -5 28.1 4.6
19 -22 5 40.2 6.3
-22 3 -5 20.7 4.5
-19 -3 5 20.9 4.7
19 -22 -5 9 4.4
3 -22 5 21 5.5
-3 -19 -5 22.8 5.4
-22 19 5 26.2 4.7
-23 12 -5 75.09 7.7
-11 23 -5 78.99 7.8
12 11 -5 70.39 8
-23 11 5 70.59 7.4
-11 -12 5 67.79 7.2
-12 -11 -5 59.49 7.4
11 12 5 56.69 7.3
11 -23 -5 68.09 8.9
-12 -11 5 95.19 7.9
-23 12 5 91.49 8.1
-23 11 -5 92.29 8.4
-11 -12 -5 87.29 9.5
-12 23 -5 91.89 8.6
11 12 -5 91.79 8.5
12 -23 -5 87.19 9.4
-10 23 -5 64.69 7.4
13 10 -5 62.99 9.4
-23 10 5 52.09 6.8
-23 13 -5 60.69 7.1
13 10 -5 60.99 7.9
10 -23 -5 58.99 8.1
10 13 5 54.39 7.9
-10 -13 5 53.79 6.5
-13 -10 5 68.19 7.2
-10 -13 -5 61.29 8.8
13 -23 -5 66.99 9.2
10 13 -5 69.29 7.9
-23 10 -5 59.59 7.9
-23 13 5 65.59 7.6
-13 23 -5 70.69 7.9
14 9 -5 12.2 4.7
14 -23 5 4.7 4.6
9 14 5 18.9 5.2
14 9 -5 23.4 5.7
-9 23 -5 24.4 4.7
-23 14 -5 14.8 4.5
-14 23 -5 26.6 4.9
-23 14 5 28 4.8
-9 -14 -5 28.8 6.2
-14 -9 5 26.4 4.9
-23 9 -5 24.7 5
9 14 -5 19.4 4.3
14 -23 -5 31.5 6.2
15 8 -5 64.69 7.6
-8 23 -5 67.49 7.4
15 -23 5 51.99 8.1
8 15 5 59.49 7.7
-23 15 5 62.69 7.1
15 -23 -5 64.89 9.1
-8 -15 -5 62.29 8.8
-15 -8 5 60.69 7
-15 23 -5 61.69 7.4
-23 8 -5 51.59 7.1
16 7 -5 18.7 4.7
7 16 5 15 4.8
-7 23 -5 21 4.4
16 -23 5 11.3 5.4
-16 -7 5 9.9 4.6
-16 23 -5 14.6 3.7
-7 -16 -5 19.1 5.6
-23 7 -5 17.5 4.7
16 -23 -5 12.2 5.8
-23 16 5 14.3 4.6
6 17 5 19.3 4.7
-6 23 -5 22.8 4.4
17 -23 5 16 5.6
17 6 -5 15.7 4.4
6 -23 5 18.4 4.9
-6 -17 -5 29.9 5.9
-17 -6 5 26.7 4.7
-23 6 -5 14.7 4.6
-23 17 5 24.4 4.8
17 -23 -5 29 6
12 12 -5 107.49 10
-24 12 -5 88.89 7.3
12 12 -5 91.59 7.8
-12 24 -5 94.19 7.8
13 11 -5 14.2 5.2
13 11 -5 15.7 4.6
-11 24 -5 15.4 4.5
-24 13 -5 10 3.3
-13 -11 5 8.1 3.8
11 13 -5 3.4 3.2
-24 11 -5 15.3 4.6
-11 -13 -5 1.3 4.3
11 13 -5 17.7 6.2
13 -24 -5 12.4 5.4
-13 24 -5 15 4.4
0 0 6 5940.91 276.97
0 0 6 6772.82 282.47
0 0 6 6318.67 276.47
1 0 6 674.43 41.8
-1 1 6 664.43 37.7
0 1 6 661.03 42.4
-1 1 6 660.93 36.9
0 -1 6 733.03 37.6
0 1 6 615.04 35.1
0 -1 6 753.02 38.2
1 -1 6 645.94 35.9
-1 1 6 635.24 41.5
1 -1 6 615.04 35.8
-1 0 6 626.14 37
-1 0 6 619.84 37.4
1 0 6 630.44 36.1
-1 0 6 718.93 41.8
1 -1 6 666.33 40.7
0 -1 6 669.33 41
-2 1 6 397.96 29.6
-1 -1 6 512.35 32.3
1 -2 -6 408.66 20.9
-1 2 6 400.46 27.2
-1 -1 6 500.85 30.4
-1 -1 6 441.86 28.5
-2 1 -6 402.16 21.1
1 -2 6 383.26 30.8
1 -2 6 480.75 29.4
-2 1 6 452.85 29.7
-2 1 6 464.05 32.8
2 -1 6 450.85 26.6
-1 2 6 420.96 33.1
1 1 6 403.86 22
1 -2 6 470.75 27.1
-2 2 6 288.27 24.7
0 2 6 346.97 29.9
2 -2 6 261.67 20.2
0 -2 6 328.07 22.8
-2 0 6 299.27 24.3
0 -2 6 320.27 26.8
-2 0 -6 284.87 15.5
-2 2 6 320.07 28.4
-2 2 6 307.67 22.4
-2 0 6 258.97 26.3
2 -2 6 264.27 21.4
2 0 6 273.57 16.1
0 -2 6 310.67 24.2
-2 0 6 279.17 24.3
2 -3 6 14.2 11.8
1 -3 -6 29.5 5.6
-3 2 -6 29.1 5.7
-3 1 6 10.6 14.2
-1 -2 6 19.6 12
-1 -2 6 29.3 14
2 -3 6 1.8 9.6
-3 1 6 16.6 13.6
3 -1 6 16 4.8
-1 -2 6 18.2 13.8
-3 1 6 26.5 14.4
1 2 6 22.7 6.2
-2 -1 -6 26 5.5
-2 3 6 32.5 15.4
-2 -1 6 49.9 14.1
-1 -2 -6 27.6 4.8
-3 2 6 46 12.6
-3 1 -6 42.7 6.1
1 -3 6 43.7 14.6
-1 3 6 16.9 9.9
-3 2 6 51.69 17.8
-2 -1 6 45.8 14
2 -3 -6 41.4 5.8
-3 2 6 56.99 16.2
1 -3 6 43 12.1
-2 -1 6 38.4 14.1
-1 3 6 42.7 17.5
1 -3 6 44.6 15.3
2 1 6 40.6 7.1
0 -3 6 1338.87 67.29
-3 3 6 1426.06 69.29
0 3 6 1401.36 72.99
-3 0 6 1377.46 68.29
-3 0 -6 1293.57 59.39
0 -3 6 1308.67 67.49
-3 3 6 1402.66 71.39
0 -3 6 1324.27 65.49
3 -3 6 1145.39 63.49
3 0 6 1263.77 59.99
0 -3 -6 1368.36 59.49
-3 0 6 1408.26 70.09
-3 0 6 1331.97 67.49
2 -4 -6 70.09 7.8
-4 2 6 59.59 15.2
-2 -2 6 74.29 16.4
-2 -2 6 62.79 15.7
2 2 6 61.39 8.4
-2 -2 6 59.19 15.5
2 -4 6 74.39 15.6
-2 -2 -6 58.49 7.7
-4 2 -6 73.09 7.9
-2 4 6 61.79 18
2 -4 6 60.79 7.3
-4 2 6 83.99 18.5
-4 2 6 87.19 19.2
2 -4 6 76.69 17.1
-2 -2 -6 83.49 21.1
1 -4 -6 132.89 10
-3 4 6 135.39 22.9
-1 -3 6 143.29 21.1
-4 1 6 146.49 20.5
-3 -1 -6 149.49 22.1
-1 -3 6 115.49 18.4
1 3 6 135.59 11.7
-1 -3 6 150.58 22.7
-4 1 6 153.38 23.3
4 -1 6 136.79 11.3
-4 1 6 136.59 20.8
-3 -1 -6 131.79 10.2
3 -4 6 135.59 10.3
3 -4 6 122.39 19.4
-1 4 6 188.48 27.3
1 -4 6 116.79 21
-4 3 6 167.38 23.3
4 -3 6 162.28 11.3
-1 -3 -6 142.19 10.6
3 -4 -6 160.78 10.7
3 1 6 149.19 12.1
1 -4 6 162.48 24.2
-3 -1 6 165.38 22.7
-4 1 -6 166.68 11.2
-3 -1 6 167.38 21.2
-3 -1 6 161.98 23.1
-1 -3 -6 195.98 27.3
-4 3 6 164.78 23.4
0 -4 -6 51.59 22.4
4 0 6 49.4 8.1
-4 4 6 26.3 16.2
4 -4 6 26 13.4
0 -4 6 24.4 13.8
4 -4 6 44.2 7.1
0 -4 -6 46.4 6.6
0 4 6 48.1 21.3
-4 0 -6 11.2 17.9
-4 0 6 49.7 18.2
-4 0 -6 46.2 6.9
-4 0 6 27.9 16.1
4 -4 -6 31.3 5.2
0 -4 6 50.19 17.1
-4 4 6 46.6 18.5
-4 0 6 35.4 15.2
-2 -3 6 199.88 23.2
-5 2 6 211.58 27.7
-2 -3 6 198.58 26.4
5 -2 6 189.08 12.7
3 -5 6 191.18 12.5
-5 2 6 209.08 25.1
-3 -2 -6 195.38 12.6
-5 3 -6 209.78 12.7
2 -5 -6 197.28 12.3
-5 3 -6 195.38 31.6
-3 5 6 178.28 27.7
3 -5 6 202.98 23.9
2 3 6 184.38 13.2
-3 -2 -6 166.68 25.5
-5 2 6 164.08 23.4
-5 2 -6 155.08 11.3
-3 -2 6 133.19 21.5
5 -2 -6 158.78 11.6
-2 5 6 161.68 28
3 2 6 150.88 12.5
5 -3 6 147.49 11.3
-2 -3 -6 196.68 28.2
-3 -2 6 154.38 24.5
-5 3 6 154.78 24.1
3 -5 -6 153.48 10.9
2 -5 6 156.58 23
-5 2 -6 160.28 29.9
-5 3 6 169.38 26.1
-3 -2 6 170.18 23.7
-2 -3 -6 153.88 11
-5 4 -6 251.27 31.5
-5 1 6 264.97 28.6
-1 -4 6 274.37 27.9
1 4 6 229.28 31.2
4 -5 6 251.07 14.8
-4 5 6 240.28 29.6
1 -5 -6 241.08 32.9
1 4 6 246.98 15.4
-4 -1 -6 242.48 14.5
5 -1 6 260.57 16
-5 1 6 233.68 28.2
-1 -4 6 221.38 24.7
-5 1 6 258.57 27.6
-1 -4 6 233.08 14.8
4 -5 6 201.68 23.9
1 -5 -6 257.47 14.5
-4 -1 6 223.88 26.9
1 -5 6 250.57 27.8
-5 1 -6 209.58 35.4
-1 -4 -6 257.27 15.2
-5 4 6 277.17 28.9
4 1 6 259.27 16.3
-1 5 6 253.57 31.2
-4 -1 6 263.37 27.5
-4 -1 6 264.87 27.3
-5 4 6 238.18 27
-1 -4 -6 275.57 15.3
5 -4 6 264.87 15.4
4 -5 -6 257.17 14.8
-5 1 -6 260.87 15.4
-1 -4 -6 241.18 35.1
0 -5 -6 504.85 45.9
0 -5 6 638.34 43
-5 0 -6 521.45 47.8
0 -5 -6 621.04 29.5
0 5 6 639.14 31.3
-5 0 6 619.74 43.2
5 -5 6 613.24 29.6
0 5 6 689.53 47.8
0 -5 6 613.64 30.1
5 -5 -6 619.94 29.5
0 -5 -6 612.34 29.7
-5 0 -6 652.93 30
-5 5 6 676.53 44
-5 0 6 642.14 42.6
-5 0 6 560.54 40.8
5 0 6 623.34 30.5
-5 5 6 634.84 44.5
-6 3 -6 110.39 9.9
-3 -3 -6 101.89 9.8
3 -6 6 91.29 9.4
6 -3 6 101.59 10.9
-6 3 -6 79.59 27.8
3 3 6 92.89 10.1
-3 -3 6 107.69 20.6
-3 6 6 91.99 22.9
3 -6 6 89.49 19.4
-3 -3 -6 84.09 25.8
6 -3 6 96.09 10.1
-3 -3 6 112.19 21
-6 3 6 111.49 22.3
3 -6 -6 104.19 9.5
6 -3 -6 97.39 9.6
-6 3 6 114.19 23.9
4 -6 6 72.99 18.1
-2 -4 6 104.69 21.2
-6 2 6 78.49 23.1
6 -4 -6 73.09 9.7
6 -2 6 68.49 9.2
-4 6 6 51.59 19.4
2 4 6 76.69 10.4
-6 2 6 84.79 20.5
6 -2 6 76.99 10.7
2 -6 -6 79.59 8
4 -6 6 74.59 9.2
-2 -4 6 64.89 8.3
-4 -2 -6 40.5 24.9
-4 -2 -6 82.89 8.9
-6 4 -6 68.89 27
-2 -4 6 60.19 18
-6 2 6 89.09 19.9
6 -2 -6 50.89 7.8
-2 6 6 32.5 20.5
-2 -4 -6 26.6 24.7
6 -4 6 39.3 7.1
-2 -4 -6 48.4 7.6
2 -6 6 29.8 18.2
4 -6 -6 41.7 6.8
-4 -2 6 31.5 19
-4 -2 6 37.7 18.1
4 2 6 41.4 8
-6 2 -6 53.89 7.5
-6 2 -6 19 25.6
-6 4 6 35.2 20.3
-4 -2 6 0 19.1
-6 4 6 26.8 19
1 5 6 142.29 28.6
-1 -5 6 133.89 23.7
-5 6 6 124.19 24.5
1 -6 -6 102.89 27.8
-5 -1 -6 97.39 28.8
-6 1 6 157.08 27.5
-5 -1 -6 127.59 10.9
-6 1 6 143.99 22.9
5 -6 6 127.39 11.1
-1 -5 6 131.79 11.1
1 5 6 140.29 12.2
6 -1 6 126.79 12.3
-6 1 6 149.09 24.3
6 -5 -6 107.59 9.3
1 -6 -6 125.79 9.8
-1 -5 -6 119.09 10.7
-1 6 6 116.99 26.7
5 -6 -6 126.69 10.5
-5 -1 6 111.69 21.6
1 -6 6 90.29 21.1
-1 -5 -6 128.09 10.3
-6 1 -6 118.79 10.5
1 -6 6 95.19 11.3
-6 5 6 143.89 25.4
6 -1 -6 103.69 9.9
-1 -5 -6 96.99 27.1
-5 -1 6 120.99 22.1
-6 5 6 106.59 24.3
-6 1 -6 109.19 30.4
5 1 6 111.19 10.8
6 -5 6 113.39 9.9
6 0 -6 0.5 5.1
0 -6 6 12.3 19.4
6 -6 -6 8.9 6.1
-6 6 6 4.4 21.7
-6 0 6 9.2 19.7
0 -6 6 6.1 6.6
-6 0 -6 10.8 5.8
0 -6 -6 3.4 26.2
0 -6 -6 8.7 6.4
0 6 6 -1.5 22.6
-6 0 6 5.1 21.9
6 -6 6 10.8 6.5
-6 0 6 -1.2 18.4
-6 0 -6 5 26.7
6 0 6 11.3 7.7
0 -6 -6 12.3 5.9
0 6 6 6.4 6.4
-6 6 6 17.7 22.3
-7 3 6 292.57 32.8
7 -3 6 295.17 18.5
7 -3 6 296.67 17
4 -7 6 289.97 16.8
3 4 6 301.77 18.1
-3 -4 6 297.87 32.8
-4 -3 -6 288.97 17.2
-7 3 6 258.47 36.2
-7 3 6 267.77 30.2
3 -7 -6 302.97 16.5
-4 7 6 252.97 33.6
7 -4 -6 285.67 17.2
-7 4 6 267.47 32.2
3 -7 6 212.88 29.5
-4 -3 6 182.78 28.5
3 -7 6 238.18 14.5
7 -4 6 231.98 16
4 -7 -6 256.77 15.2
4 3 6 243.18 16.1
-7 3 -6 231.98 15.1
7 -4 6 236.88 15
-4 -3 6 247.98 30.1
7 -3 -6 253.97 16
-3 7 6 224.68 33.6
-7 4 6 244.58 33.6
-3 -4 -6 257.97 15.3
-7 3 -6 166.48 36.3
-7 2 6 4.6 23.6
-7 5 -6 -0.1 32.4
7 -2 6 1.9 6.3
7 -5 -6 1.6 5.9
2 -7 -6 4.7 5.5
5 -7 6 2.2 6.4
2 -7 -6 7.6 26.4
7 -5 -6 0.7 4.5
5 -7 6 3.2 20.6
7 -2 6 5.3 7.8
-7 2 6 0.4 20
-7 2 6 -3.2 17
2 -7 -6 0.7 6.9
-2 -5 6 3 20.3
2 5 6 -1.7 6.5
-5 7 6 6.1 19.5
-2 -5 6 0.1 18.7
-5 -2 -6 3.6 5.6
-2 -5 6 0.6 6.1
-2 -5 -6 16 27.9
5 -7 -6 26 6.8
-7 2 -6 20.5 6.4
5 -7 -6 7.6 54.99
-5 -2 6 14.6 20.2
2 -7 6 24 7
-5 -2 6 13.8 19.9
-7 5 6 17.3 23.1
-2 -5 -6 22.1 6.6
-7 5 6 19.3 22.3
-2 7 6 12.8 21.9
7 -5 6 24.6 7.2
7 -2 -6 24.6 7
5 2 6 24.9 8
-2 -5 -6 24.6 6.9
-7 2 -6 24.6 30.3
2 -7 6 10.1 20
-6 7 6 577.54 45.3
-1 -6 6 546.05 44.1
7 -1 6 610.34 30.4
-1 -6 6 624.84 29.1
-7 1 6 568.94 44.1
-6 -1 -6 582.64 28.8
1 6 6 611.24 30.1
7 -6 -6 564.74 28.7
-6 -1 -6 539.35 54.09
7 -6 -6 626.54 30
-7 1 6 567.14 43.7
1 -7 -6 605.14 29.4
1 -7 -6 485.05 49.3
1 -7 -6 569.34 28.3
6 -7 6 610.54 29
-6 7 6 522.05 45.6
1 6 6 489.65 46.6
6 1 6 629.64 30.7
-7 1 -6 570.94 55.39
-1 -6 -6 648.04 30.2
-7 6 6 651.53 47.5
-7 6 6 605.34 48.1
7 -6 6 606.24 29.4
-1 -6 -6 607.44 29.2
-7 1 -6 596.74 29.3
7 -1 -6 573.84 29.8
1 -7 6 579.74 29.5
-6 -1 6 570.04 43.7
1 -7 6 457.45 41.5
6 -7 -6 645.84 30
-6 -1 6 488.95 42.3
0 -7 -6 593.54 29.1
7 -7 -6 652.53 30.3
0 -7 -6 642.84 30.6
7 -7 6 601.74 29.2
-7 7 6 472.35 45.6
7 0 6 621.44 30.6
-7 0 6 499.65 45.7
-7 7 6 479.15 47.3
0 7 6 606.24 30.5
-7 0 -6 573.94 29.3
0 -7 6 606.64 29.6
-4 -4 -6 326.47 18.4
-8 4 6 223.68 39.4
4 -8 6 335.97 18.3
-8 4 6 256.67 36
8 -4 6 302.07 19.4
4 -8 6 310.77 18.7
8 -4 6 337.77 18.5
4 -8 -6 322.77 18.3
-8 4 -6 330.77 18.1
8 -4 -6 312.77 19.3
4 4 6 315.77 19.3
-4 -4 6 251.07 35.3
8 -3 6 329.17 17.9
-5 -3 -6 328.37 18.4
5 -8 6 324.67 18.3
8 -3 6 314.37 20.2
3 5 6 316.87 19.2
-8 3 6 296.57 35.7
8 -5 -6 319.47 19.4
3 -8 -6 317.37 18
-3 -5 6 292.17 17.8
-3 -5 6 248.68 34.1
-8 5 6 261.37 37.6
-5 -3 6 275.67 35.7
-8 3 -6 347.07 19.1
3 -8 6 349.67 19.5
8 -5 6 353.06 19.2
-8 5 6 272.57 40.6
5 3 6 334.87 20.1
8 -5 6 309.57 19.8
3 -8 6 310.77 18
5 -8 -6 356.26 19.5
-3 -5 -6 347.67 19.4
8 -3 -6 358.96 20.5
-8 2 6 -0.6 34
8 -2 6 24.3 8.9
-6 -2 -6 26.1 6.6
-6 -2 -6 18 34
2 -8 -6 8.7 6.2
8 -2 6 25.5 7.4
-2 -6 6 1.1 23.5
8 -6 -6 23 7.5
-8 2 6 12.6 24.5
-2 -6 6 26.6 7.5
-8 2 6 7.2 22
-6 8 6 6.5 26.5
6 -8 6 27.1 7.5
2 -8 -6 20.4 31.9
2 -8 -6 32.2 6.7
2 6 6 28.1 8.1
2 -8 6 3.7 25.2
-8 6 6 15.6 24.8
-2 8 6 2.5 29
6 -8 -6 33.7 8
-2 -6 -6 40.9 7.4
-8 2 -6 6.2 36.6
8 -2 -6 37.5 8.8
2 -8 6 29.9 7.4
-8 6 6 25.5 29.2
-6 -2 6 20.1 24.5
-6 -2 6 -0.1 23.4
8 -6 6 46.4 8.4
-2 -6 -6 34.2 7.8
-8 2 -6 42.4 7.7
-2 -6 -6 5.4 34.2
6 2 6 28.8 8.3
-8 0 -6 232.38 15.7
0 -8 -6 265.37 17.7
0 8 6 242.88 17.2
0 -8 6 233.58 16.4
8 -8 6 241.18 16.1
8 0 6 228.68 15.5
8 -8 -6 263.87 17.4
8 0 6 224.78 17.2
0 -8 -6 238.88 15.3
4 -9 -6 48.9 8.5
4 5 6 54.69 9.6
5 -9 6 51.79 8.5
5 -9 6 42 8.3
9 -4 6 36.5 8.9
-9 4 6 1.4 27.7
9 -4 6 45 8.6
9 -5 -6 47.4 8.9
-5 -4 -6 42.5 7.9
-4 -5 6 2.9 35.9
5 4 6 70.49 11.5
9 -4 -6 72.09 11.7
-9 4 -6 74.29 10.1
4 -9 6 61.19 10
-4 -5 -6 65.29 8.9
-9 5 6 0.9 29.8
-5 -4 6 1.9 32.6
9 -5 6 72.89 10.4
4 -9 6 65.09 10.6
9 -5 6 74.29 11.4
5 -9 -6 67.29 10.5
6 -9 6 88.19 10.6
3 -9 -6 84.69 9.3
-3 -6 6 89.89 11.1
-6 -3 -6 83.69 10.2
9 -3 6 90.59 10.8
9 -3 6 86.09 12.7
3 6 6 87.49 11.8
9 -6 -6 84.49 11.7
9 -3 -6 50.79 9.9
3 -9 6 76.99 10.1
-9 3 -6 69.79 9.1
9 -6 6 70.99 9.7
6 3 6 55.79 9.9
9 -6 6 43.5 8.4
-3 -6 -6 77.29 9.9
6 -9 -6 78.79 10.4
-2 -7 6 591.24 29.8
2 7 6 615.94 30.8
2 -9 -6 574.14 29.4
9 -7 -6 590.74 30.8
7 -9 6 580.34 29.6
2 -9 -6 596.64 30.9
-7 -2 -6 580.44 29.6
9 -2 6 588.74 29.7
9 -2 6 579.54 31.6
-2 -7 -6 592.34 29.8
9 -7 6 591.24 30.3
2 -9 6 577.64 30.3
7 2 6 615.34 31.8
-2 9 6 607.64 31.7
9 -2 -6 597.34 32.1
-2 -7 -6 618.94 31.5
-9 2 -6 587.94 29.9
7 -9 -6 618.84 31.4
8 -9 6 30.2 7.6
1 -9 -6 29.2 9.8
9 -8 -6 43.3 9.3
-8 -1 -6 41 7.9
9 -1 6 28.1 7.7
1 -9 -6 36.3 7.5
9 -1 6 25.9 9.6
1 8 6 32.1 8.9
9 -8 -6 36.1 9.5
-1 -8 6 27.3 8.3
9 -8 6 39.9 8.4
9 -1 -6 24.6 9
-1 9 6 28.5 8.9
-9 1 -6 26.8 7.5
-1 -8 -6 31.5 7.4
-1 -8 -6 38.7 9.7
8 1 6 32.4 9.9
8 -9 -6 33.9 9.7
1 -9 6 36.7 8.4
0 -9 -6 321.97 22.1
9 0 6 305.67 19.2
-9 0 -6 337.37 19.9
9 -9 -6 357.06 22
9 -9 6 338.27 19.9
0 -9 -6 334.77 19.3
9 0 6 327.87 21.4
0 -9 6 346.27 20.5
0 9 6 341.57 21.4
5 -10 -6 809.62 38.7
5 -10 6 764.02 37.8
5 5 6 792.42 39.4
-5 -5 -6 778.72 38.4
10 -5 -6 789.92 39.9
5 -10 6 805.62 38.8
10 -5 6 820.12 38.4
10 -5 6 773.22 39
6 -10 6 281.27 17.4
10 -6 -6 259.37 17.9
4 -10 -6 273.27 17.3
-6 -4 -6 270.97 17.5
10 -4 6 250.57 18.7
-4 -6 6 249.97 16.3
6 -10 6 280.57 17.8
4 6 6 297.47 18.7
10 -4 6 276.27 17.5
6 4 6 350.66 21.4
10 -6 6 367.46 20.2
4 -10 6 332.57 20
6 -10 -6 349.27 20.6
-4 -6 -6 332.87 20.3
10 -4 -6 334.07 21.9
4 -10 6 314.27 18.7
-10 4 -6 324.27 19.3
10 -6 6 307.97 20.4
7 -10 6 12 7.8
3 -10 -6 5.4 6.5
3 -10 -6 1.5 8.4
10 -3 6 11.6 7.5
-3 -7 6 8.5 7.6
-7 -3 -6 4.5 6.6
10 -3 6 2.9 8.7
3 7 6 5.4 8.2
7 -10 6 7.1 7.2
10 -7 -6 1.6 7.3
7 3 6 27 9.8
3 -10 6 13 7.4
7 -10 -6 12.3 7.6
3 -10 6 -1.7 6.6
10 -7 6 24.1 7.6
10 -3 -6 13.8 9.4
-3 -7 -6 19.7 8.2
10 -7 6 3 6.8
-10 3 -6 11 7
2 8 6 484.95 26.8
2 -10 -6 461.75 27.6
10 -8 -6 474.15 26.8
10 -2 6 465.75 25.5
-2 -8 6 490.15 26
8 -10 6 488.65 26.3
10 -2 6 485.65 27.7
8 -10 6 485.25 25.9
10 -8 -6 476.45 27
-8 -2 -6 506.75 25.7
2 -10 -6 468.15 25.4
-2 -8 -6 547.75 28
10 -8 6 563.04 28.4
-2 -8 -6 563.04 29.6
-10 2 -6 539.85 28.1
8 2 6 541.95 30.4
2 -10 6 552.94 28.8
8 -10 -6 528.55 29.6
-2 10 6 540.25 29.5
10 -2 -6 507.55 30.9
9 -10 6 75.59 11.7
10 -9 -6 72.99 12.2
1 9 6 78.69 12.3
10 -1 6 114.49 14.2
10 -9 -6 89.59 12.8
1 -10 -6 73.99 12.5
1 -10 -6 88.89 10.7
10 -1 6 59.79 10
-1 -9 6 85.99 11.1
-9 -1 -6 73.79 10.8
10 -1 -6 56.39 11.6
-10 1 -6 60.29 9.4
-1 10 6 61.49 10.4
10 -9 6 86.29 10.9
9 -10 -6 69.59 12.3
-1 -9 -6 66.49 11.5
9 1 6 61.99 11.8
-1 -9 -6 57.79 8.7
1 -10 6 77.49 10.7
0 10 6 162.88 15.4
10 -10 6 166.18 14.5
-10 0 -6 168.88 14.4
10 0 6 165.88 17.1
0 -10 -6 161.78 13.5
10 -10 -6 158.98 17.2
0 -10 -6 155.98 16.9
0 -10 6 158.38 14.6
-6 -5 -6 47.9 8.7
5 6 6 48.2 10.2
5 -11 -6 54.39 9.3
6 -11 6 43.8 9.3
11 -6 -6 48.1 10.4
11 -5 6 43.3 10.5
11 -5 6 50.69 9.7
6 -11 6 64.39 10.3
6 5 6 82.89 13.4
11 -6 6 68.19 10.7
-5 -6 -6 69.79 11.4
5 -11 6 77.99 11.7
11 -6 6 83.89 11.8
6 -11 -6 73.69 11.7
5 -11 6 70.79 10.7
11 -5 -6 72.49 13.5
4 -11 -6 417.86 23.3
11 -7 -6 415.26 24.7
7 -11 6 424.96 23.8
11 -4 6 416.16 24.8
-7 -4 -6 401.36 23.3
4 7 6 423.26 24.6
7 -11 6 418.96 23.1
-4 -7 6 384.26 23.1
11 -4 6 410.16 23.5
4 -11 6 479.75 26.4
7 4 6 497.65 28
-11 4 -6 457.55 25.6
7 -11 -6 493.05 27
11 -4 -6 495.45 28.8
11 -7 6 443.86 25.9
-4 -7 -6 505.75 26.8
11 -7 6 497.05 26.2
11 -8 -6 264.57 18.8
-8 -3 -6 254.07 17.1
8 -11 6 258.07 17.9
3 -11 -6 257.97 17
11 -3 6 251.97 19.2
11 -3 6 251.77 17.5
3 8 6 264.57 18.7
-3 -8 6 240.78 17.7
8 -11 6 278.67 17.8
8 3 6 231.98 19.3
-3 -8 -6 242.68 17.8
11 -8 6 253.57 17.1
-3 11 6 239.28 17.8
8 -11 -6 220.38 17.8
11 -3 -6 252.17 20.4
3 -11 6 236.58 17
-11 3 -6 240.88 16.6
11 -9 -6 18.3 9.8
9 -11 6 25.6 8.8
2 -11 -6 30.8 8.2
9 -11 6 34 9.4
11 -2 6 19.3 7.5
2 -11 -6 8.2 10.4
11 -9 -6 34.2 9.6
-2 -9 6 31.2 9.1
2 9 6 19.8 9
11 -2 6 30.2 10.6
-9 -2 -6 21.9 7.8
11 -9 6 17.2 8.3
-11 2 -6 9.6 7.3
-2 11 6 11.7 8.2
9 -11 -6 8.2 9.6
-2 -9 -6 7.3 8.6
-2 -9 -6 10.9 7
9 2 6 7.5 9.9
11 -2 -6 6.1 10.7
2 -11 6 13.3 8.3
10 -11 6 90.89 13.4
11 -1 6 92.89 13.3
1 -11 -6 88.79 13.8
11 -10 -6 90.79 13.3
1 10 6 66.29 11.9
11 -10 -6 83.59 13.4
1 -11 -6 84.89 11.4
10 -11 6 86.39 12.6
-10 -1 -6 96.09 12.5
-1 -10 6 82.49 12.5
-1 -10 -6 105.69 11.6
-11 1 -6 101.99 12.6
10 -11 -6 84.29 13.2
10 1 6 97.09 15.1
11 -10 6 91.29 12.8
1 -11 6 98.19 13.8
11 -1 -6 100.09 16.6
-1 -10 -6 88.49 13
0 -11 6 99.19 13.2
11 -11 -6 96.49 14.5
11 -11 6 107.99 13.6
0 -11 -6 88.29 13.4
11 -11 6 98.39 14
-11 0 -6 85.19 12.3
0 -11 -6 92.69 11.8
11 0 6 102.89 15.1
12 -6 6 522.95 29.1
6 -12 6 510.55 28.2
-6 -6 -6 517.55 28.3
12 -6 -6 533.25 30.5
6 -12 -6 542.05 28.9
12 -6 6 526.75 28.3
6 -12 6 533.35 28.9
6 6 6 532.05 30.3
12 -5 6 514.85 28.9
12 -5 6 508.15 28.1
7 -12 6 502.05 27.6
5 7 6 525.75 29.4
7 -12 6 534.05 28.6
12 -7 -6 490.95 29.2
5 -12 -6 516.05 27.8
-7 -5 -6 508.65 27.7
7 5 6 569.44 31.6
12 -7 6 538.55 28.6
12 -5 -6 537.35 31.3
12 -7 6 507.35 29.1
5 -12 6 490.45 27.5
-5 -7 -6 541.15 29.1
7 -12 -6 551.84 29.4
5 -12 6 528.55 28.8
12 -4 6 325.27 21.8
4 -12 -6 340.37 20.2
8 -12 6 330.97 21.2
-4 -8 6 301.27 20.5
12 -4 6 299.87 20.2
-8 -4 -6 326.17 20
12 -8 -6 314.67 20.9
4 8 6 307.87 21.5
8 -12 6 329.47 20.4
-4 12 6 273.07 20.6
12 -8 6 272.67 19.6
8 -12 -6 347.27 21.8
4 -12 6 339.57 21.2
8 4 6 361.36 23.6
12 -4 -6 347.67 24.1
-4 -8 -6 346.87 21.6
12 -8 6 335.97 20.7
12 -9 -6 166.78 16
3 9 6 156.58 16.4
12 -3 6 184.88 16.9
9 -12 6 176.08 16.2
3 -12 -6 181.78 14.7
-9 -3 -6 174.18 14.7
9 -12 6 172.48 15.6
-3 -9 6 161.28 16.1
-12 3 -6 209.78 16.3
-3 -9 -6 216.68 18.1
9 -12 -6 238.38 18.8
12 -9 6 209.28 17
9 3 6 226.28 19.3
12 -3 -6 217.88 21
3 -12 6 226.48 17.1
12 -10 -6 7.9 9.1
10 -12 6 18.5 9.3
12 -10 -6 2.7 10.1
2 10 6 -3.1 8.1
-10 -2 -6 12.2 8
10 -12 6 3.5 9.2
-2 -10 6 2.9 9.1
12 -2 6 11.7 10.5
2 -12 -6 10.7 7.6
2 -12 -6 -5.5 10.3
12 -10 6 7.9 9
12 -2 -6 3.9 12.1
10 -12 -6 0.5 9.6
10 2 6 11.8 10.7
-12 2 -6 2 7.5
2 -12 6 9.3 8.9
-2 -10 -6 5.1 9.1
1 -12 -6 148.49 18.5
12 -1 6 196.98 18.1
12 -11 -6 186.68 17.1
-11 -1 -6 196.78 16.2
11 -12 6 189.28 16.6
1 -12 -6 171.88 14.8
12 -11 -6 172.18 19.7
11 -12 6 183.98 16.4
-1 -11 6 190.48 17.1
12 -11 6 196.38 17.1
-12 1 -6 178.18 15.6
-1 -11 -6 176.38 15
12 -1 -6 180.88 20.3
11 -12 -6 167.68 19.6
1 -12 6 195.68 16.9
11 1 6 206.28 18.7
-1 -11 -6 184.88 18.3
12 0 -6 12.4 4.7
0 12 -6 11.5 4.5
12 -12 6 15.5 5.9
-12 0 -6 22.4 9.1
0 12 6 7.4 4.2
0 -12 -6 27.1 10.9
12 -12 6 29.9 10.5
12 -12 6 12.3 8.2
12 -12 -6 15 11.8
0 -12 -6 19.5 8.1
0 -12 6 33.2 10.2
12 0 6 34.4 11.8
13 -6 6 172.88 16.6
13 -7 -6 160.28 17.9
6 -13 -6 173.08 15.5
-7 -6 -6 173.48 15.4
7 -13 6 174.08 15.8
6 7 6 171.98 18
13 -6 6 159.58 15.2
7 -13 6 164.78 15.4
13 -6 -6 221.28 19.6
13 -7 6 207.68 16.7
-6 -7 -6 202.58 16.3
13 -7 6 204.58 17.4
7 6 6 199.48 19.4
6 -13 6 207.08 17.4
6 -13 6 194.08 15.8
7 -13 -6 201.18 16.9
5 -13 -6 146.49 14.7
-8 -5 -6 148.79 14.8
13 -5 6 152.08 16.5
8 -13 6 154.28 15.8
13 -5 6 127.09 13.8
13 -8 -6 160.08 16.4
8 -13 6 166.48 16
-5 -8 6 127.39 14.5
5 8 6 164.68 17.1
13 -8 6 127.39 14.4
13 -5 -6 130.39 17.9
8 5 6 143.89 17.9
8 -13 -6 148.29 15.3
13 -8 6 141.49 15.6
5 -13 6 140.49 15.4
-5 -8 -6 151.58 14.6
9 -13 6 113.69 14.5
-9 -4 -6 112.99 13.3
13 -4 6 118.19 15.8
-4 -9 6 104.99 14.6
4 9 6 77.69 14.4
9 -13 6 118.19 14.8
4 -13 -6 129.89 13.3
13 -9 -6 120.89 15
9 -13 -6 152.68 16
9 4 6 147.69 17.9
4 -13 6 145.59 15.8
-4 -9 -6 153.78 15.3
13 -4 -6 143.19 19.1
13 -9 6 141.09 15.2
-13 10 -6 -2.1 4.2
3 -13 -6 -0.8 7.4
3 -13 -6 -2.3 9.6
10 3 -6 -1.7 5.6
13 -10 -6 7.7 9.1
-10 -3 -6 3.5 8
10 3 -6 -0.7 4.3
13 -3 6 5.7 10.1
-3 -10 6 3.8 9.6
10 -13 6 5.3 9.4
10 -13 6 5.5 9.4
10 -13 -6 9.4 10.2
-3 13 6 0.4 3.7
3 -13 6 6.9 8.9
-3 -10 -6 -2.6 8.7
13 -10 6 10.5 9.7
13 -3 -6 2.6 12.6
3 10 -6 -0.6 3.8
10 3 6 13 10.9
13 -3 -6 0.9 5.3
-13 3 -6 -1 7.2
13 -11 -6 8 10.5
-2 13 -6 28.1 5.1
2 -13 -6 47.2 11.8
11 2 -6 38.4 5.5
11 -13 6 56.29 10.5
11 -13 6 62.99 11.4
11 -13 6 40.1 6.7
13 -2 -6 66.69 15.8
-2 13 6 35.9 5.1
11 -13 -6 67.09 12.7
2 11 -6 32.7 5.3
-13 2 -6 39 8.8
13 -2 -6 41.8 5.5
-2 -11 -6 55.69 11.4
12 -13 6 38.9 11
1 -13 -6 39.6 9.5
1 12 6 36.5 6
-1 -12 6 27.4 10.7
1 -13 -6 43.6 11.5
-12 -1 -6 38.6 10
13 -1 6 55.99 12.9
-1 13 -6 36.5 6
13 -12 -6 45 12.5
-13 12 -6 25.3 4.9
12 -13 6 42 7.8
12 1 -6 42.1 6.6
13 -12 6 50.29 11.7
-13 1 -6 32.3 8.9
-1 13 6 49.6 6.6
1 -13 6 57.49 11.7
13 -12 6 42.8 7.7
-1 -12 -6 44.8 11.3
1 12 -6 43.9 6.4
12 -13 -6 51.19 12.8
13 -1 -6 42.2 6.4
12 1 6 53.59 12
0 -13 -6 145.79 17.8
-13 13 -6 150.98 10.9
13 -13 6 163.08 14.3
0 13 -6 150.08 12.1
0 -13 6 154.78 13.4
-13 0 -6 121.99 14.7
13 0 -6 170.08 12.6
0 13 6 165.68 12.4
13 -13 6 182.68 17.9
0 -13 6 163.98 17.7
13 -13 -6 175.58 19.6
13 0 6 186.78 18.6
14 -7 -6 501.15 30.2
7 7 6 456.95 30.2
14 -7 6 471.95 28.1
7 -14 6 459.65 27
-7 -7 -6 491.25 27.3
14 -7 6 441.46 27.2
7 -14 -6 514.05 27.7
7 -14 6 477.75 27.6
8 -14 6 48.9 10.9
14 -6 6 31.4 9.5
-8 -6 -6 49.8 10
14 -6 6 45.8 11.7
8 -14 6 47.3 11
-14 8 -6 30.8 5.6
14 -8 -6 50.09 11.9
6 -14 -6 49.1 9.7
6 -14 -6 9.6 5.9
8 6 -6 20.5 4.6
6 8 6 41.5 12.1
8 -14 -6 26.1 9.8
6 -14 6 20.7 10
14 -8 6 21.1 9.9
-6 -8 -6 9.7 6.5
8 -14 -6 8.5 6.9
-6 -8 -6 18.7 8.8
-14 6 -6 7.1 4.8
14 -8 6 15 9.6
14 -6 -6 18.7 11.7
6 -14 6 3.8 7.9
6 8 -6 16.5 4.6
8 6 6 37.2 12.9
9 -14 6 5.9 9.4
5 -14 -6 3.5 8.3
5 9 6 7.2 10.2
14 -9 -6 7.6 9.5
-9 -5 -6 -0.7 5.6
-5 14 -6 -3.3 4.2
9 5 -6 2.3 4
-9 -5 -6 6.4 8.3
9 -14 6 4.9 9.4
-5 -9 6 -2.1 8.7
14 -5 6 9.1 11
9 5 -6 -0.4 4.4
-14 9 -6 2.6 5.2
5 -14 -6 -5 5.2
14 -9 6 -4.9 7.8
5 9 -6 8.5 4.7
9 5 6 13.7 11.7
-14 9 6 9.3 4.6
9 -14 -6 -1.1 6.8
14 -5 -6 13.4 12.3
-5 -9 -6 10.3 8.6
-14 5 -6 -4.4 4.4
9 -14 -6 10.3 9
14 -5 -6 -0.1 4.1
-5 14 6 2.2 3.4
5 -14 6 8.3 9.6
-5 -9 -6 8.2 6.8
14 -9 6 0.1 9.8
-4 -10 6 98.49 13.1
14 -4 6 94.29 15.9
10 -14 6 89.59 14.2
-4 14 -6 72.89 8.2
10 4 -6 78.69 8.7
-14 10 -6 77.99 9.5
4 -14 -6 102.09 13.2
10 4 -6 60.49 8.5
-10 -4 -6 120.59 14.5
14 -10 -6 94.99 14.9
10 -14 6 102.79 15
14 -4 -6 141.39 21.1
-4 -10 -6 100.59 12.7
10 4 6 157.08 18.1
14 -10 6 160.28 15.8
-4 14 6 115.99 9.7
10 -14 -6 92.29 13.5
14 -4 -6 106.29 9.7
4 10 -6 134.39 10.4
-14 10 6 127.29 9.6
4 -14 6 146.39 15.4
-4 -10 -6 165.18 15.8
11 3 -6 -0.9 5.6
14 -11 -6 5.1 9.6
3 -14 -6 0.7 9.7
-3 14 -6 3.9 5.2
-14 11 -6 1.4 5.2
3 11 6 -0.1 5
11 -14 6 4.9 7.3
-11 -3 -6 8.7 8.9
-3 14 -6 -1.4 5.3
11 3 -6 4.9 4.7
-3 -11 6 1.9 10.2
14 -3 6 2.6 10.9
3 -14 -6 3 8.2
11 -14 6 1.7 9.2
11 -14 6 8.1 9.6
14 -3 -6 3.5 5
3 11 -6 5 5.2
14 -11 6 3.8 6.1
-3 -11 -6 1.3 7
-11 14 -6 0.9 4.1
11 -14 -6 -1.2 7.5
-3 -11 -6 9.6 9.5
-14 11 6 8.5 4.8
3 -14 6 2.5 9.4
14 -3 -6 2.9 13.4
11 -14 -6 5 9.9
-3 14 6 5.6 5.1
14 -11 6 4.2 10.1
-14 3 -6 -4.3 4.7
11 3 6 -4.6 10.8
-2 -12 6 -1.7 5.5
-2 -12 6 7.4 10.6
-2 14 -6 -2.8 3.8
2 -14 -6 3.5 8.1
2 12 6 11.2 6.2
12 -14 6 0.9 9.7
12 -14 6 3.5 7.5
12 2 -6 7 6
14 -12 -6 2.6 9.9
12 -14 6 2.6 10.4
-14 12 -6 -4 5.1
14 -2 6 5.7 11.5
-12 -2 -6 -7.3 8.6
2 -14 -6 8.2 10.1
-2 14 -6 1.7 5.5
-2 14 6 3.3 5.6
-14 2 -6 -5.5 4.9
-12 14 -6 6.2 4.3
2 -14 6 2.5 6.9
14 -2 -6 3.6 13.7
14 -12 6 6.8 10.3
14 -12 6 5.7 7.4
-2 -12 -6 -3.6 7.2
2 12 -6 3.3 5.4
-12 -2 6 -2 4.4
-14 12 6 2.3 5
12 2 6 7.9 11
2 -14 6 -1.9 9.8
-2 -12 -6 2.7 10
12 -14 -6 -4.5 7.5
12 -14 -6 10.7 10.6
14 -2 -6 10.2 5.7
1 -14 -6 57.39 11.8
-1 -13 6 43.8 7.9
1 13 6 66.69 7.8
14 -1 6 67.39 14
13 1 -6 51.09 7.3
-14 13 -6 67.89 7.4
-1 14 -6 60.49 7.4
13 -14 6 53.79 8.9
-13 14 6 46.7 6.2
-1 14 -6 39.9 5.8
-1 -13 6 61.99 12.4
13 -14 6 72.39 12.7
13 1 6 42.9 13
-13 14 -6 33.6 5.8
14 -13 6 38.3 11.5
-1 -13 -6 30 8.2
1 -14 6 33.9 8.2
-1 14 6 47.6 6.9
13 -14 -6 51.69 12.9
1 -14 6 28.4 11
1 13 -6 38.1 6.5
14 -1 -6 33.1 6.9
14 -13 6 35.7 8.4
-1 -13 -6 42.7 11.3
-14 13 6 36 6.2
-13 -1 6 29.1 5.5
-14 14 -6 22.1 6.2
0 -14 6 17 7.4
14 0 6 11.9 11.5
14 0 -6 14.7 6.5
14 -14 -6 13.3 10.5
0 -14 -6 11.2 7.4
14 -14 6 17.5 11.2
0 -14 6 14.3 10.9
-14 14 6 16.6 6
-14 0 -6 -4.3 5.2
0 14 6 11.5 6.1
14 -14 6 21.1 8.2
0 -14 -6 24 10.7
0 14 -6 20.2 6.3
14 -14 -6 -5 9.5
-14 0 6 11.5 4.9
-8 -7 -6 33.8 8
-8 -7 -6 39.4 10.1
15 -8 -6 39.6 11.6
15 -7 6 51.59 12
7 -15 -6 37 8.4
7 -15 -6 39.5 9.9
8 -15 6 41.2 10.7
8 -15 6 53.49 12.2
8 7 -6 45.1 6.4
-15 8 -6 44.1 7
-7 -8 -6 32.2 8
15 -8 6 34.9 11.3
7 -15 6 64.59 12.6
15 -8 6 46.7 11
8 -15 -6 41.5 8.7
15 -7 -6 56.19 13.6
8 -15 -6 46.3 10.2
-7 -8 -6 51.49 10.5
7 8 -6 57.99 6.9
8 7 6 43.6 12.3
-15 7 -6 43.4 6.9
15 -9 -6 168.98 18
9 6 -6 146.99 11
6 -15 -6 116.49 13
9 6 -6 118.79 11.1
-15 9 -6 135.89 12.1
-6 15 -6 125.59 10.6
9 -15 6 158.18 16
9 -15 6 153.48 16.8
15 -6 6 163.68 18
-9 -6 -6 167.68 15.7
6 -15 -6 173.58 16.1
-9 -6 -6 133.59 12.8
15 -6 -6 196.98 20.8
15 -6 -6 143.49 11.1
9 -15 -6 191.78 17.1
-6 -9 -6 178.48 16.6
9 6 6 172.78 19.6
-6 15 6 144.39 10.5
6 9 -6 157.78 12.2
-6 -9 -6 144.39 14.4
-15 6 -6 156.28 12.6
6 -15 6 190.38 17.7
15 -9 6 110.59 15.2
-15 9 6 151.88 11.8
15 -9 6 158.98 17.3
9 -15 -6 138.69 14.9
10 -15 6 4.3 10
10 -15 6 2.7 6.6
10 -15 6 7.5 10.2
-15 10 -6 -0.4 5.7
-5 15 -6 -0.8 5.5
15 -5 6 0.2 10.6
15 -10 -6 5.1 9.6
-5 -10 6 -11.6 8.5
-10 15 6 6.5 4.3
5 -15 -6 -1.4 8.5
10 5 -6 0.9 5
-10 -5 -6 -1.3 6
-10 -5 -6 7.5 8.8
5 -15 -6 -3.2 6
10 5 -6 -0.1 5.7
5 10 6 -2.2 4.9
-5 15 -6 -1.2 4.2
15 -10 6 2.6 6.2
15 -10 6 3.9 10.3
-5 -10 -6 0 7.6
10 -15 -6 10.9 9.7
10 -15 -6 5.6 8.1
-10 15 -6 2.6 3.8
-5 15 6 6.4 5
15 -5 -6 3.4 5.2
-5 -10 -6 16.5 9.4
5 -15 6 7.6 10.3
15 -5 -6 6.8 12.4
5 10 -6 6.9 5.6
10 5 6 2.2 11.6
-15 10 6 4.1 5.3
-15 5 -6 0.5 5.9
-4 15 -6 -2 3.9
-15 11 -6 5.2 5.9
4 11 6 6.5 6.1
-11 -4 -6 2 5.5
11 4 -6 11.7 5.5
15 -11 -6 12 10.2
11 -15 6 9.5 7.7
4 -15 -6 1.8 5.6
11 -15 6 8.6 10.5
11 4 -6 9.2 6.1
11 -15 6 -2.6 9.4
-4 -11 6 2.2 9.8
4 -15 -6 7.4 8.7
-11 -4 -6 14.1 9.4
-4 15 -6 4.8 5.6
15 -4 6 0.4 10.5
11 -15 -6 -5.2 8.2
-15 4 -6 -3.6 5.9
11 4 6 4.1 11.6
11 -15 -6 12.9 9.7
4 11 -6 -4.2 5.3
15 -11 6 4.6 6.8
-4 -11 -6 1.2 9.1
-15 11 6 -1.8 5.2
-11 15 -6 4.9 4.1
-4 15 6 2.4 5.3
15 -4 -6 0.3 5.4
15 -4 -6 15 13.8
4 -15 6 2.8 10.1
-4 -11 -6 -3 7.6
15 -11 6 4.5 11
-3 -12 6 15.8 6.1
-12 -3 -6 26.7 9.9
15 -12 -6 16.6 10.5
3 12 6 18.9 6.6
12 -15 6 11.1 10.4
15 -3 6 21 12.1
12 3 -6 20.5 6.5
-3 -12 6 23.1 10.7
3 -15 -6 -0.4 6.5
12 -15 6 28.7 8.4
-3 15 -6 19.4 6.2
-15 12 -6 22.2 6.1
-3 15 -6 7.2 4.3
3 -15 -6 20.9 8.8
-12 -3 -6 2.4 6.5
3 12 -6 48.8 6.9
15 -12 6 30.4 11.5
3 -15 6 41 11.8
-15 12 6 42.3 6.4
15 -3 -6 45.9 7.1
12 3 6 60.19 13.7
-3 -12 -6 33.2 10.7
12 -15 -6 38.3 9.6
15 -12 6 43.3 8.8
15 -3 -6 26.8 13.7
-3 15 6 43.3 6.6
-12 15 -6 36.8 5.6
-12 -3 6 42.2 6.2
-15 3 -6 44.4 7.1
3 -15 6 37.4 8.1
-3 -12 -6 33.6 8.7
12 -15 -6 48.3 11.7
-15 13 -6 36.8 6.6
15 -2 6 61.89 13.7
13 -15 6 44.2 8.7
-13 15 6 40.5 6.4
13 2 -6 48.2 7.3
2 13 6 44.7 7.2
-2 -13 6 52.09 8.4
-2 15 -6 45.4 6.8
-2 -13 6 46.8 11.9
13 -15 6 36.8 11.7
-2 15 -6 36.7 5.9
2 13 -6 41.4 6.8
-13 15 -6 40.1 6.1
-2 -13 -6 57.69 12.1
-13 -2 6 45.4 6.6
15 -13 6 51.59 9.2
2 -15 6 48.3 8.4
13 -15 -6 50.19 10
-2 -13 -6 38.4 8.9
15 -13 6 40.8 11.8
15 -2 -6 35.1 6.7
13 -15 -6 37.5 11.5
-2 15 6 45.8 6.9
13 2 6 41.3 12.8
2 -15 6 55.09 12.5
-15 2 -6 44.1 7.2
-15 13 6 49.5 6.7
1 14 6 23.2 6.6
-1 -14 6 26.9 11.2
14 -15 6 25.7 8.4
-15 1 6 7.4 4.7
-1 -14 6 17.9 7.5
15 -1 6 4.2 11.3
-1 15 -6 24.4 6.4
-14 15 6 15.9 6.3
1 -15 -6 8.2 6.9
-15 14 -6 18.6 6.5
14 -15 6 9.3 10.7
1 -15 -6 16.7 9.6
14 1 -6 17.5 6.5
15 -1 -6 14.5 6.1
-1 -14 -6 29.3 10.8
1 -15 6 19.8 7.4
-1 15 6 17.3 6.3
-1 -14 -6 20.7 8
-15 1 -6 22.8 6.4
1 -15 6 21 11.2
-14 15 -6 21.8 6.1
15 -14 6 28.1 8.5
-15 14 6 20 6.2
-14 -1 6 18 5.9
15 -14 6 23.5 11.5
14 1 6 22.2 11.8
1 14 -6 19.4 6.2
14 -15 -6 28.8 9.3
14 -15 -6 16.8 10.7
-15 15 6 65.79 7.6
0 15 -6 57.09 7.3
15 0 -6 59.49 8
-15 0 -6 37 6.4
0 15 6 52.19 7.2
15 -15 -6 31 8.8
-15 0 6 44.7 6.6
15 0 6 39.5 13.1
0 -15 6 62.59 8.6
0 -15 6 39.9 11.2
0 -15 -6 58.49 9.2
15 -15 6 36.6 11.8
-15 15 -6 39.2 6.7
15 -15 6 66.69 9.6
0 -15 -6 33.6 10.5
-8 16 -6 73.69 10.1
8 -16 6 101.09 14.2
8 -16 -6 106.69 11
16 -8 -6 99.79 18.1
-16 8 -6 82.09 10.2
-16 8 6 75.19 9.8
8 8 -6 90.59 10.3
8 -16 -6 67.29 11.5
-8 -8 -6 93.19 10.1
8 8 -6 74.99 10.5
16 -8 -6 77.49 8.9
-8 -8 -6 97.49 14.8
-8 16 6 86.09 9.2
16 -8 6 83.39 15
16 -7 6 117.29 16.4
-9 16 6 98.99 9.2
9 7 -6 105.19 12.1
-9 -7 -6 137.79 15.9
7 9 6 92.49 9.8
-9 -7 -6 110.29 13.2
-16 9 -6 107.09 10.9
9 -16 6 88.99 14.7
7 -16 -6 127.19 15.6
-7 16 -6 114.79 11.4
16 -9 -6 122.69 17.8
7 -16 -6 99.59 12.7
9 7 -6 115.59 10.7
9 -16 6 111.89 16.2
7 9 -6 98.09 10.7
-7 -9 -6 82.69 12.8
16 -7 -6 109.29 19.3
-7 -9 -6 103.69 14.9
-7 16 6 97.19 10.2
9 -16 -6 84.99 10.3
-9 16 -6 95.19 10.7
-16 7 -6 78.49 11
7 -16 6 98.19 16.1
9 -16 -6 121.09 15.1
16 -7 -6 111.09 10.5
-16 9 6 92.29 10.5
-10 -6 -6 -2.1 8.9
-16 10 -6 1.4 5.9
16 -6 6 4.3 11.2
10 6 -6 4.9 5.3
6 10 6 4.1 6
-10 16 6 5.7 4.5
6 -16 -6 -1 7
10 6 -6 0.2 6.2
10 -16 6 4.4 9.5
-10 -6 -6 -2 6.8
-6 16 -6 5.4 5.9
-6 16 -6 -1.7 3.8
10 -16 6 7.1 7.4
6 -16 -6 3.1 8.7
10 -16 6 0.9 9.9
16 -10 -6 6.1 10.6
10 -16 -6 5 9.3
16 -10 6 0.9 6.1
10 6 6 -4.3 10.4
-6 16 6 8.7 5.3
-10 16 -6 -0.3 4
-16 10 6 9.6 5.6
-10 16 -6 0.2 5.4
10 -16 -6 2.5 7.9
-16 6 -6 8.6 6.3
16 -6 -6 7.2 6
16 -6 -6 9.6 12.6
-6 -10 -6 4.6 9.2
6 -16 6 8.8 10.6
16 -10 6 -0.2 10
-6 -10 -6 5.8 7.9
6 10 -6 0.2 5.5
-11 -5 -6 0.3 8.8
11 -16 6 6.4 10.5
-11 16 6 4.2 4
-16 11 -6 2.1 5.9
5 11 6 2.1 6.1
-5 16 -6 -2.1 3.9
16 -5 6 7.9 11.5
-5 16 -6 5.4 5.9
11 5 -6 5.1 5.2
-11 -5 -6 5.5 6.9
11 -16 6 0.4 14.1
11 -16 6 12.8 8.1
11 5 -6 2.8 6.2
16 -11 -6 2.1 10.1
5 -16 -6 3 7.1
5 -16 -6 4.8 9
-5 -11 6 -7.4 8.9
16 -11 6 15.2 7.2
-16 11 6 5.7 5.4
11 5 6 7.8 11.1
-11 16 -6 -3.9 5.1
5 -16 6 3.4 10.6
11 -16 -6 1 8.2
11 -16 -6 8.9 9.9
-5 16 6 11 5.6
-11 16 -6 9.6 4.2
16 -5 -6 15.1 13.5
5 -16 6 9.3 7.3
16 -11 6 9.1 11
-16 5 -6 4.2 6.3
16 -5 -6 8.3 6.1
-5 -11 -6 7.2 7.9
-5 -11 -6 0.7 9.2
5 11 -6 1.1 5.6
4 -16 -6 119.79 11.8
-4 -12 6 96.99 11.2
-4 16 -6 93.49 9.1
4 -16 -6 127.99 14.9
12 -16 6 130.89 16.7
-12 -4 -6 121.79 15
-12 -4 -6 129.09 11.7
12 4 -6 130.99 12.2
16 -12 -6 114.19 16.9
-4 -12 6 111.89 14.5
12 -16 6 130.49 13.7
-16 12 -6 133.19 11.7
16 -4 6 129.89 18.3
4 12 6 129.29 12.1
-4 16 -6 129.29 11.7
16 -4 -6 155.68 22.3
-12 16 -6 172.08 11.6
-4 16 6 156.08 12.3
-4 -12 -6 158.58 14.8
-16 12 6 162.48 12.2
4 12 -6 163.58 12.6
-16 4 -6 153.08 13
-12 -4 6 152.48 11.8
16 -12 6 158.98 18.4
16 -4 -6 167.18 12.9
16 -12 6 156.38 15.2
4 -16 6 155.78 18.2
12 -16 -6 175.58 16.4
12 4 6 165.58 18.7
4 -16 6 156.98 14.1
-4 -12 -6 169.88 17.6
13 3 -6 42.3 8
-3 16 -6 52.29 6.4
-16 13 -6 56.39 7.3
-3 -13 6 40 10.8
13 -16 6 57.79 9.3
13 -16 6 41 11.4
16 -3 6 58.39 13.8
-13 16 6 57.09 7.1
-3 -13 6 61.39 8.6
13 3 -6 49.9 7.6
3 13 6 76.49 8.5
-3 16 -6 50.69 7.2
16 -3 -6 42.8 7.1
13 -16 -6 40.3 11.3
3 -16 6 73.99 9.3
-3 16 6 57.59 7.3
13 -16 -6 71.09 10.5
3 13 -6 62.19 7.4
13 3 6 48.8 13.5
16 -13 6 38.2 12
-13 -3 6 48.6 6.8
-3 -13 -6 50.89 8.9
-16 3 -6 62.29 7.9
16 -13 6 69.09 9.6
-13 16 -6 40.9 6.5
-3 -13 -6 42.2 11
-16 13 6 57.49 7
3 -16 6 41.2 12
14 -16 6 20.9 8.3
-2 16 -6 18 6.2
-14 16 6 16.5 6.3
-16 14 -6 17.3 6.1
-16 2 6 3.3 4.6
14 -16 6 12.7 11
-2 -14 6 17.3 7.5
14 2 -6 6.4 5.3
16 -2 6 15.7 12
-2 -14 6 11.1 9.9
14 2 -6 12.9 6.3
2 14 6 19.8 6.6
-2 -14 -6 26.7 10.6
14 -16 -6 29.7 9.5
2 14 -6 20.4 6.2
2 -16 6 28.2 7.6
16 -14 6 29.6 8.7
16 -14 6 17.6 11.5
2 -16 6 19.5 11.2
-2 16 6 28.3 6.5
-14 -2 6 25.4 6.2
14 -16 -6 21.5 10.5
-16 2 -6 34.5 7
16 -2 -6 21.2 6.4
-14 16 -6 28.5 6.2
14 2 6 20.3 12.1
-16 14 6 26.1 6.2
-2 -14 -6 36.7 8.6
1 15 6 56.19 7.7
-1 16 -6 66.69 7.7
-1 -15 6 67.59 8.8
15 -16 6 42.3 11.6
15 -16 6 69.29 9.4
-16 15 -6 63.79 7.4
15 1 -6 70.69 8.2
1 -16 -6 82.59 12.2
-1 -15 6 43.2 10.9
-16 1 6 48.7 6.8
-15 16 6 62.09 7.5
16 -1 6 35.8 12
-1 -15 -6 74.39 9.5
1 -16 6 62.79 8.5
15 -16 -6 65.09 10.5
-16 15 6 48.5 7.1
-15 -1 6 58.59 7.2
16 -1 -6 48.3 7.2
-16 1 -6 50.79 7.4
16 -15 6 51.29 9.1
1 15 -6 64.89 7.5
-1 -15 -6 27.3 10
1 -16 6 54.29 12.1
15 1 6 38.1 12.3
16 -15 6 33.4 11.7
-1 16 6 56.39 7.3
-15 16 -6 59.49 7.3
-16 0 6 11.9 5.9
-16 16 6 17.1 6.1
16 0 -6 10.7 6
16 -16 6 28.8 8.3
16 -16 6 6.6 10.1
0 16 -6 15.8 5.8
0 -16 6 23.2 7.4
0 16 6 14.3 6.2
16 -16 -6 19.9 8.2
0 -16 -6 27.8 7.8
-16 16 -6 15.8 5.9
-16 0 -6 28.2 6.5
16 0 6 -1.6 9.9
0 -16 6 3.2 9.2
-8 17 -6 5.8 6.1
8 -17 -6 -2.5 7.2
17 -9 -6 2.9 4.8
9 8 -6 1.9 5.3
8 9 6 -3.2 5.6
-8 17 -6 -0.9 3.9
-9 -8 -6 -2 9.3
-17 8 6 4.5 5.7
8 -17 -6 1.3 8.8
9 -17 6 4.6 10.2
9 8 -6 5.1 7
-17 9 -6 2 6.1
-9 17 6 3.9 5.3
17 -9 -6 8.9 11
-9 -8 -6 3.1 7.4
9 -17 6 -7.8 5.7
17 -8 6 -2.9 10.1
17 -9 6 -8.7 8.9
-9 17 -6 -1.8 3.9
9 -17 -6 10.8 9.3
-9 17 -6 -2.1 6
-8 -9 -6 5.9 9.5
9 -17 -6 -0.6 7.5
8 9 -6 4.3 7
-8 17 6 2.9 5.5
-8 -9 -6 -6.9 7.1
8 -17 6 1.3 10.7
8 9 -6 3.4 5.3
17 -8 -6 2.6 11.6
-17 8 -6 0.6 6
17 -8 -6 -0.6 5.2
9 8 6 -7.7 4.4
-17 9 6 3.2 5.7
7 -17 -6 7.9 8.9
-7 17 -6 -3.2 3.9
-10 -7 -6 -1.3 6.9
10 -17 6 -9.2 9.1
10 7 -6 3.3 5.3
17 -10 -6 -3.3 10.5
-10 17 6 7.1 4.8
17 -7 6 0.5 11
-10 -7 -6 2.2 9.5
10 7 -6 3.1 6.5
7 10 6 3.7 6.5
7 -17 -6 -7.5 6.9
10 -17 6 0.5 9.3
10 -17 6 3.9 7.5
-17 10 -6 5.3 6.2
-7 17 -6 0.1 5.9
10 -17 -6 10.5 7.7
7 10 -6 5.8 5.5
-10 17 -6 6 6.5
10 -17 -6 7.1 9.5
-7 -10 -6 9.3 9.5
7 -17 6 4.3 7.2
-10 17 -6 0.4 4.1
7 -17 6 0.8 10.9
-7 17 6 7.1 5.6
7 10 -6 8.8 6.3
-17 7 -6 -0.8 6
17 -7 -6 0.4 12
17 -7 -6 7.5 6
-7 -10 -6 2.9 7.3
-17 10 6 4.1 5.5
11 6 -6 90.79 9.1
11 6 -6 81.79 9.7
11 -17 6 86.79 9.9
-11 17 6 58.59 7.9
11 -17 6 49.2 11.5
6 -17 -6 74.79 9.4
17 -6 6 56.29 12.9
6 11 6 77.99 11.1
6 -17 -6 59.99 11.2
-11 -6 -6 82.19 12.4
-6 17 -6 81.89 10.5
-17 11 -6 73.99 10.2
17 -11 -6 60.19 13
-11 -6 -6 66.99 11.5
6 -17 6 94.49 14.2
-11 17 -6 64.69 8.8
11 -17 -6 90.29 10.6
-6 -11 -6 94.49 15.2
-17 6 -6 81.69 10.9
17 -6 -6 80.59 15.7
6 -17 6 73.49 9.4
-6 -11 -6 84.49 13.1
6 11 -6 84.39 10.5
-6 17 6 87.79 10.4
-17 11 6 90.89 9.9
-11 -6 6 77.19 9.7
-11 17 -6 82.89 11
17 -6 -6 79.19 11.3
11 -17 -6 60.09 11.4
17 -5 6 50.89 12.9
5 12 6 54.69 7.6
5 -17 -6 46.1 8.2
-5 17 -6 56.29 7.2
12 -17 6 58.49 9
12 5 -6 53.29 7.7
17 -12 -6 33.6 11.7
-12 -5 -6 50.69 8.5
-17 12 -6 51.89 7.2
12 -17 6 41.2 11.7
-5 17 6 63.59 7.4
12 -17 -6 58.59 12
-5 -12 -6 42 10.8
-12 17 -6 54.19 7.2
-17 5 -6 61.69 7.7
17 -5 -6 53.19 7.4
5 -17 6 59.19 12.5
5 12 -6 57.79 7.4
-5 -12 -6 58.89 9.2
-17 12 6 69.39 7.3
17 -5 -6 31.4 13.1
17 -12 6 66.19 9.5
5 -17 6 51.09 8.8
12 -17 -6 49.6 9.5
-12 -5 6 52.69 6.7
-12 17 -6 41 5.9
4 13 6 31.1 7.1
-4 -13 6 38.4 7.9
4 -17 -6 22.6 7
13 4 -6 37.2 7.2
17 -4 6 18.4 11.7
-13 -4 -6 26.8 6.8
13 -17 6 17.7 10.7
-17 13 -6 21.6 6.1
-4 17 -6 20.3 5
13 -17 6 36.2 8.5
-13 17 6 35.6 6.8
-4 17 -6 29.4 6.6
-4 -13 -6 23.7 10
-17 13 6 18.4 5.9
-13 17 -6 1.2 5.6
-17 4 -6 18.3 6.6
13 -17 -6 16.6 8.7
-4 -13 -6 25.5 8.2
13 4 6 -3.7 11.8
17 -13 6 -6.8 9.8
4 -17 6 16.3 11.1
4 -17 6 19.4 7.5
17 -13 6 20.4 8.3
-13 17 -6 14 5
-4 17 6 21.2 6.1
13 -17 -6 24.3 10.6
-13 -4 6 18 5.8
17 -4 -6 17 6.3
4 13 -6 20.7 6
3 14 6 32.2 6.9
-17 14 -6 20.3 6.3
-3 17 -6 33 6.6
14 -17 6 24.9 8.1
-14 17 6 30.7 6.7
14 -17 6 21.7 10.8
-3 -14 6 31 7.6
17 -3 6 27.6 11.9
14 3 -6 21.7 7.3
14 3 -6 26.2 6.8
14 -17 -6 47.3 9.5
-17 14 6 40.3 6.7
-17 3 -6 39.5 7.2
-14 -3 6 46.9 6.7
17 -14 6 49.5 9.1
3 -17 6 34.8 7.8
-14 17 -6 40.1 6.6
-3 17 6 45.6 7
-3 -14 -6 45.4 9
3 14 -6 48.4 7.1
3 -17 6 30.5 11.2
17 -3 -6 35.7 6.7
14 -17 -6 18.7 10
-3 -14 -6 31.2 10.3
17 -2 6 13.4 10.8
15 -17 6 23.7 10.9
15 -17 6 60.29 9.2
-17 15 -6 58.99 7.3
2 -17 -6 39.1 7.4
-2 17 -6 56.59 7.1
-15 17 6 53.49 7.2
-17 2 6 31.8 6.4
-15 17 -6 41.7 6.9
15 -17 -6 65.79 9.9
2 15 -6 52.39 7.2
2 -17 6 61.69 8.7
-15 -2 6 49.4 6.8
-17 15 6 51.89 7.1
-2 17 6 58.39 7.4
17 -2 -6 49 7.2
-17 2 -6 53.49 7.4
2 -17 6 32.9 10.8
17 -15 6 44 8.7
-2 -15 -6 57.59 9.3
16 -17 6 26.2 8.3
-17 16 -6 21.8 6.1
1 -17 -6 38.7 8
-16 -1 -6 33.8 6.1
-17 1 6 23.8 6.3
-16 17 6 30.8 6.5
-1 17 -6 28.8 6
-1 -16 6 38.1 7.6
1 16 6 33.2 6.8
16 1 -6 27.4 6.4
-1 -16 6 -5.9 13.1
1 16 -6 36.6 6.4
1 -17 6 64.79 8.3
-1 -16 -6 54.79 8.8
-17 1 -6 47.3 7.1
-17 16 6 43.7 6.7
-16 17 -6 33.6 6.5
16 -17 -6 41.6 9.1
-1 17 6 44.3 7
-16 -1 6 39.1 6.4
17 -16 6 52.69 9
17 -1 -6 38.2 6.9
-17 17 -6 12.2 5.9
-17 0 -6 22.3 6.3
17 -17 6 19.1 7.9
17 -17 -6 17.8 7.6
-17 0 6 11.5 5.9
0 17 -6 14 5.4
0 -17 6 19.1 7.1
0 -17 -6 26.1 7.8
0 17 6 10.1 6
17 0 -6 7.2 5.9
-17 17 6 12 5.8
9 -18 -6 17 9.5
18 -9 -6 0.2 10.7
9 9 -6 0.5 5.2
-9 18 6 6.1 5.4
9 9 -6 8.4 6.9
-18 9 6 4.9 5.5
-9 18 -6 4.5 6
9 -18 6 4.6 7.4
9 9 6 4.4 5.9
-9 -9 -6 5.9 9
9 -18 6 -7.8 5.3
-18 9 -6 1.4 6.1
-9 18 -6 -1.5 3.8
9 -18 -6 8.9 7.2
-9 -9 -6 6.3 7.2
18 -9 -6 5.7 5.1
10 -18 6 11.1 7.3
-18 10 -6 16.4 6.2
-10 18 6 19.7 5.6
-18 8 6 14.8 6
8 -18 -6 18 9.2
18 -8 6 -4.5 9.4
8 -18 -6 14.7 7.2
-10 -8 -6 10.7 7.3
8 10 6 12.9 6.5
18 -10 -6 10.4 10.7
10 -18 6 20.5 7
-10 -8 -6 9.8 8.9
10 8 -6 18.2 7
10 8 -6 18.4 5.7
-8 18 -6 21.5 6.5
8 -18 6 25.5 7.8
8 10 -6 22.5 7.8
18 -8 -6 20.1 6
-8 -10 -6 23.5 7.8
-8 -10 -6 14.7 9.6
-8 18 6 22.9 6
8 10 -6 23.1 5.8
10 -18 -6 15.1 7.7
8 -18 6 4.1 9.7
-10 18 -6 20.7 6.5
18 -8 -6 4.3 11.4
-18 10 6 21.1 5.8
10 -18 -6 11.3 9.4
-18 8 -6 23.7 6.7
-11 18 6 98.09 9.7
7 -18 -6 101.79 12.5
7 11 6 91.49 11.4
11 -18 6 96.89 12.8
11 7 -6 94.19 11.5
-7 18 -6 96.29 11
-18 7 6 106.59 10.5
11 7 -6 96.19 10.1
18 -11 -6 63.79 13.1
-18 11 -6 109.89 10.8
-11 -7 -6 99.99 12.8
11 -18 -6 115.59 13.8
-7 18 6 104.29 10.9
-18 11 6 94.49 10.5
-7 -11 -6 102.29 12.8
7 11 -6 112.09 10.7
7 11 -6 122.49 12.3
18 -7 -6 100.39 11.1
7 -18 6 108.49 13.2
-11 -7 6 104.59 10.4
11 -18 -6 112.39 15.4
-18 7 -6 106.49 11.1
-7 -11 -6 116.39 15.8
-11 18 -6 106.59 11.5
18 -12 -6 6 10.4
6 12 6 17.8 6.9
-12 -6 -6 11 7.3
-12 18 6 -3.8 4.6
12 -18 6 -6.5 8.3
18 -6 6 6.6 10.5
-12 18 6 1.1 4.1
6 -18 -6 8.8 7
-18 12 -6 8.8 5.9
12 -18 6 17.3 7.9
-6 18 -6 -4.1 3.7
-6 18 -6 12.9 6
12 6 -6 9.6 6.5
18 -12 6 25.3 7.8
18 -6 -6 1.9 11.8
18 -6 -6 30.5 6.7
-12 -6 6 30.8 6.3
-12 18 -6 26.8 7
12 -18 -6 19.1 9.8
-18 6 -6 31.3 6.6
12 -18 -6 21 8.2
-6 18 6 25.3 6.1
6 -18 6 6.2 9.9
-6 -12 -6 19.6 10.1
-18 12 6 26.5 6.1
6 12 -6 9.5 6.1
-6 -12 -6 16.6 7.8
6 12 -6 21.9 6
6 -18 6 19.3 7.4
5 -18 -6 26.3 7.7
-13 18 6 17.8 6.2
18 -5 6 6.6 10.5
-5 -13 6 22.6 7.4
18 -13 -6 10.6 9.7
-18 13 -6 29.9 6.4
-13 -5 -6 24.4 7.5
5 13 6 31.9 7.1
13 5 -6 31.3 7
13 -18 6 35.7 8.2
-5 18 -6 25.8 6.2
-13 18 -6 29.2 5.2
-18 13 6 51.09 6.7
-5 18 6 47.6 6.9
18 -5 -6 46.8 7.4
-5 -13 -6 40.9 8.9
-13 18 -6 43.3 7
18 -13 6 52.09 9.2
5 13 -6 46 7
-18 5 -6 41.7 7.1
13 -18 -6 52.39 9.1
5 -18 6 30 10.8
-13 -5 6 56.39 6.7
-5 -13 -6 33.5 10.4
13 -18 -6 27.1 9.9
5 -18 6 39 8
14 4 -6 62.49 9.2
-4 -14 6 80.39 9.1
-14 18 6 67.59 7.8
-4 18 -6 69.39 7.6
14 -18 6 67.49 9.2
4 14 6 76.39 10.7
-18 14 -6 82.19 8
14 4 -6 72.79 10.5
18 -4 -6 75.29 8.3
4 -18 6 82.19 11.4
-14 -4 6 68.59 9.5
-14 18 -6 63.09 8.4
-18 14 6 75.29 7.6
4 14 -6 73.99 9.8
-14 18 -6 54.09 6.9
-4 18 6 79.99 10.3
18 -14 6 70.69 9.5
-4 -14 -6 84.99 12.4
14 -18 -6 81.29 10
-18 4 -6 60.49 7.7
-18 15 -6 29.6 6.6
15 -18 6 -4.1 8.7
15 -18 6 29.4 8.1
-3 18 -6 25.8 6.1
15 3 -6 21.6 6.2
-15 18 6 27.6 6.6
15 3 -6 16.1 5.6
-3 -15 6 26.1 7.5
3 15 6 32.1 6.6
-18 3 6 15 5
-3 -15 -6 55.89 8.9
-18 15 6 53.19 6.7
15 -18 -6 52.79 9.1
-3 18 6 45.7 6.8
-15 18 -6 36.4 5.7
18 -15 6 44.9 8.8
-18 3 -6 44.6 7.1
-15 -3 6 49.9 6.5
3 -18 6 53.29 8.2
3 15 -6 44.3 6.5
18 -3 -6 52.49 7.2
-18 2 6 13.8 5.9
16 -18 6 21.3 7.6
-2 18 -6 11.1 5.5
2 -18 -6 18.1 6.8
-18 16 -6 8.6 5.6
-2 -16 6 17.8 7
16 2 -6 16.4 5.8
-16 18 6 12.5 6.1
2 16 6 13.2 6
-16 -2 -6 -1.6 4.6
16 -18 -6 23.7 8.1
18 -2 -6 10.1 5.9
2 16 -6 11.1 5.5
2 -18 6 18.2 6.9
-2 -16 -6 21.3 7.6
-16 -2 6 12.9 5.6
-2 18 6 13.7 5.8
-18 16 6 11.1 5.6
-18 2 -6 17.2 6.3
18 -16 6 15.8 7.8
-16 18 -6 10.1 4.8
17 -18 6 63.69 8.7
-1 18 -6 64.69 9.1
-17 18 6 66.59 7.4
-18 17 -6 61.69 7
-1 -17 6 66.89 10.3
1 17 6 75.09 7.7
-18 1 6 66.79 7.3
17 1 -6 58.69 7.2
-17 -1 -6 79.29 8.6
-1 -17 -6 106.49 11.7
-17 -1 6 65.29 9.1
18 -1 -6 66.19 9.4
-1 18 6 61.19 9.4
-18 1 -6 81.39 9.3
1 17 -6 74.39 9.3
18 -17 6 83.89 12
-17 18 -6 63.69 8.5
17 -18 -6 96.49 12.3
-18 17 6 65.59 9.4
1 -18 6 74.09 10.6
-18 0 6 245.08 13.8
18 0 -6 231.28 14.1
-18 18 6 240.08 13.9
0 18 6 224.58 13.9
0 -18 -6 255.77 15.3
-18 0 -6 235.98 13.8
0 18 -6 233.68 13.8
18 -18 6 229.88 15.4
-18 18 -6 209.78 12.9
0 -18 6 227.28 14.6
-19 9 6 19.4 5.8
9 10 6 14.5 6.2
-10 19 6 21.1 5.6
10 9 -6 9.1 5.4
10 -19 6 4.8 6.5
10 9 -6 20.2 6.8
-19 10 -6 21.5 6.2
9 -19 -6 17.5 7.3
19 -10 -6 1.3 9.9
10 -19 6 18.5 7.3
-9 19 -6 17.8 6.2
9 -19 -6 1.5 8.4
-10 -9 -6 15.4 7.2
-9 19 6 23.5 5.9
-9 -10 -6 19.2 7.4
10 -19 -6 2.8 8
-10 -9 6 21.1 5.8
10 -19 -6 21.5 7.6
19 -9 -6 0.5 9.9
10 9 6 6.5 5.6
9 10 -6 18.1 5.9
9 -19 6 20.6 7.7
9 10 -6 27.2 7.4
-9 -10 -6 1.4 8.7
-19 9 -6 20 6.1
-10 19 -6 14.4 6
-19 10 6 26.8 5.9
8 -19 -6 9.3 7.2
-11 19 6 5.3 4.3
11 -19 6 11.1 5.9
11 8 -6 10.6 6.6
11 8 -6 8.7 5.1
11 -19 6 6.7 7.7
-19 11 -6 10.1 6.2
19 -11 -6 4.3 9.5
8 11 6 10.1 6.2
-8 19 -6 8.5 5.8
-19 8 6 10.8 5.7
-11 -8 -6 7.8 7.1
-11 19 -6 -2.2 5.9
19 -8 -6 12.7 5.6
-11 -8 6 8.1 5.6
8 11 -6 12.5 5.4
-19 11 6 14.4 5.7
-11 19 -6 18.5 6.2
19 -8 -6 0.3 11.7
-8 -11 -6 2.4 8.2
11 -19 -6 -1.4 8.1
8 11 -6 17 7
8 -19 6 16.3 7.5
-8 19 6 15.8 5.7
-8 -11 -6 15.6 7.3
11 -19 -6 10.4 7.5
-19 8 -6 12.8 6.1
7 12 6 76.89 8.4
-7 19 -6 59.69 7.4
-19 7 6 71.99 10
12 -19 6 76.09 9.6
-12 -7 -6 71.49 9.2
-19 12 -6 73.79 10
7 -19 -6 63.59 8.8
12 7 -6 76.09 8.5
-19 7 -6 79.99 8.1
7 12 -6 90.89 11.1
-7 19 6 70.69 9.8
-12 -7 6 70.69 7.4
-19 12 6 67.69 9.6
7 -19 6 84.99 9.2
-7 -12 -6 69.19 8.9
19 -7 -6 63.69 7.5
7 12 -6 71.29 7.6
12 -19 -6 70.19 9.5
-12 19 -6 83.49 10.7
6 -19 -6 80.69 11.8
-6 19 -6 92.79 10.3
13 6 -6 85.69 12.1
13 6 -6 90.69 10.6
-19 6 6 96.89 10.2
-13 19 6 93.99 9.6
6 13 6 100.09 10.9
-13 -6 -6 88.29 11.8
13 -19 6 91.89 12.6
-19 13 -6 93.29 10.1
6 13 -6 100.39 10.4
6 -19 6 110.69 11.4
-6 19 6 111.09 10.7
-13 -6 6 108.19 10.2
13 -19 -6 105.19 13
19 -13 6 91.59 11.7
-13 19 -6 116.99 11
-19 13 6 96.69 10.1
-19 6 -6 99.59 10.7
-6 -13 -6 103.79 12.1
19 -6 -6 110.99 11.2
5 -19 -6 7.5 6.3
-19 14 -6 3 5.5
-5 -14 6 8.6 7.1
-5 19 -6 5.9 5.3
14 5 -6 3.4 7.1
14 5 -6 10.4 5.8
-14 -5 -6 9.3 5.6
5 14 6 8.9 6.3
-19 5 6 10.8 5.4
14 -19 6 12.5 7.7
-14 19 6 4.3 5.7
19 -14 6 9.7 7.5
-5 19 6 8.2 5.6
-14 19 -6 10.6 6
5 14 -6 4.4 5.4
-14 19 -6 1.1 4
14 -19 -6 19.1 7.8
-14 -5 6 6.4 5.4
-5 -14 -6 9.2 6.9
-19 14 6 8 5.3
-19 5 -6 2.9 5.4
5 -19 6 14.8 6.9
19 -5 -6 1 6
4 15 6 66.69 7.8
15 4 -6 46.1 6.8
15 -19 6 55.39 8.7
-19 15 -6 60.29 7.2
15 4 -6 39 6.9
-4 19 -6 67.89 7.1
-4 -15 6 45.3 8
-15 19 6 50.19 7
-4 19 6 85.99 9.6
15 -19 -6 107.09 12.7
4 15 -6 76.79 9.3
19 -4 -6 86.69 10.4
-4 -15 -6 77.99 11.8
-15 -4 6 83.09 9.4
19 -15 6 78.79 12
-19 4 -6 88.89 10.1
-19 15 6 78.49 9.6
4 -19 6 96.19 10.9
16 3 -6 3.8 5.3
-3 -16 6 2.3 6.5
-3 19 -6 1.1 4.6
16 -19 6 6 7.1
-19 16 -6 3.9 5.3
-16 19 6 -1.6 5.6
3 16 6 1.7 5.5
-19 3 6 -11.6 4.4
-19 3 -6 3.1 5.3
3 -19 6 11.1 6.2
-16 -3 6 2.5 4.8
-3 -16 -6 6.4 6.5
-19 16 6 4.9 5.1
19 -3 -6 4.9 5.8
19 -16 6 7.7 7.4
-3 19 6 1.9 5.5
-16 19 -6 -0.7 4.5
16 -19 -6 21 7.7
3 16 -6 -1.9 4.9
-19 17 -6 17.5 5.4
17 2 -6 26.5 5.9
-19 2 6 18.7 5.4
-2 -17 6 26.5 6.8
2 17 6 24.4 5.9
2 -19 -6 7.3 5.3
-17 19 6 14.5 5.8
17 -19 6 27.1 7.2
-2 19 -6 21.5 5.5
-19 2 -6 19.9 5.7
19 -17 6 13.7 7.5
2 -19 6 19.6 6.4
-2 19 6 15.6 5.4
19 -2 -6 10.1 5.4
2 17 -6 13.4 5.1
-19 17 6 14.8 5.3
17 -19 -6 27.8 7.5
-2 -17 -6 16.4 6.5
-17 -2 6 12 5.3
-18 19 6 37 6
-19 1 6 35.1 5.9
1 -19 -6 37.4 6.3
18 -19 6 45.3 7.8
18 1 -6 44.1 6.1
-1 19 -6 43.5 5.8
1 18 6 39.6 6
-1 -18 6 39.1 6.7
-18 -1 6 32.1 5.9
-1 19 6 33.9 6.2
-19 18 6 34.7 5.8
19 -18 6 38.1 7.3
19 -1 -6 22.5 5.5
1 -19 6 28.7 6.5
-1 -18 -6 39.1 6.8
1 18 -6 32.5 5.5
18 -19 -6 30.3 6.4
-19 1 -6 41.7 6.1
-19 19 6 1.3 4.8
0 -19 6 0.5 5.4
0 19 -6 1.3 4.2
19 -19 6 2 6.3
-19 0 -6 4.9 3.7
19 0 -6 2.7 4.5
0 19 6 5.8 5.2
-19 0 6 -1.3 4.7
0 -19 -6 20.5 6
-10 20 6 5.5 4.4
10 -20 -6 8.8 6.8
-20 10 -6 2.3 5.4
10 -20 6 6 6.4
10 10 -6 1.9 6.2
-10 -10 -6 3.5 6.7
10 10 6 4.8 5.5
10 -20 6 -12 6.7
10 10 -6 4 5.1
-20 10 6 4.9 5.2
-10 -10 6 5.7 5.3
-10 20 -6 0.2 5.7
11 9 -6 18.6 5.1
-11 -9 -6 22 7.3
-9 -11 6 20.4 5.7
-20 11 -6 22.6 6.1
11 -20 6 6.2 5.3
11 -20 6 8.5 6.7
9 11 6 13 5.9
9 -20 -6 20.5 7.1
11 9 -6 26.8 6.5
-9 20 -6 25.9 6.2
-20 9 6 23.2 5.7
-20 11 6 28.7 5.8
11 -20 -6 16.5 6.7
9 11 -6 26.2 6.8
-11 20 -6 20.8 6.1
9 11 -6 20.9 5.6
11 9 6 8.4 5
-20 9 -6 20.9 5.8
9 -20 6 30.6 7.2
-9 20 6 24.7 5.6
-9 -11 -6 21.4 7.1
-11 -9 6 27.4 6
-8 -12 6 82.69 9.5
-20 8 6 82.29 9.4
12 -20 6 71.89 11.4
12 8 -6 81.79 10.1
-12 -8 -6 89.19 11.1
-8 20 -6 78.49 9.5
-20 12 -6 77.09 9.7
8 12 6 76.89 9.8
8 -20 -6 86.09 11.2
8 12 -6 74.99 9.2
-8 -12 -6 79.09 11.4
-20 12 6 74.09 9.2
-12 20 -6 85.79 9.7
8 12 -6 103.49 10.7
-12 -8 6 67.89 9.3
8 -20 6 78.79 10.3
12 -20 -6 81.39 11.2
20 -8 -6 69.79 8.2
-20 8 -6 84.19 9.8
-8 20 6 75.79 9.4
-20 7 6 32 6
13 -20 6 23.8 7.8
7 -20 -6 25.2 7.2
13 7 -6 27.5 6.4
-7 20 -6 23.9 5.7
-13 -7 -6 19.8 7
7 13 6 19.9 6.3
13 7 -6 24.6 7.4
-20 13 -6 25.7 6
-13 -7 6 17.1 5.4
-20 7 -6 17.4 5.7
-7 -13 -6 24.8 7.2
7 13 -6 14.1 5.3
7 13 -6 14.4 5.6
13 -20 -6 22.9 7.4
20 -7 -6 19.4 5.5
7 -20 6 22.3 6.9
-7 20 6 24.8 5.8
-20 13 6 21 5.6
-13 20 -6 21.8 6.1
14 6 -6 105.29 11.7
-6 20 -6 85.09 9.6
14 -20 6 98.19 11.9
14 6 -6 97.69 10
-14 20 6 84.59 8.9
-14 -6 -6 64.19 9.1
6 14 6 108.99 10.6
-20 14 -6 86.99 9.3
6 -20 -6 92.99 10.5
-20 6 6 91.19 9.2
-20 6 -6 74.39 9.7
6 -20 6 93.09 10.3
20 -6 -6 74.99 9.4
-14 20 -6 88.89 9.6
-6 20 6 83.39 9.6
14 -20 -6 88.99 11.5
-20 14 6 85.89 9.2
-6 -14 -6 85.69 10.9
6 14 -6 87.99 9.5
-14 -6 6 81.39 9.1
20 -14 6 69.39 8.4
15 5 -6 88.39 9.4
-5 20 -6 80.79 8.9
15 -20 6 90.29 11.3
-20 5 6 87.09 9.3
5 15 6 84.69 10.3
-5 -15 6 74.69 10.4
-15 20 6 81.09 9.3
15 5 -6 86.99 10
-20 15 -6 83.29 9.2
20 -15 6 78.99 11.1
-5 -15 -6 101.79 11.3
5 15 -6 92.69 9.5
-15 20 -6 73.09 8.8
5 -20 6 98.99 10.4
15 -20 -6 97.99 11.9
20 -5 -6 83.69 9.9
-20 5 -6 86.79 9.6
-15 -5 6 89.99 9.1
-20 15 6 90.39 9.1
-5 20 6 89.69 9.3
16 -20 6 11.3 6.9
-20 4 6 15.6 5.2
16 4 -6 15.6 5.2
4 16 6 12.5 5.6
-4 -16 6 6 6.5
-16 20 6 13.7 5.5
16 4 -6 3.8 5.7
-20 16 -6 7 5
-4 20 -6 10.7 4.7
-16 20 -6 -1.4 5.5
16 -20 -6 24.6 7.3
-16 -4 6 3.6 4.7
-20 16 6 6 4.9
20 -4 -6 8.4 5.4
-4 -16 -6 10.8 6.3
20 -16 6 9.6 7.4
-20 4 -6 12.7 5.2
4 16 -6 5.9 5
4 -20 6 17 6.2
-4 20 6 12.7 5.3
-3 20 -6 11.5 4.8
-20 3 6 13.6 4.7
17 -20 6 15.3 6.9
17 3 -6 10 4.9
-20 17 -6 8.9 4.6
-17 20 6 10.5 5.1
-3 -17 6 5.1 6.1
3 17 6 11.4 5.5
20 -17 6 24.7 7.1
20 -3 -6 20.8 5.6
-3 20 6 25 5.5
-20 3 -6 25.3 5.4
3 17 -6 26.8 5.5
-20 17 6 18.7 5.2
-17 -3 6 20.4 5.3
3 -20 6 29.2 6.1
-3 -17 -6 35.4 6.9
17 -20 -6 38.2 7
-2 20 -6 38.8 5.2
-20 2 6 26.8 4.1
-18 20 6 32.4 5.3
18 2 -6 35 5.4
2 18 6 36.9 5.8
-2 -18 6 34.8 6.5
18 -20 6 41.3 7.2
-20 18 6 39.2 5.6
18 -20 -6 44.7 6.9
-18 -2 6 31.1 5.3
20 -18 6 33.9 7.1
-2 -18 -6 33.3 6.4
20 -2 -6 36.8 5.6
-2 20 6 34.2 5.6
2 18 -6 38.3 5.6
-20 2 -6 45.1 5.6
2 -20 6 44.5 6.6
-1 -19 6 122.79 9.7
19 1 -6 122.79 8.9
19 -20 6 123.09 10.5
1 19 6 131.09 9.4
-20 1 6 94.09 7.9
-1 20 -6 129.89 8.7
1 19 -6 118.69 8.7
-20 19 6 139.79 9.5
20 -1 -6 129.69 9.2
-1 20 6 132.19 9.5
-20 1 -6 114.79 8.5
20 -19 6 123.59 10.8
1 -20 6 118.99 9.8
-1 -19 -6 138.29 10.1
-19 -1 6 124.29 8.8
0 -20 6 40 6.3
0 20 6 37.2 5.3
-20 20 6 40.1 5
20 0 -6 45.1 6.5
0 20 -6 35.3 4.4
20 -20 6 36.6 6.4
10 11 6 17.7 5.8
-21 10 6 25 5.5
-10 -11 6 22.9 5.7
-11 -10 -6 15.6 6.7
10 -21 -6 17.7 6.6
-10 21 -6 26.1 5.8
-21 11 -6 22.7 5.5
11 10 -6 22.4 6.1
-11 21 -6 22.7 5.7
-21 10 -6 22.2 5.5
10 11 -6 16.1 4.8
-10 -11 -6 15.2 6.8
-21 11 6 20.6 5.2
11 -21 -6 17.9 6.5
-11 -10 6 21 5.5
11 10 6 10.8 5.1
10 11 -6 25.6 6.5
10 -21 6 22 6.2
12 -21 6 4.1 6.3
-21 9 6 7.1 5
-9 21 -6 14.7 5.1
9 12 6 9.8 5.5
-9 -12 6 12.2 5.3
9 -21 -6 7.4 6.3
12 9 -6 4.6 5.4
-12 -9 -6 10.3 6.3
-21 12 -6 7.1 5.2
-21 9 -6 7.6 5.4
-9 -12 -6 11 6.3
-12 21 -6 9.6 5.4
9 -21 6 12.7 6.2
-9 21 6 6.2 4.1
9 12 -6 14.7 6.1
12 9 6 -4.2 4.4
-12 -9 6 11.1 5
9 12 -6 2.5 4.5
-21 12 6 8.4 5.1
12 -21 -6 11.5 6.4
-8 -13 6 59.39 8.2
13 8 -6 63.69 10.3
8 13 6 63.89 9
13 -21 6 62.39 8.2
-21 8 6 69.49 8.6
-21 13 -6 66.79 8.7
8 -21 -6 57.19 7.9
13 8 -6 65.19 9
-13 -8 -6 53.69 7.5
-8 21 -6 65.29 8.3
-21 13 6 70.89 6.6
-13 21 -6 73.29 8.5
8 -21 6 56.39 7.5
8 13 -6 49.2 6.3
-8 -13 -6 53.49 7.4
13 -21 -6 48 7.3
8 13 -6 61.89 8.5
-21 8 -6 48.2 6.3
-8 21 6 60.39 7.9
-13 -8 6 61.09 8.3
14 7 -6 25.8 6.9
-21 14 -6 26.8 5.4
-7 21 -6 29 5.4
14 -21 6 22.4 6.9
7 14 6 27.8 5.8
7 -21 -6 20.3 5.7
-7 -14 6 21.8 5.1
14 7 -6 21.9 5.4
-21 7 6 29.3 5.3
-21 7 -6 33.4 5.9
7 14 -6 23.6 5.3
-7 -14 -6 22 6.3
-14 21 -6 32.2 5.7
-7 21 6 23.6 5.4
-21 14 6 31.8 5.6
7 -21 6 32.1 6.6
14 -21 -6 32.8 6.6
-14 -7 6 23.2 5.2
15 -21 6 0.2 6.2
-21 15 -6 0.5 4.7
-6 -15 6 5.1 4.6
-15 21 6 -6.7 3.9
-6 21 -6 2.8 4.7
-6 -15 6 -12.1 5
15 6 -6 5.2 4.8
15 6 -6 6.9 5.3
-21 6 6 1.7 4.5
6 15 6 0.6 5.2
15 -21 -6 8.4 5.8
-6 -15 -6 5.2 5.8
-15 -6 6 4.7 4.6
-15 21 -6 6.1 4.3
21 -6 -6 1.3 3.9
-21 6 -6 5.5 4.9
-6 21 6 3.2 4.9
6 15 -6 3 4.5
-21 15 6 8.2 4.7
6 -21 6 3.8 6
-16 21 6 26.2 5.1
16 5 -6 32.2 5.3
-5 -16 6 21 4
-5 21 -6 39.8 5.3
16 -21 6 31.1 6.5
-21 5 6 36.8 5.1
-21 16 -6 40.6 5.3
-5 -16 6 17.5 5.6
5 16 6 31.1 5.7
-5 21 6 27.7 5.3
-5 -16 -6 26.8 6.1
-16 -5 6 32.6 5.3
16 -21 -6 37.7 6.5
-21 16 6 32.6 5.2
21 -5 -6 21.6 4.2
5 -21 6 33.2 6.2
5 16 -6 24.8 4.9
-21 5 -6 32.6 5.3
-4 21 -6 4.8 4.2
4 17 6 7.3 4.7
-21 4 6 5.1 3.5
-17 21 6 3.4 4.5
17 -21 6 4.6 5.7
-4 -17 6 -0.2 5.6
17 4 -6 7.1 4.5
-21 17 -6 1.9 3.3
17 -21 -6 18.2 6
-21 17 6 4.8 4.4
21 -17 6 -2 5.6
-4 -17 -6 9.1 5.4
21 -4 -6 8.8 3.7
4 -21 6 9 5.6
-4 21 6 13.3 5
4 17 -6 7.8 4.3
-17 -4 6 9.7 4.6
-21 4 -6 9.1 4.8
3 18 6 31.3 5.1
18 -21 6 29.5 6.4
-18 21 6 28.4 4.8
-3 21 -6 27 4.5
18 3 -6 22.6 4.8
-3 -18 6 28.2 6
3 -21 6 25.4 5.7
-21 18 6 30.7 5.1
-18 -3 6 27.4 4.8
21 -18 6 24.4 6.1
-21 3 -6 26 4.9
3 18 -6 26.9 4.5
21 -3 -6 18.2 3.8
-3 21 6 25 5
-3 -18 -6 27.8 5.7
19 -21 6 43.3 6.6
-2 21 -6 52.09 6.7
-19 21 6 34.5 4.8
2 19 6 50.49 7
-2 -19 6 40.5 6.2
19 2 -6 51.09 6.8
-21 19 6 35.6 5
21 -19 6 21.7 5.7
-19 -2 6 33 4.6
-2 -19 -6 33.1 5.4
-2 21 6 33 5.1
2 19 -6 23.2 4
2 -21 6 34.6 5.9
-21 2 -6 21.1 3.7
11 11 6 1.1 3.9
11 -22 -6 10 6.2
-22 11 6 11.1 4.7
-11 -11 6 17.6 5
-22 11 -6 9.8 4.9
-11 -11 -6 13.2 6
-11 22 -6 14.6 4.9
11 11 -6 19.2 6.5
11 11 -6 13.6 5.5
12 10 -6 16.1 5.3
-22 10 6 13.7 4.8
-10 22 -6 20 4.9
-12 -10 -6 12.1 6
-10 -12 6 15.5 4.8
12 10 -6 16.9 6.3
10 12 6 7.7 5
10 -22 -6 13.7 6.1
-22 12 -6 14.4 5
-22 12 6 20.8 5.1
-12 -10 6 15.6 4.9
12 -22 -6 14.9 5.9
10 12 -6 22.5 5.5
-12 22 -6 18.2 5
-22 10 -6 17.5 5.1
-10 -12 -6 14.2 5.8
-13 -9 -6 39.9 5.7
-9 22 -6 40.3 5.4
-22 9 6 46.3 5.5
9 -22 -6 35.8 6.4
-9 -13 6 50.49 5.7
13 9 -6 38.9 6.9
9 13 6 41.1 5.9
-22 13 -6 42.9 5.6
13 9 -6 48 5.9
13 -22 -6 40.5 6.6
-22 9 -6 39.7 5.5
-22 13 6 42.3 5.5
-13 -9 6 52.79 5.8
-13 22 -6 48.9 5.8
-9 -13 -6 42.4 6.8
9 13 -6 49.5 6.8
9 -22 6 33.5 5.7
9 13 -6 29.7 4.4
-22 14 -6 4.3 4.4
-22 8 6 1.9 4.5
14 8 -6 5.5 4.8
8 -22 -6 1.2 4.1
-8 -14 6 2.5 4.4
14 8 -6 2.7 5.5
8 14 6 -1.2 4.7
-8 22 -6 4.6 4.4
14 -22 6 -1.3 5.7
14 -22 -6 5.2 5.4
8 -22 6 0.7 5.3
8 14 -6 0.8 3.5
-22 14 6 1.9 4.5
-14 22 -6 5.6 4.4
-8 -14 -6 4.8 5.5
-22 8 -6 4.7 4.7
-14 -8 6 2.2 4.5
-7 22 -6 96.49 8.2
15 7 -6 85.79 8.4
-22 15 -6 83.29 7.3
-22 7 6 92.89 7.9
7 15 6 96.89 8
15 -22 6 76.39 9
15 7 -6 70.29 7.7
-7 -15 6 71.79 6.6
-7 -15 -6 89.79 9.3
-22 7 -6 84.39 8.1
-15 22 -6 68.09 6.9
7 15 -6 78.79 7.1
7 -22 6 89.49 9
-22 15 6 89.69 7.9
-15 -7 6 92.59 7.9
15 -22 -6 101.19 9.5
16 6 -6 41.1 5.2
-22 16 -6 42.3 5.4
16 -22 6 33 6.4
-6 22 -6 38.4 5
6 16 6 37.6 5.3
-6 -16 -6 42.6 6.4
16 -22 -6 41.1 6.6
-16 -6 6 45.8 5.4
6 -22 6 42.9 6.3
-22 6 -6 43.5 5.5
-22 16 6 40.2 5.2
5 17 6 3.2 4.3
-5 22 -6 3.4 4.3
-17 22 6 -3.7 4.9
17 -22 6 -2 5.3
17 5 -6 -0.8 4.1
-22 17 6 3.2 4
17 -22 -6 5.3 5.3
5 -22 6 -1.2 5.1
-5 22 6 -1.7 3.3
-5 -17 -6 4.6 5.3
5 17 -6 8.2 5.3
-22 5 -6 1.9 4.4
5 17 -6 -0.6 2.9
-17 -5 6 2.3 4.3
4 18 6 13.6 4.6
18 4 -6 9.1 4.2
18 -22 6 3.1 5.4
-4 -18 6 -10.2 6.6
-18 22 6 -3.3 3.8
-4 22 -6 14.7 4.1
4 18 -6 0.3 3.6
18 -22 -6 13.8 5
-22 4 -6 10.3 4.1
-4 -18 -6 16.7 5.4
-22 18 6 5.9 4.4
4 -22 6 9.9 5.3
-18 -4 6 6.6 4.3
-11 23 -6 12.3 4.4
12 11 -6 21.4 4.9
12 11 -6 23.4 6.4
-11 -12 6 17.5 4.7
-12 -11 -6 9.7 4
-23 11 6 14.4 4.4
-23 12 -6 15.4 4.4
11 -23 -6 16.4 5.3
-12 -11 6 17.2 4.6
-12 23 -6 18.9 4.6
-23 11 -6 17.4 4.8
-23 12 6 17.6 4.6
-11 -12 -6 14.1 5.5
11 12 -6 18.4 6.3
11 12 -6 15.7 4.2
12 -23 -6 17 5.7
-10 -13 6 13.9 4.2
13 10 -6 14.4 4.7
10 -23 -6 14.8 4.3
13 10 -6 17.3 5.5
-10 23 -6 13 4.5
-23 13 -6 15.1 4.5
-23 10 6 11.5 4.3
-23 13 6 18.6 4.7
-23 10 -6 14.5 4.8
-13 23 -6 15.8 4.5
-10 -13 -6 17.2 5.6
10 13 -6 22.4 6.1
13 -23 -6 11.7 5.7
-13 -10 6 16 4.5
-9 -14 6 1.2 3.2
14 9 -6 12.3 4.7
-23 14 -6 11.9 4.2
-23 9 6 6.9 3.5
9 14 6 5.7 4.4
-9 23 -6 13.3 4.5
14 9 -6 10.7 4.5
-14 23 -6 8.1 3.6
-14 -9 6 10.9 4.5
-9 -14 -6 6.5 5.4
14 -23 -6 10.2 5.7
9 14 -6 14.9 6.6
-23 9 -6 7.4 4.4
-23 14 6 8.5 4.4
15 8 -6 11.2 4.2
8 15 6 7.1 4.5
-8 23 -6 11.3 4.2
-23 15 -6 5.8 3
-23 8 6 -0.6 3.9
8 15 -6 19.1 6.6
-23 15 6 11.4 4.3
-23 8 -6 13.7 4.9
-15 -8 6 9.8 4.5
-8 -15 -6 13 5.5
15 -23 -6 17.9 5.9
16 7 -6 2.9 4.3
16 -23 6 -7.1 4
7 16 6 -0.8 4.3
-7 23 -6 2.1 4.1
-16 -7 6 -4.5 4.4
-23 16 6 2.9 4.2
-23 7 -6 4.3 4.4
7 16 -6 9.3 6
-7 -16 -6 3.3 5.3
16 -23 -6 3.3 5.6
0 0 7 0.1 13.9
0 0 7 4.8 16.8
0 0 7 4 13.2
-1 0 7 48.1 15.6
1 0 7 35.7 19.2
1 -1 7 53.79 19.4
-1 0 7 44.9 16.1
1 -1 7 3.8 14.8
0 -1 7 48.3 15
-1 0 7 49 19.5
1 0 7 50.69 9.2
1 -1 7 5.7 14.2
-1 1 7 47.8 15.7
0 1 7 52.29 19.2
-1 1 7 61.99 20.6
0 -1 7 19 15.1
0 1 7 55.69 15.2
0 -1 7 50.19 18.8
1 0 7 37 14.6
-1 0 -7 49.2 7.4
-1 2 7 -5.9 18.8
1 -2 7 -0.3 16.4
1 1 7 -3.1 17.4
2 -1 7 3.5 13.5
-1 -1 7 1.1 14.4
1 -2 7 -0.3 17
-2 1 7 1.7 14.4
-2 1 7 7.5 18.5
2 -1 7 1.5 5.6
1 -2 7 0 13.4
-1 2 7 -3 15.3
1 1 7 -2.4 6.1
-1 -1 7 5.1 16.7
-1 -1 7 -0.2 14.2
-1 -1 -7 1.2 4.5
-2 1 7 -0.8 15.6
-2 1 -7 0.7 4.8
0 -2 7 -1.5 14.2
-2 0 -7 3.6 5
0 -2 7 0.8 15.6
-2 2 7 0.1 15
2 -2 7 7.9 16.7
0 -2 7 4.2 17.2
2 0 7 10.2 6.7
0 -2 -7 3.8 4.1
0 2 7 5.5 17.5
-2 0 7 7.1 17.8
-2 0 7 4.2 15.2
-2 0 7 0.8 14.9
-2 2 7 1.4 14.8
-2 2 7 5.2 17.8
1 2 7 186.28 28.9
-2 -1 -7 188.68 12.1
-3 1 7 188.18 25.8
-2 3 7 202.68 29.5
1 2 7 180.78 13.4
3 -1 7 183.38 13.5
1 -3 -7 188.18 11.7
-3 1 7 192.48 27.2
-1 -2 7 155.58 25.1
2 -3 7 157.28 25.6
-3 1 7 142.89 23.5
-1 -2 7 152.88 26.6
-2 3 7 177.28 24.6
-3 2 7 189.08 28.2
-3 2 7 199.28 26.5
2 -3 -7 174.78 11.5
-2 -1 7 155.18 24.1
-3 1 -7 162.88 11.9
1 -3 7 100.69 22.2
-2 -1 7 176.08 25.1
-1 -2 -7 170.48 11.7
-1 3 7 182.98 29.2
-2 -1 7 149.69 22.9
-3 2 7 128.69 20.8
2 1 7 192.58 13.7
0 3 7 5 20.2
-3 0 7 13.9 16
-3 3 7 5.5 16.6
3 0 7 17.1 7.2
-3 0 -7 14.3 5.6
0 -3 7 1.8 16.9
-3 0 7 2.7 16.8
3 -3 -7 11.1 5
0 -3 7 1.8 18.7
0 -3 -7 8.1 4.7
-3 3 7 5.3 19.2
0 -3 7 7.2 17.5
-3 3 7 0.2 14.3
-3 0 7 4.1 16.6
2 -4 -7 54.99 8.2
4 -2 7 61.29 9.4
-4 2 7 58.19 20.5
2 -4 7 2.7 18.3
2 2 7 59.39 8.6
-2 -2 7 34.3 17.1
-2 4 7 58.79 21.9
2 -4 7 51.99 8.5
-2 -2 -7 62.59 8.2
-4 2 -7 62.29 8.5
-2 -2 7 60.09 18.7
-4 2 7 49.99 19.1
-4 2 7 36.8 17.5
-4 1 7 79.69 20.2
-1 -3 7 64.59 19.8
1 3 7 79.99 25.2
-4 1 7 78.99 19.4
-3 4 7 88.59 20.8
-3 -1 -7 74.29 8.9
-4 1 7 63.19 21.1
4 -3 -7 60.89 7.2
4 -1 7 72.29 10.4
1 3 7 79.19 9.9
3 -4 7 71.79 9.2
-3 4 7 61.29 21.5
1 -4 -7 74.59 8.7
-1 -3 -7 74.89 8.6
-4 3 7 69.99 21
3 1 7 61.99 10.5
-3 -1 7 15.8 19.2
1 -4 7 52.39 7.8
1 -4 7 35.3 19.6
-4 3 7 55.09 18.9
-4 1 -7 79.69 8.9
4 -3 7 61.19 9.1
-3 -1 7 53.49 18.2
3 -4 -7 65.29 7.5
-1 4 7 63.89 22.3
-3 -1 7 55.19 18.5
-4 4 7 3.1 18.6
0 4 7 33 8.3
-4 4 7 23.6 18.5
-4 0 7 14.2 17.6
0 4 7 29.9 23.3
4 -4 7 26.7 6.4
4 -4 -7 28.4 6
-4 0 7 22.5 17.9
-4 0 7 20.9 20.7
0 -4 7 30.3 20.8
-4 0 -7 41.2 7.4
4 0 7 34.6 8.3
0 -4 -7 45.2 7.2
-4 4 7 25.5 20.2
0 -4 -7 32.2 6.2
5 -2 7 270.67 16.5
-5 2 7 188.78 31.5
2 -5 -7 252.47 14.6
-2 -3 7 231.68 30.9
3 -5 7 261.37 15.4
-3 5 7 239.38 34.6
-5 2 7 243.68 29.2
-3 -2 -7 260.87 15.3
-5 2 7 189.18 26.8
2 3 7 254.77 16.2
-2 -3 -7 267.97 15.5
3 -5 -7 250.47 14.6
-5 3 7 203.28 30.6
-3 -2 7 223.68 30.3
2 -5 7 252.37 14.9
3 2 7 251.37 16.8
-5 2 -7 281.47 15.6
5 -3 7 235.48 15.4
-2 5 7 252.97 35.3
-5 3 7 204.78 31.9
5 -3 7 253.97 15.6
1 4 7 26.1 23.7
-4 5 7 33.4 19.7
1 4 7 51.49 9.4
5 -1 7 44.3 8.6
1 -5 -7 57.49 7.7
-4 5 7 33.8 21.6
4 -5 7 60.49 8.3
-5 1 7 26.7 19.4
-4 -1 -7 62.09 8.3
-5 1 7 36.9 20.5
-1 -4 7 31.9 20.6
-5 1 7 26.1 22.5
5 -4 -7 39 6.2
-1 -4 -7 -2.9 27.8
-5 4 7 47.3 22.3
5 -4 7 35.6 6.8
-5 1 -7 45.3 7.1
-1 5 7 32 24.3
1 -5 7 -1.1 20.7
-5 4 7 29.6 21.7
-4 -1 7 31.4 19.8
-1 -4 -7 33 6.9
4 1 7 54.39 9.2
4 -5 -7 46.5 7.1
-5 4 7 2.3 17.5
-4 -1 7 19.6 19.6
-5 0 -7 267.57 16.2
0 5 7 276.87 18.1
-5 5 7 266.87 32.7
0 5 7 240.68 37
5 -5 7 251.07 15.6
-5 5 7 222.78 33.9
5 0 7 275.67 17.6
5 -5 -7 292.47 16
0 -5 -7 266.87 16.4
0 -5 7 272.77 16.8
-5 0 7 190.68 31.1
0 -5 -7 288.57 16.2
3 3 7 104.99 11.9
3 -6 7 106.49 10.5
3 -6 -7 112.69 10.3
-3 -3 7 55.69 23.5
-3 -3 -7 112.49 10.6
6 -3 7 115.69 11.1
-6 3 7 72.09 26.1
6 -3 7 113.99 11.9
-6 3 -7 113.89 10.5
-3 6 7 71.39 25
-6 3 7 105.09 25.1
4 -6 7 316.67 18.2
-2 -4 7 326.37 18.3
6 -2 7 322.77 18.6
-6 2 7 243.38 34.2
6 -2 7 316.27 19.5
-4 6 7 267.07 37.2
2 4 7 336.97 20
2 -6 -7 325.47 17.7
-4 -2 -7 335.37 18.4
6 -4 7 285.47 18.5
-6 4 7 295.47 34.8
2 -6 7 320.07 17.8
4 2 7 349.57 19.5
4 -6 -7 339.57 18.1
-2 6 7 286.07 37.8
-6 4 7 242.28 36.6
6 -4 7 352.16 18.9
-2 -4 -7 365.56 19.4
-6 2 -7 342.47 18.7
1 -6 -7 240.08 15.5
6 -1 7 259.67 17.2
6 -5 -7 237.28 15.2
1 -6 -7 257.17 15.6
5 -6 7 263.17 16
-5 -1 -7 266.17 15.9
1 5 7 264.27 17.5
-1 -5 7 243.08 16.4
-6 5 7 166.48 30.4
-6 5 7 144.89 27.4
-1 6 7 98.89 28.2
-6 6 7 4.7 24.4
0 -6 7 14.2 7
6 0 7 20.7 8.4
6 -6 7 14.4 6.8
0 6 7 16.4 8.2
-6 6 7 6.4 24.9
6 -6 -7 12.3 6.4
0 -6 -7 14.3 7.2
0 -6 -7 19.7 6.5
-6 0 7 1.4 27.3
-6 0 7 3.1 25.5
0 -6 -7 5.4 47
0 6 7 -4.5 28.5
-6 0 -7 11.9 6.3
-3 -4 7 6.2 36.9
4 3 7 182.38 14.1
7 -3 -7 200.68 14.6
7 -4 7 170.58 15.4
-7 3 -7 181.68 13.4
4 -7 -7 201.08 13.7
7 -4 7 181.18 13.8
-3 -4 -7 196.38 13.9
3 -7 7 186.48 13.4
1 -7 -7 64.29 8.6
7 -1 7 45.5 9.7
1 6 7 61.69 10.2
6 -7 7 56.69 8.7
-6 -1 -7 60.99 8.7
7 -1 7 41.2 7.9
-1 -6 7 51.19 8.8
1 -7 -7 50.79 8.8
7 -6 -7 50.89 8.2
7 -1 -7 65.59 10.6
1 -7 7 53.29 8.9
-7 6 7 2 49.1
-1 -6 -7 66.19 9.8
-7 6 7 5.2 47.8
-7 1 -7 67.89 8.9
6 -7 -7 58.39 9
-1 -6 -7 53.39 7.9
-1 7 7 65.49 10.6
6 1 7 78.69 11.2
7 -6 7 63.79 9.1
-7 0 -7 139.29 12.3
0 7 7 148.79 14.3
0 -7 -7 135.29 11.8
7 0 7 152.08 14.7
7 -7 7 134.49 12.6
0 -7 -7 138.89 14.2
0 -7 7 143.59 13.2
7 -7 -7 137.89 12.8
8 -4 -7 92.79 11.9
8 -4 7 72.49 12.6
4 4 7 79.79 11.8
-4 -4 -7 75.89 10.6
4 -8 7 71.39 10.6
4 -8 -7 70.89 10.3
8 -4 7 75.39 10.8
5 -8 7 79.29 10.8
8 -5 -7 91.39 11.7
-3 -5 7 69.89 10.2
8 -3 7 83.79 10.9
-5 -3 -7 70.49 10.1
3 5 7 63.79 11.6
3 -8 -7 74.49 10
8 -3 7 77.19 12.8
8 -5 7 82.09 10.9
3 -8 7 84.99 11.4
-8 3 -7 84.09 10.3
3 -8 7 82.09 9.6
5 -8 -7 88.79 11
-3 -5 -7 83.59 11.1
5 3 7 75.99 12
8 -5 7 69.39 12.3
8 -3 -7 92.59 12.1
-6 -2 -7 184.58 14
2 6 7 180.38 15.3
-2 -6 7 165.68 14.1
8 -2 7 173.98 16.2
6 -8 7 174.68 13.6
2 -8 -7 167.28 12.5
8 -2 7 184.68 14.2
8 -6 7 148.39 13.1
6 2 7 143.49 14.4
-8 2 -7 151.08 13
6 -8 -7 167.98 13.8
8 -2 -7 155.68 14.2
-2 -6 -7 161.98 14.6
2 -8 7 153.48 13.8
1 -8 -7 22.4 9
8 -1 7 38.9 8.8
8 -1 7 32.7 9.4
-7 -1 -7 40.7 8
7 -8 7 28.9 7.8
8 -7 -7 28.8 8
1 7 7 34.8 9.1
-1 -7 7 35.2 8.6
1 -8 -7 32.5 7.1
8 -7 7 30 8.3
1 -8 7 26.6 8.2
-1 -7 -7 24.4 9
-1 8 7 28.7 9.2
-1 -7 -7 23.7 7.2
8 -1 -7 31.1 8.5
-8 1 -7 29.1 7.6
7 -8 -7 19.1 8.2
7 1 7 19.1 9.1
0 -8 7 -3 7
0 8 7 7.9 8.2
8 -8 7 6.8 7.7
0 -8 -7 3.7 8.9
8 -8 -7 0.8 7.9
0 -8 -7 6.4 6.4
-8 0 -7 12.2 7.1
8 0 7 9.2 7.3
8 0 7 5.5 9.6
8 0 -7 1.4 7.4
4 5 7 182.38 15.3
5 -9 7 172.68 14.7
4 -9 -7 186.58 14.2
9 -4 7 152.68 15.8
9 -4 7 172.58 14.4
9 -5 -7 187.58 15.7
-5 -4 -7 178.98 14.2
5 -9 7 178.78 13.8
4 -9 7 149.69 12.7
4 -9 7 153.28 13.7
5 -9 -7 154.98 13.6
9 -5 7 138.19 14.8
-4 -5 -7 153.88 14.2
9 -5 7 157.08 13.7
5 4 7 154.58 14.5
9 -4 -7 169.88 15.1
3 6 7 131.79 13.9
3 -9 -7 118.99 11.1
-6 -3 -7 123.49 12.4
9 -6 -7 130.59 13.7
9 -3 7 103.89 14.7
9 -3 7 134.19 12.8
-3 -6 7 108.29 12.6
6 -9 7 122.89 12.3
3 -9 7 126.39 13
6 -9 -7 129.59 13.4
-9 3 -7 134.59 12.3
9 -6 7 133.19 11.9
6 3 7 132.79 14.3
9 -3 -7 139.79 14.6
-3 -6 -7 133.79 13.7
7 -9 7 98.59 11.5
2 -9 -7 95.89 11
2 -9 -7 86.89 13
9 -2 7 97.29 12
-2 -7 7 86.59 12.3
-7 -2 -7 95.59 11.2
9 -2 7 91.69 14.4
2 7 7 102.19 13.1
9 -7 -7 70.59 10.9
2 -9 7 82.29 11.8
9 -2 -7 87.29 13.2
7 2 7 93.59 13.7
7 -9 -7 90.49 12.9
-2 -7 -7 88.09 13.6
-9 2 -7 84.59 11.3
9 -7 7 85.09 11.8
-2 9 7 99.99 14.3
9 -8 -7 83.39 13.4
-1 -8 7 75.39 11.6
-8 -1 -7 73.39 11.3
9 -1 7 112.79 14.6
9 -1 7 75.39 11.7
8 -9 7 68.79 11.2
1 -9 -7 63.79 11.8
1 8 7 77.39 13
1 -9 -7 77.49 10.5
9 -8 7 73.19 11.7
-1 -8 -7 97.99 13.2
-9 1 -7 74.09 10.6
-1 -8 -7 73.19 11.2
8 1 7 91.79 13
9 -1 -7 65.39 11.2
8 -9 -7 95.59 12.9
1 -9 7 71.39 11.6
-1 9 7 83.69 12.4
9 -9 -7 62.69 12.2
9 -9 7 55.69 10
9 0 7 58.29 10
-9 0 -7 49.9 9
0 -9 7 58.09 10.2
0 -9 -7 64.89 9.6
0 -9 -7 57.69 12
0 9 7 64.09 11.3
9 0 7 71.69 13.1
10 -5 -7 392.76 24.2
5 -10 7 383.76 22.5
5 -10 7 360.36 21.8
5 -10 -7 382.06 22.5
-5 -5 -7 395.86 22.6
5 5 7 384.56 23.6
10 -5 7 354.46 23
10 -5 7 380.26 22
6 -10 7 14.8 8.3
-6 -4 -7 13.1 7.4
10 -6 -7 10.3 8.4
10 -4 7 9.4 9.2
10 -4 7 12.6 8.2
4 6 7 18.7 9.1
6 -10 7 11.7 8
4 -10 -7 8.2 7.4
-4 -6 7 5.8 7.2
4 -10 7 9.7 7.4
4 -10 7 9.5 7.9
10 -6 7 0.5 8.3
6 4 7 16.5 9.6
10 -4 -7 15.3 9.3
-4 -6 -7 9.1 7.9
6 -10 -7 7.8 7.8
10 -6 7 14.3 7.8
10 -3 7 184.48 17.8
10 -3 7 192.08 15.4
3 -10 -7 180.88 14.5
10 -7 -7 188.58 16.4
-7 -3 -7 182.58 14.7
7 -10 7 191.68 15.8
-3 -7 7 178.78 15.4
7 -10 7 177.98 15.3
3 7 7 192.58 16.4
-3 -7 -7 142.69 15.6
-10 3 -7 148.79 13.3
-3 10 7 165.08 16
3 -10 7 136.59 14
7 3 7 156.68 16.1
7 -10 -7 155.78 15.6
10 -3 -7 155.18 16.7
10 -7 7 149.79 14.2
10 -2 7 147.59 13.9
2 -10 -7 140.99 13.2
10 -8 -7 98.79 13.8
2 -10 -7 119.19 15.5
2 8 7 147.19 15
10 -2 7 133.19 16.6
8 -10 7 134.69 13.6
-2 -8 7 135.49 14.4
-8 -2 -7 142.19 13.5
10 -8 7 126.69 13.2
8 2 7 125.19 16
-2 -8 -7 137.09 15.3
10 -2 -7 137.59 16.1
-2 10 7 128.99 15.1
2 -10 7 123.49 13.6
8 -10 -7 110.89 15.1
-10 2 -7 118.69 13.1
-1 -9 7 43.3 10.1
10 -1 7 50.79 9.6
1 9 7 62.89 11.5
10 -1 7 46.4 11.3
9 -10 7 46.3 9.4
1 -10 -7 60.69 9.3
1 -10 -7 38.5 11.6
10 -9 -7 42.2 11.2
-9 -1 -7 49.3 9.2
9 1 7 43.3 9
10 -9 7 45.8 9.7
-10 1 -7 51.49 9.1
9 -10 -7 44.7 11.9
-1 10 7 51.29 11.3
1 -10 7 55.79 10.3
9 1 7 58.49 12.8
10 -1 -7 43.7 11.3
-1 -9 -7 54.49 9.2
-1 -9 -7 46 11.7
0 -10 -7 131.89 18
10 -10 7 158.48 14.9
10 0 7 151.78 17.2
-10 0 -7 166.58 14.9
0 -10 7 149.69 15.7
0 -10 -7 156.68 14.3
10 -10 -7 173.08 18.1
10 0 7 113.29 13.3
0 10 7 168.68 16.2
11 -5 7 358.36 21.7
5 6 7 341.77 23.2
5 -11 -7 338.77 21.2
-6 -5 -7 331.27 21
11 -6 -7 342.27 23.2
6 -11 7 332.07 21.3
11 -5 7 329.17 22.3
6 -11 7 322.97 20.5
5 -11 7 294.07 19.9
6 -11 -7 311.47 20.8
11 -5 -7 324.57 22.9
11 -6 7 298.27 20.7
11 -6 7 358.46 21
5 -11 7 332.07 21.1
-5 -6 -7 321.67 21.2
6 5 7 337.17 22.5
-4 -7 7 230.68 17.8
4 -11 -7 277.17 18.7
4 7 7 276.97 20.1
11 -7 -7 267.87 20.1
-7 -4 -7 274.07 18.3
7 -11 7 272.47 18.8
11 -4 7 275.87 18.7
7 -11 7 284.07 19.2
11 -4 7 261.77 20.2
11 -4 -7 246.88 20.6
11 -7 7 247.88 17.8
11 -7 7 196.08 16.5
7 4 7 241.58 19.6
-4 -7 -7 240.68 18.2
7 -11 -7 243.08 18.7
4 -11 7 241.28 17.5
-8 -3 -7 64.29 10.5
11 -3 7 70.79 13
-3 -8 7 52.89 10.3
11 -8 -7 69.19 12.2
8 -11 7 69.49 11.6
11 -3 7 66.99 10.8
3 8 7 53.79 11.2
3 -11 -7 66.59 10.3
8 -11 7 61.59 10.9
8 3 7 55.49 12.9
11 -3 -7 30 12
-11 3 -7 34.6 8.8
3 -11 7 41.6 9.7
-3 11 7 32.1 10.4
-3 -8 -7 36.8 10.5
11 -8 7 51.89 10.2
8 -11 -7 44.4 11.4
9 -11 7 329.57 21.1
2 9 7 317.27 21.7
2 -11 -7 263.17 22.6
2 -11 -7 305.07 19.7
-2 -9 7 320.07 21
11 -2 7 331.37 23
9 -11 7 308.27 20.3
-9 -2 -7 337.67 20.5
11 -2 7 286.87 20.1
11 -9 7 315.37 20.7
-2 -9 -7 326.87 22.5
9 -11 -7 301.07 22.6
-2 11 7 310.77 22
2 -11 7 308.37 20.5
9 2 7 302.77 23.1
-11 2 -7 314.47 20.2
11 -2 -7 298.67 24.3
-10 -1 -7 28.5 8.7
1 10 7 32.9 10.3
10 -11 7 32.1 10.1
11 -1 7 31.7 12
11 -10 -7 22.4 11.7
1 -11 -7 28.6 8.3
-1 -10 7 25.5 9.8
1 -11 -7 7.7 11.3
10 -11 7 29.6 10.3
-11 1 -7 10.4 8
10 1 7 7.4 11
11 -10 7 6 9.2
-1 -10 -7 7.8 10.8
10 -11 -7 -5.2 10.8
-1 -10 -7 8.1 7.8
1 -11 7 12.5 9.6
-1 11 7 12 9.4
11 -1 -7 5.3 11.1
11 -11 7 93.59 14.9
0 -11 -7 71.69 13.9
-11 0 -7 105.19 13.4
11 0 7 88.59 16.3
0 11 7 80.69 13.3
0 -11 7 99.99 14.5
11 -11 -7 82.39 14.6
0 -11 -7 107.89 13.1
11 -11 7 99.99 13.9
-6 -6 -7 89.89 13.3
12 -6 -7 83.59 15.4
6 6 7 97.09 15.8
6 -12 -7 91.39 13.3
12 -6 7 100.89 13.9
6 -12 7 91.49 13.6
12 -6 7 81.19 14
6 -12 7 87.69 13.3
-7 -5 -7 195.38 16.3
7 -12 7 201.58 16.4
5 7 7 204.78 18.7
12 -7 -7 198.28 18.4
12 -5 7 192.08 17.9
5 -12 -7 192.78 16.4
12 -5 7 186.28 17.3
7 -12 7 203.88 17.6
12 -5 -7 184.98 19.3
12 -7 7 177.38 17.1
12 -7 7 187.28 16.8
-5 -7 -7 197.58 16.8
7 -12 -7 181.28 16.9
5 -12 7 189.58 16.5
7 5 7 183.08 19.1
12 -4 7 93.59 14
8 -12 7 71.39 11.5
4 -12 -7 74.39 10.8
8 -12 7 91.29 12.7
4 8 7 93.09 15.1
-8 -4 -7 77.09 12.2
12 -4 7 69.19 11.4
12 -8 -7 86.89 13.4
-4 -8 7 63.49 11.1
-4 12 7 67.59 12.1
4 -12 7 80.49 13.1
8 -12 -7 85.49 13.3
12 -4 -7 75.69 15.1
12 -8 7 95.99 13.3
-4 -8 -7 79.09 12.3
8 4 7 67.49 13.5
12 -9 -7 556.64 31.6
12 -3 7 498.85 29.3
3 -12 -7 542.85 29.7
-3 -9 7 528.25 30.2
3 9 7 557.34 31.5
12 -3 7 598.14 32.5
9 -12 7 564.04 30.2
-9 -3 -7 577.34 30.4
9 -12 7 577.74 31.2
12 -9 7 484.95 27.1
-3 -9 -7 500.15 29.3
-3 12 7 433.66 27.4
3 -12 7 487.85 27.6
9 -12 -7 457.25 29
9 3 7 494.95 30.1
-12 3 -7 468.05 26.7
10 2 -7 34.2 5
2 -12 -7 52.19 12
-12 10 -7 44.7 5.5
2 10 -7 29.7 4.7
-2 12 7 19.6 9.1
-2 12 7 32.6 4.7
12 -2 -7 50.59 7.1
-2 -10 -7 60.59 12
12 -11 -7 73.99 13.9
-12 11 -7 90.39 8.8
-11 -1 -7 116.19 14.4
11 -12 7 95.49 11.3
-1 12 -7 82.19 8.2
11 -12 7 106.19 15.1
1 -12 -7 110.49 13.1
11 1 -7 82.49 9.1
12 -1 7 124.79 16.9
-1 -11 7 112.89 15.4
1 -12 -7 85.09 14.6
11 -12 7 119.09 15.2
12 -1 -7 90.69 9.1
1 11 -7 86.69 8.8
-11 12 -7 71.49 8.4
-1 -11 -7 93.39 14.3
-1 12 7 80.59 8.9
12 -11 7 103.09 14.4
11 1 7 101.69 16.3
11 -12 -7 113.29 16.3
1 -12 7 95.09 14.7
-12 1 -7 104.59 13.8
12 -11 7 78.29 11.3
1 11 -7 81.69 8.9
12 -12 -7 153.78 20.1
12 0 -7 143.59 11.9
12 -12 7 136.59 12.9
0 12 -7 136.49 11.1
0 -12 7 148.09 16.8
0 12 7 132.29 11.1
-12 12 -7 143.99 11.1
0 12 -7 141.19 11.3
12 -12 7 148.89 16.1
12 0 7 165.18 19
0 -12 -7 136.99 18.6
0 -12 -7 148.59 14.4
-12 0 -7 166.28 15.9
12 -12 7 138.79 15.9
-7 -6 -7 6.6 8.5
-6 13 -7 1.7 4
-7 -6 -7 -1.3 5.7
6 7 7 4.3 11.5
13 -7 -7 -1.4 9.6
6 -13 -7 -2 5.8
-7 13 7 6.4 3.8
13 -6 7 6 9.4
13 -6 7 3.9 10.5
7 -13 7 8 9.6
13 -7 -7 0.1 4
-13 7 -7 -1.2 4.5
7 -13 7 4.5 9.7
6 -13 -7 3.1 8.7
7 6 -7 4.2 4.2
13 -6 -7 2.5 4.1
6 -13 7 8.4 9.4
-6 13 7 2.6 3.8
-6 -7 -7 1.9 8.2
13 -7 7 6.5 9.4
-6 -7 -7 1.7 6.2
6 -13 7 4.1 8.7
6 7 -7 4 4.3
7 -13 -7 5.1 8.9
13 -7 7 2.2 9.8
-7 13 -7 1.7 4.3
7 -13 -7 -0.5 6.4
-13 6 -7 -1.5 4.8
7 6 7 5.7 12.1
13 -6 -7 -2.2 11
-13 8 -7 95.39 9
8 5 -7 114.89 9.1
5 -13 -7 69.69 10.2
-8 -5 -7 76.89 10.1
13 -5 -7 81.99 8.7
13 -8 7 125.49 14.7
13 -8 7 71.39 13.4
13 -5 -7 121.49 19
8 -13 -7 75.19 11.8
5 8 -7 98.59 9
-5 13 7 98.29 8.5
-5 13 7 92.69 14.7
-5 -8 -7 94.79 11
8 5 7 132.69 19
13 -9 -7 89.09 14
13 -4 7 68.79 13.1
9 -13 7 76.69 12.1
-4 -9 7 56.19 11.2
-13 9 -7 47 6.4
4 -13 -7 57.79 9.8
4 9 7 53.09 12.4
-9 -4 -7 80.79 11.6
13 -4 7 32.4 9.7
9 -13 7 74.49 12.6
9 4 -7 64.39 8.3
-4 13 7 35.4 5.3
13 -4 -7 41.2 5.9
13 -4 -7 36.6 14.3
-4 -9 -7 62.89 11.9
9 4 7 51.19 13.2
-4 -9 -7 22.5 7.4
13 -9 7 48.8 10.8
4 9 -7 53.89 6.1
4 -13 7 57.59 11.5
9 -13 -7 42.8 11.6
10 -13 7 5.6 9.8
13 -10 -7 5.4 9.4
10 -13 7 6.7 9.8
-13 10 -7 8.6 5.2
10 3 -7 4.7 4.8
-10 -3 -7 9.8 8.6
-3 13 -7 2.4 4.3
-10 -3 -7 2.1 5.3
3 10 7 -2.2 4.4
3 10 7 2.6 9.7
3 -13 -7 8.8 8.1
10 3 -7 3.5 4.6
3 -13 -7 -0.9 5.7
-3 13 -7 6.7 4.2
13 -3 7 6.7 11.2
10 -13 7 5.5 6
-3 -10 7 7 10.2
13 -10 7 15.5 10.2
10 3 7 18.3 12.4
10 -13 -7 8.8 10.7
13 -3 -7 13.3 5.3
-3 -10 -7 -2.5 7.1
3 10 -7 13.7 5.2
-3 -10 -7 7.3 10.2
-13 10 7 0.6 4
13 -10 7 15.2 6.2
-3 13 7 12.9 5.2
3 -13 7 14.2 10.1
-10 13 -7 7.6 4.4
10 -13 -7 -10.8 7.7
-13 3 -7 16.8 8.7
13 -3 -7 11 13.4
-2 13 -7 64.29 6.8
-13 11 -7 67.49 7.4
-11 -2 -7 59.49 11.1
11 -13 7 61.19 8.8
11 2 -7 60.79 7.3
11 2 -7 74.89 8.7
2 11 7 57.79 8.8
-2 13 -7 52.79 6.6
13 -2 7 54.59 12.6
11 -13 7 53.59 11.4
-2 -11 7 55.19 12
2 -13 -7 61.79 10.5
11 -13 7 70.09 12.2
13 -2 -7 37.1 14.6
11 2 7 32.1 12.3
2 -13 7 31.4 10.6
-2 -11 -7 31.3 11.3
-13 2 -7 29.7 9.4
13 -11 7 34.3 8.2
11 -13 -7 38.8 12.9
13 -2 -7 48.3 7
13 -11 7 39.9 11.2
2 11 -7 45.9 6.5
-11 13 -7 43.3 6
-2 -11 -7 13.7 8.1
-2 13 7 44.1 6.5
12 1 -7 25.5 6.3
-1 13 -7 18.6 5.6
-1 -12 7 31.3 6.9
12 -13 7 21.9 7.7
13 -1 7 18.6 11.5
13 -12 -7 -2.2 12
1 -13 -7 25.2 9.1
-1 13 -7 22.3 6.2
12 -13 7 25.4 11.4
12 -13 7 10.5 9.2
1 -13 -7 16.5 11.1
-13 12 -7 25.9 6.1
-12 -1 -7 24.3 9.5
1 12 7 18.1 6.2
-1 -12 7 22.9 10.9
-1 -12 -7 -5 7.7
12 -13 -7 24.1 12.6
-1 13 7 20.8 5.9
12 1 7 30.9 12.6
13 -12 7 22.7 8.1
-1 -12 -7 20 11.7
-12 13 -7 19.4 5.6
1 -13 7 22.6 10.6
13 -12 7 17.6 10.3
1 12 -7 19.8 5.9
-13 1 -7 19.3 9
-13 12 7 8.3 4.4
13 -1 -7 17.9 5.8
13 0 7 12.5 11.8
0 -13 7 6.9 10.6
0 -13 7 3.8 7.3
-13 13 7 1.9 4.6
0 13 7 11.2 6.1
-13 0 -7 9.2 8.4
0 -13 -7 -9.9 8.1
13 0 -7 11.7 5.9
13 -13 -7 -3.1 10.9
0 -13 -7 11.9 11
13 -13 7 14.2 7.8
13 -13 7 11.6 10.9
-13 13 -7 16.3 6
0 13 -7 11 5.8
0 -13 -7 -5.1 7.9
7 -14 -7 28.6 9.8
7 -14 7 15.9 9.8
-7 14 -7 19.6 4.7
7 7 -7 25.9 5.7
-14 7 -7 17.5 6.2
-7 14 7 22.6 5.3
7 7 7 14.1 13
7 -14 7 22.4 10.6
-7 -7 -7 16.9 7.5
14 -7 7 13 10.8
7 -14 -7 16.2 7.9
14 -7 -7 17.9 5.4
14 -7 7 19.5 10.3
14 -7 -7 22.5 11.9
-7 -7 -7 25.7 9.7
14 -6 7 133.59 17
14 -8 -7 124.09 10.4
-8 14 7 125.69 10
-14 8 -7 126.99 11.6
-6 14 -7 103.79 9.6
6 -14 -7 149.69 15.5
8 -14 7 154.78 17
14 -6 7 111.39 15.1
-8 -6 -7 140.59 15.7
-8 -6 -7 109.19 12.9
14 -8 -7 145.19 17.9
8 6 -7 130.39 10.8
6 -14 -7 107.99 12.7
8 -14 7 130.49 15.2
6 8 7 132.89 19.4
-6 -8 -7 93.79 13.3
8 -14 -7 94.49 10.9
-6 14 7 109.79 10
-6 -8 -7 119.79 15
6 8 -7 115.79 10.8
-14 6 -7 107.49 10.7
14 -8 7 119.89 16.2
8 6 7 118.29 19.7
6 -14 7 122.19 15.4
14 -8 7 77.49 14.2
14 -6 -7 123.59 19.3
-8 14 -7 91.39 9.2
8 -14 -7 116.49 15.6
14 -6 -7 104.49 10.8
-14 9 -7 2 5.6
5 9 7 3.3 11.4
5 -14 -7 -6 6.9
-5 -9 7 -0.5 9
-5 14 -7 -2.8 4.6
9 5 -7 2.8 4.9
9 -14 7 2.4 10.2
14 -9 -7 7.9 10.7
14 -9 -7 3.5 4.6
9 5 -7 -5 5
9 -14 7 1.2 5.4
14 -5 7 2.6 10.7
14 -5 7 -1.4 8.9
9 -14 7 6.7 10.2
-9 -5 -7 -3.2 6.5
-5 14 -7 3 4.5
-9 -5 -7 2.5 8.7
5 -14 -7 5.2 8.5
-5 14 7 8.9 5.1
14 -9 7 4.2 5.6
-14 9 7 10.1 5.3
9 5 7 2.8 12.3
14 -9 7 6.6 10.4
9 -14 -7 3.7 9.8
-14 5 -7 2.2 5.4
5 -14 7 9.5 10.2
5 9 -7 14.2 5.6
9 -14 -7 -3.1 8
-5 -9 -7 -2.7 7.7
-5 -9 -7 12.7 9.6
14 -5 -7 2.9 5.4
-9 14 -7 10.9 4.7
14 -5 -7 3.6 12.9
-10 -4 -7 64.09 11.3
14 -4 7 43.4 12.4
4 -14 -7 69.79 11.2
10 4 -7 57.79 6.8
14 -10 -7 61.79 12.7
10 -14 7 70.19 12.7
-4 -10 7 45.6 11
4 -14 -7 49.9 7.9
-10 -4 -7 51.29 7.7
10 -14 7 51.59 8.1
10 4 -7 62.19 7.5
-4 14 -7 52.39 6.3
-14 10 -7 56.19 7.2
4 10 7 39.9 5.7
-4 14 -7 54.89 6.9
10 -14 7 46.9 11.6
14 -4 -7 29.6 14.9
14 -4 -7 40.5 6.6
14 -10 7 42.2 7.8
-4 14 7 35.2 6.1
14 -10 7 29.8 11.3
10 -14 -7 14.5 9.1
10 -14 -7 42.2 12.1
10 4 7 39.1 13.1
4 10 -7 40.8 6.6
-14 4 -7 18.7 6
-10 14 -7 25 5.4
-4 -10 -7 45.9 11.6
-4 -10 -7 26.2 8.8
4 -14 7 52.49 11.3
-14 10 7 42 6.3
-3 14 -7 146.19 11.5
11 3 -7 161.88 11.9
-3 14 -7 154.38 12.4
11 -14 7 163.68 17.8
-11 -3 -7 178.48 16.9
11 -14 7 154.88 16.9
3 -14 -7 172.78 15.8
11 3 -7 159.18 13.1
-11 -3 -7 157.18 13
-14 11 -7 151.98 12.2
11 -14 7 161.88 14.4
3 -14 -7 133.19 12.4
11 3 -7 137.89 13.5
14 -3 7 169.28 19
-3 -11 7 161.28 17.7
3 11 7 162.88 12.4
3 11 -7 133.29 11.5
14 -3 -7 139.09 21.9
14 -11 7 151.78 16.7
3 -14 7 143.29 16.9
11 3 7 154.78 18.7
-3 14 7 138.39 11.6
11 -14 -7 116.09 15.9
-3 -11 -7 133.29 15.5
-14 11 7 130.99 11
14 -11 7 134.29 14.3
-11 14 -7 139.29 11.3
11 -14 -7 159.08 19.5
14 -3 -7 139.99 12.2
-3 -11 -7 170.88 18.5
-14 12 -7 87.49 10.3
2 12 7 94.39 11
-12 -2 -7 100.49 15.2
14 -2 7 78.09 14
12 -14 7 93.39 13.7
2 -14 -7 95.49 14.1
12 -14 7 83.99 13
-2 14 -7 87.19 9.8
12 2 -7 93.89 11.1
-2 -12 7 96.59 13.9
-2 14 -7 90.79 10.7
12 2 -7 76.49 10.8
-2 -12 7 90.39 11.2
-12 -2 -7 68.29 10.5
12 -14 -7 148.99 19.6
-12 -2 7 113.69 9.6
14 -2 -7 129.39 11.2
-2 -12 -7 105.99 12.2
12 -14 -7 103.19 15.7
14 -12 7 126.49 14.3
-14 12 7 120.49 10.7
2 12 -7 118.39 11.1
-2 14 7 122.89 11.3
-2 -12 -7 141.69 17.7
12 2 7 124.99 18.2
-12 14 -7 119.89 11.1
14 -12 7 131.69 16.5
2 -14 7 120.59 16.7
14 -1 7 24.8 12.1
1 13 7 32.6 6.7
13 -14 7 17.1 10.8
13 -14 7 31.6 8.6
-13 -1 -7 12.8 8.7
-1 14 -7 29.1 6.6
-14 13 -7 28.1 6.6
-13 14 7 25.7 5.5
-1 14 -7 18 5.9
13 1 -7 37 7
-1 -13 7 29.6 8.2
1 -14 -7 6.4 10.5
-1 -13 7 18.1 11.4
14 -13 7 44.3 12
1 -14 7 28.1 8
-1 -13 -7 37.4 9.7
14 -1 -7 55.69 7.4
-1 14 7 36.7 6.7
1 -14 7 44.9 12.1
-13 14 -7 43.7 6.6
-1 -13 -7 34.4 11.8
13 1 7 43.5 12.9
14 -13 7 47.4 8.9
13 -14 -7 20.9 9
-14 13 7 43.7 6.8
-13 -1 7 34.5 5.6
13 -14 -7 43.9 12.8
1 13 -7 47.8 6.9
14 0 7 -7.8 11.3
0 -14 -7 2.6 8.3
0 14 -7 2.8 5.6
-14 14 7 -1.7 5.9
-14 14 -7 5.5 5.5
14 -14 7 -1.1 10.6
14 0 -7 -1.1 5.5
14 -14 -7 -4.1 8.7
-14 0 7 -3 4.4
14 -14 7 4.4 8
0 -14 7 -4.7 10.5
0 14 7 3.3 6.1
0 -14 -7 2.8 10.2
0 -14 7 2.1 7.3
-8 -7 -7 0.9 7.1
8 7 -7 -3.2 5.5
-8 15 7 2.1 5.6
8 7 -7 1.9 5.4
-8 -7 -7 6.5 9.1
15 -7 7 1 10.7
15 -7 7 -1.1 9.6
-7 15 -7 6.1 5
8 -15 7 -1.8 10.6
15 -8 -7 3.1 11.4
-15 8 -7 4.6 6.1
7 8 7 -0.9 11.8
7 -15 -7 3.6 9.1
7 -15 -7 0.9 7.1
8 -15 7 -12.8 9
15 -8 -7 5.6 5.7
-7 15 -7 0.5 5.2
15 -8 7 1.2 9.3
15 -8 7 -2 9.9
8 -15 -7 -3.3 9.4
-8 15 -7 -3 5
-7 -8 -7 -5.8 7.3
15 -7 -7 3.3 5.7
-8 15 -7 -3.3 5.5
-15 7 -7 1.5 6.4
7 8 -7 -1.8 5.2
8 7 7 -0.6 11.8
-7 15 7 3.9 5.2
8 -15 -7 -4.3 7.5
7 -15 7 0.5 10.5
15 -7 -7 -1.8 11.8
-7 -8 -7 2.7 9.3
9 -15 7 76.19 13.2
-6 15 -7 61.69 7.7
-9 15 7 64.69 9.7
15 -9 -7 66.19 9.4
9 6 -7 71.69 7.5
15 -6 7 53.89 12.8
6 -15 -7 58.49 11
-9 -6 -7 59.39 8.6
-9 -6 -7 65.39 11.7
9 -15 7 57.19 12.1
6 -15 -7 51.89 8.8
-15 9 -7 60.89 7.5
9 6 -7 59.29 7.9
-6 15 -7 54.49 6.6
15 -9 -7 60.09 13.2
-15 6 -7 34.7 7
6 -15 7 44.2 11.8
15 -9 7 36.3 11.8
15 -9 7 14.6 6.6
-15 9 7 38.4 6.5
-6 -9 -7 24.7 8.2
9 -15 -7 41.5 10.9
9 -15 -7 23.7 8.8
6 9 -7 44.5 7
-9 15 -7 34.6 6
15 -6 -7 39.1 6.9
-6 -9 -7 36.6 10.8
15 -6 -7 36.9 14.5
-6 15 7 30.9 6
9 6 7 37.7 13.5
10 -15 7 117.29 16.4
5 -15 -7 121.19 14.8
5 10 7 122.59 10.7
10 -15 7 104.09 13
15 -5 7 115.09 17.8
-10 -5 -7 112.09 13
10 5 -7 116.19 12.4
15 -10 -7 123.59 18
-10 15 7 121.19 11.2
10 5 -7 119.39 10.5
5 -15 -7 115.19 12.8
-15 10 -7 110.29 11.4
10 -15 7 114.79 16.8
-5 15 -7 116.09 11.6
-5 15 -7 121.79 10.4
-10 -5 -7 120.49 15.7
10 5 7 113.69 19.5
-5 15 7 112.39 10.7
5 -15 7 123.59 16.6
15 -10 7 116.09 13.3
15 -10 7 113.99 16.9
15 -5 -7 82.19 17.2
10 -15 -7 96.19 14.7
-15 5 -7 104.29 11.8
-5 -10 -7 103.59 13.8
-5 -10 -7 123.99 16.6
-15 10 7 112.79 10.8
10 -15 -7 123.09 16.6
5 10 -7 119.89 11.4
15 -5 -7 123.59 11.3
-10 15 -7 123.29 10.4
11 -15 7 5.6 9
11 -15 7 14.6 8.1
-4 -11 7 -3.4 9.1
-15 11 -7 7.6 5.9
11 4 -7 20.8 5.5
-4 15 -7 15 5.4
-11 -4 -7 17.5 9.7
11 4 -7 7.4 7.1
11 4 -7 14 6.7
-4 15 -7 13.8 6.4
11 -15 7 10 11.3
4 11 7 13.3 6.4
-11 -4 -7 14 7.2
4 -15 -7 19.9 9.4
15 -4 7 15.9 11.9
4 -15 -7 19.2 7.6
-4 -11 -7 7.3 8.5
4 11 -7 15.4 5.9
-15 11 7 14.9 5.7
15 -11 7 24.2 8.5
-4 -11 -7 18.2 10.7
15 -11 7 9.3 11.1
-4 15 7 15.4 5.8
11 -15 -7 19.8 11.1
15 -4 -7 19.6 6.3
-15 4 -7 18.9 6.9
11 -15 -7 8.2 9.1
4 -15 7 13.5 10.9
11 4 7 14.5 12.4
15 -4 -7 1 14
-11 15 -7 18.1 5.9
3 -15 -7 11 8.7
12 -15 7 17.6 8.1
12 -15 7 15.6 11.2
12 3 -7 12.2 7.7
-12 -3 -7 9.9 9.3
-12 -3 -7 14.5 7.2
-3 -12 7 14.7 6.9
-3 15 -7 14 5.5
-15 12 -7 20.1 6.1
3 -15 -7 15.7 7.1
12 3 -7 19.3 6.7
-3 -12 7 12.1 9.9
3 12 7 21.5 6.8
15 -3 7 23.7 12.1
-3 15 -7 18.8 6.4
-3 -12 -7 30.7 9.2
3 -15 7 43.7 8.3
-12 15 -7 34.1 6.4
15 -3 -7 2.2 24.3
12 -15 -7 28.1 12
-3 15 7 38.3 6.6
12 -15 -7 40.3 9.8
-3 -12 -7 36.8 11.5
12 3 7 36.6 12.9
-12 -3 7 38.8 6.2
15 -3 -7 31.5 6.8
-15 12 7 26 6.2
3 12 -7 41.9 6.7
-15 3 -7 33.7 7.4
15 -12 7 34.4 12.4
3 -15 7 23.7 11.3
15 -12 7 39.1 8.9
13 2 -7 72.39 11.6
-13 15 7 69.19 7.3
-2 15 -7 78.89 9.9
15 -2 7 68.09 14.1
-2 15 -7 73.59 10.4
-2 -13 7 76.69 12.9
13 -15 7 65.99 13.3
2 13 7 80.19 10.9
-15 13 -7 77.99 8.2
13 -15 7 82.79 9.9
-2 -13 7 87.69 12.2
-13 -2 -7 78.99 11.1
13 2 -7 82.09 10.9
-13 15 -7 82.69 10.3
-2 15 7 86.29 10.6
-15 2 -7 72.79 8.5
13 2 7 89.49 15.2
15 -13 7 87.09 13.5
15 -2 -7 85.09 10.8
-13 -2 7 84.39 10.1
2 13 -7 82.59 10.1
2 -15 7 80.89 13.6
-15 13 7 87.89 10.1
13 -15 -7 56.09 12.8
-2 -13 -7 94.49 14.3
13 -15 -7 101.99 15.1
2 -15 7 78.59 12.2
-2 -13 -7 107.29 16.9
15 -13 7 66.79 13.1
15 -1 7 49.3 13.6
14 -15 7 47.6 12.4
-1 -14 7 41.8 11.6
14 -15 7 51.19 9
-1 15 -7 50.29 7.2
14 1 -7 51.49 7.5
-15 14 -7 48.4 6.8
1 -15 -7 32.3 8.1
-1 -14 7 45.9 8.2
1 14 7 54.29 7.4
-14 15 7 46.7 7.2
-15 14 7 38.3 6.7
-15 1 -7 34.7 6.7
1 -15 7 29.4 11.3
-1 15 7 43.6 7.1
15 -14 7 19.3 11.3
15 -14 7 30.7 8.3
1 -15 7 42.9 8.2
14 -15 -7 2.1 16.2
-14 15 -7 37.6 6.6
14 1 7 34.6 12.9
1 14 -7 47.8 7
14 -15 -7 51.29 10.2
-14 -1 7 39.6 6.5
-1 -14 -7 26.6 10.5
15 -1 -7 30.4 6.6
-1 -14 -7 35.3 9.2
-15 15 -7 41.7 6.7
15 -15 -7 18 8.7
0 15 7 43.5 7
15 0 7 19.6 12.2
0 -15 -7 45.2 9.4
-15 15 7 38.8 6.9
15 -15 7 32.4 11.8
0 -15 7 15.7 10.2
15 0 -7 33.5 6.8
15 -15 7 36.4 8.8
0 -15 7 40.9 8
0 15 -7 33.7 6.2
-15 0 7 25.1 6
8 -16 -7 9.5 9.3
-16 8 -7 7.4 6.2
16 -8 7 -8.5 9
8 -16 -7 1.2 7.1
-8 -8 -7 2 7.4
16 -8 -7 9.7 12.2
-8 16 -7 5.2 6.3
8 -16 7 7.3 10.9
-8 16 -7 8 5.3
-16 8 7 3.3 5.4
8 8 -7 9.4 6.7
8 8 -7 9.3 5.4
-8 -8 -7 11.4 9.8
-8 16 7 7 5.5
16 -8 -7 14.2 6
-9 -7 -7 11.1 7.4
9 -16 7 18.9 11.5
-16 9 -7 12 6.2
-9 -7 -7 13.3 9.5
7 9 7 4.4 4.8
9 -16 7 0.6 5.8
-9 16 7 9.5 5.6
9 -16 7 -5.7 8.5
-7 16 -7 9.2 6.7
9 7 -7 26 5.8
9 7 -7 9.4 7.2
-7 16 -7 17.3 5.4
16 -9 -7 5.1 11.2
7 -16 -7 11.1 9.3
16 -7 7 7 10.9
16 -9 -7 15.1 5.9
7 -16 -7 9.7 7.7
7 9 -7 23.9 6
9 -16 -7 15.4 10.1
9 7 7 -0.8 11.9
7 -16 7 10.7 10.9
-9 16 -7 18.1 6.2
16 -9 7 -1.9 9.8
-9 16 -7 26 5.9
-7 -9 -7 12.5 7.9
-7 16 7 29.2 6.1
-16 7 -7 19.1 6.7
16 -7 -7 26.6 6.3
16 -7 -7 16.9 13.1
-7 -9 -7 22 10.5
9 -16 -7 18.4 8.3
-16 9 7 16.5 6.1
16 -9 7 5.4 6.4
6 10 7 10.5 6.3
-16 10 -7 13.8 6.2
-10 -6 -7 7 7.2
6 -16 -7 14 7.4
10 -16 7 17 7.9
-10 16 7 15.3 6.1
10 -16 7 6.8 10
16 -6 7 11.9 11.5
10 6 -7 23.1 5.9
-10 -6 -7 7.4 9.3
-6 16 -7 7 6.2
10 -16 7 4.5 9.8
10 6 -7 14.2 7.2
16 -10 -7 4 11.3
-6 16 -7 11.5 5.2
6 -16 -7 14.4 9.2
16 -6 -7 13.8 13.6
6 10 -7 25.3 6.3
10 6 7 3.1 10.9
16 -10 7 23.9 8.1
16 -6 -7 31 6.8
-6 -10 -7 26.8 10.7
10 -16 -7 27.1 10.8
-16 6 -7 25.9 7.1
16 -10 7 20.9 10.6
-6 16 7 20.5 5.8
-10 16 -7 22.3 6
-16 10 7 29.1 6.2
10 -16 -7 19.3 8.5
-6 -10 -7 27.3 8.5
6 -16 7 29.2 11.3
11 5 -7 15.5 5.6
5 -16 -7 9.2 7.5
-5 16 -7 11.2 5.4
11 -16 7 10.9 10.7
11 -16 7 -0.7 10.2
-11 -5 -7 7.5 9.7
16 -5 7 20.5 11.8
16 -11 -7 7.9 10.8
-5 16 -7 14 6.5
-11 -5 -7 10 7.4
-11 16 7 17.4 6.2
11 5 -7 10.2 6.9
5 -16 -7 4.3 8.8
-16 11 -7 7.9 6
11 -16 7 30 8.4
5 11 7 7.2 6.5
-16 11 7 4.8 5.4
-5 16 7 4.4 5.5
-16 5 -7 8.4 6.4
-5 -11 -7 9 10.2
11 -16 -7 17.4 10.6
16 -5 -7 2 6
5 -16 7 5.6 10.7
-5 -11 -7 -6 7.6
16 -11 7 11.2 8.5
11 5 7 -0.8 11
-11 16 -7 3.3 5.6
16 -5 -7 -12.7 13.1
5 11 -7 2.1 5.6
16 -11 7 2.3 10.7
11 -16 -7 5.5 8.3
16 -4 7 96.89 17.2
-4 -12 7 69.39 8.3
-12 16 7 87.29 10.9
4 -16 -7 90.99 10.2
-4 16 -7 84.29 10.5
-16 12 -7 84.49 10.4
12 -16 7 88.69 13
12 4 -7 80.19 11.5
-12 -4 -7 90.29 12.6
-4 16 -7 77.39 9.7
12 -16 7 70.99 13
4 12 7 92.59 11.2
12 4 -7 80.89 12.7
-12 -4 -7 52.19 10.8
4 12 -7 78.59 10.2
4 -16 7 88.09 14.3
16 -12 7 79.69 13.7
12 -16 -7 77.29 13.7
-4 -12 -7 103.99 16.2
12 4 7 52.49 13
-16 12 7 100.59 10.2
-4 -12 -7 77.79 10.1
-16 4 -7 90.49 11.4
-12 16 -7 91.29 10.1
4 -16 7 91.49 12.5
-4 16 7 91.69 10.5
-12 -4 7 94.09 9.7
16 -4 -7 87.89 11.1
16 -12 7 95.09 14
12 -16 -7 103.69 14.6
-16 13 -7 22.5 6.2
13 -16 7 21.3 8.1
-13 16 7 9.4 5.4
16 -3 7 16.6 11.9
13 -16 7 9.9 11.1
3 13 7 16.4 6.6
-3 16 -7 15.9 6.1
-3 -13 7 23.8 7.6
-13 16 7 22.8 5.9
13 3 -7 24.9 6.7
13 3 -7 9.4 7.4
-3 -13 7 -5 10.2
-3 16 -7 20.6 5.9
-13 -3 -7 18.5 7.4
3 -16 -7 14.8 6.9
-16 13 7 33.9 6.5
13 -16 -7 21.2 11
-13 16 -7 31.1 6.3
3 13 -7 34.7 6.5
-3 -13 -7 41 8.8
-3 16 7 33.2 6.5
16 -13 7 28.4 11.6
13 3 7 17.5 11.8
-13 -3 7 29.9 6.1
3 -16 7 21.7 11.4
16 -3 -7 30.8 6.7
16 -13 7 27.6 8.4
-16 3 -7 30.6 7.4
3 -16 7 33 8.1
-3 -13 -7 24.3 10.8
13 -16 -7 45.8 9.8
14 -16 7 37 8.6
-14 -2 -7 21.8 6.2
14 -16 7 21 10.9
14 2 -7 35.2 7.1
14 2 -7 25.9 7
-2 -14 7 38.6 8
-16 14 -7 26.9 6.4
-2 16 -7 26.1 6.4
2 14 7 36.2 7.1
16 -2 7 30.5 12.4
-14 16 7 30.8 6.7
2 14 -7 35.9 6.5
16 -2 -7 39.7 6.8
-16 2 -7 38.3 7.6
-2 16 7 40 7
2 -16 7 35.3 7.9
-16 14 7 31.8 6.4
16 -14 7 20.1 11.1
14 -16 -7 2.2 14.2
-14 16 -7 27.8 6.4
-2 -14 -7 13.1 9.8
-14 -2 7 24.1 6.1
14 2 7 10.9 11
14 -16 -7 46.4 9.9
2 -16 7 21.4 11
16 -14 7 40.2 8.9
-2 -14 -7 40.6 8.9
15 1 -7 15 6
-16 15 -7 6.6 5.7
1 -16 -7 14.5 7.5
15 -16 7 -1 10
15 -16 7 21.1 8.1
-16 1 7 1.5 5.2
15 1 -7 2.7 4.4
-1 -15 7 18.9 7.3
1 15 7 13.4 6.3
-1 16 -7 7.2 5.6
-1 -15 7 -5.5 8.7
-15 16 7 3.9 5.8
16 -1 7 5.2 11
16 -1 -7 16 6
15 1 7 -6.3 10.3
-16 1 -7 18.4 6.7
-15 -1 7 20.7 6
1 -16 7 5.3 9.6
-1 -15 -7 30.2 8.3
15 -16 -7 22.5 9.3
1 -16 7 18.4 7.3
1 15 -7 20.6 6
-15 16 -7 15.1 5.9
16 -15 7 27.2 8.3
-1 16 7 22.8 6.2
16 -15 7 -0.9 10.1
-16 15 7 18.9 6.3
0 16 -7 86.49 10
-16 0 -7 70.49 9.7
-16 16 7 94.29 10.4
16 -16 -7 83.89 12.4
0 -16 -7 123.79 12.8
0 16 7 90.19 10.3
0 -16 7 92.39 11.6
-16 0 7 89.39 9.6
16 -16 7 99.39 12.3
-16 16 -7 92.89 10.5
16 0 -7 94.69 10.5
17 -9 -7 26.3 12.6
17 -8 7 -3.4 11.1
8 -17 -7 15.3 7.4
-8 17 -7 15.7 5.5
9 8 -7 20.1 5.9
-17 8 7 26.6 6.2
-17 9 -7 21.7 6.4
8 -17 -7 17.5 9.5
9 8 -7 19.2 7.9
-9 -8 -7 13 9.6
9 -17 7 10 10
-9 -8 -7 15.9 7.5
-8 17 -7 25.2 7
-9 17 7 20.6 5.9
8 9 7 10.2 5.5
-8 17 7 19.5 6
8 -17 7 3 10.1
-9 17 -7 20 6.9
8 9 -7 11.7 5.5
-17 8 -7 22.1 6.4
-8 -9 -7 6.7 9.5
8 9 -7 22.3 7.6
17 -8 -7 19.8 6.1
9 -17 -7 9.9 9.8
-8 -9 -7 13.6 7.3
17 -8 -7 7.5 12.2
-17 9 7 23.9 6.1
9 8 7 -2.8 6.3
9 -17 -7 18.4 7.8
-9 17 -7 13 5.4
7 -17 -7 38.6 8
-7 17 -7 52.09 7.6
-10 -7 -7 33.6 10.3
-10 17 7 38.8 6.4
7 10 7 45.1 7.3
10 -17 7 49.7 8.5
10 -17 7 1.5 15.5
10 7 -7 50.49 8.2
7 -17 -7 28.6 9.6
10 7 -7 44.4 6.5
17 -10 -7 23.9 11.8
-10 -7 -7 48 8.5
-7 17 -7 39.9 6
-17 10 -7 52.19 7.7
7 10 -7 31.5 6.3
17 -10 7 27 7.2
-10 17 -7 25.4 6
7 -17 7 13.6 10.8
-17 7 -7 25.3 6.7
17 -7 -7 21.5 13.3
-17 10 7 36.1 6.4
10 -17 -7 17.9 8.2
-10 17 -7 28.7 7
-7 -10 -7 26.2 8
10 -17 -7 29.8 10.5
17 -7 -7 35.2 6.7
-7 17 7 31.7 6.2
-7 -10 -7 25 10.1
7 10 -7 14.7 6.7
17 -6 7 10.4 10.7
-11 -6 -7 22.1 9.2
6 -17 -7 22.7 7.8
-6 17 -7 18.8 5.6
11 6 -7 27.4 5.9
11 6 -7 30.3 7.4
-17 11 -7 35.3 6.8
17 -11 -7 21.9 11.6
6 -17 -7 14 8.8
-11 -6 -7 28.9 7.8
-11 17 7 26.9 6.1
11 -17 7 25.2 8.3
6 11 7 22.8 6.9
-6 17 -7 26.3 6.8
11 -17 -7 28.8 8.6
6 11 -7 29.6 6.4
-17 11 7 32.2 6.2
-6 -11 -7 31.2 10.8
-6 -11 -7 33 8.5
-11 17 -7 21.1 5.9
6 -17 7 17.7 11.2
17 -6 -7 4 12.3
6 -17 7 33 8.2
-11 17 -7 25.1 6.4
17 -11 7 32.4 8.7
-6 17 7 33.9 6.4
11 -17 -7 21.9 10.4
-17 6 -7 26 6.8
-11 -6 7 28.8 6.2
17 -6 -7 33.5 6.9
12 5 -7 47.2 7.7
-5 17 -7 31.7 6
12 -17 7 51.39 8.9
-12 -5 -7 45.1 8.5
-12 17 7 38.9 6.6
17 -5 7 27.4 11.4
-17 12 -7 38.6 6.5
5 12 7 46.9 7.5
-5 17 -7 39.8 7
5 -17 -7 35 8.1
12 5 -7 48.1 8.7
17 -5 -7 69.39 7.8
-12 17 -7 69.69 7.5
-17 5 -7 78.19 8.3
12 -17 -7 91.59 13.2
5 12 -7 56.29 7.2
5 -17 7 66.19 9.2
-12 -5 7 65.99 7.2
-17 12 7 63.69 7.2
12 -17 -7 36.2 10.8
-5 -12 -7 58.09 9.1
5 -17 7 60.19 13.1
-5 -12 -7 60.79 11.9
17 -12 7 92.29 13.2
-5 17 7 57.49 7.2
13 4 -7 113.69 11.6
-4 -13 7 102.89 12
17 -4 7 81.89 14.6
13 4 -7 99.69 13.5
-13 17 7 121.29 10.9
-17 13 -7 114.39 10.9
4 -17 -7 95.79 12.1
-13 -4 -7 116.19 12.9
13 -17 7 111.19 13.2
-4 17 -7 104.09 10.1
-4 17 -7 101.29 11.1
4 13 7 108.59 11.5
-4 -13 -7 123.39 13.8
17 -13 7 125.09 14
4 -17 7 114.19 12.8
-4 17 7 117.39 10.9
17 -4 -7 124.39 11.7
-4 -13 -7 108.29 15.4
-13 -4 7 106.89 10.6
13 -17 -7 126.29 14.4
-17 4 -7 122.99 11.6
-17 13 7 111.29 10.6
4 13 -7 110.89 10.8
-13 17 -7 120.59 11
4 -17 7 103.99 16.2
-3 17 -7 3.4 5.7
14 3 -7 -1.7 6.6
-14 17 7 7.1 5.1
14 3 -7 0.3 5.9
17 -3 7 -1.5 10.5
-14 -3 -7 8 6.6
-17 14 -7 8 5.9
14 -17 7 -10.1 8.7
3 14 7 8.4 6.1
3 -17 -7 4.3 6.1
14 -17 7 5 7.5
-3 -14 7 5.5 7
-14 17 7 6.3 6
17 -14 7 23.7 8.3
-14 17 -7 18.9 5.9
-14 -3 7 11.6 5.6
17 -14 7 -2.9 12.1
-3 17 7 18.3 6
3 -17 7 9.1 9.9
3 14 -7 16.2 5.7
17 -3 -7 18.5 6.2
-3 -14 -7 21.9 7.9
-17 14 7 17.9 5.9
14 -17 -7 23.1 8.7
3 -17 7 15.4 7.1
-3 -14 -7 2.5 10.1
-17 3 -7 20.1 6.3
2 -17 -7 -3.3 6
17 -2 7 -3.4 9.5
15 2 -7 16.7 5.7
-15 17 7 13 4.3
-15 -2 -7 4.7 6
2 15 7 17.6 6.4
-2 -15 7 15.6 7.3
-2 17 -7 18 5.6
15 -17 7 19.2 8
15 2 -7 19.7 5.9
-17 15 -7 11.2 5.6
15 -17 7 -4.3 8.8
-15 17 7 14.1 6
-2 -15 -7 37.2 8.1
-15 -2 7 33.6 6.2
-15 17 -7 32.1 6.5
15 -17 -7 47.8 9.3
2 -17 7 29.7 7.4
17 -15 7 40.2 8.6
-17 2 -7 25.8 6.5
-17 15 7 29.8 6.4
-2 17 7 28.3 6.2
2 15 -7 34.4 6.3
17 -2 -7 34.3 6.5
16 -17 7 118.09 12.9
1 -17 -7 133.79 12.1
1 16 7 124.09 11.2
16 1 -7 125.39 11
-1 -16 7 135.99 12.1
-17 1 7 107.29 10.1
-16 17 7 122.59 11.1
-1 17 -7 117.09 10.5
-17 16 -7 119.19 11
17 -1 -7 102.99 10.8
-17 16 7 122.29 10.8
-1 -16 -7 136.39 12.9
1 16 -7 106.79 10.4
-16 17 -7 125.99 10.8
16 -17 -7 135.39 13.2
-17 1 -7 114.99 10.9
17 -16 7 108.69 12.8
1 -17 7 109.39 11.6
-1 17 7 106.69 10.8
-16 -1 7 106.29 10.1
17 -17 -7 8.4 6.1
0 17 -7 18 5.4
0 -17 7 29.5 6.9
-17 17 -7 21.1 5.8
17 0 -7 21.2 5.7
17 -17 7 23.1 7.6
0 -17 -7 33.9 7.2
-17 0 -7 17.3 4.9
-17 0 7 14.3 5.6
-17 17 7 18.8 5.9
0 17 7 18.9 5.8
9 9 7 -5.4 4.8
-9 18 7 3.9 5.2
-18 9 -7 0.3 5.7
9 -18 -7 2.1 8.5
-18 9 7 2 5.4
-9 -9 -7 5.3 8.6
-9 -9 -7 -3 7
9 -18 7 3.5 7.1
-9 18 -7 0.4 5
9 -18 -7 -0.1 7
9 9 -7 3 7.4
9 -18 7 -11.7 8.7
9 9 -7 8.9 5.4
18 -9 -7 -3.4 10.9
-9 18 -7 2 6.3
-8 18 -7 16.5 5.4
10 8 -7 26.2 7.6
-10 18 7 22.6 6
10 -18 7 6.3 7.2
-8 18 -7 19.5 6.5
8 -18 -7 2.4 7.9
8 -18 -7 21.5 7.4
10 8 -7 20.5 5.7
-18 10 -7 17.8 6.1
-18 8 7 24.3 6.1
8 10 7 19.5 6.5
-10 -8 -7 -0.9 8.6
18 -10 -7 5.8 11.2
-10 -8 -7 21 7.4
8 10 -7 36.2 7.9
-10 18 -7 33 7.1
-8 -10 -7 30.6 7.8
-18 8 -7 27.2 6.4
18 -8 -7 23.3 6.2
10 -18 -7 18.1 9.5
18 -8 -7 2.6 11.3
8 -18 7 2.6 13.4
10 -18 -7 30.6 7.8
8 -18 7 28.5 7.7
8 10 -7 27.2 5.6
-8 18 7 36.7 6.5
-18 10 7 28.3 6
-8 -10 -7 18.2 9.5
-10 18 -7 26 5.7
7 -18 -7 28.6 7.5
11 7 -7 24 5.6
-11 -7 -7 23.3 7.5
11 -18 7 32.6 8.3
-11 18 7 27.6 6.2
7 11 7 25.4 7
7 -18 -7 2.3 9.8
-18 11 -7 32.3 6.6
-7 18 -7 26 6.6
-7 18 -7 19.5 5.4
11 7 -7 25.9 7.3
-18 7 7 27.2 6
11 -18 -7 14.5 9.3
-7 -11 -7 38.4 7.9
11 -18 -7 27.2 7.7
18 -11 7 32.7 8
7 -18 7 2.9 10.3
7 11 -7 20.6 6.6
-7 18 7 35.8 6.4
-11 18 -7 35.9 7.2
-11 18 -7 31.5 5.9
-18 11 7 32.4 6.2
18 -7 -7 25 6.2
-7 -11 -7 24.7 9.4
7 -18 7 33.5 8.1
-11 -7 7 38.1 6.1
-18 7 -7 38 6.6
7 11 -7 29.8 5.8
12 -18 7 3.3 7.6
12 6 -7 5.3 6.6
-18 12 -7 4 5.6
6 12 7 5.5 6.3
-6 18 -7 1.1 5.9
18 -6 7 -3.8 11.6
-12 18 7 9.7 5.7
12 6 -7 3.1 7.3
-6 18 -7 -2 5
6 -18 -7 -2.3 7
-12 -6 -7 1.1 6.8
-6 18 7 7.8 5.6
6 12 -7 3.7 5.3
-6 -12 -7 1.2 8.9
-18 12 7 3.6 5.4
6 -18 7 -2.6 9.6
-12 -6 7 3.6 5.4
18 -12 7 10.9 7.9
-18 6 -7 6.3 5.9
-6 -12 -7 -2.9 7.1
-12 18 -7 7.7 6
12 -18 -7 12.6 7.2
6 -18 7 7.6 7.3
12 -18 -7 -1.2 8.5
-12 18 -7 3.1 5.2
18 -6 -7 7 5.9
-13 18 7 35.9 5.7
-5 18 -7 31.5 6.3
-18 13 -7 32.7 6.2
5 -18 -7 23.2 7.4
5 13 7 35.4 7.1
13 5 -7 30.5 6.8
13 -18 7 32.3 8
13 5 -7 29.7 8.1
-13 -5 -7 29.8 7.6
18 -5 7 -2.3 12.6
-13 -5 7 51.59 6.6
-18 5 -7 35.8 6.8
-5 18 7 43.9 6.5
18 -13 7 47.3 8.9
-5 -13 -7 52.19 8.9
5 -18 7 44.6 7.7
13 -18 -7 45.6 8.4
5 13 -7 40.8 6.5
18 -5 -7 44.9 7
-13 18 -7 37 6.1
-18 13 7 56.19 6.8
-18 14 -7 2.4 5.7
4 14 7 5.6 6.2
4 -18 -7 0.6 6.3
14 4 -7 0.3 6.4
-14 18 7 4 4.1
-14 18 7 -2.8 5.5
-4 -14 7 -0.1 6.9
14 4 -7 -0.1 5.7
-4 18 -7 1 5.3
-14 -4 -7 7.1 6.5
14 -18 7 1.7 7.3
18 -4 -7 6.4 6.1
-4 -14 -7 10.9 7.3
4 -18 7 10.6 7.2
-14 -4 7 8.4 5.5
-18 4 -7 6 5.9
-4 18 7 13.7 6
4 14 -7 6.7 5.6
-14 18 -7 9 5.5
14 -18 -7 19.7 7.4
-18 14 7 8.3 5.7
18 -14 7 11.9 8.1
-3 18 -7 67.79 9.2
15 -18 7 57.89 8.4
-3 -15 7 77.09 8.8
15 3 -7 64.69 9
15 3 -7 47.1 7.3
-18 15 -7 63.89 7.1
3 15 7 65.89 9.6
-15 18 7 63.79 7.4
18 -15 7 103.99 12
15 -18 -7 111.99 12.5
-18 3 -7 96.39 10.2
-15 -3 7 94.69 9.6
3 15 -7 84.69 9.7
3 -18 7 86.89 11
-3 18 7 82.59 10
-15 18 -7 82.29 9.7
-18 15 7 87.19 10
-3 -15 -7 86.19 11.5
18 -3 -7 86.89 10.5
-18 16 -7 15.5 5.5
-16 18 7 8.2 5.9
-2 18 -7 17.1 5.2
-2 -16 7 7.6 6.8
2 16 7 10.4 5.7
16 2 -7 4.3 6.6
16 -18 7 16.3 7.3
16 2 -7 12.7 5.5
2 -18 -7 -1 6.5
-18 2 -7 20.1 5.8
-2 18 7 19.1 5.8
2 16 -7 12.2 5.3
16 -18 -7 23.3 7.4
-18 16 7 15.7 5.5
18 -2 -7 15.6 5.9
-2 -16 -7 27.4 7.1
18 -16 7 25.4 7.8
-16 18 -7 18.3 5.5
2 -18 7 21.9 6.8
-16 -2 7 17.7 5.5
1 -18 -7 37.4 6.5
-18 1 7 30.1 5.5
-1 -17 7 42.6 7
-17 18 7 38.2 6.3
1 17 7 34.5 6.1
-18 17 -7 34.2 6
-1 18 -7 40.1 5.8
17 1 -7 31.2 5.8
17 -18 7 41.3 7.7
-18 17 7 42.6 6.2
17 -18 -7 46.9 7.5
1 -18 7 53.49 7.4
-17 -1 7 33.9 5.9
-1 -17 -7 65.89 10
18 -17 7 46.9 8.1
18 -1 -7 44.5 6.5
1 17 -7 35.1 5.8
-18 1 -7 61.89 8.2
-17 18 -7 41.7 5.9
-1 18 7 51.29 6.5
18 -18 7 137.59 11.9
0 18 7 136.39 10.5
18 0 -7 136.09 10.4
-18 18 -7 142.89 10.1
0 -18 7 144.59 11.4
-18 18 7 145.29 10.7
-18 0 7 140.09 10
0 -18 -7 158.88 11.1
0 18 -7 142.69 10.1
-10 19 7 6.7 5.4
-19 9 7 -1.6 5.1
10 9 -7 8.3 6.9
-19 10 -7 1.2 5.5
10 -19 7 1.7 7
-9 19 -7 -0.9 4.4
-9 19 -7 5.6 6.1
-10 -9 -7 -2.4 6.7
9 -19 -7 3 6.6
9 10 7 -2.5 5.6
10 9 -7 3 5
10 9 7 -7.3 3.8
-10 19 -7 2.5 6
10 -19 -7 0.7 6.5
-9 -10 -7 -3.4 6.8
-19 9 -7 0.8 5.4
9 10 -7 2.3 7
-9 19 7 2.9 5.4
-10 -9 7 -1.7 5.3
9 10 -7 0.3 5.1
-10 19 -7 -1.4 4.3
-19 10 7 4.6 5.1
9 -19 7 -0.9 6.9
8 -19 -7 20.3 7.1
11 8 -7 24.8 5.4
11 -19 7 31.1 7.2
8 11 7 18.1 6.3
-19 11 -7 30.3 6.1
11 8 -7 24 7.7
11 8 -7 37.6 7.3
11 -19 7 28.4 7.8
-19 8 7 38.4 6.3
-8 19 -7 11.8 4.7
-11 19 7 32.5 5.8
-8 19 -7 21.1 6.1
-11 -8 -7 24.2 7.3
-19 8 -7 25.6 6
-8 -11 -7 27.4 7.5
8 -19 7 30 7.6
19 -8 -7 23.6 5.9
11 -19 -7 28.9 7.6
-11 -8 7 33.6 5.9
-11 19 -7 32.1 6.9
8 11 -7 37.3 7.5
-8 19 7 29.9 6
-19 11 7 34.7 5.9
-11 19 -7 21.4 5
8 11 -7 25.5 5.7
12 7 -7 86.49 10.5
-12 19 7 74.89 9
12 -19 7 83.79 12
-7 19 -7 62.89 7.8
-7 19 -7 86.79 10
12 7 -7 72.29 12.4
-12 -7 -7 76.09 11
-19 7 7 73.09 9.7
7 -19 -7 81.09 11.4
7 12 7 73.69 10.5
-19 12 -7 77.69 9.6
-19 7 -7 83.89 9.9
-12 19 -7 70.39 8.3
19 -7 -7 78.39 9.8
-7 -12 -7 79.39 10.9
12 -19 -7 90.99 11.9
-12 -7 7 71.99 9.2
7 12 -7 77.29 9.2
-12 19 -7 86.09 10.4
7 -19 7 77.79 11.5
-7 19 7 70.29 9.7
-19 12 7 81.89 9.6
13 6 -7 49.1 7.3
-19 6 7 43 6.3
-19 13 -7 40.1 6.3
6 13 7 41.1 6.9
13 6 -7 38.7 8
6 -19 -7 30.4 7.2
-13 -6 -7 26.7 7.3
-6 19 -7 34.8 6.3
13 -19 7 44.1 8.2
19 -13 7 54.89 8.6
13 -19 -7 51.59 8
-6 19 7 65.49 7.1
-19 13 7 61.89 6.8
-13 -6 7 48.9 6.4
19 -6 -7 54.79 7
-19 6 -7 48.8 6.8
-6 -13 -7 55.89 8
6 -19 7 64.89 8.3
-13 19 -7 43 6.3
6 13 -7 64.79 7.1
-13 19 -7 55.19 6
-19 14 -7 8.7 5.6
14 -19 7 10.7 7.2
5 14 7 12.2 6.3
14 5 -7 7.5 6.3
5 -19 -7 13.5 6.4
-19 5 7 10.6 5.1
14 5 -7 11.6 5.6
-14 19 7 -1.8 4.2
-14 19 7 1.8 3.7
-5 19 -7 14.6 5.4
-5 -14 7 -7.5 5.8
-14 -5 -7 12.2 6.3
14 -19 -7 30.1 7.4
-5 19 7 30.7 5.8
19 -14 7 27.6 7.8
5 14 -7 20.4 5.4
-19 14 7 25.4 5.7
-19 5 -7 23.6 5.9
19 -5 -7 26 6
-14 -5 7 32.1 6
-5 -14 -7 25.5 6.8
5 -19 7 28.2 6.7
-14 19 -7 20.6 5
-15 19 7 24.8 5.8
-19 15 -7 28.2 5.7
15 4 -7 31.3 6
-4 -15 7 28.9 7.2
-19 4 7 32.9 5.5
4 15 7 33 6.8
15 4 -7 26.5 6.4
15 -19 7 31.3 7.6
-4 19 -7 32.7 5.6
-19 4 -7 31.5 5.9
15 -19 -7 34.9 7.4
-4 19 7 19.7 5.7
-19 15 7 29 5.7
-15 -4 7 21.8 5.4
19 -4 -7 28.6 6
-15 19 -7 25 5
4 -19 7 36.9 7.2
4 15 -7 35.2 5.9
-4 -15 -7 35.3 7.2
19 -15 7 31.9 7.7
-19 16 -7 117.39 10
-16 19 7 127.29 10.4
-3 -16 7 119.19 11.1
3 16 7 126.39 10.5
-3 19 -7 112.79 9.4
16 -19 7 111.29 11.6
16 3 -7 113.49 9.8
3 -19 7 135.09 11.5
-19 3 -7 150.78 10.8
-3 -16 -7 154.48 11.9
3 16 -7 143.89 10.8
-19 16 7 135.29 10.5
19 -16 7 141.89 12.5
-16 -3 7 148.99 10.5
19 -3 -7 141.39 11.1
-3 19 7 158.48 10.9
-16 19 -7 135.89 9.8
16 -19 -7 174.98 13
-17 19 7 14.9 5.6
-19 17 -7 19.7 5.1
-2 19 -7 19.3 4.9
17 2 -7 26.3 5.6
2 17 7 25.7 5.6
17 -19 7 30.2 7
-2 -17 7 17 6.2
-19 17 7 33.7 5.7
2 -19 7 40.6 6.7
-17 19 -7 29.1 4.7
2 17 -7 38.8 5.7
-19 2 -7 37 5.5
-2 19 7 35.3 5.8
-2 -17 -7 62.59 9
17 -19 -7 42.5 6.9
19 -17 7 36 7.2
-17 -2 7 37.9 5.8
19 -2 -7 36.9 6
18 1 -7 16.6 4.9
1 18 7 30.1 5.5
-1 19 -7 19.3 4.7
18 -19 7 27.8 6.8
-19 18 -7 23.1 4.4
-1 -18 7 30 6
-18 19 7 22.5 5.3
19 -18 7 33.9 6.9
19 -1 -7 19.4 5
-1 -18 -7 30 5.7
-19 1 -7 16.6 4
-19 18 7 24 5.3
-1 19 7 27.7 5.5
-18 -1 7 16.7 4.9
1 18 -7 22.9 5
1 -19 7 27.8 6
0 -19 7 26.9 5.7
0 19 -7 21.6 4.6
19 0 -7 22.6 5
0 19 7 35.6 5.5
19 -19 7 29.9 6.8
-19 19 7 22.4 5
10 10 -7 21 7.7
-20 10 -7 18.4 5.3
-10 20 7 18.5 5.3
-10 -10 7 23.5 5.5
10 -20 7 16.3 6.7
10 -20 -7 15.9 6.8
10 10 -7 14.4 5.1
10 10 -7 20.1 6.6
-10 20 -7 16.2 5.9
-20 10 7 25 5.5
-10 -10 -7 17.4 6.9
11 -20 7 10.4 5.8
-9 20 -7 20.8 5.7
-20 11 -7 15 5.4
11 9 -7 17.3 6.6
9 -20 -7 10 6.5
-20 9 7 23.4 5.4
-9 -11 7 16.7 5.4
-11 20 7 11.9 4.9
11 9 -7 19.7 7.5
-11 -9 -7 18.6 6.6
9 11 7 8.8 5.6
11 -20 -7 24.7 6.6
-11 20 -7 25.2 6.3
-9 20 7 29.8 5.7
-20 11 7 25.3 5.6
9 11 -7 23.1 5.4
-9 -11 -7 22.3 7.2
-20 9 -7 22.3 5.8
9 11 -7 24.6 6.7
-11 -9 7 27 5.8
9 -20 7 23.1 6.7
-20 12 -7 31.4 6
8 -20 -7 26.1 7
12 -20 7 27.7 7.5
-8 20 -7 30.7 6
8 12 7 24.5 5.9
-12 20 7 21.3 4.5
-20 8 7 34.1 5.7
12 8 -7 41.5 6.8
12 8 -7 30.4 7.7
-12 -8 -7 30.4 7
-8 -12 7 33.9 5.7
-20 12 7 15.9 5.2
-8 -12 -7 15.8 6.9
-12 -8 7 17.2 5.3
-12 20 -7 23.9 5.8
8 12 -7 14.1 5.6
8 -20 7 21.6 6.6
-8 20 7 14.2 5.5
8 12 -7 18.2 5.2
12 -20 -7 14.6 6.4
-20 8 -7 14.7 5.3
-20 13 -7 18.8 5.5
-20 7 7 30.1 5.5
7 13 7 11.7 5.8
-7 20 -7 23.4 5.7
-13 -7 -7 15.5 6.5
13 -20 7 21.9 7.4
13 7 -7 21.2 7.2
7 -20 -7 9 6.1
13 7 -7 22.4 5.8
-20 7 -7 26.7 5.7
-20 13 7 37.1 5.7
7 -20 7 47.6 7.4
13 -20 -7 34.5 7.1
7 13 -7 27.5 5.4
-13 20 -7 34.8 5.9
-7 -13 -7 38.2 7.1
-13 -7 7 38.5 5.9
-7 20 7 39.3 5.9
20 -7 -7 30.2 5.9
-20 14 -7 8.9 5.1
6 14 7 -0.9 5.5
6 -20 -7 2.2 5.6
-6 20 -7 0.8 4.8
14 6 -7 3.2 5.3
14 6 -7 3.3 5.8
14 -20 7 2.6 7
-14 -6 -7 3.6 5.7
-20 6 7 0.6 4.8
-14 20 -7 0.1 4.3
-20 6 -7 8.7 5.1
14 -20 -7 9.2 6.4
20 -6 -7 4.9 5
6 -20 7 12.6 6.3
20 -14 7 3.7 6.3
-6 -14 -7 1.8 6
-14 -6 7 1.7 4.8
6 14 -7 5.1 4.7
-20 14 7 6.8 5
-6 20 7 6.7 5
5 15 7 51.89 6.9
-20 15 -7 59.19 6.3
-20 5 7 60.79 7.9
15 5 -7 52.79 9.2
-5 20 -7 60.89 7.9
15 5 -7 59.89 8.3
15 -20 7 59.09 7.8
-20 5 -7 71.69 8.5
15 -20 -7 94.39 10.2
20 -15 7 75.79 10.4
-5 -15 -7 71.19 9.7
-15 -5 7 67.79 8.2
-5 20 7 68.99 8.7
5 -20 7 78.69 9.5
5 15 -7 74.09 8.4
-20 15 7 73.99 8.4
20 -5 -7 73.19 8.5
16 -20 7 63.39 9.8
-4 -16 7 55.29 7.2
-20 16 -7 61.59 7.6
-16 20 7 49 6.8
16 4 -7 66.69 8
-4 20 -7 61.89 7.7
-20 4 7 71.99 7.8
4 16 7 68.59 8.6
-16 -4 7 86.09 8.4
20 -4 -7 88.19 9
4 16 -7 123.19 12.1
-20 4 -7 88.59 8.6
-4 20 7 86.09 8.8
16 -20 -7 104.79 10.5
-20 16 7 87.39 8.4
20 -16 7 73.69 10.6
-4 -16 -7 101.49 9.9
4 -20 7 92.29 9.7
4 16 -7 88.99 8.8
-3 -17 7 -0.6 5.6
-20 3 7 4.4 4.3
-3 20 -7 4.5 4.3
-17 20 7 2.5 4.4
3 17 7 8.5 5.1
-20 17 -7 5.3 4.3
17 3 -7 1 4.4
17 -20 7 5.8 5.9
-20 17 7 4.3 4.6
3 -20 7 4.1 5.5
20 -17 7 1.6 6.4
17 -20 -7 14.6 5.8
-17 -3 7 2.9 4.6
3 17 -7 5.2 5.1
-20 3 -7 11.8 4.6
3 17 -7 5.3 4.2
-3 -17 -7 13 5.5
-3 20 7 7.2 4.8
20 -3 -7 -0.9 4.6
-2 -18 7 47.8 6.5
-18 20 7 41.8 5.4
18 2 -7 53.29 7
2 18 7 56.19 7.5
18 -20 7 47.6 6.8
-2 20 -7 54.09 6.9
-20 2 7 48.3 6.2
-2 20 7 53.19 7.8
-20 18 7 54.69 7.5
-2 -18 -7 62.39 8
20 -18 7 45 7.1
2 18 -7 50.99 7.1
2 -20 7 48.6 6.5
20 -2 -7 49.99 7.2
-18 -2 7 39.3 5.3
-19 20 7 21.2 4.2
1 19 7 22.9 4.9
-1 20 -7 21.8 4.5
19 -20 7 25.6 6.1
19 1 -7 29.7 4.9
-1 -19 7 22.3 5.3
1 -20 7 33.9 5.6
20 -1 -7 33.5 4.7
1 19 -7 28 4.6
20 -19 7 35.4 6.8
-1 20 7 28.7 5.1
-20 19 7 33.3 5
0 -20 7 -0.4 5.2
0 20 7 5.8 4.4
20 0 -7 5.1 3.9
-10 -11 7 33.1 5.6
10 -21 -7 25.3 6.4
-21 10 7 34.9 5.6
-10 21 -7 33.7 5.5
11 10 -7 37.9 6.4
-21 11 -7 33.3 5.5
11 10 -7 39.4 7.9
-11 -10 -7 25.5 6.6
-21 11 7 31.5 5.4
-11 21 -7 29 5.7
10 11 -7 27.3 6
-11 -10 7 28.3 5.3
-10 21 7 17.4 4.4
-21 10 -7 24.5 5.3
10 11 -7 23.3 4.8
-10 -11 -7 21.4 6.2
10 11 -7 31.6 7.1
10 -21 7 22.5 5.9
11 -21 -7 21 6.3
-21 12 -7 29 5.2
-21 9 7 37.4 5.5
9 -21 -7 31.7 6.4
-12 -9 -7 32.2 6.3
-9 21 -7 30.8 5.4
9 12 7 21 5.3
-9 -12 7 30.9 5.5
12 9 -7 29 7.1
12 9 -7 24.9 5.9
-12 21 -7 40.7 5.9
9 12 -7 30.9 5.4
-9 21 7 39.7 5.5
12 -21 -7 34.9 6.9
9 -21 7 38.6 6.8
-21 9 -7 36.2 5.7
-21 12 7 45.2 5.6
9 12 -7 31.7 5.3
-12 -9 7 49.8 6
-9 -12 -7 33.9 6.5
-21 13 -7 21.5 5.2
13 8 -7 28.7 5.7
-8 -13 7 37.7 5.5
13 8 -7 25.3 6.3
8 -21 -7 21.8 5.9
8 13 7 24.4 5.5
-13 -8 -7 22.8 6
-8 21 -7 27 5.3
13 -21 7 17.6 6.3
-21 8 7 35.8 5.5
-21 13 7 41.6 5.6
-8 -13 -7 41.7 6.8
13 -21 -7 36.8 6.5
8 -21 7 42.4 6.8
8 13 -7 72.49 11.6
-8 21 7 44.2 5.8
-13 -8 7 42.9 5.6
8 13 -7 32.3 5.3
-21 8 -7 49.7 6
-13 21 -7 42.1 5.8
-21 7 7 6.2 4.6
-14 -7 -7 4.1 4.5
14 7 -7 2.9 5.5
7 14 7 -0.6 4.9
7 -21 -7 5.2 4.8
-7 -14 7 6.3 4.4
-7 21 -7 1.2 4.5
-21 14 -7 5 4.5
14 7 -7 2.7 4.6
14 -21 7 0.2 6
14 -21 -7 9.7 5.8
-7 21 7 3.5 4.6
-21 14 7 8.1 4.6
-14 21 -7 1.2 4.1
-14 -7 7 11.7 4.7
-7 -14 -7 2.8 5.4
-21 7 -7 2.6 4.6
7 -21 7 6.2 5.8
7 14 -7 5.4 4.3
-21 15 -7 6.8 4.2
-6 -15 7 7.1 4.4
15 6 -7 7.3 4.7
15 6 -7 6.7 4.6
-21 6 7 10 4.4
6 15 7 3.8 4.8
-6 21 -7 6 4.4
15 -21 7 -1.9 5.9
21 -6 -7 7.5 4.1
-6 21 7 18.3 5
6 -21 7 10.6 5.6
-21 15 7 19.8 4.7
-6 -15 -7 23.5 6
-15 -6 7 10.1 4.6
6 15 -7 28.4 7.3
15 -21 -7 22.1 6
-21 6 -7 21.6 4.8
6 15 -7 11.4 4.3
-21 5 7 2.1 4.2
5 16 7 3.9 4.5
-5 -16 7 5.3 3.8
16 5 -7 7.5 4.7
16 -21 7 3.9 5.8
-21 16 -7 1.5 4.2
-5 21 -7 12.3 4.4
-5 21 7 0.5 4.6
21 -5 -7 7.5 4
5 16 -7 15.2 6.7
-21 16 7 7 4.5
-16 -5 7 -1 4.4
-21 5 -7 4.5 4.3
5 16 -7 2.6 4.2
-5 -16 -7 7.6 5.5
5 -21 7 12.2 5.5
16 -21 -7 11.8 5.8
4 17 7 34.3 5.2
-21 4 7 31.5 4.6
-4 21 -7 33.8 4.8
17 -21 7 33.3 6.2
-21 17 -7 28 4.1
17 4 -7 40.7 5.2
4 17 -7 52.09 6.5
-4 -17 -7 59.79 8.2
-21 17 7 50.39 6.9
-21 4 -7 52.29 6.8
-17 -4 7 47.7 6.6
-4 21 7 41.9 5.7
17 -21 -7 69.79 8.8
4 -21 7 61.39 8.2
21 -4 -7 42.9 6.3
18 -21 7 44.2 6.7
-3 21 -7 65.89 6.8
3 18 7 64.89 7.6
18 3 -7 66.59 7.1
21 -18 7 44.2 6.9
21 -3 -7 47.3 5.4
11 11 -7 59.29 7.3
-22 11 -7 60.39 7.7
-11 -11 7 60.29 7.6
-11 22 -7 60.99 7.6
-22 11 7 54.89 7.6
11 11 -7 72.19 10.4
11 -22 -7 49.2 6.7
-11 -11 -7 63.39 8.5
-22 10 7 12.7 4.4
-10 22 -7 15.1 4.6
-12 -10 -7 12.9 5.1
-22 12 -7 15.6 4.5
10 -22 -7 15.7 5.2
-10 -12 7 17.5 4.3
12 10 -7 11.6 5.9
12 10 -7 15.3 4.9
-22 10 -7 13.8 4.7
12 -22 -7 15 5.7
-12 22 -7 14.4 4.5
-10 -12 -7 17.3 5.7
10 12 -7 27.6 7
-12 -10 7 23.7 5
-22 12 7 23.2 4.6
-9 -13 7 54.69 6.6
-22 9 7 45.8 5.5
-13 -9 -7 33.6 5.3
9 13 7 27 4.7
13 9 -7 51.49 8.7
-9 22 -7 50.79 5.6
9 -22 -7 31.8 5.5
13 9 -7 38.7 5.5
-22 13 -7 46 5.5
9 13 -7 24.5 4.3
-13 22 -7 22.9 4.1
-22 9 -7 32.6 5.1
-13 -9 7 31.1 5.1
-22 13 7 32.7 5.1
9 13 -7 35.6 7.2
9 -22 7 24.2 5.1
-9 -13 -7 26.9 5.9
13 -22 -7 31.6 6.1
8 14 7 28.4 4.9
14 8 -7 31.1 5.5
-22 14 -7 31.7 4.5
14 8 -7 30.6 5
-8 -14 7 37.8 4.9
-8 22 -7 32.3 4.8
-22 8 7 36.3 4.9
-22 8 -7 22.7 4.9
14 -22 -7 33.8 6.3
-22 14 7 29.7 4.9
-14 -8 7 28.2 4.9
8 14 -7 20.2 4.1
8 14 -7 37.7 7.4
8 -22 7 27.5 5.5
-8 -14 -7 29.1 6
15 -22 7 12.9 5.2
-22 7 7 18.1 4.3
7 15 7 12.6 4.4
-7 -15 7 19.6 4.2
15 7 -7 20.5 4.7
-7 22 -7 24.2 4.5
-22 15 -7 17.2 4.2
7 15 -7 30.2 6.9
-15 -7 7 14.1 4.3
-7 -15 -7 19.6 5.3
7 15 -7 11.8 3.6
-22 15 7 11 4.3
15 -22 -7 13.9 5.9
7 -22 7 11.9 5.2
-22 7 -7 15.5 4.6
6 16 7 57.69 6.8
-22 6 7 38.2 5.1
-22 16 -7 48.1 5.3
16 6 -7 65.29 7
16 -22 7 41.5 5.6
-6 22 -7 53.69 6.5
6 -22 7 58.79 7.5
6 16 -7 83.69 9.3
-16 -6 7 68.09 7.2
-6 -16 -7 71.39 8.5
16 -22 -7 80.19 9.2
6 16 -7 57.19 5.9
-22 6 -7 71.69 7.3
-22 16 7 67.59 7.1
17 -22 7 -1.3 5.2
17 5 -7 6.2 4.3
5 17 7 6.8 4.1
-5 22 -7 7.9 3.9
5 -22 7 18.4 5.3
-5 -17 -7 13.5 5
-17 -5 7 14.1 4.3
17 -22 -7 15.9 4.9
-22 17 7 11.8 4.5
-22 5 -7 12.4 3.8
12 11 -7 18.2 5.8
-12 -11 -7 5.1 3.4
11 -23 -7 13.1 4.5
-11 23 -7 16.3 3.9
-23 11 7 15.1 4.3
-11 -12 7 21.7 4.7
-23 12 -7 10.4 4.3
11 12 -7 19 5.6
-23 11 -7 12.4 4.4
-11 -12 -7 15.5 4.6
-12 -11 7 16.5 4.4
-12 23 -7 6.3 3.1
12 -23 -7 15.5 5.2
-23 12 7 18.1 4.5
-10 -13 7 74.69 6.7
-10 23 -7 77.29 7
-23 10 7 68.09 7
13 10 -7 71.09 8.2
-23 13 -7 78.89 7
10 13 -7 98.09 10.1
-10 -13 -7 90.19 8.7
-13 -10 7 100.89 8
-23 13 7 93.19 7.7
-23 10 -7 99.19 7.9
0 0 8 -3.7 21.3
0 0 8 -5.3 6.9
1 0 8 113.59 25.9
0 1 8 134.29 13
0 1 8 114.99 26.5
0 -1 -8 133.09 9.9
1 -1 8 133.89 12
-1 1 8 67.29 24
0 -1 8 118.19 11.1
1 0 8 141.39 12.7
-2 1 8 101.59 26.5
-1 2 8 152.08 28.1
1 1 8 111.09 25.2
-2 0 -8 16.1 5.9
2 -2 8 3.5 34.5
-2 2 8 16.4 23.7
0 2 8 11.6 23.2
2 -2 8 5.5 5.7
2 0 8 15.7 7.7
2 0 8 -2.9 22.1
0 -2 -8 17.7 5.4
-2 0 8 -0.3 24.9
0 2 8 19 8.3
-2 2 8 6.3 22.6
-2 3 8 23 23.3
-3 1 8 0.4 27.6
-3 1 8 1.9 23.5
1 2 8 54.89 26.8
-2 3 8 3.5 22.5
1 -3 -8 6 4.3
-3 2 8 4.9 23.1
-3 1 -8 59.29 8.7
-3 2 8 20 23.1
2 1 8 22.6 22.9
-1 -2 -8 68.79 8.7
-1 3 8 36 26.3
2 1 8 62.59 10.9
3 -2 8 61.19 10.5
-3 3 8 31.8 24.2
0 -3 8 64.89 8.5
-3 3 8 4.4 23
3 0 8 69.39 10.1
0 -3 -8 64.39 8.8
3 -3 8 70.79 9.7
0 3 8 36.9 24.9
-3 0 -8 79.19 9.3
0 3 8 69.69 11.6
-3 -1 -8 194.08 13.5
1 3 8 192.58 14.7
3 -4 8 195.58 13.9
4 -1 8 195.38 15.1
4 -3 8 158.68 12.7
1 -4 8 152.88 12
3 1 8 154.58 14.1
-1 -3 -8 170.38 12.4
3 -4 -8 163.88 12
-4 1 -8 172.28 12.5
4 -4 -8 66.49 9.2
-4 0 -8 62.99 9.7
0 4 8 62.79 10.5
-4 4 8 -0.2 26.1
0 -4 -8 58.99 9.4
4 -4 8 63.09 9.7
4 0 8 65.59 11.3
0 4 8 4.6 27.1
3 -5 8 101.39 10.7
5 -2 8 93.69 12.2
2 3 8 96.29 12.6
2 -5 -8 97.19 10.3
-3 -2 -8 108.79 10.9
3 -5 -8 103.49 9.6
5 -3 8 98.49 12.3
-2 -3 -8 102.39 10.7
3 2 8 100.69 12.5
5 -3 8 101.29 11
-5 2 -8 109.19 10.6
2 -5 8 99.09 11.2
-4 -1 -8 166.38 12.7
1 -5 -8 170.88 12.7
5 -1 8 173.18 14.4
1 4 8 174.08 14.9
5 -4 -8 166.98 12
4 -5 8 164.48 12.9
1 -5 -8 129.99 11.4
-1 -4 -8 185.88 13.1
-5 1 -8 179.48 13.1
1 -5 8 148.39 11.7
4 -5 -8 180.78 12.7
4 1 8 164.18 14.6
5 -4 8 168.68 13.4
5 0 8 317.27 19.8
5 -5 8 293.87 18.1
0 5 8 326.57 20.5
0 -5 8 294.17 18.7
-5 0 -8 292.57 18
5 -5 -8 294.97 17.6
0 -5 -8 299.97 18.4
3 3 8 422.46 24.8
6 -3 8 442.76 24.8
-3 -3 -8 440.66 23.7
6 -3 8 434.06 23.9
3 -6 8 450.65 23.4
3 -6 -8 431.76 23.2
4 -6 8 437.76 23.4
6 -2 8 437.26 24.7
2 -6 -8 434.86 23.2
6 -2 8 441.76 23.9
-4 -2 -8 439.56 23.6
2 4 8 437.56 24.5
-2 -4 8 419.76 23.5
-6 2 -8 403.76 21.7
6 -4 8 333.67 21.9
-2 -4 -8 412.76 22
6 -4 8 391.96 21.9
4 2 8 400.76 23.2
4 -6 -8 390.86 21.4
2 -6 8 392.36 21.3
-5 -1 -8 58.29 9.5
6 -1 8 48.4 9.3
1 -6 -8 60.99 8.4
1 5 8 61.69 10.1
6 -5 -8 44.2 7.6
5 -6 8 57.79 8.8
1 -6 -8 49.1 8
-1 -5 8 57.89 9.6
1 -6 8 37.3 8.7
5 -6 -8 50.19 8.2
-1 6 8 51.19 10.2
6 -5 8 44.9 8.5
-1 -5 -8 47.2 9
-6 1 -8 59.19 8.9
5 1 8 56.79 10.6
0 6 8 0.1 8
-6 0 -8 1.8 6.2
0 -6 8 -0.7 7.2
6 0 8 -0.3 8.2
0 -6 -8 5.8 7.5
6 -6 -8 0.8 6.3
6 -6 8 2 7.1
-4 -3 -8 69.99 10.5
4 -7 8 80.59 10.4
7 -3 8 61.59 10.7
7 -3 8 71.19 9.7
3 -7 -8 74.19 9.4
3 4 8 84.79 11.7
4 3 8 69.49 12.1
4 -7 -8 94.19 10.8
3 -7 8 79.99 10.8
7 -4 8 70.69 12.4
7 -4 8 78.99 11
-3 -4 -8 73.89 11
2 -7 -8 209.88 14.9
7 -2 8 219.68 15.9
-5 -2 -8 205.38 15.2
2 5 8 223.58 17.3
7 -2 8 230.38 17.7
-2 -5 8 205.78 15.8
5 -7 8 212.38 15.2
2 -7 8 223.98 16.9
5 -7 -8 237.78 16
-7 2 -8 231.78 15.7
5 2 8 218.78 16.4
7 -5 8 222.08 16
-2 -5 -8 241.08 17
7 -1 8 106.09 14.4
6 -7 8 103.09 11.8
1 -7 -8 103.39 12.6
7 -1 8 113.19 12.4
-6 -1 -8 104.89 11.6
1 6 8 105.49 13.4
-1 -6 8 97.69 12.7
1 -7 -8 99.29 11.1
7 -6 -8 103.89 11.2
7 -6 8 107.19 12.2
-1 -6 -8 127.39 13.2
6 1 8 120.79 14.2
-7 1 -8 109.69 11.6
1 -7 8 115.59 12.7
-1 7 8 118.99 14.4
6 -7 -8 117.69 12.4
7 0 8 51.69 11.2
0 -7 -8 41.9 9.8
0 -7 8 42.2 9.3
-7 0 -8 51.19 8.7
7 -7 -8 38.5 8.5
7 -7 8 58.59 10
0 7 8 42.6 9.7
0 -7 -8 56.29 9.1
-4 -4 -8 503.15 26.4
8 -4 8 447.36 27.3
4 4 8 451.45 26.9
8 -4 8 490.25 26.1
4 -8 8 477.05 25.5
4 -8 -8 486.75 25.9
5 -8 8 178.18 14.6
8 -3 8 183.58 14.9
8 -3 8 187.58 17.2
3 5 8 184.98 15.7
-5 -3 -8 176.68 14.3
-3 -5 8 144.39 13.9
3 -8 -8 176.68 14
-3 -5 -8 148.09 14.2
5 -8 -8 152.28 13.5
8 -5 8 125.89 14.9
5 3 8 153.08 15
8 -5 8 146.09 13.5
3 -8 8 130.79 13
3 -8 8 151.48 14.2
8 -2 8 68.09 11.8
-6 -2 -8 77.79 10
2 -8 -8 97.69 11
-2 -6 8 55.99 10.1
8 -2 8 89.19 11.5
6 -8 8 61.19 9.5
2 -8 8 79.99 11.5
-2 8 8 58.99 11.2
6 -8 -8 62.99 10.1
-2 -6 -8 63.09 11.3
6 2 8 56.49 10.6
8 -6 8 81.09 10.8
-8 2 -8 87.59 11.1
-1 -7 8 76.19 11.2
8 -1 8 57.39 10
8 -1 8 70.89 12.9
1 -8 -8 63.59 9.2
1 7 8 81.39 12.6
8 -7 -8 53.79 9.6
7 -8 8 58.29 9.9
1 -8 -8 60.69 11.1
-7 -1 -8 78.79 10.3
-1 -7 -8 52.49 10.9
7 -8 -8 50.09 9.9
8 -7 8 68.39 10.7
1 -8 8 57.79 10.2
7 1 8 76.69 12.5
-8 1 -8 77.29 10.3
-1 8 8 74.99 12.3
0 -8 -8 9.2 6.9
0 -8 8 13.9 8.5
8 0 8 6.1 9.7
8 -8 -8 4.8 8.4
8 -8 8 8 8.3
8 0 8 11.3 8.3
-8 0 -8 9.9 7
0 8 8 10 9
0 -8 -8 6.2 9.8
9 -4 8 183.18 15.8
5 -9 8 174.28 16.1
-5 -4 -8 184.98 15.3
5 -9 8 180.08 15.1
4 5 8 173.48 16.2
4 -9 -8 179.08 14.8
9 -4 8 156.78 16.9
-4 -5 -8 220.68 17.2
5 -9 -8 219.08 16.2
5 4 8 212.98 17.4
4 -9 8 210.28 16.6
9 -5 8 189.48 17.5
4 -9 8 194.78 15
9 -5 8 209.18 16
-3 -6 8 63.39 10.3
9 -3 8 97.29 14.5
-6 -3 -8 77.99 11.5
3 6 8 76.39 13.1
6 -9 8 72.19 11.7
9 -3 8 83.59 12.5
3 -9 -8 70.29 11.3
6 3 8 81.39 12.6
3 -9 8 82.49 13
-9 3 -8 84.89 11.4
-3 -6 -8 89.49 12.1
9 -6 8 75.49 12.2
6 -9 -8 87.69 13
7 -9 8 101.39 12.9
2 7 8 119.29 15.4
9 -2 8 122.79 13.9
2 -9 -8 107.39 12.1
9 -2 8 109.09 16.3
-2 -7 8 106.89 13.9
-7 -2 -8 124.39 12.7
-9 2 -8 88.79 11.8
-2 -7 -8 90.99 14.4
9 -7 8 95.09 12.6
7 -9 -8 88.59 13.8
2 -9 8 85.09 13.2
-2 9 8 95.99 14.7
7 2 8 93.59 14.3
9 -1 8 214.28 19.9
1 -9 -8 224.78 19.6
1 -9 -8 217.98 15.9
9 -1 8 220.08 17.2
9 -8 -8 229.68 18.3
1 8 8 236.38 18.9
-1 -8 8 226.28 17.2
-8 -1 -8 202.18 16.3
8 -9 8 214.08 16.5
8 1 8 206.98 16.8
8 1 8 201.58 18.9
9 -8 8 194.78 16.4
-1 9 8 216.78 18.5
1 -9 8 199.58 16.9
-1 -8 -8 196.98 19.3
8 -9 -8 213.98 18.2
-9 1 -8 187.08 15.4
9 0 8 134.29 15.4
0 -9 -8 149.99 18.8
0 -9 -8 132.69 13.4
0 -9 8 137.49 14.6
9 -9 -8 148.89 16.8
9 -9 8 140.59 14.4
0 9 8 144.89 16.2
-9 0 -8 134.19 14.1
9 0 8 136.19 17.8
5 -10 8 237.38 17.6
5 5 8 278.47 20.3
-5 -5 -8 270.57 18.9
5 -10 8 253.57 18.8
5 -10 -8 271.27 18.8
10 -5 8 270.47 18.9
10 -5 8 246.58 19.7
4 -10 -8 141.89 13.9
6 -10 8 127.39 14.6
-6 -4 -8 137.49 14
4 6 8 134.19 15.8
6 -10 8 116.09 13.7
10 -4 8 122.99 16
10 -4 8 144.19 14.6
4 -10 8 102.49 13.7
10 -6 8 107.59 13.5
6 4 8 118.79 15.4
-4 -6 -8 104.99 14.7
6 -10 -8 111.19 13.7
10 -6 8 82.09 13.9
4 -10 8 87.59 11.6
-7 -3 -8 36.9 9.2
10 -3 8 31.4 12
10 -3 8 38.3 10.4
7 -10 8 30.3 9.7
-3 -7 8 23.4 9.5
3 -10 -8 40.5 9.2
3 7 8 43.5 11.2
7 -10 8 31.6 9.3
10 -7 8 -1.4 10
-10 3 -8 24.6 8.4
10 -3 -8 31.9 11.3
-3 10 8 24.7 10.7
7 3 8 20.6 10
10 -7 8 23.1 9.4
-3 -7 -8 22.6 10.2
7 -10 -8 10.1 9
3 -10 8 17.3 8.9
2 8 8 133.19 16.2
-2 -8 8 130.59 15
2 -10 -8 120.29 13.3
10 -2 8 120.69 17.3
10 -2 8 131.69 14.7
8 -10 8 117.19 14.2
-8 -2 -8 124.49 14
10 -8 8 126.39 14.6
8 2 8 117.29 16.8
-2 -8 -8 109.89 17.2
-2 10 8 140.29 16.5
8 -10 -8 139.69 16.8
-10 2 -8 112.69 13.3
10 -2 -8 129.69 16.9
2 -10 8 124.59 14.8
1 9 8 149.29 16.6
9 -10 8 127.49 14.4
1 -10 -8 123.59 13.4
10 -9 -8 118.19 16.8
10 -1 8 135.79 17.7
-1 -9 8 117.59 15.4
-9 -1 -8 119.79 14
1 -10 -8 110.19 18
10 -1 8 137.89 14.7
-1 10 8 110.69 16.6
10 -9 8 97.89 13.5
1 -10 8 109.69 14.7
9 1 8 103.69 14.5
9 1 8 101.39 16.6
9 -10 -8 90.79 14.3
-1 -9 -8 98.39 15.2
-10 1 -8 100.59 13.4
10 -10 8 262.27 19.2
10 0 8 267.27 22.4
0 -10 -8 255.27 23.2
10 -10 -8 293.87 22.7
10 0 8 257.27 18.9
-10 0 -8 259.77 19
0 -10 8 268.37 20.1
0 10 8 285.37 21.4
0 -10 -8 262.47 18.5
6 -11 8 13.8 9.3
11 -5 8 10.5 10.6
-6 -5 -8 30.8 9.3
11 -5 8 26.2 9.8
5 6 8 22 11
5 -11 -8 33.7 9.6
6 -11 8 25.1 9.9
6 -11 -8 7.6 8.5
5 -11 8 10 8.5
11 -5 -8 19.7 11.4
6 5 8 8.6 10.3
11 -6 8 22.3 9.6
5 -11 8 13.6 9.4
11 -6 8 6 9.9
-5 -6 -8 14.4 9.4
7 -11 8 116.29 14.8
4 -11 -8 112.29 13.7
-7 -4 -8 106.19 13.8
4 7 8 125.99 16.1
11 -4 8 100.59 16.9
7 -11 8 98.49 13.7
11 -4 8 113.29 15.3
11 -7 8 116.79 14.7
-4 -7 -8 112.59 15.5
11 -4 -8 118.19 17.6
-4 11 8 124.49 16.8
4 -11 8 103.09 14.5
7 4 8 121.09 16.9
7 -11 -8 110.49 15.6
11 -3 8 70.19 11.7
11 -3 8 67.89 13.9
-8 -3 -8 87.89 11.9
3 -11 -8 58.89 9.8
3 8 8 58.49 12
-3 -8 8 47 10.7
8 -11 8 69.49 12
8 -11 8 69.49 11.4
11 -8 8 53.69 11
-3 11 8 43.1 11.8
8 -11 -8 29.5 11.2
3 -11 8 46.3 10.7
8 3 8 51.59 12.8
11 -3 -8 62.79 14
-3 -8 -8 33.5 11.3
-2 11 -8 81.79 8.2
11 -9 8 132.39 15.4
9 -11 -8 152.98 19
9 2 8 134.79 18.6
-2 -9 -8 130.49 18.6
2 -11 8 147.39 16
-11 2 -8 132.09 14.8
-2 11 8 149.59 17.2
11 -2 -8 146.89 19.6
-10 -1 -8 254.47 18.3
11 -1 8 208.48 18
10 -11 8 182.58 14.8
1 10 8 274.97 21
10 -11 8 261.97 18.7
10 -11 8 272.87 20.4
-1 -10 8 239.78 19.5
11 -1 8 272.47 21.8
1 -11 -8 247.18 18
-11 10 -8 206.78 13.6
-1 11 -8 214.78 13.6
1 -11 -8 216.48 22.2
11 -10 -8 223.48 21.1
-1 11 8 253.67 20.3
11 -10 8 251.87 18.4
-10 11 -8 203.68 13.2
-11 1 -8 237.98 18.2
-1 -10 -8 221.18 22.4
10 -11 -8 252.37 22.3
11 -1 -8 184.58 12.7
1 10 -8 200.58 12.9
10 1 8 260.37 21.8
1 -11 8 238.88 19.2
0 -11 -8 -6.2 11.8
11 -11 8 0.6 9.4
-11 0 -8 8.9 8.5
0 11 -8 1.1 5
11 -11 8 -2.8 10.1
0 11 8 6.3 10.2
0 11 -8 0.4 4.1
-11 0 -8 4 5
11 0 8 2.8 11.7
0 -11 8 3.7 9.7
11 -11 8 5.4 6.8
11 -11 -8 1.2 12.1
-11 11 -8 5.9 5.3
0 11 8 4.2 4.5
11 0 -8 4.5 4.8
6 6 -8 8.5 4.2
6 -12 -8 8.3 8.9
6 -12 8 14.8 9.9
6 6 8 7 11.2
12 -6 8 4 10.4
-6 -6 -8 -2.3 6.4
12 -6 -8 3.9 11.6
12 -6 -8 6.9 4.9
-6 12 -8 10.4 4.6
6 -12 -8 -4.4 6.7
12 -6 8 17.7 10.4
-6 -6 -8 18.5 9.6
6 -12 8 7.9 9.3
5 -12 -8 153.08 15.7
7 5 -8 98.39 9.4
-5 12 -8 123.09 9.6
-7 -5 -8 164.58 16.1
5 7 8 152.38 17.7
12 -5 8 144.19 16.8
5 -12 -8 121.29 12.3
12 -5 8 148.59 15.9
7 5 -8 102.09 12.1
12 -7 -8 126.09 9.9
7 -12 8 141.29 15.7
-7 -5 -8 127.29 11.7
7 -12 8 157.88 16.1
12 -5 -8 118.29 18.8
-7 12 -8 98.59 8.9
12 -5 -8 108.49 9.9
7 -12 -8 113.49 15.5
5 7 -8 76.19 8.4
-5 12 8 104.99 9.6
7 5 8 118.89 17.6
5 -12 8 120.09 14.9
-5 -7 -8 127.89 15.4
-5 -7 -8 77.79 11.5
12 -7 8 125.29 15.7
-5 12 8 123.19 17.1
7 -12 -8 84.79 10.2
8 4 -8 83.89 11.7
-4 12 -8 90.19 8.9
4 8 8 127.49 17.1
-8 -4 -8 109.29 13.8
12 -8 -8 97.19 8.8
-12 8 -8 76.69 8.9
12 -4 8 103.29 16.7
4 -12 -8 83.79 11.6
8 -12 8 137.39 16.4
-8 -4 -8 93.29 10.9
4 -12 -8 109.19 14
12 -4 8 125.29 15.1
8 -12 8 113.29 15.2
8 4 -8 96.39 8.7
4 -12 8 93.59 14.6
-4 12 8 101.59 16.9
-4 12 8 69.89 9
8 4 8 102.99 15.9
-8 12 -8 74.89 8.3
12 -8 8 88.49 14.1
-4 -8 -8 103.29 15.6
8 -12 -8 77.49 13.6
12 -4 -8 80.89 9.3
12 -4 -8 66.79 15.1
4 8 -8 61.69 8.3
-3 -9 8 -4 9.5
-9 -3 -8 13.7 8.5
-12 9 -8 2.3 4.9
9 3 -8 2.7 6.3
12 -3 8 6.3 9.7
9 3 -8 9.3 4.8
9 3 -8 0.8 6.6
9 -12 8 3.2 5.5
3 -12 -8 3.9 6.1
9 -12 8 9.2 10.6
3 -12 -8 6.1 8
12 -3 8 7.4 11.4
-3 12 -8 5 5.1
-9 -3 -8 4.8 6.1
3 9 8 16.5 11.1
9 -12 8 16.6 10.3
-3 12 8 7.6 4.9
3 9 -8 7.3 4.5
12 -9 8 11.6 9.8
9 -12 -8 -2.6 7.3
9 -12 -8 4.4 11.2
-9 12 -8 5.6 5
9 3 8 0.7 11.8
-3 -9 -8 3.6 11
3 -12 8 5.8 9.9
-3 -9 -8 -7 7
12 -3 -8 0.3 12.6
-3 12 8 7.3 10.3
12 -3 -8 8.7 5.2
-12 10 -8 75.69 7.6
10 -12 8 78.99 12.9
12 -2 8 52.19 13
-10 -2 -8 92.19 14.1
10 2 -8 79.99 8.7
10 -12 8 75.99 12.8
-2 12 -8 69.19 9.2
10 -12 8 78.39 11.6
2 -12 -8 76.59 11.1
-10 -2 -8 68.09 10.4
-2 -10 8 61.59 12.2
10 2 -8 53.79 6.6
2 10 8 75.09 13.5
10 2 -8 57.09 10
2 -12 -8 54.89 7.6
10 2 8 82.09 15.4
12 -2 -8 23.6 13.9
12 -2 -8 54.59 6.9
12 -10 8 61.29 8.9
-10 12 -8 53.49 6.7
2 -12 8 60.29 12.2
2 10 -8 49.99 6.3
-2 12 8 59.39 7.1
10 -12 -8 34.1 12.9
-12 2 -8 61.69 11
-2 12 8 55.39 12
12 -10 8 62.29 11.5
-2 -10 -8 56.59 13.7
1 11 8 73.59 9.3
-12 11 -8 81.29 8
11 -12 8 78.09 12.2
-1 -11 8 90.39 13.6
-1 12 -8 71.49 7.4
-1 12 -8 76.39 9.8
12 -1 8 73.19 14.1
11 1 -8 71.99 10
-11 -1 -8 89.49 14
11 1 -8 69.29 10
1 -12 -8 48.1 13.7
11 -12 8 82.79 9.7
11 -12 8 75.99 12.8
-11 -1 -8 79.39 10.6
1 -12 -8 62.69 10.6
11 -12 -8 69.59 15
1 -12 8 88.99 13.5
1 11 -8 72.79 9.6
-12 1 -8 81.99 12.2
12 -1 -8 73.69 10.3
11 1 8 99.19 15.3
1 11 -8 82.69 9.7
-1 12 8 78.99 10
12 -11 8 74.99 9.2
-11 12 -8 68.99 9.7
12 -11 8 78.39 12.4
-1 -11 -8 80.49 15.3
0 12 -8 -1.1 5.4
-12 12 -8 -3.1 5.2
-12 0 -8 4.4 5.7
12 0 8 5.8 11.7
12 0 -8 3.6 4.8
-12 0 -8 1.1 8.8
12 0 -8 1.7 5.5
12 -12 8 6.5 10
12 -12 -8 4.1 12
0 -12 -8 -3.9 11.8
0 12 -8 2 5.4
0 12 8 -6.8 5.7
0 -12 -8 3.6 7.2
0 -12 8 -3.3 10.3
12 -12 8 0.4 7.3
12 -12 8 -1 10.2
7 -13 8 8.4 10
6 7 8 29 13.3
13 -7 -8 14.4 5.7
-13 7 -8 8.2 5.5
13 -6 8 19.4 10.7
-7 -6 -8 4.5 7.3
-6 13 -8 16 5.5
-7 13 8 19.5 6.1
6 -13 -8 11 9
7 6 -8 17.4 5.3
13 -6 8 17.9 11.7
-7 -6 -8 11 9.2
7 -13 8 12.9 10.6
13 -7 -8 9.7 11.9
6 -13 -8 7.8 7.8
-6 -7 -8 -2.7 7.2
13 -7 8 -7.3 9.6
7 -13 -8 8.8 9.9
6 -13 8 3.6 10.1
7 -13 -8 -15 7.5
7 6 8 -4.3 11.9
6 -13 8 -2.7 8.2
-6 -7 -8 9.1 9.6
-13 6 -8 3.1 5.2
13 -7 8 3.6 9.9
13 -6 -8 6.3 5.6
13 -6 -8 -4.4 12.2
6 7 -8 5 5.3
-7 13 -8 3.9 5.3
-6 13 8 5.2 5.3
13 -5 8 21.8 10.7
8 -13 8 31.9 11.1
8 -13 8 19.5 10.8
-13 8 -8 28.6 6.6
-8 -5 -8 24.4 9.8
-8 -5 -8 23.2 7.3
5 -13 -8 24.1 8.1
8 5 -8 37.5 6
-5 13 -8 30.2 6
8 5 -8 13.6 8.1
13 -5 8 31.5 12.3
5 -13 -8 24.4 9.2
13 -8 -8 36.5 6.4
5 8 8 39.1 12.7
-5 -8 -8 36 11.5
8 -13 -8 8.4 8.6
13 -5 -8 33.4 6.6
13 -8 8 26.9 11
13 -5 -8 18.2 13.3
-5 -8 -8 22.7 8.4
-5 13 8 23.7 10.8
8 5 8 28.2 13.2
-5 13 8 25.8 6
-8 13 -8 21.7 5.6
5 8 -8 34.5 6.4
8 -13 -8 14.4 10.6
5 -13 8 38.5 11.3
4 -13 -8 139.99 14.4
-9 -4 -8 168.38 16.5
-4 13 -8 165.48 11.7
-13 9 -8 161.78 12
13 -4 8 173.28 18.9
-9 -4 -8 148.29 13.5
13 -4 8 131.59 16.3
4 -13 -8 163.28 16
9 4 -8 168.38 12.2
9 4 -8 125.99 15.2
9 -13 8 174.18 17.7
4 9 8 172.98 19.6
9 -13 8 183.48 17.7
-9 13 -8 124.99 11.1
13 -4 -8 131.79 11.8
13 -4 -8 119.79 21.8
-4 -9 -8 110.69 14.8
4 -13 8 144.59 16.2
-13 9 8 102.09 9.8
13 -9 8 142.39 16.3
9 4 8 153.98 19.6
-4 -9 -8 142.19 18.3
9 -13 -8 126.39 18.6
-4 13 8 140.49 10.8
4 9 -8 126.19 11.2
-3 13 -8 189.18 12.7
3 10 8 134.89 18.2
13 -3 8 203.98 20.1
-10 -3 -8 201.98 17.6
-3 13 -8 165.18 12.1
-3 -10 8 173.18 17.6
10 -13 8 177.78 18.1
-10 -3 -8 178.68 14.6
10 3 -8 174.68 13
10 -13 8 174.38 14.6
10 3 -8 187.88 12.8
3 -13 -8 168.88 14.4
-13 10 -8 186.48 13.1
10 3 -8 174.08 15.3
10 -13 8 214.48 19.1
3 -13 -8 198.88 17.2
-3 -10 -8 111.49 15.1
-3 13 8 135.89 11.5
13 -3 -8 133.99 11.5
13 -10 8 160.58 16.6
-3 -10 -8 146.29 19.2
10 3 8 153.88 19.8
3 -13 8 156.08 17.4
3 10 -8 146.89 11.8
13 -3 -8 119.69 22.2
-10 13 -8 143.09 11.4
10 -13 -8 130.09 13.6
13 -10 8 130.79 14.1
10 -13 -8 94.79 15.5
-11 -2 -8 77.99 9.2
-11 -2 -8 57.79 11.1
11 -13 8 70.49 12.9
11 -13 8 47.7 11.5
-13 11 -8 68.39 7.7
11 2 -8 60.39 8.5
11 -13 8 72.79 9.6
2 -13 -8 54.99 10.5
-2 13 -8 73.49 7.9
2 11 8 68.59 10
11 2 -8 83.59 8.7
-2 -11 8 68.39 13.1
2 -13 -8 64.29 8.4
-2 13 -8 72.49 7.5
13 -2 8 47.5 13.1
-2 -11 -8 47.9 9.9
2 -13 8 80.49 13
13 -11 8 93.99 13.6
-13 11 8 50.09 6
-2 -11 -8 53.89 13.7
13 -2 -8 75.09 10
-13 2 -8 65.59 11.1
2 11 -8 83.99 7.9
13 -11 8 68.79 9.3
11 2 8 49.3 13.6
-2 13 8 66.19 9.7
11 -13 -8 41.5 13.9
-11 13 -8 81.19 7.7
11 -13 -8 54.79 10.5
12 -13 8 98.29 14.1
-1 -12 8 76.99 13.3
-12 -1 -8 96.89 11.6
1 12 8 93.49 10.8
-13 12 -8 81.19 10.7
-12 -1 -8 80.39 12.5
1 -13 -8 90.19 10.7
1 -13 -8 77.19 11.8
12 -13 8 79.79 9.7
12 -13 8 59.69 11.4
-1 13 -8 94.39 10.2
13 -1 8 76.89 14.2
12 1 -8 84.19 10.7
12 1 -8 76.49 11.5
-1 13 -8 78.79 10.6
-1 -12 8 85.49 12.6
-12 13 -8 63.89 7.2
1 12 -8 61.69 7.2
-1 -12 -8 51.89 9.6
13 -1 -8 86.89 8.2
13 -12 8 74.19 9.7
-13 1 -8 54.69 10.8
12 -13 -8 64.09 14.7
12 1 8 72.79 14.7
13 -12 8 52.09 12
1 -13 8 54.69 12.4
-1 13 8 63.39 7.5
-1 -12 -8 46.5 13.6
0 13 8 97.79 11
0 -13 8 88.49 12.7
-13 0 -8 86.79 13.9
13 0 -8 88.69 10.4
0 13 -8 93.29 10.6
13 -13 8 88.09 13.8
-13 0 -8 100.29 11.7
0 -13 8 77.49 13.6
13 0 8 105.69 18.1
-13 13 -8 97.49 10.5
13 0 -8 97.09 10.8
13 -13 8 93.19 13.3
-7 14 8 3 5.6
7 7 8 -1.1 13.2
14 -7 -8 -3.5 12.6
14 -7 8 1.9 10.7
-7 -7 -8 -4.4 7.6
-14 7 -8 3.1 6.2
-7 -7 -8 8.8 9.5
7 7 -8 6.1 5.5
7 -14 8 -2.4 9.2
7 -14 -8 -3.2 7.8
14 -7 -8 9 5.9
7 -14 8 3.8 10.3
7 -14 -8 6.3 9.2
14 -7 8 -1.5 9.8
-7 14 -8 1.5 5.4
6 -14 -8 23.2 9.6
-14 8 -8 41.2 7.3
14 -6 8 27 12
6 -14 -8 21.4 8.2
-8 14 8 30.7 6.5
6 8 8 36.4 13.4
14 -6 8 23.8 10.2
-6 14 -8 37.3 6.3
8 -14 8 21.3 10.1
8 -14 8 37.5 11.8
-8 -6 -8 30.2 7.9
-8 -6 -8 35 10.5
14 -8 -8 33.8 6.4
8 6 -8 50.69 6.6
6 -14 8 29.8 11.3
8 -14 -8 22.7 10.5
-6 14 8 25.9 6
-6 -8 -8 26.3 8.5
6 8 -8 24.5 6
-8 14 -8 18.5 5.7
-14 6 -8 17.6 7
14 -8 8 -2.2 14.9
-6 -8 -8 24.6 10.5
8 -14 -8 9 8.8
14 -6 -8 28.1 6.4
14 -6 -8 23.6 14.8
8 6 8 20.2 13.8
14 -8 8 27.5 11.3
-5 14 -8 152.38 12.6
5 -14 -8 195.58 18
-5 14 -8 202.38 12.7
9 -14 8 196.08 18.7
-14 9 -8 181.28 13.2
9 -14 8 214.28 18.7
5 -14 -8 166.48 15.3
-9 -5 -8 184.98 14.4
-9 -5 -8 185.48 17.6
9 5 -8 169.38 16.2
5 9 8 145.49 19.9
9 -14 8 163.28 13.4
9 5 -8 194.38 13
14 -5 8 184.48 19.5
9 5 -8 167.68 13.2
-5 -9 -8 187.68 19.4
14 -9 8 166.58 18.4
-5 -9 -8 152.28 15.5
5 9 -8 169.18 12.5
-14 9 8 158.18 12.3
14 -5 -8 169.38 12.7
-9 14 -8 162.18 11.8
-5 14 8 154.58 12.3
5 -14 8 177.78 18
-14 5 -8 161.68 13.4
9 -14 -8 128.59 15.8
14 -9 8 149.09 14.8
9 5 8 187.48 22
9 -14 -8 168.68 19.8
10 -14 8 36.6 11.9
-10 -4 -8 30.1 10.1
-4 14 -8 48.1 6.7
4 -14 -8 44.3 10.3
4 -14 -8 40.8 8.3
10 4 -8 58.19 7
4 10 8 -0.8 21.1
10 4 -8 34.3 7.3
-10 -4 -8 50.19 8.6
10 -14 8 37.7 11.8
14 -4 8 22.9 12.4
10 4 -8 31.1 8.4
-14 10 -8 42.6 6.9
4 10 8 32.5 6
10 -14 8 37.6 8.4
-4 14 -8 37.7 7.1
14 -10 8 46.2 8.9
14 -4 -8 19.6 15
-4 14 8 43 6.5
10 4 8 54.19 14.3
-4 -10 -8 45.9 12.3
-14 4 -8 41.7 7.2
-4 -10 -8 39.1 9.7
14 -10 8 55.29 12.3
14 -4 -8 62.09 7.5
4 -14 8 42.2 12.1
-10 14 -8 50.59 6.8
10 -14 -8 23.5 9.6
10 -14 -8 46.7 12.8
-14 10 8 56.29 7.1
4 10 -8 53.09 6.9
11 -14 8 42.3 11.8
-11 -3 -8 56.99 11.3
11 -14 8 60.09 9
14 -3 8 47 14
11 -14 8 43.1 11.3
-11 -3 -8 55.39 8.5
3 -14 -8 52.19 8.5
3 11 8 55.59 7.4
3 -14 -8 53.09 11
-3 14 -8 56.99 6.8
11 3 -8 49.3 7.6
-14 11 -8 53.79 7.1
-3 14 -8 46.8 7.4
11 3 -8 47.6 8.5
11 -14 -8 59.09 14.1
-3 -11 -8 65.29 13.6
3 -14 8 85.49 13.8
14 -3 -8 86.59 10.6
3 11 -8 73.19 7.7
-3 14 8 74.49 10.1
14 -11 8 69.49 9.8
-14 11 8 75.19 9.8
-14 3 -8 52.29 7.5
11 -14 -8 72.99 11.3
-11 14 -8 80.99 9.8
-3 -11 -8 79.59 11.2
11 3 8 93.19 15.8
14 -11 8 80.79 13.7
12 2 -8 40.6 8
2 -14 -8 48.9 8.3
2 -14 -8 29.4 9.5
12 -14 8 41.6 12.1
12 2 -8 54.99 7.7
-2 -12 8 45 12
-12 -2 -8 54.99 8.9
-12 -2 -8 26.5 10
-14 12 -8 43.6 7.2
-2 -12 8 43.5 8.4
14 -2 8 42.8 13.4
2 12 8 45.3 7
12 -14 8 44.3 8.7
-2 14 -8 42.4 7.1
-2 14 -8 49.3 6.7
-12 14 -8 28.7 6.2
12 -14 -8 30.3 13.3
14 -12 8 25.1 8.4
-2 -12 -8 21.5 9.6
2 12 -8 34.5 6.6
14 -12 8 37.7 11.9
12 -14 -8 11.9 9.7
14 -2 -8 35.5 6.6
-14 12 8 34.5 6.6
-12 -2 8 29.5 5.6
12 2 8 27.4 12.9
-2 -12 -8 29.6 12.9
2 -14 8 20.4 11.2
-2 14 8 29.4 6.4
14 -1 8 76.19 14.9
-1 14 -8 76.19 10.3
-14 13 -8 73.69 10
-13 -1 -8 88.79 9.8
-1 -13 8 64.09 9.4
1 13 8 71.29 7.9
1 -14 -8 75.39 10.9
13 -14 8 91.29 10.3
13 1 -8 75.79 10.5
-1 -13 8 62.69 12.8
13 -14 8 56.09 12.4
13 1 -8 63.89 8.5
1 -14 8 88.59 12.4
-1 14 8 99.99 10.9
-1 -13 -8 81.59 11
-13 -1 8 78.79 8.5
13 1 8 101.99 17.6
1 13 -8 96.99 10.3
-14 13 8 95.89 10.4
1 -14 8 82.69 13.8
-1 -13 -8 53.49 12.7
14 -1 -8 92.19 10.8
-13 14 -8 80.19 10.3
14 -13 8 95.49 14.1
14 -13 8 87.29 13.5
13 -14 -8 105.89 12
0 -14 -8 5.1 5.4
0 -14 8 -3.6 7.4
14 -14 8 2.3 7.7
0 14 -8 0.2 5.4
-14 14 8 3.4 6.1
0 -14 8 -1.7 10.6
-14 14 -8 -0.3 5.3
14 0 -8 4.2 5.3
14 0 -8 -2.1 5.6
14 -14 -8 -2.8 8.1
0 14 8 -2 5.9
0 -14 -8 4.3 7.9
14 -14 8 2.9 10.5
-14 0 -8 9.8 6.4
14 0 8 0.5 11.8
-14 0 8 -4.5 4
-15 8 -8 66.09 8
-8 15 8 75.19 10.7
-8 -7 -8 87.89 13.1
7 -15 -8 69.69 12.5
-8 -7 -8 77.29 9.8
15 -8 -8 95.79 10.4
-7 15 -8 73.99 9.7
8 7 -8 77.19 10.1
8 -15 8 76.89 13.5
-7 15 -8 55.89 7.6
7 -15 -8 62.79 9.7
8 7 8 49.6 14.1
8 -15 -8 72.99 10.2
15 -8 8 84.09 12.3
7 -15 8 69.59 13.4
-15 8 8 71.79 7.6
-7 -8 -8 68.09 12.7
15 -7 -8 77.79 10.7
-7 15 8 66.99 10
-8 15 -8 79.19 7.6
-15 7 -8 80.39 8.9
-7 -8 -8 71.39 10
15 -8 8 49 11.6
8 -15 -8 55.09 11.7
7 8 -8 79.59 7.7
15 -7 -8 47.1 15.5
-9 -6 -8 35.9 8
6 -15 -8 47 11.2
-6 15 -8 43 6.2
15 -6 8 28.5 12.4
9 6 -8 41 6.4
9 -15 8 47.7 12.6
6 -15 -8 37.4 8.8
-9 15 8 32.3 6.4
-15 9 -8 41.1 7.2
-6 15 -8 27.1 7
9 6 -8 39.1 10
9 6 -8 41.1 8.2
-9 -6 -8 34.6 10.7
9 -15 8 11.6 9.7
9 -15 8 40.1 7.6
6 9 -8 64.39 7.3
-15 6 -8 53.89 8
-6 15 8 58.19 6.9
9 -15 -8 33.9 11.4
9 -15 -8 51.09 10.2
15 -9 8 31.7 11.6
15 -6 -8 51.99 7.2
-6 -9 -8 49.1 9.2
15 -6 -8 44.8 16.7
15 -9 8 51.49 9.3
9 6 8 39.8 14.1
6 -15 8 44.3 12.5
-9 15 -8 43 6.5
-6 -9 -8 47.8 11.9
-15 9 8 53.49 7.1
10 5 -8 97.79 11.4
-10 -5 -8 96.99 15.1
10 -15 8 91.29 13.1
10 -15 8 97.29 16.4
10 -15 8 70.59 12.6
-15 10 -8 88.59 10.5
10 5 -8 101.79 10.3
-10 -5 -8 109.39 10.7
5 -15 -8 89.59 14.4
5 -15 -8 81.29 12.8
10 5 -8 93.79 12.8
-5 15 -8 87.89 9.7
-5 15 -8 94.29 9.4
15 -5 8 60.89 13.9
-10 15 8 93.79 11.2
5 10 8 93.79 10.3
10 -15 -8 65.99 10.5
15 -10 8 63.19 13
10 5 8 56.89 14.8
-15 5 -8 89.89 9.3
5 -15 8 65.99 12.9
-10 15 -8 75.39 7.5
15 -5 -8 57.49 16.6
5 10 -8 77.89 10.5
-5 -10 -8 70.79 13.2
15 -5 -8 73.19 10.9
10 -15 -8 54.79 12.7
-5 15 8 73.69 7.6
15 -10 8 64.59 9.9
-5 -10 -8 50.39 9.3
-15 10 8 74.29 7.6
11 -15 8 85.59 13
-15 11 -8 80.69 10.3
-11 -4 -8 73.09 12
-11 -4 -8 80.59 11.9
-4 15 -8 82.89 11.3
4 11 8 82.99 11
-4 15 -8 77.09 9.8
4 -15 -8 78.59 9.6
11 4 -8 75.99 13.3
4 -15 -8 80.89 12.2
15 -4 8 59.59 13.7
11 4 -8 95.29 9.5
11 -15 8 79.09 13.2
-15 11 8 81.39 10
11 4 8 66.99 14.6
4 11 -8 88.79 10.4
-11 15 -8 72.89 9.8
15 -4 -8 85.49 10.8
-4 -11 -8 73.19 13.6
11 -15 -8 83.19 11.4
-15 4 -8 69.29 8.8
-4 -11 -8 79.09 10.4
15 -11 8 89.49 10.4
15 -11 8 87.39 14.1
11 -15 -8 72.79 14.2
4 -15 8 78.49 13.4
-4 15 8 84.39 10.3
3 -15 -8 86.29 12.1
-3 15 -8 94.19 11.1
-3 -12 8 71.69 8.7
12 3 -8 89.29 10
12 -15 8 79.89 12.7
-3 15 -8 84.89 9.8
3 12 8 100.39 10.8
-12 -3 -8 66.29 11.5
12 -15 8 70.79 13.4
-15 12 -8 81.39 10.6
12 3 -8 87.29 11.4
-12 -3 -8 90.89 13.1
15 -3 8 79.39 15.1
12 3 8 70.69 14.7
-15 3 -8 66.59 8.5
-12 -3 8 82.09 9.7
3 -15 8 75.19 13.6
-12 15 -8 84.19 10.5
15 -12 8 111.49 13.8
3 12 -8 86.09 10.3
15 -3 -8 91.29 10.9
12 -15 -8 76.09 14.1
12 -15 -8 85.89 11.5
-15 12 8 76.19 10.5
15 -12 8 71.89 13.5
-3 -12 -8 73.39 14.1
-3 15 8 91.59 10.6
-3 -12 -8 75.89 10.6
13 2 -8 37.3 6.7
13 2 -8 32.8 7.8
2 13 8 52.69 7.6
-15 13 -8 45.1 6.8
-2 -13 8 44.5 8.4
-2 15 -8 39 6.4
13 -15 8 37.7 8.4
2 -15 -8 33.6 7.8
13 -15 8 22.4 11.5
-13 -2 -8 35.5 7.9
-2 15 -8 35.4 6.7
15 -2 8 37.6 13.4
-13 -2 -8 -0.3 13.3
-15 13 8 90.49 8.2
-2 -13 -8 59.69 10
15 -2 -8 72.09 10.4
-15 2 -8 50.29 7.5
-2 15 8 68.69 10.1
2 13 -8 57.99 7.3
-13 -2 8 74.09 9.5
13 -15 -8 75.39 10.9
15 -13 8 77.49 9.7
13 2 8 58.19 14.1
2 -15 8 62.99 13
15 -13 8 59.69 12.6
-13 15 -8 65.69 7.5
2 -15 8 80.49 9.3
-2 -13 -8 32.7 11.8
-14 -1 -8 10.5 7
14 1 -8 12.1 5.9
-15 14 -8 14.8 5.8
1 14 8 12.3 6.1
-1 -14 8 15 7.5
14 1 -8 9.3 6.5
-14 15 8 7.3 5.9
1 -15 -8 2 7
14 -15 8 14 8
15 -1 8 5.7 12
-1 15 -8 8.6 5.7
-1 -14 8 -2 9
14 -15 8 -1.7 10.7
1 -15 -8 13.7 6.1
15 -14 8 16 10.8
1 14 -8 15.6 5.8
15 -14 8 16.4 7.8
-15 1 -8 3.8 5.7
15 -1 -8 17.6 6
-1 15 8 15.3 6.2
14 1 8 0.1 11.4
-14 -1 8 12 5.6
-15 14 8 15.9 6.3
14 -15 -8 17.3 8.9
-14 15 -8 15.9 5.8
1 -15 8 9.4 10.2
-15 1 -8 5.6 5
1 -15 8 11.1 7.3
-1 -14 -8 15.3 8.5
15 0 8 -8 10.7
-15 15 -8 1.5 5.4
0 15 8 -2.9 5.7
15 0 -8 4.4 5.5
-15 15 8 0.1 6.2
-15 0 8 -1.6 4.6
0 -15 -8 5.6 7.2
15 0 -8 3.1 4.5
0 15 -8 -3.6 5.2
-15 0 -8 2.8 5.1
0 -15 8 -0.7 6.9
15 -15 -8 2.8 7
15 -15 8 -1.6 10.1
0 -15 8 -1.1 10.3
15 -15 8 5.4 7.9
-8 16 -8 48.2 6.6
-8 -8 -8 53.69 9
8 -16 -8 61.19 9.4
-8 16 -8 58.39 8.1
8 8 -8 64.49 8.8
16 -8 -8 55.29 7.2
8 -16 8 46 12.5
8 8 -8 76.19 7.7
-8 16 8 53.79 6.9
-8 -8 -8 53.79 12
8 -16 -8 57.59 12
-16 8 -8 56.29 7.6
-16 8 8 78.09 7.7
-9 -7 -8 160.08 14.1
-7 16 -8 176.88 14.2
7 -16 -8 159.68 17.4
7 -16 -8 141.29 14.6
-9 16 8 166.48 12.5
-9 -7 -8 144.99 17.1
9 7 -8 169.08 12.6
-16 9 -8 174.78 13
9 7 -8 185.08 15.2
-7 16 -8 163.58 12
9 7 -8 159.68 17.2
9 -16 8 141.49 17.7
9 -16 -8 174.68 16
-16 7 -8 203.78 14
-7 -9 -8 192.78 18.2
-7 -9 -8 184.88 15.9
16 -7 -8 189.48 13.5
-9 16 -8 204.58 13.1
7 -16 8 181.08 19.2
9 -16 -8 197.98 19.3
16 -9 8 187.48 15.6
16 -7 -8 157.18 22.8
-7 16 8 187.48 13.2
7 9 -8 202.88 13.4
-16 9 8 182.78 13.3
6 -16 -8 31.7 8.1
-6 16 -8 28.2 5.8
10 6 -8 40 8.3
10 -16 8 43.7 8.8
6 -16 -8 36.1 10.3
-10 -6 -8 38.1 7.9
10 -16 8 8.1 10.2
-6 16 -8 32.1 7.3
-10 -6 -8 33.5 10.4
10 -16 8 -4 14
6 10 8 30.5 6.5
-16 10 -8 36.2 6.7
10 6 -8 31.4 9.2
10 6 -8 43.9 6.4
-10 16 8 45.7 7
6 10 -8 38 6.5
-10 16 -8 34.3 6.4
-6 16 8 26.1 6
-6 -10 -8 21.9 10.6
-6 -10 -8 24.3 8.1
6 -16 8 21.3 11.5
10 -16 -8 20.4 8.6
16 -10 8 34 8.8
-16 10 8 33.9 6.4
16 -6 -8 8.9 13.6
10 6 8 -2 11.8
16 -6 -8 33 6.5
-16 6 -8 31.4 7.1
10 -16 -8 30.3 10.8
16 -5 8 40.4 12.6
-11 -5 -8 59.39 8.6
5 -16 -8 32.1 9.4
11 5 -8 43 7.9
-16 11 -8 57.89 7.3
-11 16 8 54.79 7.2
-5 16 -8 57.09 8
5 11 8 65.89 7.9
5 -16 -8 64.49 9.1
11 5 -8 47.4 9.2
11 5 -8 74.19 7.3
-5 16 -8 57.19 6.8
11 -16 8 65.79 9.2
-11 -5 -8 44.4 10.5
-5 16 8 75.39 10
11 -16 -8 63.49 13.2
5 11 -8 86.19 10.4
-5 -11 -8 55.99 12.4
-5 -11 -8 89.29 10.3
-16 11 8 70.99 9.8
5 -16 8 58.69 12.9
16 -5 -8 88.99 10.9
16 -11 8 94.69 13.7
11 -16 -8 85.99 10.8
-11 16 -8 80.19 10.1
-16 5 -8 65.29 8.4
-4 16 -8 77.29 9.5
12 4 -8 69.59 12.2
4 12 8 90.29 9
-16 12 -8 84.49 8.3
-12 -4 -8 80.99 12.4
12 -16 8 84.09 12.8
-12 16 8 77.89 11.1
-4 16 -8 76.29 8.4
12 4 -8 62.19 8.3
4 -16 -8 74.19 11.7
4 -16 8 98.09 10.2
-16 4 -8 86.19 11.4
12 -16 -8 57.49 12.6
-12 -4 8 81.79 9.6
4 -16 8 55.69 12.6
12 -16 -8 70.79 10.5
-4 -12 -8 81.49 10.2
16 -12 8 86.89 10.3
-16 12 8 78.99 7.9
-12 16 -8 81.39 10
-4 16 8 86.19 10.4
16 -4 -8 70.39 10.1
4 12 -8 73.29 10.2
13 -16 8 -2 9.2
-13 -3 -8 14.7 7.4
3 -16 -8 11.9 7.4
13 -16 8 14 7.8
3 13 8 15.1 6.6
-3 16 -8 18.1 5.8
-3 -13 8 19.2 7.5
-3 16 -8 17.3 6.3
-16 13 -8 22 6.1
16 -3 8 16 11.9
-13 16 8 15.5 6.1
13 3 -8 16.1 7.2
13 3 -8 18.8 6.5
-16 3 -8 17.4 6.6
13 -16 -8 3.5 16.4
3 -16 8 -3.2 10.3
16 -13 8 13.3 7.9
-3 -13 -8 1.6 10.3
-13 -3 8 16.6 5.9
-3 -13 -8 20.9 8.1
16 -3 -8 11.8 6
16 -13 8 3.5 9.5
3 13 -8 13.4 5.5
-3 16 8 16.8 5.9
13 3 8 -6.9 10.4
-16 13 8 12.9 5.9
-13 16 -8 14.1 5.5
13 -16 -8 24.2 8.8
3 -16 8 13.9 7.6
2 -16 -8 30.3 7.4
-14 -2 -8 31.4 7.6
-2 -14 8 21.8 7.5
-2 16 -8 29.6 6.3
-16 14 -8 34.6 6.2
14 -16 8 25.4 8.1
2 14 8 32.8 6.9
14 2 -8 22.4 6.3
14 2 -8 24.8 7
-14 16 8 23.6 5.9
16 -2 8 4.2 10.7
-14 16 -8 47.2 6.9
16 -2 -8 55.09 7.4
16 -14 8 57.19 9.1
-2 -14 -8 42.8 8.6
-14 -2 8 46.8 6.6
2 -16 8 37.5 7.6
14 -16 -8 46.4 9.3
2 14 -8 39.7 6.3
-16 14 8 44.7 7
-16 2 -8 41.7 7.1
-2 16 8 53.79 7.3
1 15 8 2.1 5.7
15 -16 8 2.8 7.6
16 -1 8 -1.4 10.4
-1 -15 8 6.7 6.9
-1 16 -8 0.2 5.3
15 1 -8 4.6 5.5
1 -16 -8 -1.7 5.9
1 -16 -8 4.3 6
-15 -1 -8 7.5 5.8
15 -16 8 -3.1 10
-16 1 8 -4.7 3.9
-16 15 -8 4.8 5.5
15 1 -8 -3.1 5.4
-15 16 8 -4.2 5.7
-15 16 -8 6.3 5.5
-16 15 8 6.6 6
16 -15 8 8.3 7.9
-1 16 8 8.1 5.7
-16 1 -8 3.1 5.2
-15 -1 8 2.6 5.3
1 15 -8 1.6 5.3
16 -1 -8 2 5.3
1 -16 8 6.9 7
16 -15 8 -3.9 13.7
15 -16 -8 10.2 7.7
-1 -15 -8 11.1 7.2
1 15 -8 0.8 7.6
16 -16 -8 -0.2 6.4
16 -16 8 -0.5 7.2
-16 0 8 -9.5 4.4
16 0 -8 -1.3 5.3
0 -16 8 1.2 6.6
-16 16 8 -0.7 5.6
0 -16 -8 15.3 6.8
0 16 -8 -1.3 4.9
-16 16 -8 -0.4 5.3
0 16 8 11.9 6
-9 -8 -8 73.69 9.1
9 8 -8 84.79 7.9
-8 17 -8 61.19 8.6
8 -17 -8 38.1 10.3
8 -17 -8 51.79 8.8
-8 17 -8 63.99 7
9 8 -8 56.19 9.1
-17 9 -8 58.59 7.5
9 8 -8 66.89 11.3
-9 -8 -8 33.3 10
-17 8 8 68.89 7.5
-9 17 8 54.49 7
-8 -9 -8 41.6 11
-9 17 -8 59.09 6.9
9 -17 -8 72.69 9.6
-8 -9 -8 77.99 9.6
-9 17 -8 66.19 8.5
17 -9 8 52.59 8.3
9 -17 -8 40.9 10.6
8 9 -8 59.29 8.7
-17 8 -8 54.69 7.4
8 9 -8 78.59 7.6
17 -8 -8 65.99 9.7
-17 9 8 74.59 7.6
-8 17 8 70.09 9.7
-7 17 -8 13.5 6.7
-7 17 -8 25 5.6
-10 -7 -8 11.2 8.7
10 7 -8 15.4 7.7
7 -17 -8 8.7 8.5
10 7 -8 17.8 5.4
10 -17 8 17.5 7.6
-17 10 -8 18.5 6.1
10 7 -8 7.2 8.9
-17 7 8 22.2 5.9
-10 -7 -8 18.8 7.2
-10 17 8 23 5.9
7 10 8 18.4 6.2
7 -17 -8 18.3 7.4
10 -17 -8 9.2 9.4
-7 -10 -8 10.1 9.6
17 -10 8 28.4 8.7
7 -17 8 3.3 10.1
-17 10 8 25.9 5.9
-17 7 -8 18.9 6.4
-10 17 -8 16.2 6.5
-10 17 -8 12.5 5.5
7 10 -8 30.5 6.1
-7 17 8 25.4 6
10 -17 -8 22.4 7.9
-7 -10 -8 21.5 8
17 -7 -8 25.2 6.1
11 -17 8 198.58 15.2
-11 17 8 196.78 13.6
11 6 -8 187.78 16.7
-6 17 -8 184.98 12.7
-11 -6 -8 193.78 14.7
-17 11 -8 187.88 13.2
-6 17 -8 205.28 14.4
11 6 -8 187.18 12.6
6 11 8 211.28 13.9
6 -17 -8 189.88 15
11 6 -8 199.58 15
-11 -6 8 214.78 13.1
17 -11 8 204.28 16.3
17 -6 -8 200.38 13.9
-11 17 -8 213.48 13.6
11 -17 -8 217.28 16.1
6 11 -8 203.98 13.6
6 -17 8 203.48 15.4
-6 -11 -8 204.38 15.8
-17 11 8 213.98 13.5
-6 -11 -8 151.78 17.3
-17 6 -8 220.18 14.2
-6 17 8 210.78 13.5
-5 17 -8 7.9 5.5
-12 17 8 4.4 5.8
-17 12 -8 6.3 5.6
17 -5 8 -0.6 11.2
-12 -5 -8 5.3 6.8
5 12 8 11.6 6.4
12 5 -8 1.6 6.4
12 5 -8 5.8 6.9
-5 17 -8 -2.7 5.7
12 -17 8 15.7 7.6
5 -17 -8 3.8 6.7
12 -17 -8 1.4 9.6
-17 12 8 18.6 5.9
5 -17 8 11.2 7.2
-17 5 -8 5.2 6.3
-5 17 8 15.1 5.6
-5 -12 -8 8.9 7.6
-12 -5 8 7.9 5.5
17 -5 -8 12.8 5.8
17 -12 8 12.8 8
5 12 -8 10.9 5.4
5 -17 8 1.2 9.5
-5 -12 -8 3.1 9.1
-12 17 -8 8.5 5.4
12 -17 -8 14.5 7.9
13 -17 8 54.19 8.7
-4 17 -8 63.89 7.6
-4 -13 8 41 7.5
13 4 -8 48.1 8.2
13 4 -8 43.9 7.1
-13 -4 -8 55.69 8.4
4 13 8 47.5 7.4
-17 13 -8 45.5 6.8
-13 17 8 62.59 7.4
4 -17 -8 38.1 7.5
13 -17 -8 76.19 9.6
-17 13 8 73.09 7.5
-4 -13 -8 62.49 9
-17 4 -8 48.7 7.3
-13 -4 8 52.89 6.8
4 -17 8 66.59 8.9
4 13 -8 78.69 7.8
-4 17 8 73.59 7.7
-13 17 -8 56.09 7.1
17 -4 -8 58.99 7.4
17 -13 8 67.69 9.5
3 14 8 100.49 11
-17 14 -8 93.39 9.7
14 3 -8 98.39 10.4
3 -17 -8 97.99 12.2
14 -17 8 93.99 12.2
-3 -14 8 99.09 11.9
14 3 -8 95.39 11.8
-14 -3 -8 114.39 12.1
-14 17 8 100.59 10.6
-3 17 -8 82.29 9.8
-14 17 -8 129.79 10.9
-3 17 8 120.49 11.1
-14 -3 8 116.69 10.3
3 14 -8 115.79 10.5
17 -3 -8 114.99 11.3
-17 3 -8 119.69 11.5
17 -14 8 118.69 13.1
-17 14 8 119.19 11.1
14 -17 -8 147.79 14
3 -17 8 98.79 12.2
-3 -14 -8 132.19 12.8
3 14 -8 167.08 16.9
15 -17 8 22.8 7.6
-15 17 8 18.4 5.9
-2 17 -8 25 5.7
-15 -2 -8 19.3 5.9
-17 15 -8 23 5.7
15 2 -8 20.7 5.8
2 15 8 27.4 6.4
2 -17 -8 5 5
-2 -15 8 27.1 7.2
15 2 -8 16.5 6.2
-15 17 8 19.2 5.7
17 -2 -8 34.4 6.4
-17 2 -8 28 6.1
2 -17 8 39.3 7.6
15 -17 -8 34.6 8
-2 -15 -8 35.4 7.4
-17 15 8 26.6 6.3
-15 17 -8 25.3 5.8
-2 17 8 23.9 5.9
17 -15 8 35.8 8.1
2 15 -8 23.1 5.4
-15 -2 8 28.1 5.8
2 15 -8 26.7 8
1 -17 -8 2.9 5.1
-17 16 -8 17.7 5.4
16 1 -8 4.2 5.2
-16 17 8 9.6 5.7
16 1 -8 12.9 5.4
16 -17 8 20.6 7.4
-16 17 8 15.4 4.9
1 16 8 13.2 5.8
-1 -16 8 16.8 6.5
-1 17 -8 16.9 5.2
-1 -16 -8 41.7 7.4
-17 16 8 23.9 6
1 16 -8 26.2 5.5
-17 1 -8 11.7 4.6
-16 -1 8 20.3 5.4
-16 17 -8 22.8 5.4
17 -1 -8 32.9 6
17 -16 8 31.9 7.5
-1 17 8 22.3 5.8
16 -17 -8 35.1 7.6
1 -17 8 40.2 7.5
0 -17 -8 25.9 6.1
0 17 8 10.3 5.6
17 -17 8 27.2 7.3
0 -17 8 17.3 6.5
-17 17 -8 23.8 5.5
0 17 -8 20.6 5.1
17 0 -8 20.4 5.5
-17 17 8 24.1 5.8
-9 18 -8 50.79 7.8
-18 9 8 39.4 6.4
9 9 -8 35.4 9.5
9 9 -8 54.39 6.6
-9 18 8 32.4 6
9 -18 -8 50.09 8.7
9 9 -8 40.3 8.3
-9 -9 -8 37.6 7.6
-18 9 -8 43.5 6.6
-9 18 -8 33.6 5.8
8 -18 -8 204.58 15.4
-8 18 -8 208.78 13.1
-18 10 -8 208.48 13.7
-10 18 8 224.48 14
-8 18 -8 235.28 14.9
10 8 -8 235.18 16.1
10 8 -8 206.28 13.2
-18 8 8 212.38 13.6
10 8 -8 224.78 18
-10 -8 -8 217.18 15.3
8 10 8 173.08 12.7
-18 8 -8 216.38 14
-18 10 8 212.18 13.5
8 10 -8 164.78 14.6
8 -18 8 210.48 15.2
-10 18 -8 205.58 13.3
-10 18 -8 264.57 15.7
8 10 -8 214.18 13.8
-8 -10 -8 230.38 15.8
10 -18 -8 209.08 15.6
-8 18 8 214.68 13.4
8 10 -8 255.77 19.5
11 7 -8 69.49 8.7
-11 -7 -8 63.39 8.7
-18 11 -8 69.79 7.3
7 -18 -8 58.09 8.4
11 -18 8 56.99 8.7
-18 7 8 77.89 7.6
-7 18 -8 45.2 6.3
11 7 -8 63.09 9.7
-7 18 -8 61.79 7.8
-11 18 8 65.59 9.9
7 11 8 53.69 7.4
-11 18 -8 54.69 7.4
18 -7 -8 76.19 10
-7 -11 -8 78.09 9.2
-7 18 8 70.89 9.4
7 11 -8 70.29 9
11 -18 -8 79.89 9.4
-11 18 -8 80.39 9.3
-18 7 -8 74.99 10
7 11 -8 96.19 15.7
7 -18 8 83.79 9.4
-11 -7 8 75.09 9.5
18 -11 8 84.19 12.3
-18 11 8 71.29 9.6
-18 6 8 72.39 7.2
12 -18 8 58.39 8.7
-18 12 -8 58.59 7.1
-6 18 -8 58.39 7.3
6 12 8 54.39 7.4
6 -18 -8 47.2 7.7
-12 -6 -8 54.69 8.2
-12 18 8 53.99 6.9
-6 18 -8 52.79 6.6
12 6 -8 47.6 7.5
12 6 -8 54.59 8.5
18 -12 8 79.49 12.4
6 -18 8 60.39 8.5
-18 12 8 64.29 9
-12 -6 8 74.29 9.3
18 -6 -8 71.59 9.8
-6 -12 -8 74.39 9.3
6 12 -8 102.29 15.7
-6 18 8 59.89 9
12 -18 -8 79.79 11.8
-12 18 -8 64.29 7.1
-18 6 -8 78.59 7.9
6 12 -8 68.29 9.2
-5 18 -8 69.89 9.7
13 -18 8 62.29 8.6
13 5 -8 49.6 7.2
5 13 8 59.89 7.7
-13 18 8 64.69 9.1
13 5 -8 55.69 8.1
-18 13 -8 69.89 7.1
-13 -5 -8 56.99 8.2
5 -18 -8 51.99 7.6
-13 -5 8 67.29 9
5 -18 8 88.89 9
-13 18 -8 71.29 9.4
-18 13 8 77.19 9.5
5 13 -8 62.39 8.9
-5 -13 -8 74.19 11
13 -18 -8 104.29 12.1
18 -13 8 71.89 9.4
-18 5 -8 79.29 9.8
18 -5 -8 70.89 9.8
-5 18 8 75.29 9.5
-4 -14 8 0.7 6.3
14 -18 8 8.7 7.1
14 4 -8 9.4 6.3
14 4 -8 13.3 5.7
4 -18 -8 13.8 6.8
-14 -4 -8 7.8 6.4
4 14 8 9 6
-4 18 -8 8.7 5.4
-14 18 8 16.8 5.3
-18 14 -8 13.8 5.3
14 -18 -8 21.4 7.3
18 -14 8 15 7.6
4 14 -8 31.2 10
-4 -14 -8 12.5 6.9
4 14 -8 11.7 5.2
-18 14 8 3.3 5.5
-18 4 -8 16.2 5.9
-14 18 -8 10.4 5.1
4 -18 8 12.7 6.7
-14 -4 8 13.5 5.3
18 -4 -8 12.3 5.6
-4 18 8 9.7 5.5
15 3 -8 38.2 6.1
-3 -15 8 49.3 7.8
-18 15 -8 38.6 5.8
-3 18 -8 51.39 6.4
-15 -3 -8 36.6 6.1
15 -18 8 48.3 8.1
15 3 -8 39.8 7
3 15 8 38.5 6.5
-15 18 8 41.6 5.6
-15 -3 8 38.2 5.9
-3 18 8 38.7 6.1
3 -18 8 49.8 7.7
-18 15 8 49.6 6.7
18 -15 8 53.49 8.2
3 15 -8 44.9 6.1
-3 -15 -8 50.89 7.7
-18 3 -8 33.3 6.1
-15 18 -8 41.4 6
3 15 -8 77.39 13.2
15 -18 -8 71.49 11.1
18 -3 -8 52.09 6.6
2 16 8 3.2 5.3
-16 18 8 -2.2 5.1
16 2 -8 3.5 4
-2 -16 8 0.2 6.1
-16 18 8 3.4 3.4
-18 16 -8 1.6 4.8
16 -18 8 1.4 6.5
16 2 -8 0.6 4.8
-2 18 -8 4.7 4.7
18 -2 -8 8.3 5.1
2 -18 8 20.3 6.6
18 -16 8 21.8 7.1
-16 -2 8 15.7 5.2
2 16 -8 4 6
-16 18 -8 14.2 5.3
16 -18 -8 28.4 7.3
-2 -16 -8 25.3 6.6
-2 18 8 16.3 5.6
2 16 -8 14.4 5
-18 2 -8 21.8 5
-18 16 8 18.3 5.6
17 -18 8 6.2 6.6
17 1 -8 0.6 4.5
-17 18 8 3.2 5.1
-1 18 -8 7.7 4.5
-1 -17 8 4.4 5.9
1 17 8 3.6 4.9
-18 17 -8 4.7 4.8
17 -18 -8 2.9 5.6
-18 17 8 8 5.1
-17 18 -8 8.5 4.8
-17 -1 8 -1.8 4.4
1 17 -8 4.5 4.7
-1 -17 -8 16 6.1
18 -1 -8 5.4 4.8
-1 18 8 9.5 5.3
18 -17 8 -0.7 6.3
1 -18 8 5.6 6
0 18 -8 -1.5 4.1
0 -18 8 1.8 5.7
-18 18 -8 2 4.3
18 -18 8 4.7 6.1
-18 18 8 3.5 4.9
0 18 8 -0.6 4.7
0 -18 -8 2.6 4.5
18 0 -8 3.4 4.6
10 9 -8 80.59 13.1
-10 19 8 76.59 9.2
-10 -9 -8 68.59 10.6
-19 9 8 72.09 8.9
-9 19 -8 84.29 10.2
10 9 -8 68.39 8.5
9 -19 -8 78.89 11.1
10 -19 8 78.99 10.6
-9 19 -8 65.19 8.6
10 9 -8 94.69 11.4
-19 10 -8 76.09 8.8
-9 19 8 79.79 9.5
-19 9 -8 74.29 9.2
9 10 -8 95.59 11
10 -19 -8 67.39 10.8
9 -19 8 76.09 11.3
-10 19 -8 94.49 10.4
-10 -9 8 78.89 9.3
-9 -10 -8 71.09 10.5
9 10 -8 71.19 8.8
9 10 -8 93.39 14.7
-19 10 8 79.29 8.9
-10 19 -8 78.89 8.6
8 11 8 70.69 8.9
11 -19 8 70.89 10.3
-8 19 -8 79.29 8.4
-11 -8 -8 74.09 10.7
-19 11 -8 77.59 9.1
11 8 -8 95.19 11
-11 19 8 78.99 8.8
11 8 -8 90.69 13.4
-8 19 -8 88.49 10.4
11 -19 8 68.29 8.3
8 -19 -8 85.19 10.9
-19 8 8 88.29 9.1
-8 19 8 104.59 9.6
8 -19 8 93.59 11.2
-11 19 -8 105.89 10.3
8 11 -8 121.39 14.5
-8 -11 -8 90.79 11.2
-11 -8 8 101.99 9.6
-19 8 -8 97.99 9.7
8 11 -8 87.89 9.7
11 -19 -8 101.89 11.4
-11 19 -8 90.89 9.1
-19 11 8 94.29 9.4
12 7 -8 25.2 6.5
-7 19 -8 21.7 5.3
12 -19 8 24.8 7.4
-19 12 -8 23.8 5.4
7 12 8 21.1 6.3
-7 19 -8 26.6 6.2
-19 7 8 34 5.9
12 -19 8 17.9 6.3
-12 -7 -8 20.1 6.6
7 -19 -8 24.1 6.5
-12 19 8 27.1 5.4
12 7 -8 21.3 7
19 -7 -8 41.4 6.1
-7 19 8 54.79 6.6
19 -12 8 40.7 7.5
-7 -12 -8 45.8 7.5
7 -19 8 55.49 7.8
-12 -7 8 53.19 6.4
12 -19 -8 47.6 7.7
-19 12 8 43.5 6.1
-19 7 -8 48.1 6.7
-12 19 -8 41.2 5.9
7 12 -8 47.8 6.1
13 6 -8 -4.1 6.1
-13 19 8 6.9 5
13 -19 8 4.6 6.8
-6 19 -8 1.8 5.3
6 13 8 2.8 5.9
-13 -6 -8 2.3 6.4
-19 13 -8 1 4.8
6 -19 -8 -1.7 5.6
13 -19 8 5.9 5.6
13 6 -8 6.4 5.4
-19 6 8 1.1 4.9
-19 6 -8 10.5 5.3
13 -19 -8 17.1 6.7
-13 -6 8 11.3 5.2
19 -6 -8 9.1 5.2
6 -19 8 13 6.3
6 13 -8 30.2 8.9
6 13 -8 9.5 4.7
-19 13 8 14.1 5.2
-13 19 -8 8.2 4.8
-6 19 8 14.4 5.4
19 -13 8 12.9 7.2
-6 -13 -8 10 6.3
-5 19 -8 36.7 5.8
14 -19 8 28.2 7.3
14 5 -8 35.7 6
14 5 -8 24.5 6.4
-19 14 -8 29.1 5.4
-14 -5 -8 20.5 6.4
5 14 8 30.6 6.3
-14 19 8 21.7 4.7
5 -19 -8 27.8 6.8
-19 5 8 33.3 5.6
19 -14 8 51.49 8
-5 19 8 42 6
-5 -14 -8 57.99 7.7
5 14 -8 35.8 5.6
5 -19 8 51.39 7.1
-19 5 -8 41.8 6.2
-14 19 -8 37.1 5.6
14 -19 -8 71.89 10.5
-19 14 8 41.3 6.1
19 -5 -8 48.9 6.3
-14 -5 8 38.2 5.7
15 4 -8 16.7 5.9
-15 -4 -8 9.2 4.8
-19 4 8 30.5 5.1
4 15 8 20.4 5.9
-4 19 -8 30.6 5.3
15 4 -8 28.1 5.5
4 -19 -8 11.6 4.9
-4 -15 8 7 5.7
-19 15 -8 28.7 5
15 -19 8 25.3 6.9
-4 -15 -8 47.8 7.1
-4 19 8 41.6 6.1
-19 4 -8 47.6 6.2
19 -4 -8 43.9 6
-15 19 -8 36.3 5.5
4 -19 8 49.7 7.4
-19 15 8 39.7 6
19 -15 8 52.89 8
15 -19 -8 54.89 7.9
-15 -4 8 41.5 5.8
4 15 -8 47.3 6.1
-3 19 -8 14.9 4.7
-19 16 -8 8.3 4.6
-19 3 8 11.8 4.5
-16 19 8 -3 4.4
16 3 -8 7.8 4.7
3 16 8 11.4 5.6
-3 -16 8 -1 5.7
16 -19 8 7.3 6.4
16 3 -8 4.9 4.6
-19 16 8 13.8 4.9
16 -19 -8 26.2 6.4
3 16 -8 16.9 4.6
3 16 -8 19.3 6
-19 3 -8 25.2 5.1
-16 -3 8 16.4 4.9
-3 19 8 12.6 5
-3 -16 -8 23.2 5.8
3 -19 8 21.5 6.1
19 -16 8 15.7 6.8
19 -3 -8 17.2 5
-16 19 -8 16.3 4.7
-19 17 -8 17.5 4.7
-2 -17 8 15.6 5.9
17 -19 8 23.4 6.6
-2 19 -8 15.3 4.5
17 2 -8 13 4.5
2 17 8 17.7 5.2
19 -2 -8 22.1 5.1
19 -17 8 24.5 6.7
-2 -17 -8 31.9 5.8
-17 19 -8 15.7 4.1
2 -19 8 23.1 5.9
-17 -2 8 17.4 4.7
-19 17 8 15.9 4.9
17 -19 -8 15.9 4.9
-2 19 8 19.1 5.3
2 17 -8 18.2 4.7
18 -19 8 20.5 5.9
-1 -18 8 13.2 5.5
-19 18 -8 20.9 4.2
1 18 8 21.9 5.2
-18 19 8 11.9 3.9
18 1 -8 19.4 4.6
-1 19 -8 16.9 4.5
-19 18 8 31 5.3
1 18 -8 36.4 5
19 -18 8 39.6 6.8
19 -1 -8 36.6 5.1
-1 19 8 42.9 5.9
1 -19 8 45.3 6.2
-19 19 8 -2.6 3.4
0 19 8 1.7 4.7
19 0 -8 -1 4.1
19 -19 8 1.6 5.8
0 19 -8 2.1 4.1
0 -19 8 1.2 4.9
10 10 -8 166.68 14.1
-10 20 8 124.29 10.1
10 -20 8 130.59 11.3
-10 -10 -8 124.99 11.4
10 -20 -8 137.39 11.6
-10 -10 8 136.49 10.3
10 10 -8 140.69 10.9
-10 20 -8 153.98 11
-20 10 -8 121.09 9.9
-20 10 8 133.69 9.9
10 10 -8 121.19 9.6
9 -20 -8 15.3 5.8
-11 -9 -8 21.9 6.3
-9 20 -8 14.4 4.2
11 -20 8 24.2 6.1
11 9 -8 30.4 6.4
-9 -11 8 27 5.4
-20 11 -8 31 5.3
-9 20 -8 31.2 5.9
11 9 -8 29.3 7
-11 20 8 23.9 5.2
-20 9 8 34.4 5.5
-20 11 8 32.7 5.6
-20 9 -8 27.9 5.4
9 11 -8 47.4 8.5
-9 20 8 30.9 5.6
-11 20 -8 16 4.3
9 11 -8 24.6 5.1
-11 20 -8 25.3 5.4
11 -20 -8 26.4 6.4
9 -20 8 36.3 7
-9 -11 -8 31.6 6.6
-11 -9 8 34.9 5.6
12 8 -8 26.5 5.9
12 -20 8 13 6.1
12 8 -8 32.4 6.8
-12 -8 -8 28.8 6.4
-8 -12 8 41.4 5.8
-20 8 8 36.5 5.6
8 -20 -8 28.8 6.2
-12 20 8 34.9 5.2
-20 12 -8 31.4 5.4
-8 20 -8 33.4 5.9
8 12 8 18.3 5.1
12 -20 8 15.2 5
-8 -12 -8 52.69 7.3
-12 20 -8 35.8 4.8
-20 8 -8 45.9 6.1
-8 20 8 48.3 6.1
12 -20 -8 41.5 7
8 -20 8 44.6 7
8 12 -8 38.7 5.5
-12 -8 8 54.59 6.1
-20 12 8 59.69 6.3
13 7 -8 57.89 8.4
7 -20 -8 58.99 9.2
-13 -7 -8 67.59 9.3
-7 20 -8 64.79 8.1
13 -20 8 53.79 7.9
13 7 -8 62.39 10
-20 7 8 53.89 7.6
-20 13 -8 61.79 7.9
7 13 8 57.09 8.4
-20 13 8 62.69 8
-13 -7 8 60.29 8
7 -20 8 67.09 9.4
-20 7 -8 60.49 8.3
13 -20 -8 77.09 9.9
-7 20 8 65.59 8.3
7 13 -8 62.09 6.5
-7 -13 -8 61.69 9.3
14 6 -8 31.8 5.9
-6 20 -8 30.6 5.3
14 6 -8 28.3 6.1
-20 14 -8 34.3 5.2
-14 -6 -8 26.5 6.1
6 -20 -8 32.4 6.3
14 -20 8 28.8 6.9
-20 6 8 33.7 5.4
6 14 8 27.1 5.9
-6 20 8 56.99 7.8
20 -14 8 53.29 7.1
20 -6 -8 41.7 5.8
-20 6 -8 43 5.9
-6 -14 -8 40.8 6.6
14 -20 -8 75.59 9.8
6 14 -8 45.6 5.6
-20 14 8 53.09 6
-14 -6 8 51.49 5.8
6 -20 8 50.29 6.9
-5 20 -8 12.3 4.8
-15 -5 -8 5.6 6.5
15 5 -8 11.2 5.1
-20 5 8 22.3 4.7
15 5 -8 10.8 4.8
5 -20 -8 5 5.5
15 -20 8 17.9 6.6
5 15 8 6.2 5.1
-20 15 -8 14.4 4.5
-20 15 8 13.7 4.8
-5 -15 -8 22.4 5.7
5 -20 8 18.4 6.1
-15 -5 8 14.3 4.6
-5 20 8 16.5 5
20 -15 8 17 6.8
15 -20 -8 29.6 6.3
20 -5 -8 15.3 4.8
-20 5 -8 20.5 5
5 15 -8 17.3 4.5
5 15 -8 34.8 7.8
-20 16 -8 4.3 4.2
-20 4 8 4.9 4.1
16 4 -8 -0.3 4.4
-4 20 -8 3.3 4.1
16 -20 8 -0.2 5.8
4 16 8 2.3 4.9
-20 4 -8 3.6 4.3
-4 20 8 -0.2 4.7
-20 16 8 -1.3 4.3
4 16 -8 5.6 5.1
20 -16 8 -2 6.2
16 -20 -8 12.2 5.6
4 16 -8 -2.2 3.9
-16 -4 8 -4.2 4.2
-16 20 -8 -0.9 5.2
-4 -16 -8 13.3 5.3
4 -20 8 3.4 5.3
20 -4 -8 4 4.5
-20 17 -8 16.8 4.4
17 -20 8 19.6 6.2
17 3 -8 13.4 4.5
3 17 8 16.6 4.9
-3 20 -8 15.1 4
-20 3 8 14.9 4.2
3 17 -8 17.8 4.3
20 -17 8 18.8 6.4
-3 -17 -8 25.4 5.2
-20 17 8 13.8 4.7
-17 -3 8 13.6 4.3
-3 20 8 19.5 4.8
20 -3 -8 20.6 4.5
17 -20 -8 17 4.7
3 -20 8 26.6 5.8
-2 20 -8 3.9 3.8
18 2 -8 2.2 4.2
-20 2 8 4.2 3.5
18 -20 8 2 5.8
2 18 8 3.5 4.6
-20 18 -8 2 2.8
2 -20 8 3.3 5.1
-2 20 8 7.1 4.8
-2 -18 -8 4.9 3.6
20 -18 8 3.7 5.6
-20 18 8 0.5 4.1
-18 -2 8 -3.9 4.3
2 18 -8 5.3 3.9
20 -2 -8 4.6 4.1
11 -21 8 3.8 4.1
11 10 -8 11.4 4.3
-21 11 -8 15.5 4.5
-10 21 -8 19.3 5.1
-21 10 8 10.2 4.7
-11 21 8 4.9 3.6
11 10 -8 13.8 6
-10 -11 8 12.1 5
-11 -10 -8 9.1 5.4
10 -21 -8 8.1 5.3
10 -21 8 18.1 5.3
11 -21 -8 15.7 5.3
-21 10 -8 22.4 4.6
10 11 -8 28.1 6.7
-21 11 8 20.8 4.9
-10 -11 -8 21.1 5.6
-11 21 -8 25.1 4.8
-11 -10 8 27.9 5.1
-10 21 8 17 4.6
-9 21 -8 63.29 8
9 -21 -8 49.3 7.7
-9 -12 8 59.09 7.5
-12 -9 -8 66.79 8.9
-21 12 -8 55.69 7.2
-21 9 8 51.69 7.3
12 9 -8 58.09 9.4
12 9 -8 56.69 7.8
-9 21 8 49.99 5.7
9 12 -8 41.6 5.1
-21 12 8 52.09 7.2
-21 9 -8 44.3 5.5
12 -21 -8 39.1 6.3
-12 -9 8 54.59 7.2
-9 -12 -8 41.2 6.4
9 -21 8 45.9 6.6
8 -21 -8 11.5 5.2
-8 21 -8 13.5 4.7
13 8 -8 10.6 5.2
-13 -8 -8 12.3 5.2
8 13 8 2.3 3.6
-8 -13 8 15 4.6
-21 13 -8 12.6 4.4
13 8 -8 15.7 5
-21 8 8 12.7 4.5
8 13 -8 15 6.7
-21 13 8 4.2 4.4
13 -21 -8 7.8 5.3
-8 -13 -8 3 5.5
-13 -8 8 4.5 4.4
-8 21 8 6.3 4.6
8 -21 8 6.9 5.5
8 13 -8 2.9 4.1
-21 8 -8 10.1 4.4
-21 7 8 0.3 4.2
14 -21 8 -6 4.9
-21 14 -8 7.1 4.2
7 14 8 -0.9 4.3
-7 -14 8 1.7 4.3
14 7 -8 0.1 4.5
-7 21 -8 3.6 4.3
-14 -7 -8 3.8 3.8
7 -21 -8 7.9 4.6
14 7 -8 2.6 4.7
-14 -7 8 9.2 4.4
14 -21 -8 7.9 5.4
7 14 -8 23.7 6.8
7 14 -8 -0.4 4
-7 -14 -8 11.1 5.3
7 -21 8 11 5.5
-21 7 -8 8 4.2
-21 14 8 6.3 4.4
-7 21 8 9.8 4.8
6 15 8 4.6 4.4
15 6 -8 7.3 3.7
-6 21 -8 9 4.6
15 -21 8 8.1 5.6
15 6 -8 8.9 4.6
-6 -15 8 13.4 4.4
-21 15 -8 11.2 4
-21 6 8 13.3 4.3
-6 -15 -8 10.8 5.2
-21 6 -8 5.6 4.4
6 15 -8 18.7 6.3
-21 15 8 4.5 4.4
-6 21 8 6.5 4.7
15 -21 -8 8.2 5.2
-15 -6 8 6.2 4.2
6 15 -8 2.9 4.1
6 -21 8 5.3 5.5
-21 16 -8 3.3 3.8
16 5 -8 5.1 4.4
-21 5 8 0.4 3.8
-5 21 -8 2.8 4
16 -21 8 -3 5.1
-5 -16 8 1.9 3.5
5 16 8 -0.1 4.3
-5 21 8 10.4 4.5
5 16 -8 6.4 4.1
5 -21 8 14.5 5.3
16 -21 -8 15.9 5.2
-16 -5 8 3.1 4.2
5 16 -8 6 4.3
-5 -16 -8 12 5
-21 5 -8 9.7 3.9
-21 16 8 11.2 4.3
-4 21 -8 6.9 3.9
-21 4 8 9.9 3.5
4 17 8 10 4.5
17 4 -8 14 4.4
-21 17 -8 10.4 3.1
17 -21 8 4.9 5.2
-17 -4 8 2.8 3.4
4 17 -8 16.4 4.3
-21 17 8 14.7 4.6
4 -21 8 18.2 5.4
21 -17 8 -9.3 4.5
-4 21 8 15.4 4.9
17 -21 -8 3 3.6
21 -4 -8 6.6 3.1
11 11 -8 23.1 5.9
-11 -11 -8 24.6 5.3
-22 11 -8 28 4.6
-22 11 8 25.8 4.7
11 -22 -8 19.4 4.9
-11 -11 8 20.9 4.8
-22 12 -8 11.4 4.3
-10 22 -8 13.6 3.7
10 -22 -8 18.1 4.9
-12 -10 -8 14.2 4.8
-10 -12 8 17.5 4.5
12 10 -8 2.6 4.2
12 10 -8 15.4 5.3
-22 10 8 17 4.6
-22 10 -8 8.6 4.1
-10 -12 -8 4 4.8
12 -22 -8 13.2 4.8
-22 12 8 8.4 4.5
10 12 -8 16.3 5.9
-12 -10 8 8.7 4.4
9 -22 -8 7.8 4.3
-22 13 -8 10.1 4
-9 22 -8 11.3 4
-13 -9 -8 3.9 3.5
-22 9 8 12.3 4.4
13 9 -8 9.7 4.9
13 9 -8 6.2 3.4
-9 -13 8 13.5 4.3
9 13 -8 28.8 6.5
13 -22 -8 19.2 5.1
-22 13 8 21.4 4.7
-13 -9 8 20.6 4.5
-22 9 -8 23.8 4.4
-9 -13 -8 20.4 5.4
-22 14 -8 9.4 4
-8 -14 8 10.1 4.2
-22 8 8 10.9 4.3
14 8 -8 10.4 4.1
14 8 -8 11.4 4.3
-8 22 -8 10.1 4.2
-14 -8 8 12.1 4.4
-8 -14 -8 14.8 5.1
-22 8 -8 12.7 4.2
14 -22 -8 9.7 4.9
8 -22 8 9.3 4.7
-22 14 8 16.9 4.3
8 14 -8 25.1 6.3
0 0 9 -0.6 7.3
1 -1 9 281.67 18.5
1 0 9 282.37 18.9
0 -1 9 252.17 18.2
0 1 9 296.37 19.5
2 -1 9 6.9 8.1
1 1 9 11.2 8.1
-1 -1 9 5.4 6.6
-1 -1 -9 13.1 6.1
1 -2 9 4.2 6.6
0 -2 -9 37.2 7.2
0 2 9 38.3 9.1
2 -2 9 24.6 8
2 0 9 36.1 9.3
1 2 9 278.87 19.4
-2 -1 -9 276.47 17.1
3 -1 9 281.87 19.1
2 -3 9 282.67 17.8
1 -3 9 324.57 19.3
-1 -2 -9 308.47 18.9
2 1 9 351.06 21.4
3 -2 9 317.67 20.5
3 -3 9 100.49 11.5
0 -3 -9 106.69 10.6
3 0 9 112.29 13.7
-3 0 -9 120.69 11.3
0 3 9 120.69 13.9
0 -3 9 116.79 11
4 -2 9 2.6 8
2 2 9 10.2 8.1
2 -4 9 5.3 6.8
-2 -2 -9 10.3 6.5
1 3 9 205.68 17.1
3 -4 9 195.58 15
4 -1 9 211.18 16.8
-3 -1 -9 218.18 15.1
-1 4 9 179.58 16.4
4 -3 9 196.38 14.6
3 1 9 191.48 16.5
1 -4 9 187.98 14.1
4 -3 9 169.28 14.2
-1 -3 -9 201.38 14
0 4 9 70.09 13
4 0 9 78.59 12.8
0 -4 -9 68.29 10.5
-4 0 -9 76.69 10.6
4 -4 9 91.89 10.8
5 -2 9 92.99 13.8
3 -5 9 95.29 11.5
-3 -2 -9 85.19 11.6
2 3 9 86.69 13.4
-2 -3 9 67.89 11.4
5 -2 9 81.89 11.6
-2 -3 -9 107.99 12
5 -3 9 90.29 13.2
2 -5 9 92.59 11.6
5 -3 9 85.19 11.8
3 2 9 103.09 13.6
-1 -4 9 24.8 8.8
1 4 9 32.7 9.8
-4 -1 -9 23.3 7.4
5 -1 9 24.8 9.2
1 -5 -9 22.2 6.6
4 -5 9 18.8 7.5
4 1 9 27.3 9.6
-1 5 9 26.9 9.5
1 -5 9 13.5 7.3
-5 1 -9 17.3 6.9
5 -4 9 26.3 8
-1 -4 -9 22.9 7.6
0 5 9 812.02 41.4
0 -5 9 796.62 40.1
5 -5 9 827.92 39.7
5 0 9 863.31 41.2
-5 0 -9 785.12 39.4
0 -5 -9 771.22 39.4
6 -3 9 1.9 7.3
6 -3 9 0.2 8.9
3 -6 -9 7.5 6.9
3 -6 9 4.6 7.7
-3 -3 -9 5.1 6.9
3 3 9 7.4 8.7
-2 -4 9 410.16 24.1
6 -2 9 434.96 24.5
6 -2 9 467.05 26.1
-4 -2 -9 430.76 24.1
2 4 9 418.56 25.7
4 -6 9 411.06 23.9
2 -6 9 405.46 23
6 -4 9 417.86 23.5
4 2 9 439.76 25.1
4 -6 -9 424.56 23.1
-2 -4 -9 410.56 23.6
6 -4 9 360.96 23.6
1 -6 -9 162.48 14.5
-1 -5 9 201.38 16.3
-5 -1 -9 192.48 15.3
5 -6 9 202.68 15.4
1 5 9 198.68 17.3
6 -1 9 213.78 17.8
-1 -5 -9 201.38 16.4
1 -6 9 203.98 16.4
6 -5 9 213.98 16.1
5 1 9 204.08 17.5
-6 1 -9 201.58 15.2
5 -6 -9 212.98 15.4
-1 6 9 201.98 17.8
0 6 9 311.07 21.3
6 0 9 300.07 21.2
0 -6 9 296.97 19.8
-6 0 -9 301.47 19
6 -6 9 311.17 19.6
6 -6 -9 306.17 19
0 -6 -9 283.77 19.9
7 -3 9 150.68 14.3
4 -7 9 146.49 14
3 4 9 146.39 15.6
7 -3 9 147.89 16.3
3 -7 -9 135.89 13.1
-4 -3 -9 143.99 14.4
7 -4 9 119.59 13
3 -7 9 120.49 12.8
-3 -4 -9 118.69 13.8
4 -7 -9 131.99 12.8
4 3 9 110.19 14.8
7 -4 9 105.99 14.6
-5 -2 -9 157.38 14.3
2 -7 -9 168.28 14
5 -7 9 155.58 15.1
7 -2 9 178.78 15.5
2 5 9 166.88 16.5
-2 -5 9 156.78 15
7 -2 9 170.68 17.1
2 -7 9 170.88 15.7
7 -5 9 160.28 15.1
5 -7 -9 187.98 14.9
-2 7 9 179.48 17.5
-2 -5 -9 168.68 15.5
5 2 9 174.78 16.8
-1 -6 9 575.34 30.3
7 -1 9 604.74 32.2
6 -7 9 571.74 29.9
-6 -1 -9 560.84 29.8
1 6 9 589.94 31.9
1 -7 -9 484.05 29.6
7 -1 9 596.14 30.9
7 -6 -9 547.75 29.4
7 -6 9 566.84 29.6
-1 -6 -9 540.95 30.6
1 -7 9 562.64 30.3
-1 7 9 557.94 31.7
-7 1 -9 534.55 29.3
6 1 9 553.34 31.2
6 -7 -9 548.45 29.5
0 7 9 79.39 14.5
7 0 9 110.19 15
0 -7 9 95.89 12.6
7 -7 -9 91.79 12.7
0 -7 -9 66.09 11.7
7 -7 9 115.09 12.9
-7 0 -9 69.29 11.7
8 -4 9 81.69 10.9
4 4 9 104.39 13.7
8 -4 9 62.59 12.8
4 -8 9 64.89 10.6
4 -8 -9 93.69 12.1
-4 -4 -9 74.99 12.6
8 -3 9 192.58 16.1
3 -8 -9 183.28 15.1
-5 -3 -9 180.68 15.7
8 -3 9 183.68 18.6
5 -8 9 175.38 15.6
3 5 9 184.58 17.4
3 -8 9 195.08 17.1
5 3 9 196.18 17.8
3 -8 9 164.78 14.6
5 -8 -9 192.08 15.8
8 -5 9 183.18 16
-3 -5 -9 203.48 16.8
8 -2 9 82.09 13.3
-2 -6 9 69.09 11.2
8 -2 9 78.59 13.4
-6 -2 -9 91.29 11.2
6 -8 9 77.39 11
2 6 9 82.19 14.1
2 -8 -9 81.09 11.7
-2 -6 -9 91.59 13
6 2 9 101.79 15.3
2 -8 9 88.59 14.1
-2 8 9 97.59 14.9
6 -8 -9 84.59 13.8
-8 2 -9 85.79 12.4
8 -6 9 93.69 13.1
-7 -1 -9 218.18 17.2
8 -1 9 254.07 21.1
7 -8 9 229.78 18.1
1 7 9 251.57 19.9
-1 -7 9 233.88 18
8 -1 9 251.87 18.6
1 -8 -9 191.08 18.4
8 -7 -9 223.78 17.6
-1 8 9 235.38 20.3
-1 -7 -9 253.87 20.1
1 -8 9 231.28 18.6
8 -7 9 233.68 18.1
7 1 9 238.08 20.5
-8 1 -9 236.98 17.3
7 -8 -9 262.67 18.9
0 -8 9 659.83 35.2
8 0 9 678.83 37.5
8 -8 -9 685.63 35.7
8 0 9 702.83 35.9
8 -8 9 672.43 35.1
-8 0 -9 634.04 34.6
0 8 9 692.53 37.2
0 -8 -9 650.23 37
4 5 9 78.49 12.9
-5 -4 -9 65.39 10.9
5 -9 9 86.39 13.1
9 -4 9 43.6 12.5
9 -4 9 95.69 12.9
5 -9 9 67.09 11.1
4 -9 -9 74.89 11.1
9 -5 9 79.19 12.9
9 -5 9 89.09 13.6
-4 -5 -9 90.99 14.5
5 4 9 94.09 15.3
5 -9 -9 96.59 13.2
4 -9 9 92.89 13.9
4 -9 9 68.19 10.6
3 6 9 120.29 15.8
3 -9 -9 118.89 13.3
9 -3 9 101.69 17.4
-6 -3 -9 130.19 14
9 -3 9 121.19 15
6 -9 9 116.29 14.1
6 -9 -9 134.69 15
-3 9 9 121.09 16.7
6 3 9 119.19 16.4
9 -6 9 121.49 14.5
-3 -6 -9 120.19 16.2
3 -9 9 108.99 15.2
-2 -7 9 203.08 17.8
2 7 9 232.38 19.5
-7 -2 -9 210.18 17.1
9 -2 9 232.48 18.3
9 -2 9 206.78 20.7
2 -9 -9 211.58 16.6
7 -9 9 227.68 17.5
-2 -7 -9 245.68 21.1
-9 2 -9 220.08 17.7
7 2 9 254.37 20.9
9 -7 9 223.88 18.2
2 -9 9 236.48 19
-2 9 9 252.07 20.8
7 -9 -9 256.57 20.1
9 -8 -9 35.4 10.1
1 -9 -9 22.9 10.9
9 -1 9 48.8 11.6
1 8 9 56.69 12.6
8 -9 9 45.9 10.6
-8 -1 -9 41.3 9.4
9 -1 9 36.5 13
-1 -8 9 36.3 10.6
-1 -8 -9 53.79 13.2
-1 9 9 86.39 14.2
9 -8 9 65.59 12
8 -9 -9 55.49 12.1
8 1 9 56.49 11.2
-9 1 -9 67.09 11.1
1 -9 9 52.59 11.1
8 1 9 85.59 14.9
9 -9 9 13.3 9.6
0 -9 9 8.6 9.7
0 9 9 14.8 11.3
9 0 9 4.6 12.1
-9 0 -9 5.6 5.1
9 0 9 12.3 9.8
0 -9 -9 2 6.5
-9 9 -9 1 3.7
9 0 -9 2.7 4.2
9 -9 -9 8.1 10.5
-9 9 -9 -4.3 4.5
0 9 -9 -3 3.6
-9 0 -9 6.3 7.9
0 -9 -9 1.9 11.7
-5 -5 -9 1 6.3
5 5 9 13 10.8
-5 -5 -9 10.4 9.1
10 -5 9 -2.4 10.6
5 -10 -9 24.7 9.4
10 -5 9 19.9 10.3
-5 10 -9 1.5 3.8
5 -10 9 15.8 9.9
5 -10 -9 0.8 5.7
5 5 -9 2.7 5.1
5 -10 9 14.4 9.2
10 -6 -9 5.3 3.9
6 4 -9 9.2 4.9
-4 10 -9 3.6 3.8
10 -4 9 40.5 10.5
-6 -4 -9 5.6 5.5
6 -10 9 40.8 10
10 -4 9 26.6 12.1
4 -10 -9 14.8 5.9
6 -10 -9 16.9 9.3
-4 10 9 26.6 11.9
4 -10 9 22.8 10.1
-4 -6 -9 15.3 10.1
10 -6 9 34.1 10.4
6 -10 -9 1.5 8.1
10 -6 9 0.2 8.4
4 -10 9 -3.1 7.6
6 4 9 38.9 12.3
-3 10 -9 7.9 4.1
3 -10 -9 20.8 8.3
-7 -3 -9 16.9 6.3
-7 -3 -9 32.6 9.5
7 -10 9 30.1 11
10 -3 9 22 10.3
3 -10 -9 7 5.9
3 7 9 32.7 11.5
7 3 -9 10 5.3
10 -3 9 10.3 12
-3 -7 9 8.5 8.8
7 -10 9 23.9 9.9
10 -7 9 53.19 11.4
3 -10 9 38.2 10.7
-3 10 9 39.1 11.6
7 -10 -9 43.2 11
-3 -7 -9 45 12.6
7 3 9 39.6 12.3
2 8 9 132.49 16.8
-8 -2 -9 97.79 11.3
2 -10 -9 110.79 13.5
-8 -2 -9 113.49 13.6
10 -2 9 106.59 16.1
2 -10 -9 83.69 10.6
8 -10 9 119.69 15.9
8 -10 9 107.49 15.1
10 -2 9 108.99 18
-2 -8 9 93.29 15.4
8 2 -9 80.49 10.3
-2 10 -9 90.99 8.9
-8 10 -9 54.89 8.5
-8 10 -9 78.29 7.5
-2 -8 -9 115.99 18.5
-1 10 -9 67.89 8.3
9 1 -9 65.79 10.2
1 9 9 98.09 16.4
-9 -1 -9 83.39 10.5
-1 -9 9 65.89 12.3
10 -1 9 98.19 13.3
-9 -1 -9 83.79 13.1
-10 9 -9 60.79 8.2
1 -10 -9 58.19 7.7
9 -10 9 95.59 12.7
10 -1 9 61.99 13.7
-9 10 -9 47.2 6
9 1 9 57.39 11.7
-9 10 -9 35.5 6.1
-1 10 9 70.09 13.9
10 -9 9 70.49 11.6
1 9 -9 44.1 5.6
-10 1 -9 46.2 6.9
-1 -9 -9 66.59 14.3
-10 1 -9 63.99 10.8
9 -10 -9 72.09 14.2
9 1 9 45.1 13.4
1 -10 9 47 11.4
10 0 -9 78.49 10
0 10 9 111.29 17.2
-10 0 -9 98.39 14.2
0 -10 -9 78.99 15
10 0 9 105.89 18
10 -10 9 103.39 15.2
0 10 -9 88.09 9.6
10 0 -9 63.59 8.3
-10 0 -9 79.99 11
10 0 9 105.59 15.5
10 -10 -9 90.29 14.3
-10 10 -9 80.39 9.2
-10 10 -9 63.79 7.3
0 -10 9 86.39 13.2
0 -10 -9 72.59 10.5
6 5 -9 28.9 7.5
5 6 9 59.79 13.2
-5 11 -9 48.9 6.2
5 -11 -9 57.69 10.9
-6 -5 -9 55.39 11.4
6 -11 9 53.09 11.8
11 -5 9 63.89 11.8
11 -5 9 53.39 12.8
11 -6 -9 50.79 6.4
5 -11 -9 37.9 8.3
-6 -5 -9 41.3 7.9
6 -11 9 50.59 11.1
6 5 9 63.29 13.5
-5 -6 -9 55.79 11.9
6 -11 -9 52.59 11.3
11 -5 -9 55.19 6.7
-5 11 9 50.19 6.5
11 -6 9 22.3 10.7
11 -6 9 63.89 12.4
5 -11 9 64.89 12.4
6 -11 -9 49.2 9.4
-6 11 -9 41.9 6.2
-5 -6 -9 35.9 7.7
7 -11 9 14.2 10.5
-11 7 -9 0.1 4.4
4 -11 -9 10.6 8.5
-7 -4 -9 9.2 7.1
4 7 9 17 11.7
11 -4 9 13.3 10.3
7 4 -9 3.4 6.9
-7 -4 -9 10.3 8.9
-4 11 -9 8.8 5
11 -4 9 6.3 11.9
7 4 -9 5.3 4
4 -11 -9 6.2 6.9
7 -11 9 10.1 10
4 7 -9 1.5 6.2
4 -11 9 12.8 9.9
-7 11 -9 9.3 5.1
7 -11 -9 6.1 7.8
-4 11 9 15.5 5.1
11 -4 -9 11.6 5.1
4 7 -9 1.7 4.2
7 4 9 23.8 12.5
-4 -7 -9 15.1 11.3
-11 4 -9 6.7 4.7
11 -7 9 19.7 10.4
-4 11 9 11.2 11.1
-4 -7 -9 3.4 6.8
7 -11 -9 17.6 10.9
-8 -3 -9 74.09 11.7
8 3 -9 46.9 5.8
-8 -3 -9 52.19 8.4
3 -11 -9 60.19 10.6
11 -3 9 54.09 14
8 -11 9 65.39 11.9
8 -11 9 80.69 13.7
-3 11 -9 61.79 7.1
11 -3 9 60.89 12.2
-11 8 -9 43.8 5.9
8 3 -9 48.4 8.2
3 -11 -9 46.8 8.1
3 8 9 62.99 13.1
-8 11 -9 87.59 9.8
8 3 9 98.39 15.6
8 -11 -9 120.29 18.2
3 -11 9 109.59 16.2
-3 11 9 126.19 17.7
11 -8 9 127.49 15.3
11 -3 -9 97.89 10.3
-3 -8 -9 94.99 15.3
-3 11 9 89.89 9.8
9 -11 9 53.59 11.7
2 -11 -9 53.39 10.6
9 2 -9 51.19 8.2
9 -11 9 44.1 7.7
9 2 -9 61.39 8.2
-11 9 -9 41.5 6.4
2 9 9 61.59 13.4
-9 -2 -9 41.7 7.9
11 -2 9 46.7 14
-2 -9 9 42.2 11.3
2 -11 -9 50.49 8.5
11 -2 9 69.99 12.7
9 -11 9 61.99 13.1
-2 11 -9 48.8 6.5
-9 -2 -9 47.1 10.4
-9 11 -9 25.2 5.5
2 9 -9 12 4.4
2 9 -9 23.8 5.4
9 -11 -9 25.4 12.6
-9 11 -9 21.9 6
9 -11 -9 0.4 8.6
-2 -9 -9 12.6 12.7
11 -2 -9 19 5.7
-2 11 9 19.8 5.3
-2 11 9 25.6 11.7
-11 2 -9 26.5 6.4
-2 -9 -9 1.3 8.9
11 -9 9 32 10.8
9 2 9 22.1 9.9
9 2 9 16.1 13.4
2 -11 9 26 10.8
11 -1 9 112.79 18.4
-10 -1 -9 110.29 14.2
10 -11 9 102.29 12.8
11 -1 9 102.99 15.2
10 -11 9 117.49 16.6
10 -11 9 103.79 15.8
1 10 9 111.09 18.1
-10 -1 -9 98.19 12.1
1 -11 -9 100.49 12.4
-11 10 -9 107.29 10.6
10 1 -9 88.39 12.1
10 1 -9 95.49 9.8
-1 11 -9 108.79 10.1
-1 -10 9 110.49 16.3
10 1 9 119.19 19
1 10 -9 106.09 10.2
-10 11 -9 83.19 10.4
-10 11 -9 93.99 10.2
-1 -10 -9 108.49 17.4
-1 11 9 111.79 18.4
-11 1 -9 108.89 14.8
11 -1 -9 81.99 10.4
11 -1 -9 89.19 10.1
-1 11 9 93.49 9.9
1 -11 9 108.59 16.1
11 -10 9 111.09 15.8
1 10 -9 81.89 8.9
-11 1 -9 98.89 11.7
10 -11 -9 78.99 15
11 -11 9 21.3 11.6
0 -11 -9 9.8 6.5
11 -11 9 5.7 7.1
-11 0 -9 11.9 9
11 0 -9 4.4 6.3
11 -11 9 11.5 10.6
-11 0 -9 12.3 6.7
-11 11 -9 5.1 5.5
11 -11 -9 6.5 12.6
0 11 -9 17.2 5.4
0 11 -9 10.4 5.4
0 11 9 9.4 11
0 -11 -9 3.9 12.4
11 0 9 16.2 13.1
11 0 -9 5.4 5.5
0 11 9 12.9 5.7
-11 11 -9 7.2 5.6
0 -11 9 16.3 10.9
-12 6 -9 6.6 5
-6 -6 -9 19 10.3
6 -12 -9 16.9 9.9
-6 12 9 24.4 6.5
6 6 -9 4.2 8.3
6 -12 -9 7.6 8.6
12 -6 -9 24 6.2
-6 -6 -9 11.8 8.1
6 6 -9 19.7 5.3
6 -12 9 25.5 11.1
12 -6 9 7 10.6
12 -6 9 16.1 11
-6 12 -9 15.9 5.5
6 -12 9 -3.2 8.9
6 6 9 27.5 12.7
7 -12 9 39.3 11.1
-7 -5 -9 24.7 8.2
5 -12 -9 45.4 11
-5 12 -9 37.2 6.2
5 -12 -9 24.9 8.3
-7 -5 -9 31.7 10.2
12 -5 9 19.2 12
7 5 -9 34.6 5.9
12 -7 -9 36.7 6.4
7 -12 9 43.2 12.1
7 5 -9 19.9 8.2
5 7 9 44.2 13.7
12 -5 9 35.9 11.6
-12 7 -9 20.8 5.8
5 7 -9 46.2 6.5
-5 -7 -9 47.1 9.5
12 -5 -9 57.39 7.1
-5 -7 -9 42.2 12
-7 12 -9 50.49 6.8
7 5 9 60.39 14.4
7 -12 -9 53.69 12.6
7 -12 -9 37.6 10.2
5 -12 9 53.89 12.3
-5 12 9 53.49 13.1
12 -7 9 55.29 12.4
-5 12 9 37.8 6.5
8 4 -9 34.4 6
12 -4 9 33.8 11.5
-8 -4 -9 41.8 10.8
8 -12 9 33.7 12
4 8 9 28.1 12.5
-8 -4 -9 28.5 7.9
8 -12 9 34.9 11.1
12 -4 9 42.2 13.2
4 -12 -9 33.8 10.3
-4 12 -9 27.5 5.9
-12 8 -9 17.6 6
4 -12 -9 22.5 7.8
8 4 -9 15.4 7.3
-4 12 9 9.1 5.6
12 -8 9 15.9 10.6
4 8 -9 16.8 5.5
-4 12 9 15.3 11.8
8 -12 -9 0.6 11.1
4 -12 9 19.9 10.6
8 4 9 10.8 12.8
12 -4 -9 17.8 6.1
-4 -8 -9 9.9 11.9
-4 -8 -9 -2.5 8.4
8 -12 -9 -12.7 9.4
-12 8 9 3.5 6.5
-12 4 -9 12.4 5
4 8 -9 -7.1 8.4
-8 12 -9 10.1 5.4
-9 -3 -9 60.69 11.3
-9 -3 -9 44.5 8.4
9 3 -9 57.59 6.7
9 -12 9 74.69 13.5
3 -12 -9 61.79 9.1
9 -12 9 43.6 11.4
3 -12 -9 36.5 10
9 -12 9 64.99 8.5
-12 9 -9 45.4 7
12 -3 9 54.89 14.2
9 3 -9 45.6 8.4
12 -3 9 53.79 12
3 9 9 50.79 13.5
-3 12 -9 59.39 6.9
-12 3 -9 62.29 9.5
9 -12 -9 28.8 10.3
9 3 9 66.39 15.7
-9 12 -9 74.79 7.5
-3 -9 -9 41.3 9.7
3 -12 9 55.69 12.2
-3 -9 -9 63.69 14.3
12 -3 -9 73.99 7.9
-3 12 9 49.2 6.8
9 -12 -9 59.99 14.3
3 9 -9 51.59 6.6
-3 12 9 67.29 13.7
12 -9 9 70.89 12.6
-2 -10 9 59.29 12
2 -12 -9 64.29 8.9
-2 12 -9 43.3 6.2
2 -12 -9 69.09 11.5
2 10 9 62.19 13.6
2 10 9 50.49 6.2
10 -12 9 52.69 11.7
-10 -2 -9 57.39 8.7
10 2 -9 57.59 8.4
-12 10 -9 55.59 7.3
10 -12 9 86.49 14.1
-10 -2 -9 63.09 11.5
-2 12 -9 73.39 9.6
10 2 -9 48.9 6.9
10 -12 9 70.29 9
12 -2 9 54.69 14.1
12 -10 9 99.89 13.9
2 -12 9 105.29 14.6
-10 12 -9 92.79 9.6
-2 -10 -9 64.29 10.7
-2 12 9 100.59 16.8
12 -2 -9 79.19 10.8
-2 -10 -9 87.59 16.4
10 -12 -9 56.99 10.9
10 -12 -9 64.89 15.4
10 2 9 94.49 16
-12 2 -9 99.79 11.2
12 -10 9 93.79 13.4
-2 12 9 85.89 10.6
2 10 -9 78.29 10.3
-12 11 -9 67.89 7.7
-11 -1 -9 70.99 11.8
1 11 9 71.89 10.5
-1 12 -9 71.39 9.9
11 -12 9 70.99 9.5
11 1 -9 68.99 10.5
12 -1 9 93.89 15.9
11 -12 9 80.29 13.3
11 -12 9 108.39 17.1
-1 -11 9 57.99 12.9
-12 11 -9 91.19 8.3
-11 -1 -9 95.89 10
-1 12 -9 73.09 9.9
1 -12 -9 80.19 12.5
11 1 -9 68.19 8.7
1 -12 9 98.99 16.3
12 -1 -9 105.89 11.7
1 11 -9 106.49 10.4
12 -1 -9 99.29 10.9
-1 -11 -9 67.39 15
-1 12 9 95.99 10.7
11 -12 -9 72.69 15.5
-11 12 -9 91.99 10.5
-1 -11 -9 94.59 11
-12 1 -9 121.39 12.8
12 -11 9 94.59 14.3
12 -11 9 96.09 14
11 1 9 81.69 15.2
-12 1 -9 100.69 15
12 -11 9 88.49 13.2
12 -12 9 -4.6 10.4
0 12 9 8.3 6
12 0 -9 3.6 6.5
-12 0 -9 6.9 9.5
-12 12 -9 5.8 5.4
0 12 -9 3 5.5
12 -12 9 15 7.8
12 0 -9 2.7 5.6
0 -12 9 5.3 11
0 12 -9 4.4 5.5
12 -12 9 4 10.3
0 -12 -9 5.9 6.7
12 0 9 14.6 12.5
-12 0 -9 6.8 7.1
-7 -6 -9 26.7 8.5
-7 -6 -9 24.5 10.2
-6 13 -9 34.8 6.4
-7 13 9 36.5 6.7
-13 7 -9 21.7 6.7
13 -7 -9 27.4 6.4
7 6 -9 5.8 9
7 -13 9 37.9 12.2
6 7 9 32.5 14.3
6 -13 -9 16.8 8.5
7 6 -9 31.3 6
6 -13 -9 27.7 10.6
13 -6 9 20 11
13 -6 9 25.6 11.6
13 -6 -9 52.29 7.2
6 7 -9 50.69 6.8
7 6 9 51.89 14.7
7 -13 -9 38 11.4
-6 -7 -9 44.6 9.4
-6 13 9 43.1 6.8
13 -7 9 54.89 12.3
7 -13 -9 33.8 9.6
-13 6 -9 41.8 7.6
-6 13 9 36.2 12.6
-7 13 -9 41.1 6.4
6 -13 9 54.29 12.4
-6 -7 -9 37.7 11.5
8 5 -9 11.1 8.2
13 -5 9 17.5 12.1
8 5 -9 26.5 5.9
-13 8 -9 13.7 6.4
-8 -5 -9 15.3 9.7
8 -13 9 23.1 11.4
8 -13 9 13.4 10.6
-8 -5 -9 5.3 7.5
5 -13 -9 8.4 9.4
8 -13 9 2.1 5.7
13 -5 9 21.5 11.4
-5 13 -9 16.5 5.8
5 -13 -9 10.7 7.9
5 8 9 23.3 13.3
-5 -8 -9 14 11.4
5 8 -9 17.9 5.8
-13 5 -9 8 5
8 -13 -9 -1.5 9.4
8 5 9 20.1 13.7
-5 13 9 16.9 6
-8 13 -9 17 6
8 -13 -9 11.4 10.8
-13 5 -9 12.2 6.1
5 -13 9 9.2 10.9
-13 8 9 16.5 5.5
-5 13 9 17.2 10.9
13 -5 -9 21.2 6.1
-5 -8 -9 -0.6 8.4
13 -8 9 25.8 11.3
9 -13 9 29 7.8
9 4 -9 14.3 5.6
4 -13 -9 27.6 10.2
13 -4 9 8.3 9.7
-4 13 -9 0.5 5.1
9 -13 9 21.5 11.2
9 -13 9 36.6 12.3
-9 -4 -9 23.9 10.2
-9 -4 -9 19.1 8
13 -4 9 16.7 12.2
4 9 9 28.2 12.8
-4 13 -9 37.9 6.3
-13 9 -9 29.4 6.7
9 4 -9 17.2 7.9
4 -13 -9 16.5 7.7
9 4 -9 28.5 5.8
13 -4 -9 45.4 7
-13 4 -9 30.3 6.1
9 4 9 35.3 13.7
-4 -9 -9 17.8 9.4
13 -9 9 32.8 11.8
9 -13 -9 25.8 12.6
-4 13 9 40.3 6.5
-4 -9 -9 31.3 12.6
-9 13 -9 31.2 6.1
9 -13 -9 2.1 9.9
4 9 -9 29.4 6.3
-13 9 9 32.1 5.8
-4 13 9 11.6 10.5
4 -13 9 36.8 12
3 -13 -9 105.79 15.6
10 3 -9 106.69 13.7
13 -3 9 136.79 18.7
10 3 -9 127.09 12.1
3 10 9 106.89 10
-10 -3 -9 127.49 13.6
-3 13 -9 123.29 10.7
-10 -3 -9 134.89 15.9
10 -13 9 122.49 13.7
10 -13 9 136.99 18.1
-3 13 -9 120.39 11.3
-13 10 -9 120.69 11.7
10 -13 9 107.09 16.1
3 -13 -9 118.99 12.9
13 -3 -9 166.28 12.8
-3 13 9 171.38 12.6
3 10 -9 156.08 12.6
-13 10 9 139.49 10.7
-3 -10 -9 144.19 17.2
10 -13 -9 133.99 21.2
13 -10 9 164.58 18.4
13 -10 9 160.78 15
-10 13 -9 163.98 12.3
10 3 9 196.48 21.4
-13 3 -9 170.78 12.8
3 -13 9 165.88 18.4
-3 -10 -9 146.99 20.7
10 -13 -9 136.89 15.2
3 10 -9 111.89 18.3
11 2 -9 14.4 7.1
-11 -2 -9 23.7 7.3
13 -2 9 10.8 12.1
11 2 -9 20.8 6.5
-2 -11 9 21.4 6.6
11 -13 9 23.5 8
-2 13 -9 22.1 5.7
-2 -11 9 0.2 9.7
-13 11 -9 33.6 6.6
-2 13 -9 20.7 6.6
11 -13 9 21.6 11.5
2 11 9 16.5 6.3
11 -13 9 20.7 11.3
2 -13 -9 27.2 8.1
-11 -2 -9 22.9 9.9
13 -11 9 15.6 11.1
2 11 -9 21.7 6.1
-2 -11 -9 18.7 12.6
13 -11 9 9.3 9.6
11 -13 -9 -17 10
11 2 9 18.6 12.9
13 -2 -9 18.2 6.4
13 -2 -9 10.4 5.3
2 -13 9 9.5 10.6
-2 -11 -9 1.7 9.1
-13 2 -9 17 7.1
-2 -11 -9 4.8 5.3
13 -11 9 13.2 7.8
-2 13 9 19.9 6.2
-11 13 -9 24 6
-13 11 9 6.6 4.5
2 11 -9 14.9 8
11 -13 -9 4 12.5
-12 -1 -9 22.5 10
12 -13 9 22.3 11.1
1 -13 -9 27.1 7.8
-1 -12 9 15 10.5
1 12 9 35.1 6.7
12 -13 9 9.7 10.4
-12 -1 -9 34.2 7.8
-1 13 -9 39.1 6.9
-13 12 -9 32.1 6.3
-1 -12 9 31.9 8.1
12 1 -9 27.5 6.6
13 -1 9 30 12.8
-1 13 -9 39 6.4
12 -13 9 31.3 8.6
12 1 -9 25.7 7.4
13 -1 -9 34.7 6.6
1 12 -9 32.1 6.5
-1 -12 -9 16.3 8.7
13 -12 9 25.5 8.3
13 -12 9 8.7 16.6
12 1 9 32.4 13.5
13 -12 9 32.3 11.6
13 -1 -9 25.4 7.2
-1 -12 -9 26.8 6.5
1 -13 9 13.9 11.2
-13 1 -9 39.9 8
12 -13 -9 30 10.1
12 -13 -9 2.3 22
-1 13 9 39.4 6.8
-1 -12 -9 2.5 12.7
-12 13 -9 34.5 6.4
13 0 -9 204.48 13.9
-13 13 -9 203.38 13.5
0 -13 9 158.48 18.2
0 -13 -9 208.88 15.6
13 0 9 190.98 21.9
13 -13 9 192.98 19
0 -13 9 201.78 15.9
0 13 9 200.58 13.9
13 0 -9 191.38 15.5
0 13 -9 207.78 13.5
-13 0 -9 224.18 15.9
13 -13 9 176.88 15.8
-14 7 -9 42.4 7.6
7 7 -9 44.8 6.5
7 -14 -9 46.6 10.2
7 7 -9 26 10.7
7 -14 -9 29.2 11.1
7 7 9 38.2 15.1
14 -7 9 42.8 11.9
-7 14 9 41.5 7
7 -14 9 46.8 12.3
-7 14 -9 42 6.4
-7 -7 -9 41 8.8
-7 -7 -9 34 11.2
14 -7 -9 55.49 7
-8 -6 -9 15.1 10.1
-14 8 -9 -3.6 5
-14 8 -9 7.5 6.6
8 6 -9 2.5 8.8
8 6 -9 0.4 6.5
6 8 9 14.6 13
14 -6 9 -2.8 10.1
8 -14 9 -4.9 16.9
6 -14 -9 5.5 8
8 6 -9 25.4 6
8 -14 9 13.4 11.3
-8 -6 -9 14 7.9
-8 14 9 13.4 5.9
8 -14 9 -0.6 5.7
14 -6 9 9.4 9.9
6 -14 -9 4.6 9.9
-6 14 -9 21 5.9
8 -14 -9 -7.8 8.5
14 -8 9 -5.9 11.1
-14 8 9 6.9 5.7
-14 6 -9 7.4 7.1
8 -14 -9 3.3 10.8
-6 -8 -9 -3.9 7.9
-8 14 -9 1.8 5.5
14 -6 -9 10 5.9
6 -14 9 3.4 10.9
-6 -8 -9 10 11
-6 14 9 5.4 5.7
-14 6 -9 2.9 4.7
6 8 -9 9.1 5.5
8 6 9 10.7 14
-5 14 -9 7.8 5.7
5 9 9 1.3 12.1
-9 -5 -9 23.9 10.3
-14 9 -9 -7.1 5.2
9 5 -9 16.3 6.4
9 -14 9 7.1 10.3
9 -14 9 26.5 12.2
9 5 -9 7.9 8.1
-14 9 -9 11.3 6.2
9 -14 9 13.6 7.6
5 -14 -9 11.1 7.6
5 -14 -9 21 10
-9 -5 -9 18.7 7.6
-5 14 -9 20 5.7
14 -5 9 3.5 11.4
9 5 -9 23.3 5.8
-9 14 9 27.6 6.7
5 9 -9 37.5 6.4
-5 -9 -9 30.6 12
14 -9 9 30.7 11.9
14 -9 9 28.5 8.7
14 -5 -9 39.8 6.8
5 9 -9 -6.2 10.9
9 5 9 16.4 13.6
-5 -9 -9 21 9.2
-5 14 9 28.6 6.1
9 -14 -9 13 9.9
-14 5 -9 22.9 7.4
-14 9 9 22 6.4
-14 5 -9 17.2 5.5
5 -14 9 27.4 12
9 -14 -9 13.5 11.9
-9 14 -9 29.8 6.2
4 -14 -9 28.7 10
-4 14 -9 39.9 6.3
-10 -4 -9 34.6 8.2
14 -4 9 25.4 12.9
10 -14 9 38.6 8.7
10 4 -9 42.3 7.8
-4 14 -9 30.1 7.3
10 -14 9 35.9 12
10 4 -9 45.7 6.3
4 -14 -9 35.2 8.1
-14 10 -9 33.1 6.8
10 -14 9 19.9 11.2
4 10 9 32.5 6
10 4 -9 36.9 8.7
-10 -4 -9 46.7 11.2
4 -14 9 35.1 12
10 -14 -9 10.3 10.2
-10 14 -9 45.2 6.6
14 -10 9 42.4 12.3
14 -4 -9 47.3 7
10 -14 -9 27.2 13.1
-14 4 -9 32.1 6.2
-4 -10 -9 24.8 12.2
-4 -10 -9 31.5 9.6
10 4 9 31.5 13.7
4 10 -9 51.59 7.2
-14 4 -9 31.4 7.4
-14 10 9 35.7 6.7
14 -10 9 43.4 8.8
-4 14 9 51.29 6.8
3 -14 -9 31.3 8
11 -14 9 18.8 11.5
11 -14 9 34 8.2
-3 14 -9 32.3 6.1
-11 -3 -9 28.7 7.9
3 -14 -9 22.8 9.7
3 11 9 26.5 6.6
11 3 -9 22.9 7.6
-14 11 -9 31.1 6.7
-11 -3 -9 28 10.4
11 3 -9 29.3 7
-3 14 -9 35.7 7.1
11 -14 9 16.7 10.3
14 -3 9 23.2 13.3
-3 -11 -9 15.3 12
14 -11 9 29 8.8
-11 14 -9 20.3 5.8
11 -14 -9 5.4 12.2
3 11 -9 -4.7 10.9
14 -11 9 18.4 11.2
11 -14 -9 -3.1 9.9
11 3 9 21.7 13.2
-14 3 -9 2.7 6.7
-3 14 9 28.2 6.3
-14 3 -9 26.3 6.2
3 -14 9 12.1 11.1
-14 11 9 13.9 5.9
14 -3 -9 20 6.1
-3 -11 -9 10.1 9.6
3 11 -9 21.8 5.9
2 12 9 101.49 11.5
12 2 -9 86.29 12.6
12 2 -9 110.09 11.4
-2 14 -9 91.59 11.1
-2 14 -9 91.99 10
-12 -2 -9 62.19 11.2
2 -14 -9 81.39 12.8
-2 -12 9 85.79 12.4
12 -14 9 92.09 12.9
12 -14 9 67.89 12.9
-12 -2 -9 96.29 12.2
-14 12 -9 92.99 10.5
14 -2 9 62.29 14
-14 12 9 112.59 10.8
14 -2 -9 114.69 11.6
14 -12 9 75.59 13.5
-2 14 9 108.69 10.8
2 12 -9 109.79 10.7
-12 -2 9 98.49 9.2
12 2 9 105.79 18.6
-14 2 -9 121.69 12.1
12 -14 -9 113.59 13.7
14 -12 9 107.89 13.7
2 12 -9 113.49 16
-12 14 -9 110.39 10.8
2 -14 9 107.79 16.8
-2 -12 -9 104.79 15.7
1 -14 -9 92.79 12.5
13 -14 9 93.59 13.1
14 -1 9 64.69 14.2
13 1 -9 107.99 11.2
-13 -1 -9 112.29 12.8
-1 -13 9 88.89 12.7
13 1 -9 94.59 12.7
-14 13 -9 102.59 10.3
13 -14 9 70.89 13.5
1 13 9 105.39 11.3
-1 14 -9 96.09 10.7
13 1 9 60.09 13.9
13 -14 -9 87.59 12
-13 14 -9 93.79 10.5
14 -13 9 65.49 12.9
1 13 -9 95.59 10.5
1 -14 9 84.99 12.3
-1 -13 -9 96.19 14.6
-1 14 9 98.69 10.6
1 -14 9 54.89 12.2
14 -1 -9 96.79 10.8
-14 1 -9 109.99 12.7
-14 13 9 98.59 10
14 -1 -9 100.29 12
14 -13 9 87.69 12.9
0 14 -9 19.8 6
0 -14 -9 25.9 7
-14 0 -9 30.7 7.8
14 -14 9 22.5 8
0 -14 9 21.6 8
-14 14 -9 28.5 6.1
14 -14 9 16.3 10.8
14 0 -9 27.9 6.3
14 0 -9 23.9 7.2
0 14 9 25.8 6.4
-14 14 9 13 5.3
14 0 9 5.1 11.7
14 -14 -9 3.2 7.7
0 -14 -9 25.9 8.1
0 -14 9 3.2 15.2
7 -15 -9 12 8.1
-8 15 9 14.1 6
-7 15 -9 19.6 5.5
7 8 9 7.5 13.4
8 7 -9 22.8 6.1
-15 8 -9 10.2 6.5
8 -15 9 5.4 11.2
-8 -7 -9 17.6 8
-8 -7 -9 14.7 10.3
8 7 -9 9.6 10
15 -7 9 23.8 8.4
7 -15 -9 8.9 10
-7 15 -9 0.6 6.5
8 7 -9 0.8 6.4
8 -15 9 -0.1 7.8
7 8 -9 -13.4 9.9
8 -15 -9 -0.5 10.6
15 -8 9 11.2 8.2
-7 -8 -9 3.1 10
-15 8 9 6.8 5.8
8 -15 -9 -3.7 8.1
7 8 -9 13.2 5.3
-15 7 -9 6.5 6.5
-8 15 -9 3.4 5.2
-7 -8 -9 -2.5 7.6
15 -7 -9 8.5 5.6
15 -8 9 -1.7 10.2
7 -15 9 13.9 11.8
8 7 9 2.3 12.4
-7 15 9 9.3 5.4
9 -15 9 6.8 11.1
-9 -6 -9 8.3 7.3
-6 15 -9 7.1 6.5
-9 -6 -9 13.3 9.9
9 6 -9 11.7 5.4
9 -15 9 10.4 7.2
6 -15 -9 2.4 7.2
9 6 -9 8.5 7.1
-15 9 -9 7.8 6.3
-9 15 9 3.9 5.8
6 -15 -9 9.8 9.4
9 6 -9 -4.5 8.1
15 -6 9 -4.8 11.9
6 9 9 -1.8 6.6
-6 15 -9 5.9 5.3
6 9 -9 11.5 5.3
-15 6 -9 1.2 5.1
-15 9 9 9.1 5.9
15 -6 -9 7.8 5.6
15 -9 9 1 10.5
9 -15 -9 1.4 8.7
-9 15 -9 9.1 5.5
-6 -9 -9 5.8 10.7
9 -15 -9 9.6 10.7
6 -15 9 2.6 11.4
-6 -9 -9 3.3 7.8
-6 15 9 13.1 5.7
9 6 9 8.4 12.6
15 -9 9 12.7 8.6
-15 6 -9 1.3 6.9
10 5 -9 33.4 6.1
10 -15 9 -4.7 10.9
10 -15 9 14.1 10.3
10 5 -9 22.9 7.3
10 -15 9 24.1 8.1
5 10 9 20.6 5.9
-10 -5 -9 21 7.8
-10 15 9 31.9 6.7
-5 15 -9 26.9 5.8
5 -15 -9 22 9.4
-5 15 -9 22 7.3
10 5 -9 18.9 8
5 -15 -9 21.2 7.8
-10 -5 -9 23.7 10
-15 10 -9 22.4 6.5
-5 15 9 29.2 6.3
15 -5 -9 31.6 6.3
-15 5 -9 31.3 7.5
5 10 -9 27.4 5.9
15 -10 9 35 8.9
-5 -10 -9 27.2 8.9
10 5 9 9.3 12.1
-15 10 9 26.1 6.2
15 -10 9 12.9 10.8
5 -15 9 23.2 11.4
5 10 -9 4.8 11.6
-10 15 -9 37 6.3
-5 -10 -9 17.1 11.4
10 -15 -9 19.1 9.9
10 -15 -9 7.5 11.1
11 4 -9 14.2 7.5
-4 15 -9 23.9 5.7
4 -15 -9 15.9 7.5
-11 -4 -9 8.9 8.9
15 -4 9 3.2 11.2
-15 11 -9 18.6 6.2
4 11 9 20.5 6.7
-11 -4 -9 16.3 7.6
-4 15 -9 16.9 6.7
11 -15 9 0.2 9
11 4 -9 14.5 6.8
11 -15 9 23.7 7.9
11 -15 9 -0.6 10.8
4 -15 -9 12 8.9
-11 15 9 31.1 6.6
-15 11 9 23.7 6.1
15 -11 9 31.9 8.4
15 -11 9 16.6 10.9
4 11 -9 17.6 12.2
4 11 -9 34.2 6.5
-15 4 -9 18.8 7.4
11 -15 -9 18.9 9.7
4 -15 9 9.5 11.1
-4 -11 -9 23.9 9
-4 15 9 19.6 6
11 4 9 16.8 12.1
-4 -11 -9 9.4 10.8
-15 4 -9 4.6 4.9
-11 15 -9 29.6 6
11 -15 -9 8.7 11.4
15 -4 -9 33.1 6.6
3 -15 -9 -0.6 7.2
3 12 9 8.9 6.4
12 3 -9 2 6.2
15 -3 9 -1.1 10.9
12 -15 9 -7.6 9.1
-12 -3 -9 11.2 7
12 3 -9 5.7 6.9
12 -15 9 11.7 7.7
-3 15 -9 1.7 5.4
-15 12 -9 8.7 5.5
-3 15 -9 6.6 6.3
-12 -3 -9 -1.1 8.1
-3 -12 9 1.7 6.7
15 -3 -9 12.1 5.9
-12 15 -9 13.1 5.5
15 -12 9 1.1 10.5
12 3 9 7.2 11.5
15 -12 9 13.4 8.1
-15 12 9 12.2 6
3 12 -9 6.6 5.6
3 12 -9 8.5 10.8
-12 -3 9 9.6 5.7
12 -15 -9 9.9 9.9
-3 -12 -9 2.6 12.2
-15 3 -9 9.7 5.5
-15 3 -9 9.9 6.6
-3 15 9 14.7 5.9
12 -15 -9 1.9 16.1
-3 -12 -9 8.2 9
3 -15 9 0 10.8
-13 -2 -9 41.1 8
2 13 9 39.2 7.1
-15 13 -9 55.59 7
13 -15 9 46.2 8.4
-2 15 -9 47.7 7
13 2 -9 45.5 8.2
13 2 -9 47.9 7.2
-2 -13 9 51.19 8.6
2 -15 -9 44 8.2
-2 15 9 65.29 7.3
2 13 -9 48.7 6.7
-13 -2 9 58.09 6.8
2 -15 9 58.69 8.8
-2 -13 -9 64.59 10
15 -13 9 60.59 9.2
2 13 -9 58.49 10.6
-13 15 -9 55.89 6.9
13 -15 -9 63.69 11
-15 2 -9 68.39 9.7
15 -2 -9 73.79 7.7
-15 13 9 55.09 7.3
-1 -14 9 137.59 13.3
14 1 -9 127.99 13.1
-15 14 -9 137.69 11.3
-1 15 -9 140.69 11.5
14 1 -9 148.99 11.9
14 -15 9 143.69 13.3
-14 -1 -9 142.69 13.2
1 14 9 141.89 11.9
1 -15 -9 138.99 12.9
-1 15 9 128.39 11.5
-1 -14 -9 136.79 13.5
14 -15 -9 145.39 14.8
-15 14 9 134.19 11.5
15 -14 9 114.59 13.4
-14 15 -9 132.89 11.2
-15 1 -9 125.59 11.7
1 14 -9 119.89 10.9
1 -15 9 119.79 13
15 -1 -9 115.99 11.3
0 15 9 155.48 12.2
15 0 -9 148.29 12.5
-15 0 -9 162.38 13
15 -15 9 160.08 13.8
0 -15 -9 150.68 12.5
0 15 -9 147.39 11.8
-15 15 -9 153.48 11.8
0 -15 9 150.68 13.2
15 0 -9 141.99 11.6
-15 15 9 155.68 11.3
-16 8 9 4.9 5.8
-16 8 -9 -2.4 6.1
-8 -8 -9 -4.4 9.5
8 8 -9 0.7 6.3
8 8 -9 -12.2 9.6
-8 16 -9 -0.7 6.3
8 -16 9 0.7 10.2
16 -8 9 -0.6 7.7
-8 -8 -9 -3 7.5
-8 16 9 1.8 5.5
8 -16 -9 2 9.5
-8 16 -9 6.2 5.1
8 8 -9 4.8 5.4
8 -16 -9 -0.3 7.6
9 7 -9 20.3 7.7
9 -16 9 5.4 6.4
16 -7 9 21.8 7.1
9 -16 9 -2.1 10.4
-7 16 -9 20.3 5.5
-9 -7 -9 14.6 7.6
-16 9 -9 16.4 6.3
-9 -7 -9 11.5 9.5
7 -16 -9 11.8 7.3
9 7 -9 9.2 8.7
-9 16 9 21.6 5.8
-16 7 9 16.2 5.7
9 7 -9 23.1 5.5
7 -16 -9 9.5 9.5
-7 16 -9 6.5 6.9
-9 16 -9 39.2 6.2
9 -16 -9 13.5 10.4
16 -9 9 38.1 9.1
-16 7 -9 28.9 6.9
-16 9 9 34.7 6.3
9 -16 -9 34.5 9.1
-7 -9 -9 15.1 10
-7 -9 -9 27.1 8.2
-7 16 9 37.2 6.5
16 -7 -9 31.6 6.4
7 9 -9 31.7 11.2
7 -16 9 24.2 11
7 9 -9 35.2 6.1
-6 16 -9 13.7 7
6 10 9 7.5 5
-10 -6 -9 5.8 9
10 6 -9 20.5 5.5
6 -16 -9 3.9 8.7
-10 16 9 17.6 6.1
-16 10 -9 21.4 6.2
-10 -6 -9 11.4 7
-6 16 -9 18.5 5.3
10 6 -9 7.9 7.2
6 -16 -9 10.7 6.9
10 6 -9 7.3 7.8
10 -16 9 9.8 7.7
-10 16 -9 13.5 5.4
10 -16 -9 13.7 8.7
16 -10 9 10.6 8.5
-6 16 9 13.1 5.5
-6 -10 -9 5.7 7.7
-6 -10 -9 4.5 9.8
6 -16 9 4.9 10.2
6 10 -9 10.4 5.3
16 -6 -9 19 5.9
-16 10 9 11.5 5.7
6 10 -9 -8.1 10.6
-16 6 -9 8.7 6.8
10 -16 -9 -2.7 9.9
-5 16 -9 6.2 5.2
5 -16 -9 -2.5 8.7
-11 16 9 8.7 5.9
5 11 9 0.6 6.1
11 -16 9 2.5 7.6
-11 -5 -9 -0.5 8.5
11 5 -9 1.2 6.3
5 -16 -9 1.1 6.4
11 5 -9 -4.6 7
-16 11 -9 2 5.6
-5 16 -9 6.5 6.7
-11 -5 -9 -1.6 6.8
-16 5 -9 2.3 6.4
-16 11 9 8.8 5.7
5 11 -9 -1.6 10.8
-5 16 9 6 5.5
5 11 -9 0.2 4.9
16 -11 9 13.3 8.3
5 -16 9 1.6 10.1
-11 -5 9 0.9 5.5
11 -16 -9 6.2 8.7
-11 16 -9 3.2 5.1
-5 -11 -9 1.6 7.7
16 -5 -9 7.7 5.4
-5 -11 -9 2.2 10.1
11 -16 -9 -0.1 10.8
4 12 9 6.6 6.4
-12 16 9 10 5.9
12 4 -9 4 6.6
-4 16 -9 8.3 6.5
4 -16 -9 9.8 7.2
-16 12 -9 9.7 5.4
-4 16 -9 5.8 5.2
12 -16 9 6.1 7.7
12 4 -9 1.2 6.5
-12 -4 -9 10.3 7
16 -4 9 -1.8 13.4
-4 -12 9 -7.1 5.1
-12 16 -9 14.4 5.5
-12 -4 9 10.7 5.5
4 12 -9 7.8 5.5
12 -16 -9 12 8.9
-4 -12 -9 10.4 8.1
-16 12 9 9.7 5.8
4 -16 9 15.6 7.3
16 -12 9 14.1 8
4 -16 9 -1.5 9.4
-4 16 9 11.5 5.9
16 -4 -9 13.9 5.8
-16 4 -9 8.6 6.6
4 12 -9 0.9 10.6
-16 13 -9 73.89 9.2
-13 -3 -9 85.29 11.8
-13 16 9 88.39 10.5
-3 -13 9 73.19 10.8
-3 16 -9 80.09 10.3
13 -16 9 77.79 12.4
3 -16 -9 81.19 12
13 3 -9 98.19 10.7
3 13 9 88.19 10.8
13 3 -9 79.99 11.5
3 13 -9 76.19 11.9
3 13 -9 66.19 9.4
-13 16 -9 72.19 9.7
-16 3 -9 77.69 10.3
3 -16 9 90.19 9.4
-3 16 9 68.59 9.9
13 -16 -9 107.39 14.5
16 -13 9 90.19 10
-3 -13 -9 87.09 12.6
16 -3 -9 74.19 9.5
-13 -3 9 68.49 9.3
-16 13 9 80.29 10
-2 16 -9 21.6 5.8
-16 14 -9 23.2 5.5
2 14 9 19.2 6.4
14 -16 9 30.4 8
-14 -2 -9 25.8 7.1
-14 16 9 27 6.1
14 2 -9 23 6.5
-2 -14 9 25.9 7.4
2 -16 -9 21.2 7
14 2 -9 18.1 6
-14 -2 9 18.1 5.4
2 14 -9 20.1 5.7
2 -16 9 19.8 6.9
-2 -14 -9 30.1 7.7
-16 14 9 19 6.3
2 14 -9 29 7.8
14 -16 -9 29.6 8.5
16 -14 9 26.5 7.9
-14 16 -9 23 5.6
-2 16 9 23.7 6
16 -2 -9 23.3 5.8
-15 16 9 -1.7 4.4
15 -16 9 18.2 7.5
-15 -1 -9 17 6.4
1 -16 -9 9.9 4.9
-16 15 -9 14.9 5.4
-1 -15 9 9.9 6.9
-1 16 -9 14.3 5.4
1 15 9 18.7 6
15 1 -9 13.8 5.4
15 1 -9 13 6.4
15 -16 -9 23.4 7.2
16 -1 -9 27.4 6
1 -16 9 17.8 7.1
1 15 -9 27.8 5.6
16 -15 9 25.8 7.9
-1 16 9 21 5.9
-1 -15 -9 22.7 6.9
-15 -1 9 7.9 4.3
-15 16 -9 19.5 5.3
-16 15 9 19.5 6
0 16 -9 8.1 4.9
16 -16 9 8.4 7
-16 16 -9 3.9 5.1
0 -16 9 13.7 6.7
0 -16 -9 9.4 5.3
-16 0 -9 3.7 4.5
0 16 9 5.7 5.4
-16 16 9 1.2 5.1
16 0 -9 2.7 4.3
16 0 -9 3.9 5.2
-9 17 9 60.69 7
8 -17 -9 47.7 8.2
-9 -8 -9 60.09 8.6
9 8 -9 49.99 8
-17 9 -9 46.8 7.1
-8 17 -9 49 6.3
9 8 -9 38.9 9.7
9 8 -9 61.49 6.9
-8 17 -9 58.59 8.2
-17 8 9 67.79 7.3
8 9 -9 54.99 6.7
9 -17 -9 38 8.1
-9 17 -9 36.7 6
-8 -9 -9 40.1 8.2
17 -9 9 49.8 8.9
8 9 -9 40.6 10.7
-8 17 9 43.1 6.4
-17 8 -9 35.1 6.8
-17 9 9 54.79 6.9
10 7 -9 2.2 7.6
-7 17 -9 2.6 6.7
10 7 -9 -2.5 7
-10 -7 -9 4.8 6.7
-7 17 -9 7.5 4.9
7 10 9 -7.7 4.3
-17 10 -9 5.6 5.4
-10 17 9 2.4 5.5
10 7 -9 7.7 5
10 -17 9 3.9 6.9
-17 7 9 4 5.4
7 -17 -9 0.2 6.3
-10 17 -9 1.1 5
7 10 -9 4.5 4.8
-17 7 -9 9.3 6.1
7 10 -9 5.4 9.9
-7 -10 -9 0.4 6.9
10 -17 -9 3.2 7.2
17 -7 -9 1.9 5.4
-7 17 9 7 5.3
-17 10 9 6.7 5.4
17 -10 9 16.8 8.5
11 6 -9 45.9 7.8
6 11 9 48.6 7.1
-11 -6 -9 49.1 8.3
-11 17 9 39.3 6.2
6 -17 -9 40.3 7.4
-6 17 -9 52.19 6.3
11 6 -9 50.09 8.8
-6 17 -9 57.69 8.1
-17 11 -9 48.9 6.6
11 -17 9 53.89 8.6
6 11 -9 39.5 11.3
-17 6 -9 35 7
6 -17 9 38 7.6
-6 17 9 47.5 6.6
17 -11 9 53.69 9
-6 -11 -9 45.1 8.5
-17 11 9 42.9 6.5
-11 -6 9 46.4 6.4
11 -17 -9 43.9 8.8
17 -6 -9 52.39 6.9
6 11 -9 53.69 6.5
-11 17 -9 48.1 6.3
5 12 9 7.8 6.2
-12 -5 -9 6 6.7
-12 17 9 7.7 5.6
-5 17 -9 7.4 5.2
-5 17 -9 7.9 6
12 5 -9 8.8 6.9
12 5 -9 11.9 6.6
-17 12 -9 11.4 5.4
5 -17 -9 9.3 6.5
12 -17 9 12.4 7.9
5 12 -9 19 10.5
-12 17 -9 13.4 5.3
5 12 -9 24.5 5.5
-17 12 9 16.4 5.8
17 -5 -9 17.6 5.6
-5 17 9 18 5.8
5 -17 9 19.2 7
12 -17 -9 23 8.1
-17 5 -9 18.9 6.6
-5 -12 -9 11.9 7.1
-12 -5 9 14.5 5.5
17 -12 9 27.1 8.2
-13 -4 -9 38 7.7
4 -17 -9 31.9 7.4
13 -17 9 34.4 7.9
4 13 9 27.3 6.6
-17 13 -9 29.3 5.5
13 4 -9 24.1 6.8
13 4 -9 31.5 6.7
-4 17 -9 37.9 6.6
-13 17 9 32.5 6.4
4 -17 9 37.1 7.8
-4 17 9 30.4 6
-4 -13 -9 39.1 7.9
-13 17 -9 30.6 5.7
17 -13 9 36.7 8.1
-13 -4 9 30.8 5.8
-17 4 -9 28 6.4
-17 13 9 28.9 6.2
4 13 -9 38.7 6
17 -4 -9 28.1 5.8
4 13 -9 41.3 10.4
13 -17 -9 40.3 8.4
-14 17 9 42 6.5
3 -17 -9 36.2 7.3
14 -17 9 58.89 8.3
14 3 -9 34.8 6.9
14 3 -9 48.5 7
-17 14 -9 59.69 6.4
-14 -3 -9 44.9 7.4
3 14 9 37.8 6.7
-3 17 -9 41.9 6.4
-3 -14 9 37.9 7.1
14 -17 -9 79.69 12.1
3 14 -9 49.6 9.3
17 -14 9 42.3 8.4
3 14 -9 46.6 6.3
-17 14 9 38.4 6.5
-14 -3 9 31.1 5.9
-3 -14 -9 53.79 8.1
-3 17 9 33.2 6
17 -3 -9 44.9 6.4
-17 3 -9 44.2 6.4
3 -17 9 45.9 7.7
-14 17 -9 35.5 5.9
-2 17 -9 36.5 6
-15 17 9 37.7 6
15 2 -9 25.9 6.3
-17 15 -9 32.3 5.5
2 -17 -9 27.3 5.5
-2 -15 9 34.9 7.1
-15 -2 -9 29.1 6.4
15 -17 9 37.2 7.7
15 2 -9 32.5 5.9
2 15 9 34.2 6.4
2 15 -9 34.9 5.7
-17 15 9 37.1 6.2
17 -2 -9 33.5 5.8
-15 -2 9 31.6 5.5
-15 17 -9 38.3 6.1
-2 17 9 49.5 6.7
2 -17 9 37.9 7.1
15 -17 -9 69.89 10.7
-2 -15 -9 64.59 9.5
17 -15 9 33.9 7.8
16 -17 9 37.9 7.4
-1 17 -9 32.6 5.5
-1 -16 9 38.8 6.9
1 16 9 33.3 5.9
-17 16 -9 29 5.3
16 1 -9 29 5.6
-16 17 9 30.9 5.4
-1 -16 -9 37.9 6.3
1 16 -9 34.3 5.5
-16 17 -9 26.6 5.3
-17 16 9 36 6.1
-1 17 9 40.3 6.2
17 -1 -9 33.2 5.6
17 -16 9 39.3 7.6
1 -17 9 37.2 6.9
17 -17 9 53.59 7.3
17 0 -9 43.7 5.7
-17 17 9 42.6 6.2
-17 17 -9 40.7 5.3
0 -17 9 44.4 6.7
0 17 9 33.4 5.8
0 17 -9 39.3 5.4
-17 17 9 30.3 5.1
-9 18 -9 1.9 4.6
-9 18 9 -0.3 5
18 -9 9 -0.4 5.6
-18 9 -9 1.3 5.3
9 -18 -9 -3.8 5.9
-18 9 9 2.1 4.9
-9 -9 -9 3.5 6.2
-9 18 -9 5.4 5.8
9 9 -9 0.3 7.4
9 9 -9 1.1 5.5
9 9 -9 0.2 4.8
-8 18 -9 30.7 5.6
10 8 -9 29.8 8
10 8 -9 38.6 7.3
8 -18 -9 33.2 7
-18 10 -9 38.4 6
-18 8 9 43.9 6.1
-10 18 9 39.2 5.9
-10 -8 -9 33.3 7
-8 18 -9 33.6 6.9
10 8 -9 43.3 6
8 10 -9 46.3 9.5
-10 -8 9 38.3 5.9
18 -10 9 38.7 7.9
10 -18 -9 33.7 7.4
-10 18 -9 22.3 5.3
-18 10 9 41.3 6.2
-18 8 -9 38 6.3
8 10 -9 40.7 5.9
8 -18 9 32.3 7.6
-8 18 9 42 6.2
-8 -10 -9 29.8 7.4
11 7 -9 8 6.4
-7 18 -9 9.2 4.9
7 11 9 -2 4.8
11 -18 9 4.9 6.7
-11 -7 -9 9.8 6.6
7 -18 -9 12.2 5.9
11 7 -9 12.1 7.3
-7 18 -9 12.8 6.2
-11 18 9 7.9 5.4
-18 11 -9 6.7 5.1
-18 7 9 9.4 5.3
-18 11 9 20.3 5.7
18 -11 9 16.1 7.6
-11 18 -9 16.9 5.2
-11 -7 9 13.7 5.4
7 11 -9 23.4 9.1
11 -18 -9 16.6 6.8
-18 7 -9 13.9 5.9
-7 18 9 14.2 5.5
7 11 -9 13.1 5.1
7 -18 9 21.6 6.9
-7 -11 -9 22.5 6.9
12 6 -9 39 7
-12 18 9 33.3 6
12 6 -9 43.8 7.8
-6 18 -9 29.3 6.4
-12 -6 -9 32.2 7
-6 18 -9 29.3 5.6
6 -18 -9 34 6.9
-18 12 -9 33 5.7
6 12 9 28.8 6.5
12 -18 9 40.7 7.8
-18 6 9 44.9 6
6 -18 9 31.5 7.4
-6 -12 -9 37.3 7.3
-12 18 -9 37.3 5.8
-12 -6 9 35.7 6
6 12 -9 37.1 5.8
12 -18 -9 48.3 8.1
-18 12 9 36.6 6.1
18 -12 9 50.09 8.6
18 -6 -9 34.4 5.9
-18 6 -9 34.5 6.3
-6 18 9 40 6.1
6 12 -9 55.69 9.9
13 -18 9 95.69 11.3
-18 5 9 91.49 9.1
13 5 -9 93.19 11.4
13 5 -9 107.39 10.8
-5 18 -9 108.79 10.3
-13 18 9 108.69 9.6
-18 13 -9 91.59 9.1
5 13 9 107.99 10.4
5 -18 -9 93.59 11.1
-13 -5 -9 103.19 11.1
5 13 -9 93.39 9.1
18 -13 9 100.39 11.7
18 -5 -9 82.59 9.2
-13 18 -9 93.79 9.2
-5 18 9 91.29 9.4
-18 13 9 94.89 9.7
-13 -5 9 89.39 9
13 -18 -9 119.59 11.7
-18 5 -9 95.59 9.8
5 -18 9 82.69 10.9
-5 -13 -9 100.79 11.2
14 -18 9 10.5 6.7
-18 14 -9 12 4.8
4 -18 -9 14.1 6.1
-14 -4 -9 13.9 6.2
-14 18 9 13.9 5
-4 18 -9 18 5.4
14 4 -9 19 5.7
4 14 9 14.8 5.9
14 4 -9 11.2 5.9
18 -4 -9 17.1 5.1
-18 4 -9 21.9 5.6
18 -14 9 18.7 7.3
-18 14 9 17.9 5.6
-4 -14 -9 16.9 6.3
-14 18 -9 22.5 5.1
14 -18 -9 33.1 7.1
4 -18 9 27 6.8
4 14 -9 19.1 5
4 14 -9 28.3 7.9
-14 -4 9 14.5 5
-4 18 9 20 5.4
15 3 -9 13.7 5.7
15 -18 9 11.7 6.7
3 -18 -9 11.9 4.7
-18 15 -9 9.8 4.7
-15 18 9 10.2 4.7
-3 18 -9 10.5 4.8
3 15 9 14 5.7
-15 -3 -9 9.1 5.3
-3 -15 9 0.9 5.5
15 3 -9 7.1 4.9
-3 -15 -9 26.1 6.2
-15 18 -9 16 4.8
3 -18 9 20.3 6.3
15 -18 -9 25.6 6.6
18 -15 9 17 6.9
-15 -3 9 13.8 5
-18 15 9 14.9 5.4
-18 3 -9 9.5 4.4
18 -3 -9 16 5
-3 18 9 18.1 5.4
3 15 -9 11.5 4.5
3 15 -9 25.1 6.6
16 2 -9 3.5 4.4
-2 -16 9 -2.7 5.8
2 16 9 9.8 5.2
16 -18 9 2.7 5.8
-18 16 -9 8.4 4.5
-2 18 -9 9.8 4.6
-16 18 9 7.9 3.5
16 2 -9 9.2 4.8
-18 16 9 6.5 4.9
-2 18 9 12.3 5.1
18 -16 9 7.7 6.4
-2 -16 -9 21.2 5.6
-16 -2 9 0.9 3.7
2 -18 9 12 6
2 16 -9 10.9 4.5
-16 18 -9 11.3 4.4
16 -18 -9 19.1 5.3
18 -2 -9 5.5 4.5
1 17 9 16 5.1
-1 18 -9 17.5 4.6
17 -18 9 17.8 6.4
-1 -17 9 14.2 5.8
-18 17 -9 14.7 4.4
17 1 -9 13.4 4.6
18 -17 9 22.5 6.2
1 -18 9 24.2 6
-18 17 9 20.7 4.7
-1 18 9 32.6 5.4
1 17 -9 25.2 4.9
18 -1 -9 27 5
-17 18 -9 21.6 4.6
18 -18 9 45 6.8
-18 18 -9 50.39 6.6
0 18 9 54.69 7.7
0 18 -9 42 5.3
18 0 -9 44.9 5.4
0 -18 9 35.4 6
-19 10 -9 61.29 8
10 9 -9 69.19 11.8
10 9 -9 55.69 8.5
9 -19 -9 65.39 9
-9 -10 9 57.29 8
-10 -9 -9 62.79 9.4
10 -19 9 67.39 8.1
-19 9 9 70.79 6.6
-10 19 9 59.99 8.4
-9 19 -9 51.39 6
-9 19 -9 72.39 9
-9 19 9 69.79 8.6
-19 10 9 79.29 8.6
-19 9 -9 62.49 8.2
9 10 -9 62.99 7.9
-9 -10 -9 62.79 9.5
10 -19 -9 78.79 9.9
9 10 -9 86.89 12.3
-10 19 -9 70.49 8
-10 -9 9 76.99 8.7
9 -19 9 71.19 10.6
11 8 -9 30.6 6.4
11 -19 9 29.3 6.4
-8 19 -9 30.6 6.3
-11 -8 -9 23.8 6.3
-19 8 9 26.6 5.4
-8 19 -9 28.2 5.4
11 8 -9 31.2 7.2
-19 11 -9 25 5.2
8 -19 -9 18.5 5.6
-11 19 9 30 5.4
8 11 -9 33.8 8.2
-8 -11 -9 26 6.5
-19 11 9 27.7 5.5
-8 19 9 29.5 5.4
11 -19 -9 23.2 6.2
-11 -8 9 26.8 5.4
8 11 -9 20.4 4.9
-19 8 -9 22.6 5.2
8 -19 9 31.4 7.1
-11 19 -9 26.3 5.1
-7 19 -9 59.79 7.6
12 -19 9 56.39 7.6
-12 19 9 76.19 8
12 -19 9 52.09 7
-12 -7 -9 59.69 9.3
-19 7 9 59.99 8
7 -19 -9 64.29 9.7
12 7 -9 62.29 10.3
-7 19 -9 74.59 8.8
7 12 9 42.6 5.9
12 7 -9 84.89 9.6
-19 12 -9 66.09 7.7
7 -19 9 67.39 9.6
-12 -7 9 66.69 8.3
-12 19 -9 65.89 7.9
19 -12 9 57.79 9.3
-7 19 9 67.49 8.6
7 12 -9 61.89 8.2
-19 12 9 70.19 6.7
-7 -12 -9 76.09 10.1
-19 7 -9 75.69 8.4
12 -19 -9 83.79 9.9
6 -19 -9 7.4 5.8
13 -19 9 7.1 4.6
13 6 -9 7.5 5.5
13 -19 9 9.1 6.6
-19 6 9 13.4 4.7
-13 19 9 10.1 4.8
-13 -6 -9 8.1 5.8
6 13 9 6.4 5.3
-19 13 -9 11.2 4.6
13 6 -9 13.3 5.7
-6 19 -9 16.8 5.3
6 -19 9 7.6 6.1
-6 19 9 4.9 4.9
-13 -6 9 0 4.5
-19 13 9 1.6 4.8
13 -19 -9 14.8 6
6 13 -9 6.5 4.5
-13 19 -9 6.1 4.3
6 13 -9 22.4 7.6
19 -13 9 6.6 6.9
-19 6 -9 8.6 5.2
-6 -13 -9 8.5 5.9
-19 14 -9 32.4 5
-14 19 9 31 5.1
14 -19 9 31.6 7.1
14 5 -9 31.9 5.9
-19 5 9 41.6 5.5
14 5 -9 25.4 5.9
5 14 9 31.4 6
-14 -5 -9 30.8 6.1
5 -19 -9 26.3 6.2
-5 19 -9 38.7 5.5
5 14 -9 39.9 5.2
-19 14 9 33.7 5.6
-5 -14 -9 35.9 6.4
14 -19 -9 40.9 6.7
-19 5 -9 28.2 5.4
19 -14 9 32.4 7.4
-14 19 -9 31.2 4.9
5 -19 9 36.3 6.4
-14 -5 9 27.5 5.2
19 -5 -9 30.3 5.3
-5 19 9 42 5.8
-15 19 9 9.8 3.4
-15 -4 -9 14.3 4.4
4 15 9 20.3 5.4
4 -19 -9 5 4.2
15 -19 9 11.8 6.3
15 4 -9 18 5
-4 19 -9 20.1 4.9
-19 4 9 18.4 4.6
-19 15 -9 13.3 4.5
15 4 -9 15.9 5.1
-4 -15 -9 25.1 5.7
-15 -4 9 24.2 4.8
4 15 -9 31.7 6.4
-19 4 -9 18.9 4.2
19 -15 9 22.1 6.3
4 -19 9 25.4 5.9
-15 19 -9 14 4.3
-19 15 9 18.2 4.9
4 15 -9 14.8 4.3
15 -19 -9 29.1 6
19 -4 -9 23.5 4.9
-4 19 9 18.4 5
16 3 -9 1.4 4.4
16 -19 9 -1.9 5.9
-3 19 -9 5.4 4.3
-19 16 -9 0.7 4
-19 3 9 0.5 4.1
3 16 9 0.6 4.6
-3 -16 9 -11.1 4.7
19 -16 9 2.9 6.2
-16 19 -9 6.2 3.8
-16 -3 9 0.9 3.4
3 16 -9 6.5 4
-19 16 9 2.8 4.4
-3 -16 -9 8.5 5.3
16 -19 -9 12.6 4.7
-3 19 9 7 4.9
19 -3 -9 4 4.3
3 -19 9 7.2 5.5
-19 2 9 11.5 4.4
-19 17 -9 8.8 3.8
-2 19 -9 11.2 4.4
17 2 -9 9.6 4.4
2 17 9 10.9 4.9
17 -19 9 11 6
19 -17 9 10.9 6.1
19 -2 -9 8 4.1
2 -19 9 11.2 5.2
-2 19 9 9.7 4.8
-19 17 9 0 3.7
-2 -17 -9 7.7 3.9
-17 19 -9 6.3 3.4
2 17 -9 8.9 4
18 1 -9 56.69 7.1
-19 1 9 49.1 6.3
18 -19 9 61.99 8.8
1 18 9 70.09 7.6
-1 19 -9 67.39 7.2
-19 18 -9 62.39 6.1
19 -18 9 57.99 9.1
1 18 -9 58.59 6.7
19 -1 -9 55.09 6.9
-1 19 9 70.49 7.8
1 -19 9 63.49 7.6
-10 20 -9 3.8 4.2
-20 10 -9 5.4 4.3
10 10 -9 8.4 6.2
-10 -10 9 10.7 4.8
-10 20 -9 2.2 3.9
10 -20 9 6.5 5.7
-20 10 9 5.3 4.6
10 -20 -9 7.5 5
-10 20 9 5.1 4.5
-10 -10 -9 5.6 5
11 -20 9 34.7 6.2
11 9 -9 24.3 4.8
-11 20 9 36.8 5.2
-20 11 -9 39.9 5.2
11 9 -9 46.8 7
-20 9 9 42.8 5.4
-11 -9 -9 33.6 6.1
-9 20 -9 30.1 4.7
-9 20 -9 50.79 6.9
-9 -11 9 44.7 5.5
9 -20 -9 33.5 6.1
9 -20 9 45.1 6.9
-20 9 -9 52.39 7
9 11 -9 40.9 5.2
-9 20 9 46.6 5.7
9 11 -9 63.29 10.9
11 -20 -9 36.5 6
-11 -9 9 45.9 5.6
-9 -11 -9 44.6 6.4
-20 11 9 44.3 5.5
-11 20 -9 31.8 4.7
12 8 -9 5.4 5.1
8 -20 -9 11.3 5.5
-12 -8 -9 13.7 5.3
12 -20 9 5.8 4.3
-20 8 9 9.9 4.4
-20 12 -9 8.3 4
-8 -12 9 14.1 4.8
-12 20 9 10.8 4.6
-8 20 -9 14 4.9
12 8 -9 11.8 5.6
-20 8 -9 12.6 4.6
-8 -12 -9 6.9 5.2
-8 20 9 7.7 4.6
8 12 -9 20.7 7
12 -20 -9 8.4 5.1
-12 -8 9 7.1 4.5
8 12 -9 5.5 4.4
8 -20 9 9.1 5.6
-12 20 -9 4.2 3.8
-20 12 9 7.7 4.5
-7 20 -9 32.8 5.5
-7 -13 9 37.5 5.3
-20 7 9 32.3 5
-13 -7 -9 35.7 5.9
-20 13 -9 33.3 4.8
13 7 -9 35.5 5.8
-13 20 9 31.3 4.7
7 -20 -9 34.1 6
13 7 -9 34.1 6
-13 -7 9 43.6 5.1
-20 13 9 44.7 5.6
-7 20 9 46.3 5.7
-20 7 -9 42.3 5.3
-13 20 -9 26.1 4.2
7 -20 9 39.2 6.3
-7 -13 -9 55.59 8.4
13 -20 -9 37.7 5.9
7 13 -9 32.3 4.8
6 -20 -9 88.59 8.3
-20 6 9 93.09 8
14 6 -9 88.89 8.9
14 -20 9 79.69 9.4
6 14 9 71.39 7.4
-14 -6 -9 91.39 8.2
14 6 -9 88.19 8.3
-20 14 -9 91.59 7.7
-6 20 -9 94.29 8.2
-6 20 9 79.69 8.2
-20 14 9 92.19 8.2
14 -20 -9 98.19 9.1
-20 6 -9 83.19 7.6
6 14 -9 83.29 7.8
-14 -6 9 89.89 7.6
6 -20 9 94.59 9.2
-6 -14 -9 91.19 9.1
-14 20 -9 62.89 6.5
-5 20 -9 11.4 4.3
15 5 -9 8.6 3.8
15 5 -9 9.7 4.6
-20 5 9 9.7 4.3
-20 15 -9 10.8 4.2
5 15 9 5.6 4.5
15 -20 9 4.2 5.8
15 -20 -9 14.8 5
5 15 -9 11.7 5.1
-5 -15 -9 12.5 5.2
-20 5 -9 10.4 3.5
5 -20 9 11.4 5.5
-5 20 9 12.4 4.8
-15 20 -9 0.8 2.9
-15 -5 9 3.4 4
-20 15 9 8.1 4.2
5 15 -9 6.2 4.1
20 -15 9 7.6 5.7
-20 4 9 6.7 4.1
16 4 -9 2.3 4.3
4 16 9 -1.5 4.5
16 -20 9 2.8 5.6
-4 20 -9 5.2 4.1
-20 16 -9 5.3 4
-4 -16 -9 9.7 4.8
-4 20 9 4.3 4.6
-20 16 9 -1 4
16 -20 -9 6.3 3.5
20 -4 -9 1.1 4.1
4 16 -9 -3.5 3.7
4 -20 9 1 5.2
-16 -4 9 -5.8 2.9
-16 20 -9 -1.1 4.2
20 -16 9 5.8 5.8
17 -20 9 9.9 5.6
17 3 -9 2.8 4.2
-3 20 -9 7.2 4.1
-20 17 -9 2.1 3.5
-20 3 9 5.9 3.8
3 17 9 1.7 4.3
-3 20 9 8.9 4.5
3 17 -9 7.8 3.9
20 -3 -9 1.7 4.2
3 -20 9 7.3 5
20 -17 9 0.3 5.7
-20 17 9 -2.9 2.9
-3 -17 -9 2 3.4
-11 21 9 1.8 3.4
-11 -10 -9 3.4 4.8
11 -21 9 -6.1 3.6
-21 10 9 0.7 4.1
11 10 -9 4.9 5.2
-10 -11 9 3.8 4.4
-21 11 -9 6.3 3.9
10 -21 -9 5.4 4.8
10 11 -9 6.7 5.4
11 -21 -9 4.8 4.7
-21 11 9 4 4.2
-10 -11 -9 4.8 5
-11 -10 9 4.7 4
-21 10 -9 8.5 4
10 -21 9 -0.9 4.7
-10 21 9 0.8 3.9
-21 12 -9 31.9 4.6
-21 9 9 37.6 5
-12 -9 -9 25.7 5.3
-9 -12 9 35.8 4.7
12 9 -9 27.6 5.8
9 -21 -9 23.8 5.4
9 12 -9 42 6.7
-21 9 -9 24 4.5
-9 -12 -9 31.4 5.6
9 -21 9 26.4 5.6
-9 21 9 30.3 4.9
-12 -9 9 32.1 4.9
-21 12 9 36.4 5.2
12 -21 -9 26.1 5.2
8 -21 -9 68.49 7.8
-13 -8 -9 58.89 7
-21 8 9 70.99 7.1
13 8 -9 69.19 8.7
-8 21 -9 48.6 5.7
-21 13 -9 59.39 6.9
-8 -13 9 64.59 7
8 13 -9 87.89 10.1
-21 13 9 72.99 7.5
8 13 -9 59.09 6.9
-21 8 -9 67.79 6.8
8 -21 9 69.09 8.4
-8 21 9 58.19 7.3
-13 -8 9 72.59 7.2
-8 -13 -9 72.19 8.2
13 -21 -9 61.29 7.7
7 -21 -9 3.5 3.5
14 7 -9 2.1 3.8
-7 21 -9 6.9 3.7
14 7 -9 5 4.1
-21 7 9 5 4
-21 14 -9 7.4 3.9
-14 -7 -9 3.7 4
-7 -14 9 4.7 4.2
-14 -7 9 4.3 4.2
-21 14 9 6.4 4.3
-7 21 9 2 4.4
7 14 -9 0.6 3.9
-21 7 -9 5.3 3.6
7 -21 9 3.1 5.2
14 -21 -9 7.8 4.4
7 14 -9 13.1 5.6
-7 -14 -9 5 4.6
-21 15 -9 12.1 4
15 6 -9 7.6 3.9
-6 21 -9 9.5 3.8
-6 -15 9 8.5 4.3
-21 6 9 10.5 4.1
15 -21 -9 15 4.5
6 15 -9 2.9 3.4
-15 -6 9 5.6 3.6
6 15 -9 7.1 4.1
-21 6 -9 0.9 3.2
-6 21 9 6.8 4.5
-21 15 9 7 4
-6 -15 -9 16 4.9
6 -21 9 11.4 5.4
0 0 10 4.1 8.4
1 -1 10 284.37 20
1 0 10 284.07 19.9
-1 1 10 279.37 20.4
0 -1 10 244.78 19.3
0 1 10 301.07 20.4
-1 0 10 275.97 19.8
-1 -1 10 70.79 11.7
0 2 10 119.39 14.7
2 0 10 113.99 14.8
2 -2 10 86.29 13.3
1 2 10 271.77 20.3
3 -1 10 274.37 20
2 -3 10 283.77 18.7
3 -2 10 256.87 19.6
2 1 10 282.37 20.2
-1 -2 -10 257.37 17.6
-1 3 10 299.77 20.8
1 -3 10 258.77 18.4
3 -3 10 55.29 9.6
0 3 10 67.69 11.8
0 -3 -10 54.49 8.8
3 0 10 55.69 11
0 -3 10 68.79 9.9
4 -2 10 47.5 9.2
2 2 10 71.79 12.2
-2 4 10 51.09 10.9
2 -4 10 63.49 10.3
-2 -2 -10 59.99 9.6
4 -2 10 57.49 11.3
-3 -1 -10 277.27 18.5
3 -4 10 287.57 19
4 -1 10 264.17 20.2
1 3 10 288.87 20.9
3 1 10 269.07 20.1
-1 4 10 244.48 19.8
4 -3 10 276.77 18.5
-1 -3 -10 230.28 17.3
1 -4 10 259.07 17.5
4 -4 10 9.8 7.9
4 0 10 11.5 9.9
0 -4 10 5 6.4
0 -4 -10 11.6 7.4
0 4 10 16.6 9.7
5 -2 10 216.18 17.3
5 -2 10 228.58 19.1
-3 -2 -10 226.38 17.1
2 3 10 225.18 18.9
3 -5 10 241.98 17.5
-2 5 10 217.38 18.6
5 -3 10 197.88 16.3
3 2 10 207.58 18.1
5 -3 10 197.48 17
2 -5 10 186.68 16.6
-2 -3 -10 198.28 15.8
4 -5 10 218.68 16.9
5 -1 10 215.98 18.7
-4 -1 -10 204.98 16.3
-1 -4 10 195.88 17.4
1 4 10 207.18 18.5
-1 5 10 214.18 18.9
1 -5 10 183.08 15.7
4 1 10 219.88 18.7
5 -4 10 219.88 17
-1 -4 -10 222.48 16.8
5 0 10 45.7 11.6
0 -5 10 32.8 10.2
0 5 10 41.2 10.5
0 -5 -10 25.8 8.8
5 -5 10 48 10.3
-5 0 -10 46.4 9.5
3 3 10 92.99 14.1
6 -3 10 55.59 12.2
6 -3 10 81.09 12
3 -6 10 78.09 11.4
-3 -3 -10 59.19 10.7
2 4 10 166.28 17.3
-4 -2 -10 180.68 15.5
4 -6 10 178.88 16.5
6 -2 10 178.48 16.3
6 -2 10 177.98 18.4
2 -6 10 171.98 15.4
4 2 10 199.08 18.2
6 -4 10 184.48 16.2
-2 6 10 179.88 17.9
-2 -4 -10 185.68 16.6
1 5 10 60.09 12.7
5 -6 10 33.7 9.6
6 -1 10 42.1 12.2
-5 -1 -10 51.49 9.9
6 -1 10 55.49 11.1
-1 -5 10 47.2 10.7
-1 -5 -10 19.6 9.2
1 -6 10 30.2 10.2
-1 6 10 24.3 10.6
5 1 10 35.7 11.5
6 -5 10 32.1 10
0 6 10 72.59 13.3
0 -6 10 57.59 11.6
6 0 10 53.49 12.2
-6 0 -10 65.19 10.5
0 -6 -10 41.5 10.1
6 -6 10 74.69 11.8
7 -3 10 162.78 18.4
-4 -3 -10 184.38 16.4
4 -7 10 178.48 16
7 -3 10 173.58 16.5
3 4 10 183.18 18.1
7 -4 10 126.69 17
-3 7 10 164.18 17.7
7 -4 10 160.68 15.8
-3 -4 -10 160.08 16.3
4 3 10 152.38 17
3 -7 10 148.29 15.4
5 -7 10 202.68 17.2
7 -2 10 210.28 20.7
2 5 10 204.08 19.1
-5 -2 -10 210.08 16.9
7 -2 10 206.48 17.6
-2 7 10 212.28 19.9
-2 -5 -10 233.58 19
2 -7 10 221.78 19.1
7 -5 10 219.18 18.1
5 2 10 219.38 19.6
-1 -6 10 8.7 9.3
-6 -1 -10 13.5 8.2
6 1 -10 1.1 4.2
7 -1 10 10.6 11.2
-6 -1 -10 4.2 6
-7 6 -10 -1.3 4.4
6 -7 10 13.9 9.4
1 6 10 30.2 11.3
7 -1 10 10.9 9.1
1 -7 -10 1.1 8.1
1 -7 -10 3.7 5.2
-1 -6 -10 20.2 9.8
-1 7 10 24.5 10.4
1 -7 10 22.7 10.2
6 1 10 26.9 11.4
-1 -6 -10 3.7 6.5
7 -6 10 20.5 9.8
0 7 10 11.5 10.6
7 -7 10 1.2 9.1
7 0 -10 3.7 4.6
7 0 10 10.5 11.8
7 0 10 -1 8.7
0 -7 -10 5.5 5.2
-7 0 -10 8.8 8.2
-7 7 -10 -2.9 4.7
-7 0 -10 2.5 5
0 -7 10 6.9 9.5
0 -7 -10 -6.9 9.2
-4 -4 -10 921.11 45.2
8 -4 10 918.01 44.8
4 -8 10 886.51 43.9
4 4 10 898.41 46
8 -4 10 770.72 45.6
4 -8 10 932.01 45.5
3 -8 -10 7.3 5.4
-8 5 -10 10.3 4.9
8 -3 10 25.7 12.6
5 -8 10 19 10
-5 -3 -10 5.4 6
8 -3 10 25.4 10.4
3 5 10 20.3 10.5
-5 -3 -10 22.7 8.9
-5 8 -10 -1 4.3
5 -8 -10 42.7 10
8 -3 -10 0.7 6.7
-3 8 10 39.8 12.1
3 -8 10 0.4 8
8 -5 10 36.8 10.1
8 -5 10 5.6 9.5
3 -8 10 27.8 10.4
-3 -5 -10 2.4 7.1
-8 3 -10 13.2 4.9
-3 -5 -10 29.7 10.4
5 3 10 39.7 11.8
8 -2 10 9.7 12.4
-6 -2 -10 16.9 8.6
8 -2 10 11.2 9.4
6 -8 10 23 10.1
-6 -2 -10 11.2 5.2
-2 -6 10 1.6 8.9
2 -8 -10 13.1 6
6 2 -10 8.2 5
-8 6 -10 4.8 4.8
2 6 10 14.2 10.1
8 -6 10 4 9.6
-2 8 10 2.2 9.4
-6 8 -10 0.1 4.7
-8 2 -10 6.2 5.2
-2 -6 -10 6.2 4.7
2 -8 10 9.3 9.8
8 -2 -10 2.8 4.2
6 2 10 12.4 11.5
6 -8 -10 15.4 9.3
-2 -6 -10 5.3 10.3
-1 -7 10 101.49 15.6
8 -1 10 120.89 15.6
-7 -1 -10 87.39 11
-8 7 -10 79.79 9.7
1 7 10 110.69 16.8
1 -8 -10 97.09 11.3
-7 -1 -10 114.19 13.8
7 -8 10 98.99 14.7
7 1 -10 89.29 10.5
8 -1 10 109.69 18.1
-8 1 -10 100.49 13.2
8 -7 10 81.09 12.1
-8 1 -10 86.59 10.9
8 -1 -10 81.19 10
7 1 10 105.09 15.4
-1 -7 -10 112.09 17.2
-1 8 10 110.59 16.9
-1 -7 -10 87.59 10.7
7 1 10 104.09 17.7
7 -8 -10 115.69 15.8
1 -8 10 98.59 15.5
-7 8 -10 81.19 10.3
8 0 10 34.1 11
0 -8 -10 37.1 11.8
8 0 -10 35.3 7
0 8 10 42.1 12
8 -8 -10 33 10.6
-8 0 -10 23.8 6.9
8 -8 10 22.8 10.2
-8 8 -10 27.8 6.5
0 -8 10 35.8 11.2
8 0 10 29.8 13
-8 0 -10 40.5 10
0 -8 -10 23 6.9
-9 5 -10 119.39 11
4 -9 -10 131.29 14.8
9 -4 10 101.49 18.1
4 -9 -10 114.49 12
5 -9 10 133.69 17.1
-5 -4 -10 136.09 15.5
9 -4 10 150.08 16.2
5 -9 10 123.49 15.5
-5 -4 -10 90.89 11.7
5 4 -10 98.09 11.5
4 5 10 129.59 17.6
5 4 10 114.79 17.7
4 -9 10 102.99 15.9
-5 9 -10 82.29 9.2
4 -9 10 58.79 10.4
-9 4 -10 102.99 10.1
-4 9 10 111.89 17.1
9 -5 10 101.69 15.8
5 -9 -10 66.69 10.8
3 -9 -10 70.99 9
9 -3 10 66.59 14.6
-6 -3 -10 65.19 8.5
-6 -3 -10 82.59 13.6
9 -3 10 101.39 13.5
-9 6 -10 73.39 10.2
6 -9 10 72.99 12
6 3 -10 57.69 7.9
3 6 10 97.19 16.5
6 -9 10 92.99 13.6
-9 3 -10 86.79 10.5
9 -6 10 81.99 12.3
3 -9 10 84.79 13
-3 9 10 103.79 17
-6 9 -10 68.19 9.9
-3 -6 -10 78.89 13.9
6 -9 -10 115.99 15.7
6 3 10 101.99 17.5
2 7 10 63.89 12.8
9 -2 10 43 14.1
-7 -2 -10 64.49 11.1
9 -2 10 75.99 12.7
-2 -7 10 41.4 10.4
7 2 -10 51.59 7.7
2 -9 -10 54.39 8.3
-7 -2 -10 65.59 8.7
7 -9 10 52.29 11.3
-9 7 -10 50.09 7.1
-2 9 -10 43.1 5.6
9 -7 10 97.89 13.3
9 -2 -10 65.49 10.3
-2 -7 -10 72.29 13.9
-7 9 -10 69.09 9.9
-7 9 -10 48.3 6.1
2 -9 10 102.69 14
7 2 10 84.29 14.4
7 -9 -10 106.19 15.9
-2 9 10 93.19 17.1
-9 2 -10 75.29 11.1
-2 -7 -10 68.29 10.2
-8 -1 -10 44.5 8
-8 -1 -10 69.79 11.8
8 1 -10 43.2 7.4
9 -1 10 54.19 11.9
-9 8 -10 53.79 7.5
8 -9 10 34.6 10.7
1 -9 -10 54.59 8.4
1 8 10 71.19 14.4
-1 -8 10 31.3 11
-1 9 -10 38.7 5.5
9 -1 10 42.4 14.4
-8 9 -10 54.69 6.4
8 1 10 78.39 13.4
-9 1 -10 97.09 12.9
-9 1 -10 67.99 8.6
-1 -8 -10 75.09 14.3
-8 9 -10 81.49 8.4
-1 9 10 72.79 13.9
9 -8 10 70.59 12.4
1 8 -10 44 5.6
8 1 10 60.69 14.1
-1 -8 -10 64.79 8.2
1 -9 10 81.89 13.2
9 -1 -10 55.99 7.9
8 -9 -10 65.09 13.1
0 9 -10 47.9 6.2
0 -9 -10 14 12.2
0 -9 -10 44.2 8.1
9 -9 -10 43.5 11.9
-9 0 -10 56.29 11.2
0 -9 10 43.3 11.7
-9 9 -10 50.39 6.5
9 0 10 47.5 14.6
9 -9 10 71.09 13
9 0 -10 39.3 7.7
-9 9 -10 50.69 7.5
9 0 10 71.59 13.5
-9 0 -10 44 8.1
0 9 10 68.49 14.5
5 5 -10 0.3 5
10 -5 -10 19.4 5.4
-5 10 -10 15.2 5.2
5 -10 10 32.1 11.7
-5 -5 -10 7 8
5 -10 -10 15.7 9.7
5 -10 10 10.8 9.5
10 -5 10 17.8 10.7
-10 5 -10 12 6.1
-5 -5 -10 -1.3 5
5 5 -10 9.7 7
5 -10 -10 6.7 7.5
10 -5 10 5 10.9
5 5 10 16.1 12.2
-5 -5 -10 16.2 10.8
-6 -4 -10 177.98 15.9
10 -4 10 195.68 20.3
-6 -4 -10 225.78 18.9
-10 6 -10 191.58 14.1
6 4 -10 158.68 15.5
4 6 10 239.48 21.1
4 -10 -10 165.58 15.8
6 -10 10 207.28 19.8
10 -4 10 219.88 19.1
-4 10 -10 178.58 12.8
6 -10 10 183.78 18
4 -10 -10 201.08 17.8
-4 -6 -10 201.18 16.2
-4 10 10 191.78 13.4
10 -4 -10 200.88 13.2
-4 10 10 243.98 22.5
4 6 -10 188.28 15.1
-6 10 -10 198.58 13.7
6 -10 -10 217.88 16.7
6 4 10 254.07 22.2
4 -10 10 241.78 19.8
10 -6 10 230.48 20
6 -10 -10 244.18 20.4
-10 4 -10 204.88 14.9
-4 -6 -10 251.77 21.5
7 3 -10 -1 3.8
-10 7 -10 0.5 4.6
-3 10 -10 3.9 5.1
-10 7 -10 3 5.9
10 -3 10 2.1 10.7
-7 -3 -10 4.5 7.3
7 3 -10 1.6 6.3
10 -3 10 -4.6 12.4
3 -10 -10 1 7.3
3 7 10 12 11.4
7 -10 10 -2.8 10.1
-7 -3 -10 16.1 9.5
-7 -3 -10 -12.2 6.2
7 -10 10 1 10.6
7 -10 -10 -1.8 7.3
-3 -7 -10 10.2 11.9
-3 -7 -10 -4.2 7.3
-7 10 -10 3.1 5
3 7 -10 3.6 5.6
-10 3 -10 7.4 6
-3 10 10 4.6 11.1
3 -10 10 4.9 10.5
7 3 10 3.3 11.8
7 -10 -10 9.5 11
-7 10 -10 2.8 5.6
10 -3 -10 5.4 5.3
10 -3 -10 7.6 5
-3 -7 -10 3 5.7
10 -7 10 3.1 9.6
-3 10 10 2.8 4.7
2 8 10 74.79 14.5
-8 -2 -10 42 7.9
8 -10 10 73.09 13.8
10 -2 10 38.7 13.9
-10 8 -10 35.9 5.9
-10 8 -10 56.39 7.7
-2 10 -10 53.69 6.7
8 2 -10 69.19 9
2 -10 -10 48.6 8.5
8 2 -10 41.8 5.4
-8 -2 -10 60.29 11
8 -10 10 60.69 12.1
10 -2 10 61.19 12.8
-2 -8 -10 53.69 7.8
8 2 10 78.09 15.9
8 -10 -10 68.99 13.4
-2 10 10 80.49 15.1
10 -8 10 54.89 11.7
-2 10 10 56.49 8.4
10 -2 -10 63.29 9
-8 10 -10 61.09 7.3
2 8 -10 59.89 8.1
10 -2 -10 49.5 7.5
-8 10 -10 66.99 8
8 2 10 71.59 13
2 -10 10 79.19 13.4
-10 2 -10 75.39 9
-2 -8 -10 57.79 14.3
9 1 -10 8.7 6.4
-10 9 -10 14.5 6.5
-1 10 -10 19 5.5
-10 9 -10 14.5 5.7
10 -1 10 5.6 13.5
-9 -1 -10 5.9 6.7
-9 -1 -10 8.8 8.8
10 -1 10 21.2 11.7
1 9 10 17.5 12
9 1 -10 2.3 4.4
1 -10 -10 9.8 7.2
-1 -9 10 16.6 10.7
9 -10 10 6.8 10.6
9 -10 -10 3.4 11.7
10 -9 10 2.8 10.3
-9 10 -10 5.8 5.5
10 -1 -10 7.6 6.5
-1 -9 -10 9.6 12.4
-1 10 10 7.9 4.7
1 -10 10 7 10.7
1 9 -10 14.6 5.4
9 1 10 5.6 13.6
-1 -9 -10 7.3 6.6
9 1 10 10.6 11
-9 10 -10 13.9 6.1
1 9 -10 0.9 5.1
10 -1 -10 15.4 5.4
-10 1 -10 5.1 6.9
-1 10 10 11.4 11.6
-10 10 -10 53.59 7.2
10 0 10 77.09 16.5
0 10 10 57.89 8.5
10 -10 10 56.19 12.2
10 0 -10 71.09 9.9
0 10 -10 64.89 7.1
10 0 10 73.89 13
0 10 10 85.69 15.4
-10 0 -10 62.89 8.7
0 -10 10 71.49 13.4
-10 10 -10 77.99 8.5
-10 0 -10 65.09 11.5
10 0 -10 65.89 8.9
0 -10 -10 72.89 9.5
6 -11 10 -1.4 9.7
11 -5 10 -4.8 10.7
-11 6 -10 0.3 5.5
11 -5 10 12.2 11.2
5 6 10 7.8 12.3
6 -11 10 -0.1 10.7
5 -11 -10 2.2 9.5
-11 6 -10 2.2 5.9
-6 -5 -10 1 8.2
6 5 -10 2.6 7.4
6 5 -10 10.5 4.6
5 -11 -10 6 7.9
-5 11 -10 -0.1 5.3
11 -6 -10 -9 5.1
-6 -5 -10 -4.2 5.5
-6 -5 -10 8.4 10.3
-5 -6 -10 1.2 5.3
6 -11 -10 3 10.5
-5 -6 -10 2.2 8.6
-5 11 10 3.5 5.9
-6 11 -10 1.6 5.4
6 -11 -10 -8.4 8
-11 5 -10 13.3 6.2
5 6 -10 -5 7.6
5 -11 10 10.2 10.8
11 -5 -10 12.1 5.6
5 6 -10 6 4.5
-5 -6 -10 3.2 10.6
11 -6 10 8.7 10.7
-5 11 10 10.8 11.8
11 -5 -10 -5.1 4.5
6 5 10 4.4 11.6
-4 11 -10 44.6 6.6
-7 -4 -10 51.19 11.2
4 -11 -10 39.2 8.8
7 -11 10 66.09 13.7
11 -4 10 26.2 13
-11 7 -10 36.1 6.6
4 7 10 65.99 15
11 -4 10 66.89 13.4
-7 -4 -10 56.89 9.5
4 -11 -10 55.09 11.7
-11 7 -10 46 7.4
7 4 -10 28.5 8
7 -11 10 59.69 12.1
7 4 -10 55.59 6.5
-11 4 -10 45.3 7.7
-4 -7 -10 33.1 9.8
7 -11 -10 61.99 13.8
-4 11 10 34.6 12.7
4 7 -10 35.9 5.3
7 -11 -10 35.1 10
11 -4 -10 57.39 7.2
4 -11 10 43.5 12.1
-4 11 10 36.9 6.7
-4 -7 -10 31.8 6.6
4 7 -10 38 9
-7 11 -10 41 6.4
11 -4 -10 32.4 6
11 -7 10 46 12.2
-4 -7 -10 39.6 12.8
7 4 10 47.5 14.2
8 3 -10 41.9 6
-11 8 -10 32 7
3 -11 -10 31.4 8.4
8 -11 10 55.39 13.6
8 3 -10 37.5 7.9
3 8 10 46.5 13.3
11 -3 10 24.5 13.6
-8 -3 -10 31.7 8
11 -3 10 43.4 12.2
-3 11 -10 29.9 6.1
-8 -3 -10 33.1 10.4
-11 8 -10 31.2 6.6
8 -11 10 44.3 8.2
8 -11 10 36.1 11.4
11 -3 -10 65.19 7.4
-3 -8 -10 55.79 7.7
-3 11 10 57.29 13.8
-3 -8 -10 42.5 10.1
-3 11 10 56.09 7.1
8 -11 -10 42.5 10.4
8 3 10 50.29 11
3 8 -10 31.4 8.2
11 -3 -10 43.9 7
8 3 10 55.99 15.5
-8 11 -10 53.69 6.8
3 -11 10 55.49 12.7
3 8 -10 49.1 6.3
11 -8 10 56.79 12.5
-11 3 -10 55.89 7.7
-3 -8 -10 45.3 14.2
8 -11 -10 42.8 13.3
-11 9 -10 110.99 12
-9 -2 -10 127.69 16
9 -11 10 94.99 15.7
2 9 10 129.79 19.8
-9 -2 -10 108.79 12.5
11 -2 10 142.99 17.4
9 -11 10 131.19 18.7
2 -11 -10 88.29 13.2
9 2 -10 99.29 13.5
-2 11 -10 118.49 10.9
9 -11 10 105.69 13.5
11 -2 10 84.99 15.8
-11 9 -10 106.49 10.7
-2 11 10 105.69 16.5
2 9 -10 68.79 9.5
-11 2 -10 79.69 12.2
11 -2 -10 94.39 10.9
11 -9 10 70.49 12.7
-2 -9 -10 80.79 16.3
2 -11 10 80.69 13.5
-2 11 10 82.79 10.1
9 2 10 74.29 16.1
-2 -9 -10 85.29 12.1
9 -11 -10 61.59 14.6
11 -2 -10 91.39 12.4
-9 11 -10 74.69 10
-2 -9 -10 55.09 10.2
9 -11 -10 81.69 11.2
10 1 -10 91.59 10.6
10 -11 10 82.29 13
1 -11 -10 79.59 9.7
-11 10 -10 73.69 11.2
10 1 -10 72.39 12.7
11 -1 10 80.49 15.8
10 -11 10 117.49 16.3
-10 -1 -10 94.49 14.9
-10 -1 -10 82.79 11.8
1 10 10 78.69 9.2
10 -11 10 67.79 12.5
1 10 10 103.29 18
-1 11 -10 81.19 9.5
-1 -10 10 59.09 11.8
11 -1 10 58.39 11.5
-11 10 -10 83.49 10.3
10 -11 -10 43.1 13.5
11 -1 -10 94.79 10.9
-1 -10 -10 87.79 12.7
-1 11 10 80.99 10.4
-10 11 -10 75.09 7.8
1 10 -10 94.49 9.7
1 -11 10 81.79 13.8
-11 1 -10 86.09 11.9
10 1 10 60.49 15.1
11 -10 10 69.59 12.8
-1 11 10 110.09 18.9
1 10 -10 85.79 9.7
11 -1 -10 77.29 12.9
-10 11 -10 77.59 10.9
-11 11 -10 45.9 6.9
0 -11 -10 41.2 8.2
0 -11 10 25.6 11.3
0 11 10 25.5 11.8
0 11 -10 38.8 6.5
0 11 10 49.99 7
0 11 -10 39.8 6.8
11 -11 10 33.3 11.8
11 0 -10 34.7 7.8
-11 11 -10 46.9 7.2
11 -11 10 47.3 13.2
-11 0 -10 36.5 7.8
11 0 10 28.9 13.8
11 0 -10 43.7 7.2
-11 0 -10 30.5 10.3
11 -11 10 48.1 8.7
-6 12 10 22.7 6.3
-6 -6 -10 18.4 11.3
6 -12 -10 27.7 11.7
6 -12 10 33.4 12.2
-6 -6 -10 21.9 8.8
12 -6 -10 24.9 6.2
-6 12 -10 21.8 5.9
6 6 10 23 13.4
-6 12 10 37.4 13.4
6 6 -10 16.8 9.1
-12 6 -10 18.8 6.3
12 -6 10 26.7 12.2
6 -12 -10 13.4 8.6
-12 6 -10 21.9 6.7
6 6 -10 22.8 5.7
-7 -5 -10 8.6 8.1
-5 12 -10 8.3 5.6
7 -12 10 3.9 7.6
5 -12 -10 4.8 7.5
7 5 -10 15.2 5.7
12 -5 10 3.7 11.4
7 5 -10 -0.5 7.8
7 -12 10 -5.6 9.3
7 -12 10 6.6 11.2
-7 -5 -10 15.4 10.5
5 7 10 18.4 13.3
12 -5 10 -4.1 10.5
-12 7 -10 7.5 6.5
5 -12 -10 13.3 10.1
-12 7 -10 10.5 6.3
12 -7 10 7.6 10.8
-5 -7 -10 12.3 9.2
-5 -7 -10 0 5
-12 5 -10 13.4 6.7
5 -12 10 6.5 11.4
-5 12 10 20.8 6.1
-7 12 -10 14.2 5.7
7 5 10 10.7 13.4
5 7 -10 19.7 5.7
-5 -7 -10 20.3 11.8
12 -5 -10 17.7 5.9
5 7 -10 -7.8 8.4
-12 5 -10 0.5 5.5
7 -12 -10 11 11.7
7 -12 -10 -2.3 8.8
-5 12 10 13.7 12.1
8 -12 10 42.9 11.7
-12 8 -10 52.99 7.7
-4 12 -10 71.49 7.5
12 -4 10 76.49 13.5
12 -4 10 52.99 14.3
8 -12 10 58.69 13.3
8 4 -10 52.39 9.1
-8 -4 -10 57.29 9.4
8 -12 10 61.99 8.5
4 8 10 62.69 14.7
-12 8 -10 39.7 7.6
4 -12 -10 63.89 9.9
8 4 -10 73.49 10
-8 -4 -10 68.49 12.7
4 -12 10 80.79 13.7
12 -4 -10 67.89 10.2
12 -8 10 76.29 13.8
-4 -8 -10 59.69 11.2
-4 -8 -10 61.79 7.8
-4 12 10 71.39 10
-12 4 -10 75.69 11.7
-8 12 -10 76.99 7.7
-4 -8 -10 78.19 15
4 8 -10 63.69 11.4
12 -4 -10 84.89 10.6
8 -12 -10 67.89 14.4
8 -12 -10 70.89 11.9
-4 12 10 80.79 15
8 4 10 63.99 15.5
4 8 -10 89.69 10.1
3 9 10 54.89 14.3
12 -3 10 60.39 15
-12 9 -10 59.19 7.9
-9 -3 -10 57.69 11.4
3 -12 -10 70.79 9.6
-9 -3 -10 67.79 9
-12 9 -10 68.49 7.9
9 3 -10 57.89 7.1
12 -3 10 70.69 12.8
9 -12 10 61.39 9.1
9 3 -10 52.89 8.6
9 -12 10 104.79 15.6
9 -12 10 54.49 12.4
-3 12 -10 74.79 9.7
-12 3 -10 61.89 8.2
9 -12 -10 60.59 15.2
12 -3 -10 69.19 11.7
-3 -9 -10 58.69 8
-9 12 -10 71.29 7.4
3 -12 10 64.39 13.4
9 -12 -10 40.8 11.4
3 9 -10 67.69 11.1
-3 -9 -10 36.2 10.9
-3 -9 -10 56.49 14.9
9 3 10 68.89 15.8
-3 12 10 62.99 14
12 -9 10 91.19 14.1
3 9 -10 76.89 7.9
12 -3 -10 76.79 10.6
-3 12 10 74.49 7.9
-2 12 -10 5.3 4.9
2 -12 -10 16.1 7.5
10 -12 10 7.9 10.9
2 10 10 16 12
12 -2 10 3.4 12.6
-2 12 -10 16.2 5.7
-12 10 -10 13.4 6.2
-10 -2 -10 11.1 9.6
2 10 10 5.2 5
-10 -2 -10 14.1 7.1
10 -12 10 8.7 11.6
12 -2 10 4.9 12.9
10 -12 10 16.2 7.6
10 2 -10 11.3 6.4
-12 10 -10 17.3 6.4
10 2 -10 8.7 6.9
2 10 -10 4.5 7
10 -12 -10 -18.1 9.6
2 10 -10 11.2 6
2 -12 10 11.5 11.7
12 -10 10 5.2 11.6
12 -2 -10 11.2 6.7
10 2 10 1.8 13.7
-2 12 10 6.9 11
12 -2 -10 15.5 6
-2 -10 -10 8.3 6.8
-10 12 -10 6.4 5.7
-2 -10 -10 3.2 12.6
-2 12 10 12.7 5.7
10 -12 -10 3.9 12.9
12 -10 10 11.2 8
-12 2 -10 8.6 6.8
-2 -10 -10 -7.4 9.1
11 -12 10 202.98 16.6
-11 -1 -10 226.68 19.3
11 1 -10 229.18 15.1
12 -1 10 205.18 22.8
1 -12 -10 216.48 16.6
11 1 -10 211.38 16.4
11 -12 10 245.98 21.5
-12 11 -10 212.98 14.8
-1 12 -10 224.88 14.1
1 11 10 239.48 14.8
-1 12 -10 221.38 14.8
11 -12 10 220.18 19.5
-11 -1 -10 220.88 16.1
-12 11 -10 228.48 14.3
-1 -11 -10 183.68 17.6
-11 12 -10 251.17 14.9
11 1 10 240.68 23.1
12 -11 10 202.18 16.6
12 -1 -10 247.18 15.4
-12 1 -10 243.88 16.5
11 -12 -10 211.68 18.6
1 11 -10 262.17 15.1
12 -11 10 221.88 20.4
-1 12 10 234.58 15
1 -12 10 225.98 20
12 -1 -10 232.88 17
12 -11 10 229.78 20.7
-1 -11 -10 243.58 16.8
0 12 10 15.8 6.4
-12 12 -10 12.8 5.7
0 -12 10 -0.7 9.7
12 -12 10 19.3 8.1
0 -12 -10 15.1 7.2
12 0 -10 12.8 6.3
0 12 -10 15.1 6.2
12 0 10 2.9 12.4
12 0 -10 12.2 7.1
-12 0 -10 18.1 7.2
0 -12 -10 3.3 11.4
12 -12 10 9.2 10.8
12 -12 10 5.4 10.4
6 -13 -10 60.89 12.6
13 -6 10 75.59 13.8
6 7 10 93.49 16.9
-7 -6 -10 70.49 13.1
-13 7 -10 87.69 11.3
-7 13 10 69.99 14.6
-13 7 -10 101.39 9.8
-6 13 -10 72.89 10.2
7 6 -10 77.69 11
7 6 -10 99.19 10.5
-7 13 10 83.39 10.9
7 -13 10 75.09 14.1
6 -13 -10 86.29 10.8
-7 -6 -10 94.59 10.8
13 -6 -10 97.89 10.3
6 7 -10 106.99 10.4
7 -13 -10 99.99 12.1
-6 -7 -10 93.79 14.8
-6 13 10 55.89 13.1
6 -13 10 102.49 15
7 -13 -10 74.09 13.9
6 7 -10 63.09 11.2
-13 6 -10 86.89 11.7
-13 6 -10 103.79 10.1
7 6 10 88.99 17
13 -7 10 93.09 14.3
-6 13 10 84.19 10.8
-7 13 -10 84.09 10.3
-6 -7 -10 83.79 10.9
8 -13 10 -3 11.6
5 -13 -10 16 8.1
8 5 -10 13.8 8.1
-13 8 -10 19.7 6.7
13 -5 10 12.1 10.8
5 8 10 9.3 13
8 -13 10 23.2 12
-8 13 10 27.5 6.8
8 -13 10 18.6 6.9
-8 -5 -10 12.8 7.6
-8 -5 -10 13.8 10
5 -13 -10 11.5 10.5
13 -5 10 -5.3 10.8
-13 8 -10 16.5 6.7
8 5 -10 28.1 6
-5 13 -10 26.2 5.8
-13 5 -10 13.5 6.5
8 5 10 9.8 13.9
-5 13 10 8.4 11.1
-5 -8 -10 12.8 9.4
-13 8 10 19.5 6
-13 5 -10 15.3 6.7
-5 -8 -10 18.5 12.1
-5 -8 -10 -0.8 5.1
5 -13 10 11 11.1
8 -13 -10 9.8 11.6
8 -13 -10 9.4 9.7
-8 13 -10 16 5.6
5 8 -10 -3.7 9.4
5 8 -10 18.4 5.9
13 -5 -10 22.9 6.2
13 -8 10 15.8 11.4
-5 13 10 13.6 5.6
4 -13 -10 86.39 13.1
-9 -4 -10 88.59 12.8
-4 13 -10 101.39 10.1
9 4 -10 83.49 10.9
4 9 10 67.79 14.1
9 -13 10 86.49 13.3
9 -13 10 116.49 18.2
9 4 -10 111.59 10.1
-9 -4 -10 100.19 15.7
9 4 -10 79.59 13.6
-13 9 -10 94.69 11.3
-13 9 -10 94.79 11.7
13 -4 10 57.89 13.7
13 -4 -10 110.99 10.9
9 4 10 112.79 20.1
-13 4 -10 106.99 12.2
9 -13 -10 74.69 15.6
13 -9 10 108.59 15.2
-4 -9 -10 71.29 15.1
-9 13 -10 89.99 10.3
4 9 -10 99.39 10.5
-4 13 10 96.59 10.6
-13 9 10 85.89 9
13 -4 -10 77.59 11
-4 -9 -10 116.99 12.8
4 9 -10 59.79 12
4 -13 10 83.09 14
10 3 -10 36.5 7.3
10 3 -10 32.7 7.8
10 -13 10 33.4 8.4
10 -13 10 22 11.2
-10 -3 -10 34.7 7.7
-3 13 -10 49.4 6.5
-13 10 -10 38.5 7
-3 13 -10 37.8 6.6
10 -13 10 33.2 12.3
13 -3 10 28.7 13.4
-13 10 -10 29 6.5
3 10 10 23.5 5.7
3 -13 -10 46.3 8.5
-10 -3 -10 37.3 10.8
-3 -10 -10 26.5 10.4
13 -10 10 45.2 8.8
3 -13 10 38.2 12.5
13 -3 -10 45.5 6.9
3 10 -10 21.9 10.5
13 -10 10 28.1 11.9
-13 3 -10 40.2 7.5
10 -13 -10 11.6 12.9
-3 -10 -10 18.2 12.9
-3 13 10 48.3 6.9
3 10 -10 46.5 7
10 3 10 30.5 14.3
13 -3 -10 37.8 7
-3 -10 -10 39.9 7.2
-10 13 -10 44.6 6.4
-11 -2 -10 42.9 10.9
2 -13 -10 51.29 8.5
11 2 -10 50.69 8.3
11 2 -10 53.99 7.9
-11 -2 -10 42.3 8
11 -13 10 45.7 8.7
-13 11 -10 46 7.2
-2 13 -10 61.29 6.9
13 -2 10 32.5 13.1
-2 13 -10 44.6 7.3
-13 11 -10 46.9 6.9
11 -13 10 30.9 11.4
2 11 10 47.4 7.1
11 -13 10 39.7 11.7
-2 -11 10 39.7 7.3
2 -13 10 35.2 11.6
13 -2 -10 49.9 8.1
-2 -11 -10 24.8 10.2
-11 13 -10 64.09 7.2
2 11 -10 61.29 7.5
-2 13 10 55.99 7.2
13 -2 -10 54.49 7.3
-2 -11 -10 46.9 8
11 -13 -10 18.5 10.7
11 2 10 41.4 14.4
2 11 -10 46.8 9.5
13 -11 10 46.1 8.8
13 -11 10 57.19 12.9
-13 2 -10 54.29 7.9
-1 -12 10 51.39 8.9
12 1 -10 73.09 8.3
12 -13 10 7 19
12 -13 10 27 11.2
-1 13 -10 61.49 7
13 -1 10 33.2 13
-1 13 -10 64.69 8
-13 12 -10 55.89 7.1
12 -13 10 72.79 9.4
1 12 10 51.29 7.4
-12 -1 -10 75.89 9.2
1 -13 -10 70.69 9.4
12 1 -10 50.29 8.2
12 1 10 18.8 13.1
-1 -12 -10 35.5 7.6
12 -13 -10 20.3 9.4
-1 -12 -10 23 9.1
-13 1 -10 42.8 7.8
13 -12 10 42.9 8.6
13 -1 -10 38 7.5
13 -12 10 31.6 11.9
-12 13 -10 41 6.6
13 -1 -10 36.7 6.7
-1 13 10 36.7 6.7
1 12 -10 36.2 6.8
13 0 -10 121.99 12
13 -13 10 112.99 13.1
-13 13 -10 132.99 11.4
0 13 10 137.59 11.7
0 -13 -10 141.79 13.1
0 -13 10 106.69 13.5
13 0 -10 134.29 13.8
-13 0 -10 135.49 13.2
0 13 -10 137.29 11.8
-7 14 10 36.5 6.5
7 -14 10 28.8 11.6
7 7 -10 33.2 6.4
7 7 10 22.3 13.5
-7 -7 -10 25.8 8.6
14 -7 10 12.1 10.5
7 -14 -10 27.6 11.8
-7 14 -10 32.9 6.2
-7 -7 -10 29.9 11.9
-14 7 -10 26.1 6.6
-14 7 -10 18.8 7
7 7 -10 9.3 9.5
7 -14 -10 16 8.2
14 -6 10 1 14.8
6 -14 -10 9.4 10.2
8 -14 10 5.4 6.1
-8 14 10 10.2 13.6
-6 14 -10 16.5 5.5
8 -14 10 15.1 11.4
-8 14 10 19.8 6
-14 8 -10 14.2 6.1
8 6 -10 22 5.6
6 8 10 6.6 12.5
6 -14 -10 13.5 7.8
-8 -6 -10 15.4 10.5
-8 -6 -10 15.3 7.9
-14 8 -10 14.8 6.6
8 6 -10 11 8.8
8 -14 -10 3 11.3
14 -6 -10 20.4 6.2
-6 -8 -10 17.2 11.4
6 -14 10 14.6 11.7
-14 6 -10 15.1 7.1
-6 14 10 16.6 5.7
8 -14 -10 5.3 8.5
8 6 10 4.1 13.5
6 8 -10 17.1 5.7
-8 14 -10 21.2 5.8
-14 6 -10 13.5 6.5
-14 8 10 12.4 6.3
6 8 -10 -4.5 9.9
14 -8 10 25 11.4
-6 -8 -10 18.4 8.7
-9 -5 -10 81.29 13.1
9 -14 10 60.39 13.5
-14 9 -10 74.69 10.2
-9 14 10 78.99 11.2
-14 9 -10 82.29 11.4
-5 14 -10 74.79 9.4
9 5 -10 83.99 10.5
9 -14 10 81.59 12.5
9 5 -10 88.29 9.6
5 -14 -10 96.09 10.5
5 -14 -10 67.09 12.5
-9 -5 -10 85.29 12.9
9 5 -10 76.39 8.7
14 -5 -10 83.69 10.2
-14 5 -10 83.19 9.4
-14 9 10 79.59 9.9
-14 5 -10 73.39 10.9
5 9 -10 90.09 10.2
14 -9 10 99.89 10.9
14 -9 10 46.9 12.1
5 -14 10 68.09 13.6
5 9 -10 41 11.7
9 -14 -10 59.09 14
-5 14 10 73.09 10.1
9 5 10 61.89 15.7
-5 -9 -10 66.99 14
9 -14 -10 70.89 11.2
-5 -9 -10 72.09 10.8
-9 14 -10 78.09 10.2
4 -14 -10 32.3 8.3
-14 10 -10 24.8 6.5
10 4 -10 22.8 7.5
-10 -4 -10 28.6 10.2
-14 10 -10 20.5 6.2
-4 14 -10 33 7.1
-10 -4 -10 32.6 7.5
10 -14 10 35.6 8.4
10 -14 10 -4.6 13
-4 14 -10 47.1 6.4
10 4 -10 26.6 7.8
4 10 10 16.2 5.2
10 -14 10 15.5 10.4
-10 14 10 34.8 6.8
-14 4 -10 29.9 7
10 4 10 24.5 13.5
14 -4 -10 28.2 6.1
10 -14 -10 1.9 11.9
-10 14 -10 34.8 6.3
-4 -10 -10 12.5 11.9
14 -10 10 16.9 11.2
4 10 -10 0.9 10.4
-14 4 -10 20.8 7.2
14 -10 10 20.8 8.3
-4 14 10 24.4 6
-14 10 10 26.2 6.1
4 10 -10 31.5 6
-4 -10 -10 23 9.8
10 -14 -10 5.8 9.3
4 -14 10 28.6 11.9
11 3 -10 91.39 12.1
-14 11 -10 79.89 10.2
3 -14 -10 96.29 12.6
3 11 10 102.89 10.7
-11 -3 -10 84.89 11.8
-14 11 -10 90.39 10.3
11 -14 10 84.49 13
-3 14 -10 106.49 9.9
-3 14 -10 92.19 11.3
11 3 -10 81.89 13.2
-14 11 10 100.69 10.2
-3 14 10 103.29 10.7
14 -3 -10 103.29 11.5
-3 -11 -10 95.99 14.7
3 11 -10 120.89 11.1
11 -14 -10 79.59 12.1
-11 14 -10 96.69 10.4
3 11 -10 114.09 13.3
14 -11 10 103.89 13.4
-11 -3 10 93.69 9.1
14 -11 10 66.19 12.7
-14 3 -10 101.79 11.7
14 -3 -10 99.69 10.8
11 3 10 77.09 15.5
-2 -12 10 52.19 8.7
-12 -2 -10 52.39 8.1
12 2 -10 54.79 7.7
2 -14 -10 52.49 8.5
12 -14 10 67.39 9.3
-2 14 -10 63.49 7
2 12 10 42.8 7.1
12 2 -10 60.99 8.8
-14 12 -10 60.79 7.3
-2 14 -10 47.6 7.5
-12 14 -10 66.29 7
-2 -12 -10 51.19 7.5
-2 -12 -10 52.89 10.3
2 12 -10 60.89 7.5
-14 12 10 41.5 6.1
-2 14 10 70.79 7.4
14 -2 -10 52.19 7.7
2 12 -10 65.09 10.1
12 -14 -10 59.19 11.3
-14 2 -10 63.19 8.1
14 -12 10 68.89 9.7
14 -2 -10 67.39 7.5
14 -1 10 -4.6 10.3
13 1 -10 0.8 6.7
-14 13 -10 5.5 5.2
1 -14 -10 1.9 6.6
-13 -1 -10 3.4 6.7
1 13 10 4.7 6
13 1 -10 3.4 6
13 -14 10 -2.9 9.7
13 -14 10 6 7.6
-1 -13 10 3 7.4
-1 14 -10 -0.8 6
13 1 10 -5.6 10.6
1 -14 10 8 7.2
14 -1 -10 7.4 6.1
14 -13 10 6.3 7.4
-14 13 10 -1.9 4.5
13 -14 -10 6.1 8.1
14 -1 -10 1.9 5.7
1 13 -10 6.9 5.8
-1 -13 -10 1.3 6.2
-13 14 -10 0.8 5.2
14 -13 10 -6.6 9.7
-1 14 10 5.7 5.8
-1 -13 -10 7.1 7.7
-14 1 -10 3.8 6.2
14 -14 10 29.3 8.1
14 0 -10 28.3 6.9
14 0 -10 26.5 6.2
0 -14 -10 5.7 6.6
-14 0 -10 28.6 7.1
0 -14 -10 24.3 6.9
0 14 10 27.5 6.4
-14 14 -10 27 5.9
0 14 -10 29.5 6
0 -14 10 27.1 7.7
-8 -7 -10 94.79 12.4
8 7 -10 95.79 9.8
-7 15 -10 90.59 9.7
-15 8 -10 66.49 9.6
-8 15 10 92.09 10.3
-15 8 -10 90.59 11.2
-15 7 10 97.19 10.1
8 -15 10 54.79 12.3
-8 -7 -10 50.89 11.6
15 -7 10 96.79 13.5
7 -15 -10 57.59 11.9
7 -15 -10 86.69 12.2
8 7 -10 78.19 11.3
8 -15 -10 34.8 11.3
7 8 -10 74.89 9.6
-7 15 10 68.09 10
7 8 -10 54.59 11.3
7 -15 10 45 12.4
8 -15 -10 57.59 9.3
15 -8 10 76.09 9.9
-15 7 -10 62.89 7.5
-15 7 -10 70.99 8.4
-15 8 10 72.39 7.7
-8 15 -10 78.09 7.5
-7 -8 -10 66.09 9.5
-9 15 10 3.5 5.6
9 6 -10 5.8 5
9 6 -10 2.2 7.9
-15 9 -10 -2.6 5.1
6 -15 -10 -2.3 6.9
9 6 -10 8.7 6.6
-6 15 -10 0.8 4.8
-9 -6 -10 5.7 7.2
-15 9 -10 17.8 6.5
9 -15 10 -2.3 9.8
6 -15 -10 -5 9
-9 -6 -10 5.8 9.2
9 -15 10 5.5 7.3
-6 15 -10 -0.5 5.9
6 9 -10 -8.7 9.7
-6 -9 -10 -4.2 10.1
-15 6 -10 3.9 6.5
15 -9 10 12.3 8.2
-6 15 10 8 5.7
9 -15 -10 -6.9 10.4
15 -6 -10 14.4 5.7
6 -15 10 -1.3 10.6
-9 15 -10 9.5 5.3
-6 -9 -10 -3 7.8
9 -15 -10 -1 8
9 6 10 2.2 14.6
-15 9 10 6.2 5.8
6 9 -10 14.8 5.3
-15 6 -10 12.1 5.9
-5 15 -10 152.68 11.6
10 -15 10 155.08 14.3
10 5 -10 137.09 15.1
-15 10 -10 157.58 12.8
-10 15 10 173.58 12.7
-10 -5 -10 162.98 14.1
5 -15 -10 149.49 14.1
10 5 -10 167.58 14.7
-5 15 -10 158.38 12.9
-10 15 -10 141.99 11.3
-15 5 -10 136.29 11.8
-15 5 -10 154.68 13.3
15 -5 -10 142.39 11.6
10 -15 -10 122.39 15.3
-5 15 10 132.89 11.3
-5 -10 -10 130.09 14.9
-15 10 10 147.09 11.4
5 10 -10 104.29 18.4
5 10 -10 134.59 11.5
15 -10 10 136.09 15.1
-11 15 10 124.19 11.6
4 -15 -10 97.19 12.6
-4 15 -10 102.29 9.9
11 4 -10 106.49 12.4
11 4 -10 97.09 13.6
-11 -4 -10 95.99 12
4 11 10 100.79 11
11 -15 10 102.69 12.6
-4 15 -10 109.59 11.8
-15 11 -10 95.49 10.4
-11 -4 10 100.29 9.7
-4 15 10 92.89 10.7
-15 11 10 91.59 10.6
15 -11 10 105.39 13.5
4 11 -10 120.29 13.6
11 -15 -10 98.69 14.8
15 -4 -10 100.99 10.3
-4 -11 -10 102.49 14.1
-15 4 -10 105.09 11.3
4 11 -10 97.29 10.3
-11 15 -10 95.99 10.3
-15 4 -10 104.29 11.7
3 12 10 40.5 7.1
12 3 -10 56.79 8.3
12 -15 10 50.89 8.4
3 -15 -10 41.5 7.8
-12 -3 -10 43.3 7.6
-3 15 -10 52.79 7.6
12 3 -10 56.19 7.9
-12 15 10 53.19 7.3
-15 12 -10 62.79 7.1
-3 15 -10 49.1 6.4
-15 12 10 30.5 6.3
-15 3 -10 39.4 7.1
3 12 -10 34.9 10.6
12 -15 -10 38.9 9.6
-12 -3 10 28.3 5.7
15 -3 -10 46.9 6.5
15 -12 10 -2.4 14.4
15 -12 10 47.8 8.9
3 12 -10 40.7 6.4
-3 15 10 39.3 6.6
-12 15 -10 43.9 6.5
-3 -12 -10 36.2 9.2
2 13 10 104.29 10.4
2 -15 -10 110.59 12
13 2 -10 92.89 12.7
-2 15 -10 100.99 11
13 2 -10 95.09 10.9
13 -15 10 87.69 12.4
-15 13 -10 94.49 9.6
-2 -13 10 97.19 11.7
-13 -2 -10 95.49 11.5
-2 -13 -10 90.49 12.8
15 -2 -10 48.4 8.9
13 -15 -10 70.89 10.4
-15 2 -10 65.59 10.3
2 13 -10 84.99 8
-15 13 10 67.29 7.3
15 -2 -10 68.89 9.8
15 -13 10 86.59 9.6
-2 15 10 64.09 9.7
2 13 -10 83.19 12.4
2 -15 10 70.69 9.1
-13 15 -10 84.79 7.7
1 14 10 8 5.7
-15 14 -10 5.6 5
14 -15 10 3 7
14 1 -10 3.6 5.9
-1 -14 10 4.5 6.9
1 -15 -10 1.8 6
14 1 -10 6.2 5.8
-1 15 -10 6.1 5.6
-14 -1 -10 3.8 6.4
15 -14 10 8.9 7.4
-15 14 10 -0.7 4.5
15 -1 -10 10.6 5.6
15 -1 -10 10.1 5.6
-1 15 10 7.5 5.8
-14 15 -10 5.7 4.8
1 14 -10 5.7 5.3
-15 1 -10 10.9 6
14 -15 -10 14.1 6.5
-1 -14 -10 11.8 7
1 -15 10 7.9 6.8
-1 -14 -10 1.8 4.8
0 -15 -10 9.6 4.9
-15 0 -10 17.9 6
0 -15 -10 1.9 6
0 15 10 13.8 5.7
15 -15 10 5.5 7.2
15 0 -10 14.9 5.9
15 0 -10 16 5.6
0 -15 10 9.5 6.6
-15 15 -10 15 5
0 15 -10 14.1 5.7
8 -16 -10 6.8 6.4
-8 16 -10 10.9 5.1
-8 16 10 12 5.5
-8 -8 -10 1.7 11.1
8 -16 -10 -1.9 14.1
8 8 -10 0.4 8.7
-8 -8 -10 7.9 6.8
-16 8 10 9.4 5.8
8 8 -10 9 5
-16 8 -10 8.2 6.1
16 -8 10 16.9 8.2
-9 16 10 171.48 12.4
9 7 -10 166.68 11.8
-7 16 -10 164.78 11.4
-16 7 10 172.08 12.5
16 -7 10 175.38 15.1
7 -16 -10 175.18 14.3
-9 -7 -10 178.18 14.4
-16 9 -10 177.28 13
9 7 -10 166.88 16.5
16 -9 10 155.18 15.2
7 9 -10 162.78 18.1
-7 16 10 144.29 11.7
-9 16 -10 150.58 11.4
7 9 -10 143.99 11.6
-16 9 10 150.38 11.7
9 -16 -10 139.59 14.1
-16 7 -10 168.58 12.8
-7 -9 -10 162.78 13.9
-10 -6 -10 23.7 7.4
-16 10 -10 24.5 6.4
6 -16 -10 25.6 7.6
-10 16 10 23 5.8
10 -16 10 28.7 8.1
-6 16 -10 24.2 6.7
10 6 -10 22.2 7.7
-6 16 -10 21 5.4
10 6 -10 25.9 7.8
16 -6 10 8.5 6
10 -16 -10 29.9 8.2
16 -6 -10 42.6 6.3
6 10 -10 16 10.1
-6 -10 -10 29 8.3
6 10 -10 36.2 5.9
-16 10 10 26.6 6
-6 16 10 28.5 5.8
-10 16 -10 39.1 5.9
16 -10 10 39.3 8.8
-16 6 -10 27.5 6.8
-11 -5 -10 49 7.9
-5 16 -10 52.29 7.9
-16 11 -10 45 6.4
11 5 -10 53.99 8.8
5 11 10 35.8 6.1
-5 16 -10 63.09 6.7
11 5 -10 41.2 7.9
5 -16 -10 54.59 8.5
11 -16 10 52.19 8.6
-11 16 10 57.39 7.1
-5 -11 -10 57.19 9.2
11 -16 -10 32.3 8.6
-11 -5 10 41.9 6.1
-5 16 10 47.8 6.5
16 -11 10 52.79 9.2
-16 11 10 34.7 6.4
-16 5 -10 46.7 7.4
16 -5 -10 39.8 6.1
5 11 -10 48.3 11.1
-11 16 -10 46.8 6.1
5 11 -10 40.5 6
4 12 10 88.59 10.2
-4 16 -10 91.19 10.8
4 -16 -10 93.29 11.4
-16 12 -10 71.99 9.5
12 -16 10 90.69 12.2
-4 16 -10 81.79 9
-12 -4 -10 90.89 11.1
-12 16 10 90.29 10.3
12 4 -10 76.19 12.1
12 4 -10 85.29 11.3
16 -12 10 96.89 12.9
4 12 -10 127.19 16.9
-16 4 -10 100.89 10.2
-12 16 -10 89.09 9.2
4 -16 10 77.29 11.9
-4 -12 -10 105.69 12.7
-4 16 10 88.89 9.9
12 -16 -10 102.09 13.1
-12 -4 10 84.49 9.1
-16 12 10 91.19 9.8
16 -4 -10 78.59 9.6
4 12 -10 84.89 9.3
-13 16 10 0.7 5.3
-3 -13 10 -9.6 5
13 -16 10 3.5 7.2
13 3 -10 2.8 5.9
-3 16 -10 3.2 5.8
-16 13 -10 2.5 4.7
13 3 -10 2.4 6
3 13 10 0.6 6
3 -16 -10 4.1 6.3
-13 -3 -10 1.6 6.2
-3 16 10 4.1 5.4
-3 -13 -10 12.2 7.5
-16 3 -10 4.9 4.8
16 -13 10 5 7.2
-13 -3 10 2 4.6
3 13 -10 10.9 4.9
16 -3 -10 3.9 4.9
3 13 -10 7.7 8.3
-13 16 -10 1.8 4.8
3 -16 10 2.8 6.9
-16 3 -10 1.7 5.8
-16 13 10 -3.3 5.5
13 -16 -10 5 7.2
-14 -2 -10 29.7 6.8
-16 14 -10 36.2 5.8
2 -16 -10 29.3 6.6
-14 16 10 34.9 6.2
-2 16 -10 24.5 5.9
2 14 10 37.9 6.6
14 -16 10 37.7 7.9
14 2 -10 41.8 6.6
-2 -14 10 33.4 6.9
14 2 -10 34 6.7
-2 16 10 32.4 6
2 14 -10 19.9 5.4
14 -16 -10 28.6 7
16 -14 10 29.4 7.6
-2 -14 -10 37.5 7.4
-16 14 10 19.4 5.6
-16 2 -10 11.7 4.8
-14 16 -10 28.6 5.4
2 -16 10 24 6.9
16 -2 -10 24.9 5.6
-16 15 -10 18.8 5.3
15 -16 10 16.1 7.2
1 -16 -10 13.5 5
-1 -15 10 19.2 6.5
15 1 -10 14.1 5.7
15 1 -10 19.1 5.4
-15 -1 -10 10.1 5.5
-1 16 -10 16.8 5.4
1 15 10 12.7 5.7
-15 16 10 11 5.4
-16 15 10 -1.4 3.8
15 -16 -10 3.9 5.5
1 15 -10 8.2 5
-1 -15 -10 12.7 5.5
-15 16 -10 9.6 4.8
16 -15 10 7.4 7
16 -1 -10 11.1 5
1 -16 10 12.5 6.5
-1 16 10 12.3 5.5
-16 1 -10 5.4 4.4
0 16 10 3.9 4.9
16 0 -10 1.2 5
-16 16 10 2.7 4.8
-16 0 -10 0.1 4
0 -16 10 1.6 5.9
0 16 -10 -2 4.6
16 -16 10 1.3 6.5
16 0 -10 0.8 4.9
-16 16 -10 1.9 4.3
8 -17 -10 20.1 6.7
9 8 -10 17.4 5.1
-8 17 -10 19.1 5.2
-17 9 -10 17.3 5.8
-9 17 10 16.6 5.4
17 -8 10 19 7.2
-17 8 10 17.1 5.6
-9 -8 -10 16.1 6.7
9 8 -10 22.3 8.5
-17 9 10 18.9 5.4
8 9 -10 11.2 8.5
-17 8 -10 16.1 5.9
17 -9 10 22.4 8.1
-9 17 -10 11 5
-8 17 10 20.6 5.4
-8 -9 -10 16.8 6.7
9 -17 -10 19.6 6.6
8 9 -10 20 5.1
7 -17 -10 14.9 6.8
-17 10 -10 19.1 5.7
-10 17 10 13.9 5.8
-17 7 10 13.7 5.5
-10 -7 -10 15.8 6.7
-7 17 -10 15.4 4.9
17 -7 10 3 6.6
-7 17 -10 6.6 5.5
10 7 -10 11.2 6.3
10 7 -10 13.2 7.3
-17 7 -10 7.6 5.7
17 -10 10 20.6 7.9
7 10 -10 10.7 9.1
-10 17 -10 11.3 4.7
-10 -7 10 13.9 5.2
10 -17 -10 9.9 6.6
-7 17 10 15.9 5.5
7 10 -10 12.3 5
-7 -10 -10 17.1 7
-17 10 10 11.3 5.4
11 6 -10 116.29 11.9
-6 17 -10 115.49 11
11 6 -10 111.59 12.9
11 -17 10 84.49 11.3
6 -17 -10 96.49 11.2
-17 11 -10 101.29 9.5
-11 -6 -10 93.89 10.9
-17 6 10 92.59 9.4
-11 17 10 104.09 9.9
-6 17 -10 100.89 9.2
-6 -11 -10 86.89 11.2
-11 17 -10 80.79 9.1
11 -17 -10 87.99 11.4
-17 11 10 85.89 9.5
6 -17 10 90.09 9.4
6 11 -10 76.19 9
-17 6 -10 85.79 10.2
-6 17 10 84.69 9.4
6 11 -10 119.59 16.2
-11 -6 10 81.19 8.9
17 -11 10 80.29 11.6
-12 -5 -10 68.49 10.2
12 5 -10 71.89 9.9
-17 12 -10 73.89 8.6
5 12 10 63.19 9.1
5 -17 -10 69.59 10.6
12 -17 10 80.29 11
12 5 -10 75.29 11.4
-17 5 10 78.29 8.5
-5 17 -10 81.39 9.6
-5 17 -10 73.99 8.4
-12 17 10 88.39 9.2
-5 17 10 95.89 9.5
5 -17 10 89.39 11.3
12 -17 -10 108.19 11.6
-17 12 10 99.99 9.7
17 -5 -10 88.79 9.5
-12 -5 10 87.79 8.8
-12 17 -10 104.69 9.1
17 -12 10 96.49 11.6
5 12 -10 83.29 9.1
-17 5 -10 93.19 9.7
-5 -12 -10 84.39 11
-17 13 -10 114.19 9.4
13 4 -10 110.39 11.2
13 -17 10 122.89 11.7
4 -17 -10 121.39 11.3
-4 17 -10 120.49 10.7
4 13 10 124.79 10.6
-13 17 10 122.29 10.4
13 4 -10 109.69 11.9
-13 -4 -10 122.59 11.2
4 -17 10 95.29 10.9
-13 17 -10 97.69 9.1
-13 -4 10 98.89 8.8
-4 17 10 102.39 9.5
-4 -13 -10 123.19 11.4
17 -13 10 94.39 11.9
-17 13 10 105.89 9.6
-17 4 -10 86.09 8.7
4 13 -10 106.69 9.4
13 -17 -10 126.39 11.6
17 -4 -10 103.99 9.2
14 3 -10 26.3 6.5
14 3 -10 34.7 6.4
-17 14 -10 34.5 5.3
-14 -3 -10 31.1 6.3
-3 17 -10 32.3 5.9
3 14 10 35.6 6.2
-14 17 10 30.2 5.7
3 -17 -10 28.5 6.2
14 -17 10 34.9 7.1
17 -14 10 37.7 7.7
3 14 -10 32 5.4
3 14 -10 29.4 6.4
-17 14 10 29.3 5.7
-14 17 -10 28.3 5.1
17 -3 -10 25 5.2
14 -17 -10 31.5 6.4
-3 -14 -10 32 6.6
-14 -3 10 20.4 4.6
-3 17 10 28 5.6
3 -17 10 23 6.5
15 2 -10 29.2 5.4
-15 17 10 27.1 5.4
15 -17 10 28.4 6.9
-2 17 -10 31.3 5.6
-15 -2 -10 16.9 5.3
15 2 -10 21.8 5.5
2 -17 -10 20.9 4.7
-17 15 -10 27.6 4.9
-2 -15 10 17.9 5.5
2 15 10 29.2 6.2
17 -15 10 28.4 7
15 -17 -10 19.8 5.3
-2 -15 -10 35 6
2 -17 10 27.6 6.3
2 15 -10 32.8 5
-15 17 -10 32.4 5.1
17 -2 -10 27.8 5.1
-2 17 10 20.1 5.3
-17 15 10 17.7 4.4
-1 17 -10 23.2 4.9
16 -17 10 23.5 6.6
-16 17 10 26.5 5.1
-1 -16 10 18.2 5.9
1 16 10 19.7 5
16 1 -10 21.6 5.2
-17 16 -10 18.8 4.5
-16 17 -10 22.4 4.6
17 -16 10 20.2 6.6
17 -1 -10 25.9 5.2
-17 16 10 19.5 4.8
-1 17 10 17.6 5.4
1 16 -10 21.7 4.6
1 -17 10 21.6 5.8
0 17 10 -2.8 4.9
-17 17 10 2.1 3.5
17 0 -10 1.3 4.3
-17 17 -10 0.6 3.9
0 -17 10 -1.9 5.2
17 -17 10 -1.3 5.9
0 17 -10 -2.2 3.9
9 9 -10 15.5 4.7
9 9 -10 14.6 7.1
-18 9 10 8.4 4.9
-18 9 -10 5.6 5
9 -18 -10 16 6
-9 -9 -10 10.8 6.1
-9 18 -10 6.9 4.7
18 -9 10 2 5.4
-9 18 10 13 5
10 8 -10 40.1 7.7
-10 18 10 47.8 6.1
-18 10 -10 33 5.6
-10 -8 -10 33 6.5
-8 18 -10 36.9 5.4
-18 8 10 38.2 5.7
8 -18 -10 29.9 6.6
-8 -10 -10 50.29 7.2
10 -18 -10 46.9 7.2
18 -10 10 48.6 7.8
-10 -8 10 54.19 6.1
-8 18 10 59.69 6.8
8 10 -10 65.29 9.6
-18 10 10 53.79 6.2
8 10 -10 52.79 5.9
8 -18 10 41.9 7.4
-18 8 -10 51.49 6.4
-10 18 -10 49.2 5.7
-7 18 -10 16.3 5.4
11 7 -10 15.5 5.8
-11 18 10 31.3 5.8
-18 11 -10 17.7 4.9
11 7 -10 20.6 6.8
-11 -7 -10 21 6.3
-7 18 -10 21.2 5.1
-18 7 10 21.2 5.3
7 -18 -10 24.3 6.4
18 -11 10 18.6 7.3
-11 18 -10 16.7 4.6
-18 11 10 17.7 5.1
-11 -7 10 20.5 5.2
-18 7 -10 17.6 5.3
7 11 -10 18.1 4.8
-7 -11 -10 23.4 6.5
11 -18 -10 18 5.8
7 -18 10 10 6.3
7 11 -10 22.6 7.8
-7 18 10 20.6 5.3
-18 6 10 18.8 5.1
6 -18 -10 18.4 6.1
12 6 -10 15.1 6.1
-18 12 -10 22.8 5.1
-6 18 -10 15.1 5.5
-12 18 10 18.8 5.1
12 6 -10 16 6.1
12 -18 10 21.3 6.7
-12 -6 -10 17.6 5.7
-12 -6 10 13.3 4.9
-6 18 10 21.7 5.3
-18 12 10 13.1 5
12 -18 -10 22.6 6
6 12 -10 17.5 4.9
-6 -12 -10 15.6 5.8
-12 18 -10 16.8 4.6
18 -12 10 10.7 7.1
-18 6 -10 13.8 5
6 12 -10 30.3 8.1
6 -18 10 15.2 6.6
-18 13 -10 28.4 4.9
5 -18 -10 19.7 5.9
-13 18 10 28.8 5.3
13 5 -10 28.9 6.4
13 -18 10 27 6.8
-5 18 -10 27 5.6
5 13 10 16.1 5.1
-13 -5 -10 21.3 5.6
-18 5 10 28.7 5.4
13 5 -10 23.1 6
5 13 -10 16.6 4.5
-18 5 -10 18 4.5
-5 -13 -10 19.2 5.9
18 -13 10 15.8 7
13 -18 -10 21 5.8
-13 18 -10 14.5 4.5
-5 18 10 15 5
5 13 -10 23.3 7.3
-18 13 10 13.5 5.2
-13 -5 10 9.3 4.5
5 -18 10 11.4 6
-14 -4 -10 8.4 5.1
-14 18 10 4.7 4.5
14 4 -10 7.6 5.2
14 4 -10 7.1 5.5
-4 18 -10 13.1 4.9
14 -18 10 7.7 6.2
-18 14 -10 10.1 4.2
4 14 10 4.6 5.2
-18 4 10 9 4.3
4 -18 -10 7.5 5
-4 -14 -10 17.3 5.7
14 -18 -10 21 5.7
18 -4 -10 10.8 4.6
4 14 -10 12.7 4.3
18 -14 10 13.3 6.7
-18 14 10 11.6 4.9
-14 -4 10 6.2 4
-14 18 -10 9.1 4.2
4 14 -10 18.7 5.8
4 -18 10 15.1 5.7
-4 18 10 11.9 4.9
-18 3 10 28 4.7
-3 18 -10 29.5 5.3
3 15 10 21.1 5.4
-18 15 -10 21.9 4.5
-15 -3 -10 16.9 4.4
-15 18 10 24.5 4.8
15 3 -10 26.5 5.7
15 -18 10 18.3 6
15 3 -10 18.7 4.9
-3 18 10 17 4.9
15 -18 -10 21.9 5
3 -18 10 23.5 6.1
-18 15 10 10.2 4
18 -15 10 17.9 6.4
-15 18 -10 21.8 4.4
-15 -3 10 -3.1 5.2
3 15 -10 12.9 4.3
18 -3 -10 13.6 4.5
-3 -15 -10 27.8 5.6
16 -18 10 29.9 6.4
-2 18 -10 34.7 5.4
-16 18 10 21.2 3.7
2 16 10 34.5 5.7
16 2 -10 31.1 5.4
-18 16 -10 32.5 4.6
18 -16 10 15.2 6.2
-18 16 10 13.4 3.6
-16 18 -10 15.8 4.1
2 16 -10 14.1 4.1
2 -18 10 16 5.5
18 -2 -10 14.9 4.4
-2 18 10 11.8 4.9
-1 18 -10 -3.6 3.9
17 -18 10 -0.8 5.7
-18 17 -10 4.7 3.7
1 17 10 -1.9 4.6
17 1 -10 4.7 4.3
18 -1 -10 -0.2 4.1
1 17 -10 2.7 3.8
-17 18 -10 1.5 3.7
18 -17 10 3.2 5.9
1 -18 10 2.3 5
-1 18 10 2.6 4.7
-18 18 -10 5.2 3.4
0 18 10 4.8 4.7
18 -18 10 4.4 5.8
18 0 -10 3 4.2
0 18 -10 4.3 3.9
10 9 -10 20.2 6.5
-19 10 -10 18.2 4.5
-10 19 10 22.2 4.9
-10 -9 -10 18.3 5.4
9 -19 -10 9.4 5.4
-19 9 10 17.3 4.8
-9 19 -10 14 4.5
10 -19 10 18.3 6.1
-9 -10 10 21.1 4.7
-10 -9 10 7.3 4.6
-19 10 10 5.9 4.3
9 10 -10 11.5 6.8
-9 -10 -10 6.1 5.4
9 -19 10 7.5 5.9
-10 19 -10 9.2 4.1
10 -19 -10 5.4 5.5
-19 9 -10 7.1 4.5
-9 19 10 11.2 4.9
8 -19 -10 38.4 6.3
-8 -11 10 48.5 5.6
-11 19 10 37.8 5.3
-19 8 10 31.5 5.2
-19 11 -10 36.7 5
-11 -8 -10 33.5 5.8
11 8 -10 36.3 6.8
11 -19 10 37.2 6.5
-8 19 -10 39.3 5.1
-11 -8 10 33.6 5.2
-8 -11 -10 35.2 6.2
-19 8 -10 42.2 5.5
8 11 -10 39 5.2
-11 19 -10 29.8 4.7
8 11 -10 37.7 7.3
11 -19 -10 33.4 6.1
-19 11 10 40 5.3
-8 19 10 38.5 5.4
8 -19 10 45.5 7
12 7 -10 38.9 6.4
12 7 -10 34 5.3
12 -19 10 38.2 6
-19 12 -10 38.8 5
-12 19 10 41.5 5.3
-12 -7 -10 33.1 5.8
-19 7 10 36.8 5.1
7 -19 -10 40.2 6.2
-7 19 -10 21.5 4.4
7 12 -10 53.19 5.7
-19 7 -10 42.5 5.5
7 -19 10 57.39 7.1
-7 -12 -10 56.59 8.3
12 -19 -10 51.99 8.1
-12 -7 10 41.8 5.2
-12 19 -10 45.7 5.2
-19 12 10 43.3 5.5
-7 19 10 53.09 7.7
19 -12 10 34 6.6
-19 13 -10 4.9 4
13 -19 10 0.3 5.3
6 -19 -10 3.4 4.8
-19 6 10 7 4.3
-6 19 -10 6.6 4.3
13 6 -10 7.9 5
13 6 -10 4.6 5.2
-13 -6 -10 7.6 4.8
-13 19 10 3.7 4.4
13 -19 10 4.5 4.1
6 13 -10 0 4.1
-6 19 10 -1 4.6
6 -19 10 1.2 5.8
19 -13 10 1.6 6.2
-19 6 -10 2.7 3.7
-13 -6 10 -3.9 4.1
-6 -13 -10 5.1 5
13 -19 -10 9.3 5
-19 13 10 -3.9 4.3
-13 19 -10 -0.3 3.6
6 13 -10 15.2 6.5
-19 5 10 7.7 4
-19 14 -10 5.9 3.9
14 5 -10 2.6 4.9
14 5 -10 1.2 4.9
-5 19 -10 3.6 4.4
-14 -5 -10 5.8 4
-14 19 10 1.8 3.9
14 -19 10 2.7 5.8
5 -19 -10 1.4 4.2
5 14 10 -4.4 3.5
5 14 -10 5.1 4.1
-5 19 10 3.1 4.5
14 -19 -10 10 4.9
5 -19 10 2.2 5.1
-5 -14 -10 6.9 4.8
-14 19 -10 -0.6 3.8
19 -14 10 1.4 6.2
-14 -5 10 -2.3 3.5
5 14 -10 12.4 5.3
-19 14 10 -0.3 4.1
4 15 10 13.1 4.2
15 4 -10 18 3.8
-4 19 -10 30.8 5
15 -19 10 29.1 6.3
15 4 -10 31.7 5.2
-15 19 10 12.7 3.3
4 -19 10 25.8 5.7
19 -15 10 17.6 6.3
4 15 -10 15 4.5
-4 -15 -10 18.5 4.8
-15 19 -10 14.9 3.9
15 -19 -10 16 4.4
-19 15 10 10.8 3.6
-4 19 10 20.5 4.8
16 3 -10 7.2 4.6
-19 16 -10 13.3 3.9
-19 3 10 10.5 4.1
-3 19 -10 11.8 4.5
3 16 10 5.1 4.1
16 -19 10 13.3 5.9
-16 19 -10 6.8 3.3
-3 19 10 3.8 4.5
19 -3 -10 6.3 4.3
19 -16 10 7.5 6
3 -19 10 5.5 5.1
-3 -16 -10 2.6 3.9
3 16 -10 2.2 3.8
10 10 -10 64.29 9.9
-10 -10 -10 50.19 7.6
10 -20 10 50.19 6.5
-10 20 -10 44.4 5.8
-10 -10 10 51.59 6.9
-10 20 10 48.1 5.4
-20 10 10 41.7 5.1
10 -20 -10 49.1 7.8
-20 10 -10 48.3 6.4
11 -20 10 10.8 4.7
-11 20 10 17.3 4.2
-20 11 -10 11.6 4.1
-9 -11 10 23.4 4.7
-11 -9 -10 13 5.1
11 9 -10 18.6 5.5
-20 9 10 16 4.2
9 -20 -10 12.1 5
-20 11 10 22.4 4.7
-9 20 10 20.8 5
-11 -9 10 25.1 4.5
-11 20 -10 18.1 3.8
-9 -11 -10 18.5 5.2
9 11 -10 25.6 6.2
-20 9 -10 18.8 4.3
11 -20 -10 22.6 5.3
9 -20 10 24.5 5.8
-12 20 10 9.9 4.1
8 -20 -10 11.6 4.6
-8 -12 10 12.6 4.4
12 8 -10 10.3 5
-12 -8 -10 10.9 4.9
12 -20 10 1.9 4.2
-20 8 10 6.8 4.2
-20 12 -10 6.5 3.7
-8 -12 -10 12.7 4.9
12 -20 -10 14.4 5.2
-20 12 10 5.6 4.2
-12 20 -10 3.2 3.1
-20 8 -10 10.8 4.1
8 12 -10 14.1 6.1
-8 20 10 9.9 4.7
8 -20 10 10.5 5.6
-12 -8 10 0.3 4.1
-20 13 -10 11.2 3.8
-7 -13 10 13.5 4.5
13 7 -10 9.5 4.9
-13 -7 -10 8.2 4.1
7 -20 -10 11.4 4.4
-20 7 10 13.2 4.3
-13 20 10 9.3 3.5
7 -20 10 11.4 5.5
-20 13 10 8.5 4.3
-20 7 -10 7.2 3.1
-7 20 10 8.9 4.7
-13 -7 10 7.4 3.8
-13 20 -10 5.4 2.9
-7 -13 -10 12.7 4.9
13 -20 -10 9.4 5
7 13 -10 11.7 4.1
7 13 -10 18 5.8
-20 14 -10 19.2 4.3
-6 -14 10 24.4 4.7
-20 6 10 20.5 4.3
14 6 -10 16.4 4.2
-6 20 10 22.7 4.8
-20 14 10 10.9 3.7
6 14 -10 14.7 4.1
-14 -6 10 2.9 3
-6 -14 -10 14.8 4.9
6 -20 10 22.2 5.6
14 -20 -10 16.6 4.9
6 14 -10 13.5 4
15 5 -10 10.4 3.6
-5 -15 10 6.1 3.9
-20 5 10 11.5 4
-20 15 -10 13.9 4
-5 20 -10 0.9 2.9
5 -20 10 8.6 5.3
-20 15 10 -1.2 2.9
5 15 -10 2.5 3.9
15 -20 -10 4 3.3
-5 20 10 5.7 4.9
-5 -15 -10 7.7 4
-15 20 -10 -1.3 3
0 0 11 -1.6 9
1 0 11 1.7 9.4
0 1 11 -0.5 9
0 -1 11 7.6 8.4
1 -1 11 -2.6 8.7
-1 1 11 0.9 9
-1 0 11 -5.6 8.6
2 -1 11 76.29 12.5
1 -2 11 66.29 10.7
1 1 11 58.99 11.8
-2 1 11 64.09 12.1
-1 2 11 59.89 11.4
0 2 11 12.6 9.6
2 0 11 22.5 10.6
-2 2 11 20.2 9.9
-2 0 11 11.5 8.3
0 -2 11 13.8 8.4
2 -2 11 3.4 8.3
2 -2 11 11.4 8.2
1 2 11 144.59 17.7
2 -3 11 158.88 15.1
-3 1 11 124.09 15.1
-2 3 11 132.49 16.6
3 -1 11 157.98 16.8
3 -2 11 111.79 15.3
2 1 11 165.18 17.4
1 -3 11 151.48 15
3 -2 11 156.48 15.6
-1 3 11 164.28 17.3
0 -3 11 7.6 8
0 3 11 5.8 10.1
-3 0 11 6 7.8
3 0 11 4.4 10.2
3 -3 11 4.7 8.9
2 -4 11 92.49 14.3
-2 4 11 89.49 13.4
4 -2 11 89.09 13.6
4 -2 11 83.59 13.7
2 2 11 90.49 15.7
1 3 11 32 11.5
4 -1 11 32.2 9.9
3 -4 11 29.1 10
-3 4 11 25.3 10.9
4 -1 11 32.8 11.8
1 -4 11 28.4 9.4
4 -3 11 19.6 9
4 -1 -11 -3.5 5.7
-1 4 11 22.5 9.9
-1 -3 -11 0.8 5.6
4 -3 11 -1.7 10.3
3 1 11 20.8 10.8
0 -4 11 4.8 10.2
0 4 11 53.09 11.5
4 -4 11 50.59 10.4
-5 3 -11 4.1 4.7
5 -3 -11 4.9 4.8
5 -2 11 9 11
3 -5 11 19.4 9.6
-3 -2 -11 15.9 8.5
5 -2 11 16.4 9.5
-3 5 11 9.3 10.1
-3 -2 -11 6.3 5.2
2 3 11 21.7 11.2
-5 2 -11 4.9 4.7
3 2 11 20.6 10.8
-2 -3 -11 17.4 8.9
-2 5 11 10.4 10.1
5 -2 -11 8.2 4.8
5 -3 11 9.7 8.9
-2 -3 -11 6.3 5.4
2 -5 11 12 9.4
5 -3 11 -3.5 9.1
5 -1 11 18 8.9
5 -1 11 34.6 12.3
-4 -1 -11 19.5 5.7
-1 -4 11 18.1 9.4
5 -4 -11 11.5 4.7
1 -5 -11 6.1 4.9
4 -5 11 19.1 9.9
1 4 11 29.6 11
-4 5 -11 -4.4 6.9
1 -5 11 3.4 8.1
-1 -4 -11 32.3 9.4
-1 -4 -11 22.3 5.8
-5 1 -11 6.1 4.6
-1 5 11 23.8 10.5
-5 1 -11 13.8 5.5
4 1 11 36.9 12.2
5 -1 -11 16 4.8
5 -4 11 46.2 10.9
-5 0 -11 5.5 4.9
0 -5 -11 -3.6 8
5 0 11 10.8 11.4
-5 0 -11 6.6 5.5
0 5 11 10 10.4
-5 5 -11 -2.3 4.1
5 -5 11 7.1 9.8
0 -5 -11 13 5.8
0 -5 11 -0.4 9.8
5 0 -11 6.2 4.8
-3 6 11 6.2 10
3 -6 -11 4.5 5.6
6 -3 11 11.9 9.9
-3 -3 -11 11.1 6
6 -3 11 2.3 10.9
3 3 -11 2.6 5.9
-6 3 -11 6.9 4.6
3 -6 11 9 9.7
-3 -3 -11 12.2 9.2
6 -3 -11 12.3 5.8
3 3 11 4.3 10
6 -2 11 9.8 9.7
-4 -2 -11 5 7.5
4 2 -11 6.5 4.8
-6 4 -11 2.7 4.9
4 -6 11 8 9.8
2 -6 -11 4.5 5.4
6 -4 -11 6.7 5.5
-4 -2 -11 13.6 9
6 -2 11 4 11.9
2 4 11 1.8 10.6
-4 -2 -11 8.2 6
4 2 11 2.4 10.7
-2 6 11 6.3 10.3
2 -6 11 4.5 10.2
6 -4 11 5.7 9.8
-2 -4 -11 6.5 6.3
-4 6 -11 -6.2 4.2
-2 -4 -11 2.5 9.1
-6 2 -11 4.2 4.9
6 -2 -11 6.6 5.4
2 -6 11 -0.2 8.2
-6 5 -11 36.5 6.5
-5 -1 -11 51.79 10.9
1 5 11 44.5 12.6
6 -1 11 49.7 13.7
-1 -5 11 19.9 9.8
5 1 -11 30.6 6.2
6 -1 11 26.1 9.9
-5 -1 -11 35.9 7.1
5 -6 11 53.69 11.7
-5 -1 -11 18.6 5.6
1 -6 -11 37.5 7.1
-1 -5 -11 34.3 10
6 -1 -11 35.9 6.6
5 1 11 38.5 13
-6 1 -11 33.5 6.3
1 -6 11 38.1 11.5
-5 6 -11 24.9 5.8
6 -5 11 36.1 10.6
-1 6 11 55.89 13.3
-1 -5 -11 46.4 7.6
6 0 11 43.3 11.4
-6 0 -11 43.9 7.4
0 -6 11 33.8 11.1
-6 6 -11 41.1 6.8
0 -6 -11 41.1 7.5
0 6 11 58.79 13.8
6 0 -11 42.6 7.1
-6 0 -11 60.99 8
6 0 11 41.7 13.3
6 -6 11 37.5 10.7
-4 7 11 17.3 10.8
7 -4 -11 17.5 6.1
-4 -3 -11 20.3 6.8
3 4 11 22.6 11.2
-4 -3 -11 5.4 5.6
7 -3 11 12.1 12.2
4 -7 11 25.4 10.6
-7 4 -11 15.8 6.1
7 -3 11 4.2 9.6
4 3 -11 11.1 5.4
-4 -3 -11 14.3 10
3 -7 -11 11.8 6.5
3 -7 11 5.8 8.8
4 -7 -11 6.6 5.9
3 4 -11 3.5 4.9
4 3 11 12.4 11.4
7 -4 11 11.6 9.9
-3 -4 -11 23.2 7
-7 3 -11 8.7 5.8
-4 7 -11 5.1 4.9
7 -4 11 9.4 12.8
3 -7 11 14.6 10.5
7 -3 -11 16.9 6.2
-3 7 11 10.9 11
-3 -4 -11 23.1 10.3
2 -7 -11 27.9 7.7
-5 -2 -11 19.6 6.4
-5 -2 -11 34.3 7.4
2 5 11 19.9 11.7
-5 -2 -11 36 10.5
-7 5 -11 29.1 6.6
7 -2 11 28 13.4
5 -7 11 23.8 10.6
5 2 -11 18.2 6.5
7 -2 11 31.1 11.5
-7 2 -11 36.8 7
-2 -5 -11 25.1 10.8
-2 7 11 36.2 12.3
7 -5 11 33.7 10.8
5 2 11 40.6 12.4
7 -2 -11 31.5 6.8
-2 -5 -11 44.2 7.7
2 -7 11 43.2 12.1
-5 7 -11 32.8 6.4
1 -7 -11 5.7 6.8
7 -1 11 4.9 12.6
-7 6 -11 7.9 6
1 6 11 -3.2 10.4
-1 -6 11 2.7 9.7
-6 -1 -11 7 8.9
-6 -1 -11 -7.1 6.4
6 -7 11 4.9 9.9
6 1 -11 4.2 6.3
7 -1 11 -1.6 9.9
-6 -1 -11 12 6.2
-7 1 -11 1.1 6.2
-1 -6 -11 8 10.3
7 -6 11 -0.8 10
-1 7 11 5.9 11.1
-1 -6 -11 5.5 6.6
-6 7 -11 4.6 6.1
6 1 11 -2.8 11.8
7 -1 -11 8.1 6
1 -7 11 4 10.4
7 0 11 22.4 11.3
0 -7 -11 0.5 12.2
7 -7 11 31.6 11.5
-7 0 -11 17.7 7
0 -7 -11 32.9 7.6
0 -7 11 19.6 11
7 0 11 18.5 12.8
0 7 11 33.8 12.9
7 0 -11 22.4 6.8
-7 7 -11 22.3 6.9
-4 -4 -11 305.17 19.1
4 -8 11 267.07 21.2
-4 -4 -11 389.96 24.5
-4 8 -11 276.57 17.2
-8 4 -11 324.27 18.8
8 -4 11 365.06 23.6
-4 8 11 349.07 25.3
4 -8 -11 305.17 19.8
8 -4 -11 302.57 19
4 4 -11 299.47 19.1
-4 -4 -11 274.17 18.6
4 4 11 368.76 25.4
4 -8 11 363.56 24
8 -3 11 93.39 16.4
8 -3 11 107.79 17
5 -8 11 109.29 17.3
3 -8 -11 86.69 13.9
-5 -3 -11 105.99 12.6
-5 -3 -11 99.89 16.3
5 -8 11 82.29 13.1
-8 5 -11 98.59 11.3
-5 -3 -11 92.39 12.2
5 3 -11 93.99 12.9
8 -5 -11 83.39 11.2
3 5 11 106.59 17.1
8 -3 -11 119.79 13.1
-8 3 -11 102.79 12.4
3 -8 11 114.89 17.2
-3 8 11 113.49 18
-3 -5 -11 110.79 13.2
5 -8 -11 114.29 12.9
8 -5 11 132.69 16.7
-5 8 -11 110.19 11.2
-3 -5 -11 130.19 18.1
5 3 11 134.39 19
8 -2 11 98.79 14.1
2 6 11 109.19 15.9
6 2 -11 93.49 13.5
-6 -2 -11 97.69 10.4
6 -8 11 99.09 14.1
2 -8 -11 93.69 10.4
-6 -2 -11 73.29 12.4
-8 6 -11 85.89 11.6
8 -2 11 82.89 16
-6 -2 -11 108.29 12.3
-8 2 -11 86.99 11.2
-2 -6 -11 111.69 18.2
-6 8 -11 99.49 11.5
8 -6 11 99.49 14
-2 -6 -11 84.49 12.6
-2 8 11 110.99 16.2
8 -2 -11 89.09 12.6
2 -8 11 106.29 16.9
6 2 11 88.79 15.6
7 -8 11 85.49 13.6
1 -8 -11 91.09 10.1
-7 -1 -11 82.59 12.5
1 7 11 90.09 15.5
-7 -1 -11 63.29 9.2
-8 7 -11 68.09 8.5
8 -1 11 82.89 16.9
7 1 -11 85.39 9.8
8 -1 11 73.59 13.3
-7 -1 -11 91.69 11.1
1 -8 11 89.59 13.9
-1 8 11 104.69 18.4
7 1 11 110.69 16.4
8 -7 11 87.79 13.3
-1 -7 -11 76.09 13.7
-8 1 -11 90.29 12.2
-7 8 -11 91.49 11.7
7 1 11 116.79 20
8 -1 -11 99.69 13.1
-1 -7 -11 87.39 12.9
8 0 11 42.1 12.1
-8 8 -11 20.8 5.4
-8 0 -11 40.4 7.9
0 -8 11 34.3 11.9
0 8 11 54.69 14.3
0 8 -11 23.3 5
8 0 11 38.3 14.3
8 0 -11 41.4 7.7
8 -8 11 27.3 11.1
0 -8 -11 31.6 7.6
-8 8 -11 36.5 7.3
-5 -4 -11 117.49 13.4
4 5 11 138.39 19.3
9 -5 -11 123.39 12.6
-9 5 -11 125.99 12.4
-4 9 -11 116.79 9.9
4 -9 -11 123.29 14.7
5 -9 11 119.09 18
5 4 -11 108.39 13.3
-5 -4 -11 137.49 17.9
-5 9 11 136.79 18.7
9 -4 11 128.69 17.4
-5 -4 -11 114.69 14.1
5 -9 -11 130.09 15.5
-4 -5 -11 148.09 19.1
-4 9 11 136.59 19.6
-9 4 -11 132.79 12.7
-5 9 -11 129.19 10.9
9 -4 -11 136.59 13.6
9 -5 11 162.38 17.9
5 4 11 138.99 19.8
-4 -5 -11 126.79 13.6
-4 -5 -11 138.79 14.6
4 -9 11 156.08 18.7
4 5 -11 127.09 14.4
3 -9 -11 186.48 16.3
6 3 -11 191.88 15.7
-6 -3 -11 191.28 15.2
9 -3 11 191.18 22.3
-6 -3 -11 213.78 19.3
3 6 11 215.58 21.2
6 -9 11 206.88 20.7
-6 -3 -11 187.18 15.9
-9 6 -11 191.18 14.6
-3 9 -11 179.88 12.7
6 -9 11 175.98 18.6
9 -3 11 238.68 20.1
6 3 11 211.88 22.6
3 -9 11 206.68 19.9
9 -6 11 222.18 19.3
-3 9 11 164.28 12.1
-3 -6 -11 191.28 16.1
-3 9 11 218.28 21.6
-3 -6 -11 220.48 21.9
3 6 -11 184.98 14.9
9 -3 -11 197.18 12.8
-9 3 -11 191.38 14.3
-3 -6 -11 196.48 15.5
-6 9 -11 187.08 13.3
9 -3 -11 190.48 15.5
-6 9 -11 191.08 13
6 -9 -11 206.48 17.2
2 -9 -11 45.7 8.5
9 -2 11 26.6 14.5
9 -2 11 65.49 13.8
-2 9 -11 43.1 6.2
2 7 11 38.8 13.1
7 -9 11 41.7 13
7 2 -11 39.7 8
-7 -2 -11 50.89 7.6
7 -9 11 37.9 11.7
-7 -2 -11 48.2 8.9
-7 -2 -11 46.3 11.4
-9 7 -11 54.49 7.8
9 -2 -11 35.3 5.6
-2 -7 -11 30.1 12.7
2 -9 11 34.8 11.9
-2 -7 -11 36.5 8
9 -7 11 45.4 12.4
7 -9 -11 29 8.6
-7 9 -11 34.1 6
9 -2 -11 43.7 7.7
-9 2 -11 39 7.5
7 2 11 48.8 12.3
7 2 11 55.89 15.2
-2 9 11 47.1 14.1
-7 9 -11 51.09 7.3
9 -1 11 50.99 16.1
9 -1 11 61.39 13.1
1 8 11 41.6 13
-9 8 -11 50.49 7
8 -9 11 45.7 11.7
-9 8 -11 61.19 8.1
8 1 -11 56.69 8.4
-8 -1 -11 61.59 11.6
-1 9 -11 52.99 6.5
-8 -1 -11 48.4 8.4
1 -9 -11 63.49 9.1
1 -9 11 35 12.2
-8 9 -11 43.5 6.8
9 -1 -11 58.29 8.3
1 8 -11 49.6 6.4
8 1 11 37.7 12
-1 9 11 65.99 14.6
9 -1 -11 35.5 5.8
-8 9 -11 66.69 8.2
8 1 11 51.59 15.5
-9 1 -11 64.79 8.6
9 -8 11 56.99 12.6
-1 -8 -11 57.49 8.8
9 0 -11 28.5 5.6
0 9 -11 27.2 5.7
9 -9 11 32.2 11.7
-9 0 -11 34.4 7.7
9 0 11 36 12.7
-9 9 -11 30.2 7.1
9 0 -11 28.9 7.5
0 -9 11 16.8 10.8
9 0 11 31.1 15.1
0 -9 -11 36.3 7.8
-9 9 -11 23.3 6.4
0 9 11 31.9 12.8
5 5 11 11.8 12.6
-5 10 11 2.1 11.6
5 -10 -11 5.5 8.4
-5 -5 -11 11.4 7
5 -10 11 6.8 11.4
10 -5 -11 13.6 6.8
-10 5 -11 9.4 6.2
5 5 -11 -2.7 7.1
-5 10 -11 11.5 5.6
5 5 -11 -0.7 4
-5 10 11 1.9 5.8
10 -5 11 11.5 11.9
-5 -5 -11 4.4 8.4
-5 -5 -11 6.7 11.3
-6 10 11 100.89 18.4
4 6 11 102.69 18.9
6 4 -11 103.19 14.4
6 -10 11 112.09 17.3
10 -4 11 99.79 15
-6 -4 -11 89.99 13.9
-4 10 -11 101.89 10.6
-10 6 -11 101.19 11.9
-6 -4 -11 104.69 16.9
4 -10 -11 92.19 13.9
-6 -4 -11 110.79 12.8
-4 -6 -11 71.99 11.4
10 -4 -11 94.89 12.4
6 4 11 78.19 15.3
-10 4 -11 74.89 11.4
-4 10 11 103.69 18.5
-6 10 -11 87.59 10.4
6 -10 -11 102.19 12.2
-4 -6 -11 92.89 12.6
10 -6 11 82.69 13.6
4 6 -11 80.69 10.3
4 -10 11 85.49 14.2
-4 -6 -11 112.69 16.7
10 -4 -11 96.49 10.2
-4 10 11 82.89 10.8
-7 -3 -11 76.79 13.4
7 -10 11 67.89 13.8
7 3 -11 51.29 8.7
-3 10 -11 72.49 9.7
-10 7 -11 39.3 6.9
10 -3 11 51.29 14.4
10 -3 11 66.19 13.7
3 7 11 70.19 15.6
3 -10 -11 57.49 9.5
-10 7 -11 59.59 7.9
-7 -3 -11 73.09 8.7
-7 -3 -11 68.29 9.6
7 -10 11 65.19 12.8
-10 3 -11 81.79 11.6
7 3 11 106.19 17.4
-3 10 11 81.39 8.5
-3 -7 -11 70.29 15.4
10 -7 11 67.29 13.3
-3 -7 -11 61.99 11
-3 -7 -11 83.19 12.4
3 -10 11 61.89 13.2
7 3 11 79.19 13.6
-3 10 11 85.49 15.4
10 -3 -11 84.49 12.5
3 7 -11 56.89 9.2
10 -3 -11 102.69 10.6
7 -10 -11 75.19 11.6
-7 10 -11 83.39 10.4
-2 10 -11 46.6 6.4
-8 -2 -11 40.7 8.3
-8 -2 -11 37.1 11
8 2 -11 32.1 7.7
-10 8 -11 33.6 7
10 -2 11 29.6 14.4
-10 8 -11 34.5 7.4
8 -10 11 30.9 11.7
2 -10 -11 31.9 8.4
10 -2 11 55.89 13.7
2 8 11 62.09 15.2
8 -10 11 45.2 13.6
10 -2 -11 27.7 6.2
8 -10 -11 13.7 9.4
-2 -8 -11 23.2 7.3
-10 2 -11 22.5 7
-2 -8 -11 13.2 8.6
-2 10 11 37 13.5
10 -8 11 13.8 11
2 -10 11 16.9 11.4
-8 10 -11 16.5 5.8
10 -2 -11 17.2 6.6
-8 10 -11 19.6 6.3
8 2 11 22.9 11.3
2 8 -11 20.5 6.4
2 8 -11 1.1 4.7
8 2 11 13.1 13.7
-2 -8 -11 11.3 12.3
-2 10 11 16.2 5.7
-10 9 -11 3.4 6.4
9 -10 11 5.8 11.1
9 -10 11 7.4 12
9 1 -11 6.1 4.9
10 -1 11 -3.2 11.5
-9 -1 -11 3.2 6.7
10 -1 11 3.2 14
1 9 11 10.7 12.6
1 9 11 0.1 6.3
-10 9 -11 -1 5.7
1 -10 -11 0.6 7
-1 10 -11 1.4 5.1
9 1 -11 3.8 6.7
-9 -1 -11 2.6 9.1
1 -10 11 -1.5 10.8
9 1 11 0.9 10.4
-1 10 11 3 5.4
10 -1 -11 3.8 6.5
9 1 11 -1.3 14.1
1 9 -11 1.8 5.4
-1 -9 -11 7.5 12.4
-9 10 -11 5.1 6.1
10 -9 11 -2 10.6
-10 1 -11 2.6 6.5
-1 -9 -11 3.1 7
9 -10 -11 3.1 8.4
-9 10 -11 -2.3 5.7
10 -1 -11 11 5.9
1 9 -11 5 5.1
-1 10 11 -2.9 12.2
0 10 11 11.7 12.2
10 -10 11 3.9 11.8
-10 0 -11 15.9 7.1
0 -10 11 -1.1 10.2
10 -10 11 -3.6 10.4
10 0 -11 15.4 6.3
0 10 11 12.2 5.4
0 10 -11 1.6 5.4
10 0 11 0.1 13.9
10 0 -11 13.3 6.7
0 -10 -11 11.5 7
0 10 -11 18.2 5.6
10 0 11 7.5 10.8
-10 10 -11 17.4 6.5
-10 10 -11 3.8 5.9
-6 -5 -11 61.79 10.1
6 5 -11 52.29 6.6
-6 11 11 55.59 7.6
-6 11 11 40.9 13.1
11 -5 11 39.9 12.6
-5 11 -11 58.99 7.2
6 5 -11 54.09 9.6
5 -11 -11 38.9 9.5
6 -11 11 37.2 12.6
5 6 11 61.19 15.2
-6 -5 -11 50.79 8.2
-6 -5 -11 51.39 12.8
-11 6 -11 57.99 7.7
-5 -6 -11 48.3 10.3
-5 -6 -11 54.09 13.8
5 -11 11 64.29 13.8
6 -11 -11 46.7 10.4
-5 11 11 64.69 14.9
-5 11 11 61.59 7.4
6 5 11 73.99 16.3
-11 5 -11 48.6 7.6
-5 -6 -11 61.29 8.4
-6 11 -11 49.8 6.8
11 -6 11 63.29 13.4
5 6 -11 51.59 9.7
11 -5 -11 50.09 7.8
5 6 -11 48.3 6.4
7 4 -11 86.69 10.4
-7 -4 -11 55.99 12.6
7 4 -11 82.59 9.2
-11 7 -11 60.79 8
7 -11 11 72.89 10.9
-7 -4 -11 86.19 10.7
-4 11 -11 75.99 10.2
-7 -4 -11 62.49 8.3
4 7 11 82.29 15.8
4 -11 -11 82.99 10.8
11 -4 11 64.49 13.7
7 -11 11 67.49 14.2
-11 7 -11 73.29 8.7
4 -11 11 94.59 14.9
-4 -7 -11 75.69 11.9
-4 -7 -11 58.29 15.1
-11 4 -11 77.19 8.7
4 7 -11 82.59 9.7
11 -4 -11 85.99 10.7
-4 11 11 76.39 15
7 -11 -11 55.69 11.5
7 4 11 82.19 17.4
11 -7 11 77.59 14.2
-4 11 11 88.49 8.7
11 -4 -11 84.59 9.4
4 7 -11 63.69 10.4
-7 11 -11 78.19 10.1
-4 -7 -11 80.39 12.2
8 -11 11 82.59 13.1
8 3 -11 100.49 14.1
-8 -3 -11 116.49 13.3
3 -11 -11 95.79 14
-3 11 -11 116.99 10.8
-11 8 -11 114.29 12.1
3 8 11 113.69 20.5
8 -11 11 115.69 18.9
-11 8 -11 102.99 12.1
8 -11 11 106.99 13.4
-8 -3 -11 120.39 17.1
11 -3 11 133.19 18.9
-3 -8 -11 105.89 13.5
11 -8 11 118.79 15.8
8 -11 -11 103.39 13.2
-11 3 -11 107.59 12.2
-8 11 -11 105.69 11.1
-3 -8 -11 84.19 15.6
3 8 -11 119.99 10.2
3 8 -11 103.79 15.6
11 -3 -11 115.39 13.2
-3 -8 -11 94.69 12.8
-3 11 11 117.99 20.4
-3 11 11 102.09 11.1
3 -11 11 124.89 17.9
8 3 11 97.49 17.6
11 -3 -11 135.59 12.1
-9 -2 -11 57.69 8.7
-9 -2 -11 53.59 12.2
9 2 -11 40.2 6.5
-2 11 -11 50.39 6.5
-11 9 -11 49.3 7.6
9 2 -11 42.4 8.1
9 -11 11 69.09 14.4
2 -11 -11 51.19 9
9 -11 11 49.8 12
11 -2 11 31 11.4
2 9 11 41.2 13.7
-11 9 -11 60.99 8.1
9 -11 11 55.49 8.7
11 -2 11 30 13.6
2 9 -11 45.7 8
9 -11 -11 26.1 10.9
2 -11 11 40.2 12.4
-11 2 -11 43.4 7.5
-2 -9 -11 43 10.5
-2 11 11 57.19 7.2
-9 11 -11 53.99 6.7
9 2 11 41.4 15.2
11 -2 -11 63.79 8.3
9 2 11 10.2 13.5
2 9 -11 36.1 5.9
-2 -9 -11 2.3 21.2
-2 -9 -11 61.99 8.4
-2 11 11 54.29 14
11 -2 -11 42.7 6.9
11 -9 11 49.5 13
-10 -1 -11 37.8 10.9
-11 10 -11 43.4 7.1
-1 11 -11 39.9 6.3
11 -1 11 28.7 14.1
-11 10 -11 39.1 7
10 1 -11 31.9 7.7
1 10 11 41.6 13.1
1 -11 -11 29 7.7
10 -11 11 42.5 8.6
10 -11 11 35.3 13
10 -11 11 34.5 11.8
1 10 11 28.1 5.7
-10 -1 -11 29 7.6
10 1 -11 41 7.4
-1 -10 -11 56.09 8.4
11 -10 11 75.19 9.8
10 -11 -11 59.89 10.7
-10 11 -11 61.59 7.3
11 -1 -11 60.39 8.1
10 1 11 33.3 14.6
1 10 -11 59.09 7.1
11 -1 -11 56.69 7.5
-11 1 -11 59.69 8.3
-1 11 11 48.2 12.9
-1 11 11 47.5 7
11 -10 11 42.5 12
-11 11 -11 15.2 6.1
11 0 -11 21.3 6.6
11 -11 11 6.2 11.1
11 -11 11 13.7 7.7
0 11 11 21.1 6.4
11 0 -11 17.9 6.8
11 0 11 6.8 12.9
-11 0 -11 18.2 7.1
0 -11 -11 17.3 6.8
11 -11 11 19.3 11.7
0 11 -11 18.9 5.6
0 11 -11 9.6 5.9
0 11 11 2.2 11.3
12 -6 11 130.69 18
-6 12 11 132.89 20
-6 12 -11 119.29 11.3
6 6 -11 97.39 16
6 6 11 122.89 20.8
-6 -6 -11 111.49 15.2
-6 -6 -11 121.59 18.7
6 -12 -11 110.89 12.4
-12 6 -11 128.89 12.7
6 -12 11 131.39 18.3
-6 -6 -11 110.99 12.4
-12 6 -11 125.79 12.1
-6 12 11 118.89 11.7
6 6 -11 136.89 11.3
-7 12 11 19.1 12.5
7 -12 11 31.1 12.8
-12 7 -11 22.8 6.8
7 -12 11 4 6.1
-12 7 -11 17.3 7.1
-7 -5 -11 18.1 6.4
-7 -5 -11 31.3 11.5
7 5 -11 9.8 8.1
-5 12 -11 25.1 5.8
12 -5 11 14.7 12
7 5 -11 33.8 6.2
5 7 11 20.3 13.7
5 -12 -11 18.6 8.6
-7 -5 -11 17.5 8.3
-7 12 11 21.6 6.3
-5 12 11 31.3 6.5
5 7 -11 27.3 9.1
5 7 -11 29.4 6
-5 12 11 28.8 12.5
-5 -7 -11 32 7.6
-12 5 -11 35.2 7.3
-5 -7 -11 23.4 12.8
-5 -7 -11 20.1 9.7
5 -12 11 33.6 12.6
7 5 11 28.7 14.6
-7 12 -11 33.4 6.2
12 -5 -11 35.3 7.4
7 -12 -11 10.8 9.8
12 -7 11 21.9 11.7
-8 -4 -11 62.39 9.1
-12 8 -11 61.79 8.5
8 4 -11 53.29 9.1
-4 12 -11 60.49 6.8
12 -4 11 33.4 11.7
8 -12 11 52.59 13.5
-12 8 -11 52.89 7.9
-8 -4 -11 49 12.2
4 8 11 39.6 14.6
4 -12 -11 55.59 9.1
8 -12 11 52.49 9
-4 -8 -11 18.3 10
4 -12 11 23.2 11.8
4 8 -11 35.7 6.4
-4 -8 -11 28.7 13.1
-12 4 -11 47.1 7.6
-8 12 -11 47.5 6.5
-4 -8 -11 32.5 7.5
12 -8 11 45.4 12.8
8 -12 -11 28.6 10.7
12 -4 -11 48.9 6.9
4 8 -11 33.8 9.9
12 -4 -11 40.5 7.4
-4 12 11 38.6 12.5
-4 12 11 40.4 6.6
8 4 11 26.1 14.8
9 3 -11 179.08 15.9
9 -12 11 196.38 15.7
3 9 11 161.28 20.6
9 3 -11 136.89 12.8
-12 9 -11 180.98 13.7
-3 12 -11 193.88 12.8
3 -12 -11 165.18 15.3
9 -12 11 192.28 20.6
-9 -3 -11 189.28 18.6
-12 9 -11 199.28 13.9
-9 -3 -11 180.28 14.6
-12 3 -11 211.38 15
-9 12 -11 217.88 14.1
-3 -9 -11 183.08 19.2
12 -3 -11 203.68 15.6
12 -3 -11 212.88 14.4
-3 12 11 209.78 14.3
9 3 11 212.28 23.3
9 -12 -11 176.28 19.7
3 -12 11 211.88 19.9
3 9 -11 215.68 13.9
3 9 -11 199.88 18.6
-3 -9 -11 205.68 15.6
12 -9 11 218.98 20.6
10 -12 11 132.49 18
10 2 -11 134.99 13
10 2 -11 135.29 14.7
-10 -2 -11 133.39 13.5
-12 10 -11 136.49 12.2
2 -12 -11 131.99 14
-10 -2 -11 115.89 15.9
10 -12 11 128.89 14.2
-2 12 -11 146.49 11.1
-12 10 -11 135.59 12.2
12 -10 11 141.79 14.7
10 -12 -11 137.59 15.2
12 -10 11 145.49 18.4
12 -2 -11 137.69 13.6
-2 -10 -11 140.29 13.9
-2 -10 -11 116.79 13.5
10 2 11 115.59 20.7
-12 2 -11 146.59 12.8
-10 12 -11 145.79 11.6
12 -2 -11 139.19 12.2
2 10 -11 140.79 11.9
-2 12 11 135.59 11.6
2 10 -11 146.29 15.4
12 -1 11 8.9 11.5
11 1 -11 35.3 7.4
1 11 11 31.4 6.6
1 -12 -11 28.1 7.3
11 -12 11 34.9 8.4
-1 12 -11 35.7 6
-11 -1 -11 37.4 7.5
11 1 -11 32.5 7.5
11 -12 11 11.2 10
11 -12 11 3.8 10.5
-1 12 -11 27.1 6.6
-12 11 -11 30.1 6.7
-12 11 -11 32.8 6.9
11 -12 -11 26.8 9.7
-11 12 -11 30.6 6.2
-1 -11 -11 24 8.6
-1 12 11 31.3 6.6
-1 -11 -11 29.6 7.5
12 -11 11 28.4 8.3
12 -11 11 24.2 11.7
12 -11 11 8.5 12
12 -1 -11 25.4 6.5
1 11 -11 38.2 7
11 1 11 27.1 13.6
12 -1 -11 35 7.3
-12 1 -11 39.2 7.4
12 0 -11 4.3 6.3
-12 0 -11 11.6 6.7
12 -12 11 -4 9.5
0 -12 -11 10.3 6.6
0 12 -11 3.2 6
12 0 -11 3.9 6.2
-12 12 -11 4.2 5.8
12 0 11 -3.6 11
0 12 11 3.6 5.9
12 -12 11 1.5 7.6
-6 13 -11 1.6 5.1
-7 -6 -11 -3.5 7.6
-7 -6 -11 -10.5 5.1
13 -6 11 -5.9 10.4
6 7 11 -3.2 12.6
-7 13 11 4.1 10.8
-13 7 -11 4.1 6
6 -13 -11 -13.3 7.8
-13 7 -11 -5.5 6.8
-7 -6 -11 -0.5 10.7
7 6 -11 9.4 5.4
-7 13 11 2.7 5.7
7 6 -11 -12.1 8.1
7 -13 11 0.2 11.4
6 -13 11 2.5 11.4
7 -13 -11 -4.5 8.6
-13 6 -11 -1.6 7.2
13 -7 11 1.3 10.4
-6 -7 -11 1.8 11.2
-6 13 11 3.6 5.4
6 7 -11 0.7 5.3
6 7 -11 -9.6 8.2
-7 13 -11 0.8 5.3
-6 -7 -11 -4.4 5.6
-13 7 11 2.8 5.6
7 6 11 -5.7 13.1
-13 6 -11 -0.8 6.2
-6 13 11 6.6 11.1
-6 -7 -11 -9.3 8.4
8 -13 11 47.2 8.1
8 -13 11 31.9 12.3
-13 8 -11 51.49 7.8
-13 8 -11 45.9 7.9
-8 13 11 53.19 7.2
5 -13 -11 44.5 8.9
13 -5 11 0.8 16.6
5 8 11 14.8 12.9
8 5 -11 53.79 6.7
8 5 -11 47.1 9.4
-5 13 -11 46.4 6.3
-8 -5 -11 41.5 8.5
-8 -5 -11 31.3 11.3
8 5 11 28.9 14.6
-5 -8 -11 17.7 11.7
-5 -8 -11 50.09 7.6
13 -8 11 32.5 11.8
-13 8 11 47.4 6.2
-13 5 -11 23.3 7.1
-8 13 -11 57.69 6.8
-5 -8 -11 55.39 10.5
5 8 -11 31 10.1
5 8 -11 52.29 6.6
13 -5 -11 54.69 7.9
-13 5 -11 54.09 7.5
8 -13 -11 48 11
5 -13 11 39.3 12.3
-5 13 11 42.8 6.7
9 -13 11 41.4 12.5
-4 13 -11 81.89 7.6
9 4 -11 58.79 9.3
-9 -4 -11 80.99 9.4
9 -13 11 57.29 9.2
4 -13 -11 88.79 10.4
-9 13 11 64.79 7.8
-13 9 -11 73.09 8.3
-9 -4 -11 41 11.7
-13 9 -11 85.59 9
4 9 -11 41.5 10.5
13 -9 11 38.5 12.1
-4 -9 -11 58.49 8.1
-4 -9 -11 62.59 11
13 -9 11 72.79 9.9
13 -4 -11 67.29 8.4
9 4 11 28.8 14.4
4 9 -11 56.29 7
13 -4 -11 77.39 7.9
-9 13 -11 75.99 7.6
-4 13 11 68.89 7.5
-13 4 -11 66.89 8.3
-13 10 -11 29.7 6.5
10 -13 11 19.4 7.9
10 -13 11 8 10.6
-3 13 -11 33.2 5.8
-10 -3 -11 23 7.1
-13 10 -11 21 6.3
-10 -3 -11 7.4 9.2
3 -13 -11 32.2 7.7
10 3 -11 18.6 7.6
10 3 -11 27.2 7.5
3 10 -11 -4 8.4
-13 3 -11 18.2 6.7
13 -10 11 2.7 10.5
3 -13 11 0.5 10
-3 -10 -11 0.2 9
-3 -10 -11 18 7.2
13 -10 11 15.1 8
13 -3 -11 20.5 7
-10 13 -11 10.7 5.4
13 -3 -11 20.9 6.1
3 10 -11 15.9 5.8
10 3 11 3.9 12.6
-3 13 11 13.1 5.8
11 2 -11 49 8.3
-13 11 -11 53.49 7.3
-11 -2 -11 48.2 7.9
-2 13 -11 36.6 6.8
2 11 11 42.3 6.9
11 -13 11 39.1 8.3
-13 11 -11 51.59 7.2
-2 13 -11 56.29 6.6
2 -13 -11 46.2 8
11 2 -11 48.8 8
11 -13 -11 34.8 11.1
2 11 -11 51.89 8.8
13 -2 -11 67.39 11.4
-2 -11 -11 37.2 10.1
-2 13 11 71.69 7.8
2 11 -11 61.39 7.4
13 -2 -11 65.79 7.5
-11 13 -11 72.89 7.5
13 -11 11 75.69 9.9
-2 -11 -11 59.39 8.3
-13 2 -11 73.09 11
-13 12 -11 43.8 6.6
12 1 -11 29.2 7.1
-1 -12 11 25.4 7.7
-12 -1 -11 28.6 7.1
1 -13 -11 34.4 7.3
12 -13 11 29.7 8.1
-1 13 -11 34.5 7.2
12 1 -11 33 7.4
1 12 11 29.9 6.5
-13 1 -11 28.4 7
1 12 -11 44.3 6.9
13 -1 -11 39.6 7.2
12 -13 -11 34.4 9.1
-1 -12 -11 40.5 7.8
13 -1 -11 40.2 6.8
-12 13 -11 42.1 6.3
-1 13 11 33.9 6.4
-1 -12 -11 26.4 8.1
13 -12 11 34.2 8.1
0 13 11 10.4 6
13 0 -11 10.2 6.3
-13 0 -11 21.4 6.3
13 0 -11 13.1 6.1
0 13 -11 13.2 6.3
0 -13 11 6.2 7.3
0 -13 -11 19.1 6.7
-13 13 -11 16.2 5.1
13 -13 11 13 7.5
-14 7 -11 1.3 5.8
7 7 -11 -8.7 8.3
-7 14 -11 -0.6 4.6
-14 7 11 -3.1 5.6
7 7 -11 5.3 5.1
-14 7 -11 -1.6 7
7 -14 11 -0.3 10.3
-7 14 11 2.6 5.4
-7 -7 -11 -6.2 7.3
-7 -7 -11 -3 10.1
7 -14 -11 -12.4 7.4
-8 -6 -11 61.29 9.1
-8 14 11 62.69 7.4
-14 8 -11 70.79 8.5
-14 8 -11 62.39 7.8
6 -14 -11 45.5 9.1
8 6 -11 39.8 9.5
-6 14 -11 58.89 6.6
8 6 -11 67.49 8.9
8 -14 -11 38.7 9.7
6 8 -11 74.29 7.5
-6 14 11 50.89 6.9
-14 6 -11 46.1 8.3
6 8 -11 42.2 10.7
-14 6 -11 57.89 7.8
-6 -8 -11 42.4 9.6
-14 8 11 46.4 6.7
14 -8 11 60.09 9.7
-9 14 11 10.7 5.7
-14 9 -11 1 6.5
-14 9 -11 5 6
9 5 -11 1.7 6
9 5 -11 1.6 7.2
9 -14 11 5.7 7.5
-9 -5 -11 -1.9 9.1
9 -14 11 -2.2 10.4
-5 14 -11 7.7 4.9
5 -14 -11 7 7
-9 -5 -11 8.8 6.8
-14 5 -11 -0.3 6.1
5 -14 11 -2.7 9.8
5 9 -11 12.1 5.2
-9 14 -11 14.2 5.2
9 -14 -11 -11.7 8.7
-14 9 11 1.3 5.1
-14 5 -11 3.9 6.1
5 9 -11 -11.7 8.9
14 -5 -11 1.9 5.4
9 5 11 3.1 12.3
-5 14 11 8.9 5.6
14 -9 11 -1.5 13.9
14 -9 11 3.3 7.8
-5 -9 -11 -3.7 8.3
-5 -9 -11 4.6 5.2
4 -14 -11 80.99 12
10 4 -11 81.99 13.4
-10 -4 -11 85.09 11.4
-14 10 -11 89.99 10.6
10 4 -11 84.39 11.9
-10 14 11 92.39 10.8
-4 14 -11 93.59 9.3
10 -14 11 88.79 12.7
-14 10 -11 82.69 10.3
4 10 -11 122.69 10.9
14 -4 -11 107.39 11.9
-4 -10 -11 109.59 11.1
14 -10 11 120.79 13.2
4 10 -11 97.59 16.7
-14 4 -11 132.09 11.4
14 -4 -11 116.29 10.7
10 -14 -11 93.89 12.5
-10 14 -11 115.79 10.5
-4 -10 -11 95.39 14.7
-14 10 11 91.89 8.8
-4 14 11 114.29 10.7
3 11 11 83.89 9.5
11 3 -11 94.49 13.5
-3 14 -11 96.59 9.5
11 -14 11 96.99 12.7
3 -14 -11 86.09 12.2
-3 14 -11 100.69 10.7
11 3 -11 82.49 12.1
-11 14 11 107.69 11
-11 -3 -11 93.79 11.2
-14 11 -11 92.89 10.7
-3 14 11 92.59 10.4
3 11 -11 106.49 10.5
-3 -11 -11 103.69 10.8
-3 -11 -11 72.79 10.6
3 11 -11 98.39 15.6
-14 3 -11 105.69 11.2
-11 14 -11 106.69 10.1
14 -11 11 82.99 13.2
11 -14 -11 94.69 12.1
14 -3 -11 94.29 11.4
14 -3 -11 97.99 10.2
-14 12 -11 8.8 5.7
-2 -12 11 0.7 5.6
12 -14 11 8.8 7.4
12 2 -11 0.4 6.3
2 12 11 6.7 5.9
2 -14 -11 12.6 6.4
12 2 -11 10.7 6.5
-12 -2 -11 14.9 6.2
-2 14 -11 0.8 6.2
14 -12 11 2.2 7.3
2 12 -11 7.3 6.1
14 -2 -11 -3.4 5.1
14 -2 -11 4.7 6.2
-2 14 11 6.3 5.5
-14 2 -11 1 5.9
12 -14 -11 3.3 8.8
-2 -12 -11 5.5 6.7
-2 -12 -11 -4.5 7.6
2 12 -11 2.7 5.5
-12 14 -11 5.5 5
-1 -13 11 -0.5 6.6
-13 -1 -11 1.2 5.8
1 13 11 2.9 5.6
13 1 -11 -2.4 5.9
1 -14 -11 4.5 6.3
13 -14 11 3.2 7.1
13 1 -11 10.8 6.2
-14 13 -11 9.3 5.3
-1 14 -11 6.6 6.3
14 -1 -11 8.6 5.4
1 13 -11 7.1 5.5
-13 14 -11 3.2 4.8
14 -13 11 7.2 7.3
-1 -13 -11 11.7 6.4
1 -14 11 1.2 6.6
13 -14 -11 6.9 6.8
-14 1 -11 3.8 5.8
-1 -13 -11 7.9 6.5
-1 14 11 5.2 5.5
14 -1 -11 7.1 5.8
14 -14 11 -1.8 6.8
0 -14 -11 -1 5.7
0 14 11 -3.3 5.3
0 -14 11 -1.8 6.4
-14 14 -11 4.3 4.6
14 0 -11 1.3 5.2
-14 0 -11 3.3 5.5
0 14 -11 -2.9 5.7
14 0 -11 -5.9 5.4
8 7 -11 10.7 5
8 7 -11 -6.1 7.7
-15 8 -11 -0.1 6.3
-8 15 11 6.3 5.3
-15 7 11 3.3 5.5
7 -15 -11 2.5 7.1
-15 8 -11 5.9 5.9
15 -7 11 9.4 8.2
-7 15 -11 7.6 4.7
-8 -7 -11 5.2 6.7
8 -15 -11 2.7 7.7
-15 7 -11 0.8 6.6
-15 8 11 10.9 5.3
7 8 -11 5 4.9
15 -8 11 3.1 8
-7 15 11 9.7 5.3
-15 7 -11 3.5 5.9
-7 -8 -11 -3.6 7.1
-8 15 -11 8 4.8
7 8 -11 -10.8 8.3
-15 9 -11 14 6.3
-6 15 -11 9.6 4.7
-15 9 -11 8 5.9
-15 6 11 2.8 5.3
9 6 -11 -0.7 7.4
-9 15 11 6.7 5.3
9 -15 11 4.2 6.2
-9 -6 -11 11.6 6.5
15 -6 11 18.9 8.1
6 -15 -11 5.2 6.9
-15 6 -11 12.2 6.8
-15 6 -11 19.3 6
15 -9 11 12.4 8.1
-15 9 11 15.5 5.6
-6 -9 -11 14.6 8
6 9 -11 16.3 5.4
9 -15 -11 10.1 8.1
-6 15 11 18.5 5.6
-9 15 -11 19.6 5.2
6 9 -11 7.1 9.3
10 5 -11 61.99 9
-15 10 -11 48.6 7
-15 10 -11 39.7 6.5
10 5 -11 35.5 7.2
-5 15 -11 61.39 8.3
-10 -5 -11 48.3 7.5
5 -15 -11 49.4 8.1
10 -15 11 47.4 8.5
-10 15 -11 49.99 6
15 -10 11 47.9 9.1
-5 -10 -11 48.6 9.2
10 -15 -11 49.8 9.8
5 10 -11 42.7 10.5
5 10 -11 52.29 6.6
-15 5 -11 26.4 6.3
-5 15 11 59.19 6.8
-15 10 11 42.4 6.3
-15 5 -11 48 7
11 4 -11 3.4 6.9
-15 11 -11 13.1 5.7
-4 15 -11 15.8 4.9
11 -15 11 12.8 7.4
-11 15 11 13.4 5.5
-11 -4 -11 13.6 6.4
4 11 11 -1.1 4.2
4 -15 -11 7.7 6.4
11 4 -11 8.7 6.7
-4 15 -11 4.3 5.5
11 -15 -11 2.4 8.1
-15 4 -11 5.5 5.4
4 11 -11 -2.2 8.5
4 11 -11 2.6 5.1
-11 -4 11 0.9 4.2
15 -11 11 4.3 7.7
-11 15 -11 3.6 4.7
-4 15 11 7.6 5.5
-15 11 11 2.4 4.7
-4 -11 -11 -0.9 7.4
15 -4 -11 10.6 5.5
15 -4 -11 -8.9 4.3
-4 -11 -11 -1.2 5
3 -15 -11 13.2 6.2
-15 12 -11 18.2 5.6
-12 -3 -11 17.7 6.5
12 3 -11 12.5 6.4
-12 15 11 20.6 5.9
3 12 11 14.2 5.8
-3 15 -11 10.9 6.2
12 -15 11 15 7.6
12 3 -11 14.1 6.6
15 -12 11 8.3 7.5
-3 -12 -11 13 7.4
3 12 -11 11.8 7.7
-3 15 11 17.3 5.6
3 12 -11 15.6 5.4
15 -3 -11 22.2 5.5
-15 12 11 -1.3 4
-12 -3 11 -1.3 4.4
12 -15 -11 11.1 8.2
15 -3 -11 6.5 4.8
3 -15 11 13.3 7.2
-15 3 -11 14.6 5.8
-12 15 -11 23.2 5.2
-3 -12 -11 -0.1 4.3
-15 13 -11 36.5 5.9
-13 -2 -11 39.2 6.6
13 2 -11 34.9 6.9
2 13 11 31.7 6.4
-2 15 -11 41.5 7
13 2 -11 39.6 7.1
-13 15 11 38.6 6.3
13 -15 11 30.4 7.6
2 -15 -11 27.7 6.5
15 -2 -11 31.3 5.8
15 -2 -11 30.4 5.9
2 13 -11 42.1 6
-2 -13 -11 36.2 7.2
2 -15 11 30.3 7.2
13 -15 -11 35.4 8
-13 15 -11 44 5.9
-2 15 11 33.4 6.1
15 -13 11 36.6 8
-15 2 -11 34.8 6.6
14 -15 11 20.7 7.3
-1 -14 11 22 6.5
-14 15 11 20.6 5.5
1 -15 -11 21.8 6.4
-14 -1 -11 18 5.7
14 1 -11 12.8 5.7
1 14 11 13.6 5.7
-15 14 -11 22 4.7
-1 15 -11 17.4 6.1
14 1 -11 20 6
15 -1 -11 16.4 5.5
1 -15 11 8.8 6.6
-15 1 -11 16.1 5.5
-1 -14 -11 4.7 5.1
-1 15 11 11.7 5.4
-14 15 -11 14.2 4.9
1 14 -11 13.1 5.2
15 -1 -11 12 5.1
15 -14 11 18.2 6.7
-1 -14 -11 13.7 4.9
0 15 -11 24.1 5.4
0 -15 11 21.5 6.3
-15 15 11 39.5 5.9
0 15 11 43.1 6.2
15 0 -11 26.5 5.5
15 0 -11 25.7 5.6
0 -15 -11 18.7 4.9
-15 15 -11 32.1 5.1
-15 0 -11 24.7 5.8
15 -15 11 32.5 7.3
-16 8 -11 15.5 5.1
-16 8 11 23.4 5.5
8 -16 -11 27 7.3
-8 16 11 33.2 5.8
8 8 -11 19.5 8.6
-16 8 -11 26.5 6.3
-8 16 -11 35.3 5.4
16 -8 11 39.6 8.6
-8 -8 -11 22.3 6.7
8 8 -11 32.9 5.4
-9 -7 -11 9.6 6.4
7 -16 -11 12.1 6.7
-9 16 11 16 5.4
-16 7 11 12.1 5.4
-7 16 -11 18.1 4.9
-16 9 -11 9.8 5.6
9 7 -11 4.9 7.4
16 -7 11 18.1 7.9
-9 16 -11 12.8 4.6
-7 16 11 6.6 5
7 9 -11 8.7 8.4
-7 -9 -11 5.6 6.6
-16 7 -11 2.9 4.9
7 9 -11 14.6 5.3
9 -16 -11 4.1 6.8
-16 7 -11 11.2 6.2
16 -9 11 7.5 7.8
-16 9 11 8.3 5
-10 16 11 -1.6 4.8
10 -16 11 5 6.2
10 6 -11 1.6 5.8
6 -16 -11 1.7 5.9
-6 16 -11 3.8 4.4
-10 -6 -11 3 5.7
-16 6 11 4.9 5.2
10 6 -11 1.2 6.6
16 -6 11 10.8 6.4
-16 10 -11 4.6 5.3
-10 -6 11 4.1 4.8
16 -10 11 9.2 7.7
6 10 -11 -1 8.3
-10 16 -11 5.6 4.4
6 10 -11 8.8 5
10 -16 -11 -3 7
-6 16 11 2.6 5
-16 6 -11 7.3 5.9
-6 -10 -11 4.4 6.8
-16 6 -11 2.6 5
-16 10 11 2.5 5
11 -16 11 10.6 7
-16 5 11 11.6 4.9
11 5 -11 4 6.5
-5 16 -11 2.6 5.2
11 5 -11 5.3 6.4
-11 16 11 9.3 5.2
5 -16 -11 5.8 6.1
-16 11 -11 12.8 5.3
-11 -5 -11 5 5.8
-5 16 -11 11.6 4.7
-11 16 -11 24.2 4.9
-5 -11 -11 20.2 7.3
5 11 -11 24.6 5.5
-16 5 -11 14.9 5
-16 5 -11 11.2 5
-5 16 11 20.2 5.5
16 -11 11 18.4 7.9
-11 -5 11 11.2 4.9
5 11 -11 15.1 8.6
11 -16 -11 15.1 7.6
-16 11 11 12.6 5.1
12 -16 11 37.9 7.7
4 -16 -11 37.9 6.6
-12 -4 -11 35 6.3
-16 12 -11 43.2 5.9
-4 16 -11 28.4 6
12 4 -11 40.4 7.4
12 4 -11 36.3 7.3
-12 16 11 47.8 6.3
-16 12 11 26.7 5.1
4 12 -11 35.5 5.7
-4 -12 -11 37.6 7.3
-16 4 -11 30 5.6
4 -16 11 28.2 6.8
-12 16 -11 45.8 5.7
12 -16 -11 43.5 8.4
4 12 -11 30.5 8.4
-4 16 11 38.8 6
16 -4 -11 45.2 5.9
16 -12 11 50.09 8.3
13 -16 11 74.49 10.9
-16 13 -11 65.99 8.1
-13 16 11 73.59 8.9
-13 -3 -11 76.09 9.5
3 -16 -11 71.39 9.7
13 3 -11 68.19 10.8
13 3 -11 70.29 7.9
-3 16 -11 77.59 9.8
3 13 11 62.79 8.7
3 13 -11 54.09 6.3
16 -13 11 50.39 8.1
-3 -13 -11 70.59 9.8
3 13 -11 40.1 6.6
-13 16 -11 64.09 6.2
-3 16 11 54.59 6.5
16 -3 -11 49.3 6.1
13 -16 -11 76.49 11.1
-16 3 -11 50.49 7.7
3 -16 11 56.69 7.9
2 -16 -11 37 6.1
2 14 11 39.6 6.1
14 2 -11 49.1 6.7
14 2 -11 37.4 6.4
-2 16 -11 52.39 6.7
-14 16 11 51.49 6.2
14 -16 11 47.2 7.5
-14 -2 -11 36.2 5.9
-16 14 -11 48.2 5.7
-2 -14 -11 52.89 8.1
-2 16 11 43.7 5.9
16 -2 -11 41.9 5.8
-14 16 -11 36.8 5.2
-16 2 -11 24 4.7
2 -16 11 33.9 6.7
2 14 -11 37.1 5.6
16 -14 11 39.1 7.6
1 -16 -11 3.3 4.1
15 1 -11 10.5 5
15 -16 11 19.5 6.7
15 1 -11 12 5
-15 -1 -11 12.3 4.9
1 15 11 17.1 5.4
-16 15 -11 8.5 4.3
-1 16 -11 14.1 4.7
-15 16 11 16.5 4.7
-1 -15 11 3.7 4.9
-15 16 -11 19.8 4.6
16 -1 -11 19.5 5.2
-1 16 11 18.3 5.6
-16 1 -11 5.9 3.8
16 -15 11 13.6 6.5
1 15 -11 12.8 4.7
1 -16 11 18.8 5.9
-16 16 -11 79.99 7.6
0 16 -11 74.59 7.9
0 16 11 78.79 8.5
16 -16 11 85.99 9.6
16 0 -11 69.99 8.4
0 -16 11 74.39 8.7
-16 16 11 77.89 7.7
-8 17 -11 14.1 4.6
9 8 -11 11.4 7
-9 17 11 11.3 4.9
-17 8 11 6.5 4.7
-9 -8 -11 8.6 5.7
-17 9 -11 13.8 5.2
17 -8 11 14.3 6.7
8 -17 -11 13.8 6
9 -17 -11 14.6 6.2
-8 -9 -11 9.5 6
-9 17 -11 10.9 4.4
17 -9 11 11.7 7.4
8 9 -11 11.2 4.6
8 9 -11 7.4 7.7
-17 8 -11 13.3 5.2
-8 17 11 14.5 5
-17 9 11 13.4 5.1
-17 10 -11 10.6 5
7 -17 -11 4.6 5.6
-7 17 -11 7.3 4.4
-10 -7 -11 3.5 5.5
17 -7 11 1.9 5.7
-10 17 11 7.7 4.8
-17 7 11 5.2 4.7
10 7 -11 2.6 6.5
7 10 -11 15.9 4.8
10 -17 -11 16.4 7
17 -10 11 19.2 7.4
7 10 -11 14.3 7.8
-7 17 11 20.7 5.4
-7 -10 -11 11.6 6.2
-10 -7 11 9.1 4.7
-10 17 -11 10.5 4.3
-17 7 -11 18.1 5.4
-17 10 11 10.9 5
11 6 -11 1.7 5.4
-17 6 11 19.9 4.9
11 -17 11 3 5.6
11 6 -11 16.6 6.7
-6 17 -11 15.1 4.6
-11 17 11 20.4 5.2
-17 11 -11 15.4 5
6 -17 -11 12.4 5.8
-11 -6 -11 21 5.7
-17 11 11 20.1 5.2
6 11 -11 31.1 8
17 -11 11 22.2 7.1
11 -17 -11 25.4 6.7
-11 17 -11 25 4.9
-6 17 11 28.8 5.6
-17 6 -11 28.2 5.2
6 -17 11 21.9 6.5
-11 -6 11 19.3 4.9
6 11 -11 18.5 4.8
-6 -11 -11 23.6 6.6
-17 12 -11 17.4 4.8
-17 5 11 19.6 4.9
-5 17 -11 4.5 4.9
-12 -5 -11 17.8 5.3
5 -17 -11 16.5 5.6
-12 17 11 14.7 4.9
12 5 -11 18 6.4
12 -17 11 11.9 6.6
12 5 -11 19.5 5.8
12 -17 -11 16.1 6.3
5 -17 11 8.8 6.3
17 -12 11 14.2 7.1
-17 12 11 10 4.5
-5 -12 -11 14.1 5.9
-5 17 11 7.9 4.8
5 12 -11 12.7 7
-12 17 -11 6.9 4.2
5 12 -11 8.8 4.7
-12 -5 11 9.4 4
-13 17 11 15.4 4.9
13 4 -11 11 5.7
-4 17 -11 8.7 4.8
13 4 -11 5.5 5.8
4 13 11 -4.2 4.2
4 -17 -11 7 5.1
-13 -4 -11 11.9 5
13 -17 11 9.9 6.2
-17 4 11 7.4 4.3
-17 13 -11 15.5 4.6
4 -17 11 3.2 5.8
-13 17 -11 16.6 4.3
4 13 -11 5 4.6
-13 -4 11 -2.5 4.8
13 -17 -11 23 6.4
-4 -13 -11 14.9 5.8
4 13 -11 14.8 5.6
-17 13 11 0.5 3.9
17 -13 11 15.9 6.7
-4 17 11 11.8 4.8
-14 -3 -11 34.4 5.3
3 -17 -11 35.8 5.6
14 3 -11 38.7 6.2
3 14 11 25.8 5.1
14 3 -11 39.5 6.1
-17 14 -11 45 5.1
14 -17 11 39.6 6.9
-3 17 -11 47.3 5.7
-14 17 11 47.4 5.5
17 -3 -11 43.5 5.6
17 -14 11 44.7 7.5
-14 17 -11 48.9 6.6
3 -17 11 42.7 6.5
14 -17 -11 32.1 5.6
-3 -14 -11 58.99 7.9
3 14 -11 42.1 5.3
-3 17 11 34.9 5.6
-17 15 -11 51.69 6.8
-15 17 11 49.2 7.3
15 -17 11 43.1 6.7
-15 -2 -11 47.7 6.8
-2 17 -11 55.59 7.7
2 15 11 44.5 5.9
15 2 -11 49.9 7.3
15 2 -11 53.39 6.1
-2 17 11 36.5 5.6
17 -15 11 34.9 6.9
-15 17 -11 37.2 4.7
2 -17 11 33.1 6.1
17 -2 -11 38.1 5.6
2 15 -11 41 5.2
-16 17 11 66.69 7.1
-1 17 -11 70.29 7.7
1 16 11 72.69 7.7
16 1 -11 63.49 7.8
-17 16 -11 70.99 6.9
16 -17 11 61.49 8.9
1 -17 11 63.79 8.1
-1 17 11 66.99 7.7
17 -1 -11 61.59 8
1 16 -11 63.69 7.4
-16 17 -11 65.49 7
17 -16 11 69.69 9.2
-17 16 11 77.09 7.3
17 0 -11 20.5 4.7
-17 17 -11 24.5 4.2
0 17 -11 25.2 4.1
17 -17 11 21.9 5.5
0 17 11 24.6 5
-9 18 11 9.9 4.8
-18 9 11 13 4.4
-18 9 -11 12.4 4.8
9 -18 -11 11.4 5.3
9 9 -11 14.7 6.6
18 -9 11 0.5 5.5
-9 -9 11 7.5 4.4
-9 -9 -11 8.7 5.1
9 -18 11 7.7 6
-9 18 -11 9.6 4.2
10 8 -11 2.7 5.9
-18 10 -11 5.8 4.3
-10 18 11 5.7 4.6
8 -18 -11 7.9 5.4
-8 18 -11 6.3 4.2
-10 -8 -11 6.6 5.1
-18 8 11 5.8 4.3
8 -18 11 0.4 5.7
10 -18 -11 6.1 5.4
-10 -8 11 1.1 4.2
18 -10 11 3.1 5.8
-8 -10 -11 0.4 5.2
-8 18 11 4.5 4.8
-10 18 -11 -0.4 3.9
-18 10 11 -1 4.3
8 10 -11 6.7 6.6
-18 8 -11 8.2 4.5
7 -18 -11 10.1 5
-7 18 -11 14.5 4.2
-11 -7 -11 9 4.9
-18 7 11 11.8 4.4
-11 18 11 15.1 4.7
11 7 -11 14.1 6
-18 11 -11 15.8 4.5
-11 18 -11 15.1 4.1
7 -18 11 10.5 6.2
-18 7 -11 13 4
-7 -11 -11 14.7 5.4
-18 11 11 11.8 4.5
11 -18 -11 12.6 5.5
7 11 -11 12.9 4.5
-11 -7 11 9 4.4
18 -11 11 11.8 6.8
7 11 -11 24.1 7.1
-7 18 11 16.5 4.7
12 -18 11 -6.3 5.1
-18 12 -11 -1.6 3.9
12 6 -11 -2.2 5.4
-12 18 11 1.2 4.5
-12 -6 -11 -0.1 4.5
12 6 -11 1 6.5
6 -18 -11 2.7 4.8
-18 6 11 0.2 4.1
6 -18 11 1 5.8
12 -18 -11 8.6 5.7
18 -12 11 1.7 6.5
-12 -6 11 -2 3.6
-6 18 11 3 4.7
-6 -12 -11 8.6 5.2
-18 6 -11 1.3 3.9
6 12 -11 2.5 4.2
-12 18 -11 1 3.7
6 12 -11 12.5 6.5
-18 12 11 -2.2 4
-18 5 11 11.9 4.2
13 5 -11 15.4 5.3
-13 -5 -11 15.6 4.9
13 5 -11 10.8 4.5
-18 13 -11 17.6 4.3
-13 18 11 19.7 4.9
13 -18 11 10.6 5.4
5 -18 -11 10.1 4.8
-13 18 -11 10.5 4
5 13 -11 17.8 5.4
-18 13 11 1.5 3.2
5 -18 11 15.1 5.7
-5 -13 -11 21.4 5.2
-13 -5 11 -1.9 3.6
-5 18 11 9.9 4.6
13 -18 -11 19.4 5.5
5 13 -11 11.2 4.4
18 -13 11 10.4 6.5
14 4 -11 30.8 5.3
14 4 -11 46.3 8.1
-14 -4 -11 29.6 4.8
4 -18 -11 37.9 5.8
-18 4 11 33.7 4.8
-18 14 -11 47.3 6.4
14 -18 11 36.3 6.2
-14 18 11 46 5.3
-4 18 11 27.2 5
4 14 -11 26.4 4.8
14 -18 -11 23 4.7
-4 -14 -11 47 6.8
18 -14 11 29.4 6.4
-14 18 -11 26.2 4.4
4 -18 11 33.8 5.8
15 3 -11 34.3 5.1
-3 18 -11 16.8 3.6
18 -15 11 38.9 6.9
-18 15 11 29.1 4.4
-3 18 11 39.6 5.3
3 15 -11 37.9 5.1
3 -18 11 30.7 5.8
-15 18 -11 33.1 4.5
-18 16 -11 3.9 3.8
16 2 -11 2 4.2
16 -18 11 1.8 5.6
-18 2 11 0.1 3.7
-2 18 -11 1.7 2.9
-16 18 11 2.2 2.5
2 16 11 -2.6 3.2
2 16 -11 4.6 4.1
18 -16 11 8 5.7
-16 18 -11 6.9 3.7
-2 18 11 8 4.6
-18 16 11 2.5 2.6
2 -18 11 0.3 4.4
10 -19 11 6.8 5.8
-10 19 11 11.6 4.5
10 9 -11 16.4 6.2
-10 -9 -11 6.3 4.6
9 -19 -11 8.7 5
-9 19 -11 9.9 3.9
-19 10 -11 10.8 4.1
-9 -10 11 7.5 4.1
-19 9 11 10.1 4.2
-9 -10 -11 16 4.9
9 -19 11 18.9 6
-10 -9 11 13.4 4.2
9 10 -11 14.7 6.1
-19 10 11 13.9 4.2
-10 19 -11 16.3 4.1
-9 19 11 16.6 4.6
-19 9 -11 19.6 4.2
10 -19 -11 16.4 5.1
-19 11 -11 7 3.9
-11 -8 -11 1.7 4.5
8 -19 -11 2.9 4.4
-8 -11 11 8.1 4.2
-19 8 11 9.4 4
-11 19 11 5.6 4.5
11 8 -11 7.6 5.6
11 -19 11 6.7 5.4
-8 19 11 10.7 4.5
-11 -8 11 10.8 3.9
-8 -11 -11 8.3 4.8
-19 11 11 10 4.1
8 11 -11 16.7 6.1
11 -19 -11 12.9 5
-19 8 -11 11.4 3.5
-11 19 -11 10.1 3.9
8 -19 11 18.4 5.8
-19 12 -11 4.3 3.7
-12 19 11 1.9 4.2
12 -19 11 2 3.9
12 7 -11 2.3 5.2
-12 -7 -11 2.4 4.3
7 -19 -11 4.6 4.3
-7 -12 11 -2.8 3.9
-19 7 11 2.8 3.9
7 12 -11 6.3 5.7
7 -19 11 3 5.8
-12 19 -11 1.1 3.6
-7 -12 -11 0.6 4.8
-7 19 11 0.6 4.7
-12 -7 11 -1.9 2.9
19 -12 11 -4.6 4.7
12 -19 -11 6.3 4.9
-19 12 11 -2.2 3.2
-13 19 11 7 4.1
-13 -6 -11 8.7 4.3
13 6 -11 5.1 5
6 -19 -11 7.8 4.1
-19 13 -11 9.7 4.1
-19 6 11 9.3 3.9
6 -19 11 3 5.3
-13 19 -11 2 3.7
6 13 -11 6.4 4.2
13 -19 -11 9.3 4.7
-6 -13 -11 7.5 4.7
19 -13 11 -3.5 4.8
6 13 -11 0.3 3.9
-19 13 11 -1.4 4.3
-6 19 11 3.1 4.4
-19 14 -11 15.1 3.9
-14 -5 -11 7.2 3.1
-19 5 11 14 4
14 5 -11 14.6 4.2
-14 19 11 9.6 3.4
5 -19 -11 2.3 3.1
-14 19 -11 6.5 3.5
14 -19 -11 4.6 3.4
19 -14 11 4.6 5.3
5 -19 11 12.5 5.1
-5 -14 -11 6.4 3.8
5 14 -11 6.4 4.1
-5 19 11 12.2 4.8
0 0 12 683.43 37.1
-1 1 12 159.68 17.4
1 0 12 172.78 17.9
1 -1 12 181.98 17.2
0 -1 12 186.58 17.2
0 1 12 152.48 18.6
-1 2 12 425.16 26.5
-2 1 12 363.56 25.1
1 1 12 421.06 26.9
-1 -1 12 342.07 23.5
2 -1 12 446.96 25.3
-2 0 -12 100.79 10.2
3 -1 12 33 11.6
1 2 12 34.4 12.3
-2 -1 -12 36.8 6.7
-2 3 12 27.1 10.9
-3 1 12 15.6 9.4
2 -3 12 35.8 10.5
3 -1 12 34.8 10.2
-1 -2 -12 46 7.1
3 -1 -12 41.7 6.9
-3 2 12 18.9 10.4
-3 1 -12 33.8 6.2
2 1 12 42.3 12.5
-1 3 12 47.9 12.4
1 -3 12 49.8 10.9
3 -2 12 44.4 11.3
-3 0 -12 246.88 15.5
-3 3 12 221.18 20.8
0 -3 -12 230.48 15.5
3 0 12 242.88 21.2
3 0 -12 235.78 15.1
0 3 12 243.58 22
3 -3 12 283.97 20.5
-2 4 12 222.28 20.6
2 2 12 215.58 20.8
4 -2 -12 222.18 15.6
4 -2 12 235.18 19.1
2 -4 12 220.28 18.6
-2 -2 -12 224.88 15.6
4 -1 12 98.09 17.7
-4 3 -12 86.19 9.8
4 -1 12 122.49 15.5
1 3 12 118.99 18.2
-3 4 12 97.69 17.1
3 1 -12 117.59 11.6
1 -4 -12 110.49 12.2
3 -4 12 121.39 16.5
-3 -1 -12 127.79 11.6
-4 1 -12 110.39 10.7
-4 1 -12 71.19 9.7
3 1 12 96.99 16.8
-4 3 12 84.99 14.1
-1 4 12 102.19 17.6
4 -1 -12 116.09 11.8
4 -3 12 104.09 15.3
-1 -3 -12 111.99 12.2
-4 4 -12 3.7 4.9
-4 0 -12 24.7 6.7
0 -4 12 6 9.7
4 -4 12 2 10.2
4 0 12 7.5 11.6
4 0 12 -5.3 8.7
-4 4 12 -3.6 9.6
0 4 12 2.1 11
4 0 -12 14 6.4
0 -4 -12 18.7 7.1
-4 0 -12 5.3 5
-3 -2 -12 7.5 5.6
-3 -2 -12 8 6.5
3 -5 12 1.9 10.1
3 2 -12 4.6 5.6
-3 5 12 4.3 10.3
5 -2 12 -0.8 9.7
-2 5 -12 -9.3 4.9
-5 3 -12 4 5.6
2 3 12 1.1 11
2 -5 -12 5.2 6.4
5 -3 -12 14.2 6
5 -2 12 -3 11
3 -5 -12 8 5.8
-5 2 -12 5.1 6.1
-2 5 12 2.6 10.5
5 -3 12 -1.2 9.9
3 2 12 6.2 11.1
2 -5 12 1.3 9.2
2 3 -12 -0.2 4.5
5 -2 -12 20.1 6.4
-2 -3 -12 12.2 6.5
-3 5 -12 -5.9 4.6
-5 4 -12 35.6 6.9
-4 -1 -12 37.2 6.8
4 1 -12 45.7 7.5
-4 5 12 45.7 12.6
5 -1 12 39.3 10.9
-4 -1 -12 55.59 7.9
4 -5 12 37.2 11.6
1 -5 -12 52.89 8.5
1 4 12 40.3 12.9
5 -1 12 29.8 12.8
-1 -4 -12 46.6 8
-1 5 12 27.3 11.9
1 -5 12 30.2 11.6
4 1 12 31.4 12.5
-4 5 -12 34.9 6.6
-5 1 -12 31.5 7.1
5 -4 12 27.7 10.8
0 5 12 109.69 18.1
0 -5 -12 122.69 13.6
5 -5 12 128.19 15.5
-5 0 -12 98.99 12.3
-5 5 -12 92.09 11.9
5 0 -12 116.79 13.1
5 0 12 110.09 18.7
5 0 12 102.89 16
-5 0 -12 125.89 12
-3 6 -12 34.1 6.1
3 3 -12 33.6 6.9
-6 3 -12 24.4 6.7
3 -6 12 12.7 10
-3 -3 -12 48.1 7.7
-3 6 12 25.8 11.3
-3 -3 -12 14.5 6.2
3 3 12 39.3 13
3 -6 -12 39.1 8
6 -3 12 37.6 11.2
6 -3 -12 52.39 7.7
4 2 -12 66.29 8.6
2 -6 -12 57.79 8.9
-4 6 12 52.09 13.4
4 -6 12 42.8 12
-6 4 -12 57.29 7.8
6 -2 12 26.5 12.6
6 -2 12 53.89 11.8
-4 -2 -12 60.09 8.5
2 4 12 77.89 14.8
-4 -2 -12 74.49 8.9
2 -6 12 74.59 13.6
4 -6 -12 80.19 11.7
-2 -4 -12 81.39 12.3
-2 6 12 106.49 15.7
6 -4 12 70.29 12.9
6 -2 -12 98.69 12.7
4 2 12 76.49 14.6
-4 6 -12 70.29 10.6
2 4 -12 58.19 10.2
-6 2 -12 83.69 9.3
6 -1 12 61.39 15
6 -1 12 86.89 13.9
-5 6 12 65.79 13.9
-5 -1 -12 86.59 11.6
-5 -1 -12 61.39 8.7
1 -6 -12 76.39 9.5
5 -6 12 81.29 13.5
-6 5 -12 73.39 8.4
5 1 -12 72.79 11.7
1 5 12 78.29 15.3
5 1 12 91.89 14.3
5 1 12 41.5 13.7
-1 -5 -12 84.09 9.5
1 -6 12 55.39 12.3
6 -1 -12 88.29 12.8
-1 6 12 82.99 14.2
-6 1 -12 62.79 8.4
6 -5 12 64.69 12.8
-5 6 -12 62.39 8
6 0 -12 38.2 7.2
-6 6 -12 37.3 7.2
6 -6 12 35 11.5
-6 0 -12 28.2 7.3
0 -6 -12 42.9 8.2
6 0 12 36.5 12.2
6 0 12 30.5 13.7
0 6 12 29.6 12.1
4 3 -12 117.99 13.8
-4 -3 -12 120.69 12.9
-4 -3 -12 107.49 13.6
4 -7 12 107.39 15.4
-4 7 12 71.79 14
7 -4 -12 102.59 11
-7 4 -12 96.69 12
3 4 12 97.89 18.2
3 -7 -12 100.49 14.3
7 -3 12 104.29 16.7
7 -3 -12 99.59 12.6
3 4 -12 89.69 13.1
4 3 12 80.09 15.6
-4 7 -12 85.29 10.5
-3 -4 -12 92.49 12.5
-3 -4 -12 76.09 11.8
3 -7 12 79.49 14.4
-7 3 -12 82.59 9.4
-3 -4 -12 66.69 13
4 -7 -12 90.39 10.4
7 -4 12 72.79 13.1
-3 7 12 104.39 16.2
7 -2 12 16.8 12.4
5 -7 12 10.4 10.7
-5 -2 -12 33.8 7.2
-5 7 12 7.4 10.8
-7 5 -12 20.8 6.6
2 -7 -12 27.4 7.8
7 -2 12 11.9 10.8
5 2 -12 25.2 7.2
2 5 12 32.1 13.1
-5 -2 -12 21 7.9
7 -2 -12 74.89 11.9
-2 -5 -12 38.9 11.2
-5 7 -12 61.59 7.7
-2 7 12 38.6 12.8
-7 2 -12 46.8 7.8
5 -7 -12 61.39 8.9
2 5 -12 41.2 6.7
2 -7 12 49.6 12.6
5 2 12 43 13.7
7 -5 12 43.9 12.2
-2 -5 -12 55.69 8.4
-6 -1 -12 194.98 13.9
-6 -1 -12 158.68 15.2
6 1 -12 172.98 15.2
1 6 12 164.18 21
7 -1 12 167.88 19.4
1 -7 -12 175.68 15.5
6 -7 12 177.18 19
-7 6 -12 171.08 14.2
7 -1 12 175.38 21.8
-6 7 -12 214.48 14.8
-1 7 12 200.38 21.6
1 -7 12 178.98 19
6 1 12 225.18 23.6
6 1 12 209.18 20
-7 1 -12 190.48 15.3
-1 -6 -12 205.48 16
7 -1 -12 203.18 15.9
7 -6 12 214.68 19.8
7 0 -12 89.69 12.8
0 7 12 107.19 17
0 -7 -12 81.29 9.7
7 0 12 65.99 13
7 0 12 62.19 15.7
7 -7 12 70.39 13.1
-7 7 -12 88.69 11.8
-7 0 -12 83.69 12.2
4 -8 12 168.28 19.7
-8 4 -12 167.88 14
8 -4 -12 171.68 13.8
-4 -4 -12 164.88 16.3
8 -4 12 178.08 19
-4 -4 -12 182.68 20.1
4 4 12 171.78 21
-4 8 12 148.99 19.8
-4 -4 -12 176.98 14.6
4 4 -12 184.08 15.8
-4 8 -12 140.09 11.4
4 -8 -12 166.48 16.4
8 -3 12 89.29 14.6
-5 8 12 89.39 15.6
5 3 -12 91.09 13.7
-5 -3 -12 87.29 12.1
3 -8 -12 86.69 10.7
-8 5 -12 76.89 11.7
3 5 12 86.49 16
-5 -3 -12 79.49 13.7
-5 -3 -12 55.09 9.5
5 -8 12 63.39 13.7
-8 3 -12 96.39 12.6
8 -5 12 130.09 16.4
-3 8 12 101.39 18
-5 8 -12 90.59 9.8
8 -3 -12 121.69 13.4
-3 -5 -12 115.29 13.9
5 -8 -12 102.39 15.4
5 3 12 98.59 16.6
3 -8 12 113.69 17.9
3 5 -12 123.29 14.6
-3 -5 -12 117.29 18.3
-3 -5 -12 110.09 12.9
-5 8 -12 110.29 11.1
-6 8 12 21.4 12.4
-2 8 -12 21.8 5.1
2 6 12 20.2 12
6 2 -12 34.6 7.5
6 -8 12 29.1 12.7
2 -8 -12 29.7 8
-6 -2 -12 34.2 8.2
6 -8 12 16.5 11
8 -2 12 20.2 13.2
-6 -2 -12 40.5 7.5
8 -2 12 32.2 12.1
-8 6 -12 35.5 7.2
6 -8 -12 21.3 8.9
-6 8 -12 27.2 6.5
-2 8 12 4.9 6.7
6 2 12 27 13.9
-6 8 -12 22.1 5.4
-8 2 -12 27.6 7.2
8 -2 -12 31.3 7.3
2 -8 12 15.5 11
6 2 12 25.1 11.4
-2 8 12 19.4 12.2
8 -6 12 28.9 12.3
-2 -6 -12 30.5 7.8
2 6 -12 21.8 6.7
-2 -6 -12 -4.3 11.7
-2 -6 -12 7.1 6.9
7 -8 12 89.99 14
-7 -1 -12 100.49 13.3
7 1 -12 119.09 13.6
1 -8 -12 108.89 13.9
-1 8 -12 98.99 9.5
8 -1 12 106.09 17.2
-8 7 -12 98.79 12.1
8 -1 12 86.99 17.2
1 7 12 119.49 19.1
-7 8 -12 107.79 11.8
7 -8 -12 66.29 9
1 -8 12 53.69 11.5
-7 8 -12 88.29 10.3
8 -7 12 73.09 13.2
8 -1 -12 94.79 12.7
7 1 12 86.99 16.5
7 1 12 121.39 15.9
-1 -7 -12 86.09 12.9
-1 8 12 121.89 17.9
1 7 -12 60.79 7.5
-8 1 -12 98.59 11.9
0 -8 -12 104.69 10.5
8 0 12 59.89 16.1
8 0 12 81.89 14.3
-8 0 -12 80.49 9.4
8 0 -12 84.49 12.9
0 8 12 99.19 16.7
-8 8 -12 73.39 7.9
8 -8 12 91.69 14.6
-8 8 -12 85.69 11.6
0 8 -12 79.19 9.3
-5 -4 -12 15.3 8.1
-4 9 -12 25.6 5.9
4 -9 -12 19 8.8
-9 5 -12 24.2 6.8
4 5 12 14 13
-5 -4 -12 21.1 7.2
5 4 -12 19.5 7.8
5 -9 12 14.3 12.2
9 -4 12 24.6 12
-5 -4 -12 21 11.8
-5 9 12 16.1 12.3
9 -4 -12 12.6 6.4
-4 9 12 0.5 11.4
-9 4 -12 5.4 6.1
4 -9 12 6.6 11.4
-4 -5 -12 7.4 8.8
5 -9 -12 4.7 8.6
4 5 -12 19.4 8
-5 9 -12 8.7 5.4
-4 9 12 0.8 5.4
-4 -5 -12 12.8 6.9
-4 -5 -12 4.3 12.1
5 4 12 -3.4 13
9 -5 12 6 11.5
3 -9 -12 64.89 9.7
-6 -3 -12 67.99 10.1
-9 6 -12 72.29 8.4
-6 -3 -12 69.19 8.4
-6 9 12 63.69 14.7
-3 9 -12 57.49 6.8
3 6 12 56.69 14.5
-6 -3 -12 56.69 12.6
6 3 -12 53.39 8.7
6 -9 12 51.09 13.3
9 -3 12 74.19 14.7
6 3 12 69.89 13.3
9 -3 -12 78.99 12.3
6 -9 -12 47.4 10.4
-3 -6 -12 73.89 8.7
3 6 -12 65.09 9.8
9 -6 12 45.3 12.5
-6 9 -12 65.89 7.3
6 3 12 42 14.5
-3 9 12 62.29 14.5
-9 3 -12 62.69 8.6
-3 -6 -12 66.09 10.5
3 -9 12 54.09 13.2
-3 9 12 52.89 7
7 -9 12 76.79 12.5
2 -9 -12 88.69 13.5
2 7 12 91.59 16.1
-2 9 -12 103.99 10.1
-7 -2 -12 96.99 13.1
-9 7 -12 78.39 10.3
9 -2 12 112.59 16
7 2 -12 112.59 14
7 -9 12 90.59 15.2
-9 7 -12 101.49 12
-2 9 12 79.59 8.9
9 -2 -12 100.19 13
-7 9 -12 112.09 11.1
7 2 12 106.39 18.2
7 2 12 118.19 17.3
2 7 -12 100.39 13.9
-7 9 -12 96.29 11.1
9 -7 12 73.89 13.6
7 -9 -12 104.59 16.3
-2 9 12 88.29 15.4
-2 -7 -12 91.99 12.5
-9 2 -12 95.49 12
8 -9 12 2.2 11.5
1 -9 -12 3.3 7.1
8 1 -12 9.4 6.6
-8 -1 -12 4.6 7
-1 9 -12 13.9 5.2
1 8 12 8.7 12.4
9 -1 12 7.5 11.6
8 -9 12 4.7 10.9
-9 8 -12 5.5 6.2
9 -1 12 7.1 13.4
-9 8 -12 19.2 6.8
9 -1 -12 12.1 6.4
-1 9 12 7.2 11.8
8 1 12 -8.8 13.6
-1 -8 -12 3.8 6.9
9 -1 -12 13.6 5.5
-8 9 -12 8.1 5.8
-1 9 12 0.3 4.4
9 -8 12 3 11
8 -9 -12 4.6 7.8
1 8 -12 4.7 6
-8 9 -12 9.2 6
8 1 12 -1.9 10.7
-9 1 -12 12 6.5
1 -9 12 -0.8 10.5
0 9 -12 15.9 5.2
9 0 12 -1.9 13.2
9 -9 12 -6.2 10.2
-9 9 -12 11.7 6.3
9 0 -12 8.2 6.4
-9 9 -12 -1.5 5.9
0 -9 -12 2.2 6.9
0 9 12 6 11.7
9 0 -12 8.2 5.4
0 9 12 -0.3 3.8
9 0 12 9.1 11.1
-9 0 -12 -0.5 6.3
-5 10 12 9.5 5.8
10 -5 12 16 11.8
5 -10 12 21.2 12
-5 -5 -12 14.9 8.9
5 -10 -12 9.6 8.7
5 5 12 5.4 12.9
-5 -5 -12 24.4 7.3
5 5 -12 13.6 8.2
-10 5 -12 20.9 6.4
-5 -5 -12 17.1 12.3
-5 10 12 14.9 11.9
-5 10 -12 17 5.8
4 -10 -12 81.79 10.8
-10 6 -12 90.19 11.5
-4 10 -12 100.59 10.3
4 6 12 120.99 18.1
6 4 -12 96.69 15.1
-6 -4 -12 88.89 13.8
-6 -4 -12 101.59 11.7
10 -4 12 77.49 14.2
6 -10 12 110.19 16.3
-6 10 12 96.79 16.2
-6 -4 -12 78.39 14.3
-4 -6 -12 122.39 12.9
10 -4 -12 142.59 13.2
-10 4 -12 112.19 12
6 -10 -12 119.69 16.8
-4 10 12 114.59 11.9
-4 10 12 127.79 19.9
-4 -6 -12 106.09 15.7
6 4 12 128.19 21.8
10 -6 12 124.59 18
-6 10 -12 127.99 11.3
4 6 -12 124.39 16.5
-4 -6 -12 86.99 15.4
4 -10 12 112.99 18
3 -10 -12 43 9
7 3 -12 47.1 9
10 -3 12 34.4 12.7
-7 10 12 32 12.6
3 7 12 21.3 13
7 -10 12 52.09 13.5
-7 -3 -12 38.2 11.5
-3 10 -12 37.9 6
-7 -3 -12 49.7 9.1
-10 7 -12 41.6 7.2
-10 7 -12 38 6.9
-3 -7 -12 16.5 9.5
-10 3 -12 22.2 6.9
7 3 12 27.1 14.7
-3 -7 -12 39.6 7.6
3 -10 12 13.4 11
7 -10 -12 8.5 9.6
7 3 12 15.7 10.1
3 7 -12 29.4 9
10 -3 -12 38.8 7.4
10 -7 12 30.3 12.7
-3 10 12 21.4 6.1
-3 -7 -12 -1.9 19.1
-3 10 12 30.6 13.1
-7 10 -12 32.1 6.4
-10 8 -12 70.09 8.4
8 2 -12 53.29 8.5
2 -10 -12 57.09 9
-8 -2 -12 70.29 9.4
-2 10 -12 58.09 6.6
-10 8 -12 58.59 8.2
2 8 12 42.1 13.8
10 -2 12 56.19 13.2
8 -10 12 58.49 14.1
-10 2 -12 76.19 11.4
10 -8 12 91.89 14.5
-2 -8 -12 71.39 10.7
-8 10 -12 84.89 10.9
8 2 12 78.19 17.1
-2 10 12 81.39 10.4
2 8 -12 90.39 14.4
8 -10 -12 64.99 11.9
10 -2 -12 86.49 12.6
10 -2 -12 102.59 10.6
-2 10 12 84.99 16.1
-2 -8 -12 81.19 12.1
1 9 12 -2.5 11.4
-10 9 -12 2.5 6.3
10 -1 12 6.6 10.7
9 -10 12 2.4 10
9 1 -12 12 6.6
-1 10 -12 12.2 5.2
9 -10 12 4.1 11.9
-10 9 -12 16.9 6.4
1 -10 -12 9.4 7.2
10 -1 12 2.1 11.9
9 1 -12 4.2 5.4
-9 -1 -12 4.4 6.9
-1 10 12 5.2 11.7
-1 -9 -12 1.9 6.9
10 -9 12 -1.2 10.7
-10 1 -12 5.5 6.4
-1 10 12 5.6 5.3
1 9 -12 3.2 5.9
10 -1 -12 10.9 6.4
9 -10 -12 6.9 8.9
-1 -9 -12 3.9 7.8
10 -1 -12 12.7 6.3
9 1 12 7.3 11.9
-9 10 -12 5.6 5.9
9 1 12 0.9 13.4
10 -10 12 7 7.9
10 0 12 2.2 11.9
0 10 12 9.4 5
-10 0 -12 6.6 6.3
-10 10 -12 12.1 6
10 0 -12 14.6 6.6
10 -10 12 -0.4 9.7
0 -10 -12 9.6 6.7
0 10 12 6.3 10.9
-10 10 -12 9.2 5.9
10 -10 12 11 11.7
10 0 -12 9.5 6.5
6 5 -12 29.4 5.5
-6 11 12 17.7 11.6
-6 -5 -12 9 8.4
5 -11 -12 19.8 8.6
-5 11 -12 28.8 5.9
6 -11 12 4.7 7.4
-11 6 -12 3.3 6
-6 -5 -12 29.5 7.2
-6 -5 -12 20.8 11.8
11 -5 12 27 12.3
-6 11 12 18 6
-11 6 -12 30.8 6.6
6 5 -12 11.6 8.4
5 6 12 10 13.2
6 -11 12 16.7 12.1
5 6 -12 40.4 9.6
6 5 12 32.4 15.2
-5 -6 -12 34.3 7.5
-11 5 -12 36.7 7
-5 -6 -12 21.6 8.9
6 -11 -12 32.8 9.8
5 6 -12 32.3 5.5
5 -11 12 36.3 12.5
-5 -6 -12 7.4 12
-5 11 12 32.4 6.6
11 -6 12 30.4 12.4
-5 11 12 34.1 12.5
-6 11 -12 31.5 6
-7 11 12 174.28 13.3
-7 -4 -12 181.48 13.1
-11 7 -12 171.58 13.7
-7 -4 -12 182.88 15.7
4 -11 -12 155.08 16.2
-11 7 -12 168.68 13.6
4 7 12 185.78 21.8
-7 -4 -12 177.98 19.5
7 -11 12 174.38 14.3
11 -4 12 140.89 18.4
7 4 -12 180.98 17.1
-4 11 -12 182.58 12.3
7 -11 12 163.58 19.8
-7 11 12 150.28 20.5
7 4 12 137.79 21.6
-7 11 -12 139.39 11.8
-4 -7 -12 142.49 13.3
4 7 -12 129.99 17.5
-4 -7 -12 145.19 16.4
-4 11 12 124.79 19.2
4 7 -12 144.99 10.9
4 -11 12 113.59 17.2
11 -4 -12 159.58 13.5
-11 4 -12 151.78 12.5
11 -7 12 149.79 19.1
-4 11 12 149.88 11.9
7 -11 -12 135.59 18
-8 -3 -12 58.69 8.8
-11 8 -12 60.49 8.2
3 -11 -12 90.49 10.5
8 3 -12 77.29 10.1
-11 8 -12 70.49 8.3
-8 11 12 55.69 13.8
8 -11 12 44.8 13.2
-8 -3 -12 51.29 12
-3 11 -12 74.59 9.3
3 8 12 46.6 14
8 -11 12 58.99 9.1
-3 11 12 43.4 6.6
-3 -8 -12 28 10.1
8 -11 -12 28.2 10.6
11 -8 12 25.6 11.5
3 8 -12 38.3 5.8
8 3 12 41.4 15.8
3 8 -12 41.9 9.8
-8 11 -12 37.9 6.5
-3 -8 -12 48.9 7.6
-11 3 -12 64.59 8.2
11 -3 -12 60.09 8.1
-3 11 12 22.9 11.6
9 2 -12 18.7 7.3
-2 11 -12 28.8 5.5
9 -11 12 34.7 8.7
-11 9 -12 17.9 6.6
-9 -2 -12 27.8 7.6
2 9 12 0.8 11.7
2 -11 -12 34.4 8.1
9 -11 12 22.9 12
-11 9 -12 31.3 6.7
2 9 -12 30.6 8.3
2 9 -12 24.7 5.4
11 -9 12 8.9 11
-11 2 -12 30.9 6.9
-2 11 12 2.6 11.3
9 2 12 16.5 13.5
-9 11 -12 39 6.5
11 -2 -12 55.99 7.4
9 -11 -12 16.4 10.3
11 -2 -12 36.8 7.4
-2 -9 -12 23.4 9.1
-2 -9 -12 41.3 7.9
-2 11 12 31 6.2
1 -11 -12 15.8 7.1
-10 -1 -12 16.9 6.8
10 -11 12 -4.5 17.2
10 1 -12 19 7.1
10 -11 12 3.4 10.6
10 1 -12 12.1 6.4
10 -11 12 16.4 7.6
-11 10 -12 17.1 6.3
-11 10 -12 23.7 6.4
-1 11 -12 23.1 5.4
-1 -10 -12 5 7.1
11 -10 12 -3.1 9.8
10 1 12 2.1 11.7
-11 1 -12 6.5 6.1
-1 -10 -12 8.9 6.7
10 -11 -12 -3.8 8.5
11 -1 -12 5 6
11 -10 12 -0.3 7.6
11 -10 12 8 10.6
-1 11 12 0.3 5.6
1 10 -12 3.1 7.7
1 10 -12 -0.9 4.8
-10 11 -12 0.5 5.7
11 -1 -12 9.4 6.3
-11 0 -12 9.1 6.1
11 0 -12 9.6 6.3
0 -11 -12 7.1 6.5
-11 11 -12 2 5.5
0 11 -12 1.5 4.9
0 11 12 3.4 5.6
11 0 -12 6.1 6.4
11 -11 12 4.7 7.5
-12 6 -12 79.09 10.5
6 6 12 72.59 15.2
6 -12 12 78.69 13
5 -12 -12 68.49 10
7 5 -12 62.19 9.9
-7 12 12 59.59 7.3
-12 7 -12 71.39 10.2
-5 12 -12 79.19 9.3
-7 -5 -12 70.29 8
-12 7 -12 61.89 8.8
7 -12 12 37.7 11.8
-7 -5 -12 88.49 10.6
-5 12 12 55.49 6.8
-5 -7 -12 44.6 9.4
-5 -7 -12 58.79 7.9
5 7 -12 43.6 9.6
-7 12 -12 47.6 6.4
7 5 12 13.8 13.2
12 -7 12 16.8 11
7 -12 -12 33.9 9.9
5 7 -12 51.79 6.7
-12 5 -12 47.2 7.1
-4 12 -12 60.89 6.8
-12 8 -12 61.89 7.9
8 4 -12 68.69 9.9
-8 12 12 76.99 8.2
-12 8 -12 54.99 8.3
-8 -4 -12 74.69 9.7
4 -12 -12 68.19 9.5
8 -12 12 61.89 9.3
-12 4 -12 66.99 10.4
-4 -8 -12 72.99 8.5
-4 12 12 69.49 10
4 8 -12 76.69 9.9
4 8 -12 56.69 10.3
8 -12 -12 69.19 12.2
12 -4 -12 66.79 11.5
-4 -8 -12 52.09 10.3
-8 12 -12 62.09 7
-12 9 -12 167.38 12.8
-3 12 -12 162.78 11.6
-9 -3 -12 158.48 13.9
-12 9 -12 176.18 13.8
9 3 -12 164.08 15.8
9 -12 12 157.38 14.4
3 -12 -12 153.48 14.6
3 9 -12 128.19 17
-3 12 12 138.79 11.5
-12 3 -12 136.29 12.3
9 -12 -12 113.99 17.7
12 -3 -12 152.98 13.3
-3 -9 -12 131.19 12.6
-9 12 -12 148.19 11.6
3 9 -12 143.99 11.3
-3 -9 -12 114.39 15.9
2 10 12 -1.4 5.8
-12 10 -12 5.3 5.7
10 2 -12 5.4 6.7
-2 12 -12 11.2 5.1
-10 -2 -12 0.5 6.4
2 -12 -12 0 6.3
10 -12 12 -3.2 7.3
10 2 -12 -4.1 6.1
-12 10 -12 5.7 6
-2 -10 -12 -1 6.5
2 10 -12 5.9 5.7
10 -12 -12 -11.6 9.4
-2 12 12 4.3 5.7
-2 -10 -12 -1 8.1
-10 12 -12 -0.6 5.2
12 -10 12 6.8 7.3
-12 2 -12 0 5.8
12 -10 12 -1 11.1
2 10 -12 5.5 7.2
10 2 12 1.7 13.3
12 -2 -12 6.4 6
12 -2 -12 7.1 6.2
1 11 12 24.9 5.5
-11 -1 -12 30.3 6.7
11 1 -12 31.7 7.1
11 1 -12 28.2 6.9
-12 11 -12 35 6.5
11 -12 12 29.4 7.9
1 -12 -12 34.9 7.2
-1 -11 -12 45.7 7.7
-11 12 -12 40 6.5
-12 1 -12 36.4 6.8
1 11 -12 45.2 6.7
12 -1 -12 45.8 7.7
-1 12 12 46.5 7
11 -12 -12 27.3 8.4
12 -11 12 36.9 8.3
12 -1 -12 38.1 6.9
0 12 -12 -2.6 5.1
0 -12 -12 3.1 6.2
0 12 12 -4.2 5.4
-12 12 -12 -3.2 5.2
12 0 -12 3.8 6.1
12 0 -12 -4.5 6
-12 0 -12 -0.3 5.6
12 -12 12 -2.8 7.1
-13 6 12 78.89 8.7
6 -13 -12 90.09 10.8
-13 7 -12 95.79 11
-7 13 12 98.59 10.5
-13 7 -12 99.39 12.4
7 6 -12 104.99 12
-6 13 -12 84.69 9.4
-7 -6 -12 94.79 12.5
-6 -7 -12 85.59 10.5
7 -13 -12 81.89 10.9
-13 6 -12 99.59 10.6
6 7 -12 100.09 9.9
-6 13 12 96.19 9.8
-7 13 -12 97.69 9.7
-6 -7 -12 86.69 13.5
6 7 -12 85.49 11.7
-8 -5 -12 170.38 14.3
-13 8 -12 179.18 14
5 -13 -12 154.78 15
-5 13 -12 165.78 11.5
8 5 -12 158.98 16.8
-8 13 12 172.88 12.6
-13 8 -12 165.98 12.8
8 -13 12 147.49 13.2
5 8 -12 173.98 12.2
-5 -8 -12 164.78 15.7
-5 13 12 167.58 12.2
-5 -8 -12 162.68 12.6
-8 13 -12 171.78 12
-13 5 -12 157.58 12.7
8 -13 -12 127.19 16.6
9 4 -12 56.29 9
-9 13 12 36.3 6.4
-9 -4 -12 53.89 8.1
-4 13 -12 49.5 6
9 -13 12 54.59 8.6
4 -13 -12 40.8 8
-13 9 -12 45.1 7
-13 9 -12 43.2 7.6
9 -13 -12 -0.3 9.2
13 -9 12 24.1 8.2
-4 13 12 23.1 5.8
-9 13 -12 38.6 5.9
-13 4 -12 24 6.1
-4 -9 -12 16.2 9.1
4 9 -12 25.9 6.2
4 9 -12 13 9
-4 -9 -12 33.1 6.8
13 -4 -12 30.3 6.7
-13 10 -12 9.6 6
3 -13 -12 0.9 6.5
-3 13 -12 16.2 5.1
10 -13 12 3.5 7.5
10 3 -12 5.5 6.4
10 3 -12 -3.9 5.5
-10 -3 -12 4.8 6.1
-10 13 12 10.2 5.5
-13 10 -12 11.8 5.7
-13 3 -12 4.1 5.6
-3 -10 -12 5.9 6.1
13 -3 -12 8.6 6.2
3 10 -12 3.2 8.4
3 10 -12 9.7 5.5
-3 13 12 4.2 5.6
13 -10 12 8.2 7.3
-3 -10 -12 -3.8 7.8
10 -13 -12 -14.1 9
-10 13 -12 7.4 5.2
2 11 12 -2 4
11 2 -12 13 6.8
2 -13 -12 6.1 6.4
11 2 -12 0.9 6.3
-13 11 -12 1.3 5.4
-11 -2 -12 6.7 6
11 -13 12 9 7.3
2 11 -12 7.7 6
-2 -11 -12 6.3 7.5
11 -13 -12 -0.9 8.7
-11 13 -12 9.7 5
13 -2 -12 12.5 6
2 11 -12 9.4 5.7
-2 13 12 8.3 5.7
-13 2 -12 12.2 5.8
-2 -11 -12 6.9 6
13 -2 -12 11.4 5.9
13 -11 12 9.3 7.4
12 -13 12 14.1 7.6
-1 13 -12 9.6 5.2
-1 -12 12 13.4 6
1 -13 -12 16.3 6.3
-12 -1 -12 13.2 5.8
1 12 12 8.3 5.3
-13 12 -12 10.3 5.3
12 1 -12 8.3 6.2
12 1 -12 15.8 6.7
1 -13 12 2.2 6.4
-13 1 -12 16.7 5.7
-1 13 12 17 5.8
13 -1 -12 17.3 6.3
-12 13 -12 10.9 5.2
13 -12 12 4.6 7.2
1 12 -12 10.5 5.9
-1 -12 -12 11.8 6.5
12 -13 -12 6.5 6.8
13 -1 -12 13.6 6.3
0 13 12 32.2 6.2
0 13 -12 36.9 6.2
13 0 -12 31.9 6.7
-13 13 -12 48.4 6.2
-13 0 -12 26.5 6
13 -13 12 41.5 8.3
0 -13 -12 40.7 6.9
0 -13 12 36.4 7.5
13 0 -12 38 6.9
-14 7 12 191.18 12.2
-14 7 -12 215.18 14.4
7 7 -12 198.48 18.4
-14 7 -12 207.48 13.7
7 -14 -12 180.38 15.7
14 -7 12 209.38 15.7
-7 14 12 224.38 13.5
-7 14 -12 193.28 12.5
-7 -7 -12 215.58 15.6
-8 14 12 59.79 6.9
-14 6 12 41.9 6.4
6 -14 -12 54.49 8.7
-6 14 -12 65.59 6.5
-14 8 -12 54.29 7.1
-8 -6 -12 46.3 7.8
-14 8 -12 60.29 8.1
8 6 -12 41.2 9
-6 -8 -12 20.4 7.6
-14 6 -12 14.1 5.9
6 8 -12 20 9.4
-6 -8 -12 19.1 5.4
-8 14 -12 34.4 5.4
-14 6 -12 26.7 6.2
-14 8 12 9.3 4.1
14 -8 12 41 8.7
8 -14 -12 22.8 8.4
-6 14 12 29.7 6
6 8 -12 30.1 5.7
-14 9 -12 28.3 6.2
-5 14 -12 33.1 5.2
9 5 -12 23.6 7.9
-14 9 -12 29.3 6.7
5 -14 -12 28.5 7.3
-14 5 12 26.9 5.6
9 -14 12 22.2 7
-9 -5 -12 30.9 7.2
-9 14 12 28.6 6
-9 14 -12 26.6 5.3
-5 -9 -12 14.1 7.8
5 9 -12 17.4 9.4
9 -14 -12 10.6 8.4
14 -9 12 38 8.4
-14 5 -12 23 6.1
-5 -9 -12 18.8 5.7
-5 14 12 24.1 5.7
5 9 -12 20.4 5.6
-14 10 -12 43.9 6.5
-14 10 -12 42.7 6.9
10 -14 12 32 7.8
4 -14 -12 36.2 7.3
-10 -4 -12 31.1 6.8
10 4 -12 45.5 8.7
-4 14 -12 43.7 5.8
-10 14 12 34.4 5.9
-4 -10 -12 26.9 8.3
-4 14 12 36.4 6.3
-14 4 -12 33.7 6.4
-10 14 -12 43.2 5.9
14 -4 -12 28.6 6.4
10 -14 -12 18.4 9
4 10 -12 40.4 6.4
4 10 -12 29.7 8.9
14 -10 12 31.3 8.1
-4 -10 -12 26.7 6
-14 11 -12 2.2 5.1
-11 14 12 -2.3 4.8
3 -14 -12 -0.4 5.8
11 -14 12 -3.6 6.8
11 3 -12 2 6.3
-11 -3 -12 3.2 5.8
11 3 -12 -6.2 6.1
11 -14 -12 -3.5 7.8
3 11 -12 3.1 5.5
-3 14 12 4.4 5.3
-14 3 -12 5.2 5.3
3 11 -12 -0.2 7.3
-3 -11 -12 7.2 7.3
14 -11 12 -1.2 7.1
-11 14 -12 5.8 4.8
14 -3 -12 1.4 6
-3 -11 -12 5.1 5.6
12 2 -12 12.6 6.1
2 12 12 0.9 4.2
-14 12 -12 18.7 5.3
2 -14 -12 15 6
12 2 -12 5 6.2
-12 -2 -12 15.7 5.6
12 -14 12 11.2 7
-12 14 12 21 5.4
-2 14 -12 -0.3 5
2 -14 12 1.2 6.5
14 -2 -12 18.9 5.4
14 -2 -12 12.6 6
12 -14 -12 13.9 7.5
-2 14 12 11.9 5.4
14 -12 12 18.3 7.4
2 12 -12 14.9 5.6
-2 -12 -12 12.7 6.1
-12 14 -12 17.6 5.2
-14 2 -12 14.9 5.4
-2 -12 -12 10.8 5.7
1 13 12 -2.9 4.9
13 -14 12 -1.5 6.3
-13 -1 -12 5.8 5.2
-14 13 -12 1.7 4.7
13 1 -12 1 5.3
1 -14 -12 -0.3 5.6
-13 14 12 -4.1 4.7
13 1 -12 -8.2 5.8
-1 14 -12 0 4.9
-1 -13 12 -4.3 4.8
-1 -13 -12 8.4 5.4
14 -1 -12 -1.2 5.6
-13 14 -12 3.7 4.6
-14 1 -12 3.2 5.3
14 -13 12 8.9 6.7
1 -14 12 2.3 6.4
-1 14 12 4.7 5.4
14 -1 -12 7.4 5.7
1 13 -12 2.5 5.3
14 0 -12 28.1 6
-14 0 -12 31.9 5.7
14 -14 12 27.3 6.5
14 0 -12 33.6 6.5
0 14 12 25.2 5.8
0 -14 12 31.8 6.4
-14 14 -12 36.2 5.4
0 14 -12 34.1 5.8
0 -14 -12 26.2 5.8
15 -7 12 47.5 8.5
8 7 -12 53.99 9.6
-15 8 -12 55.49 8.5
7 -15 -12 54.49 8.4
-7 15 -12 55.69 5.9
-8 -7 -12 61.29 8.2
-8 15 12 50.99 6.3
-15 8 -12 60.59 7.4
-15 7 12 39.5 5.9
15 -8 12 74.29 9.4
-7 15 12 66.39 8.8
-15 8 12 56.69 7.3
-15 7 -12 57.09 7
-15 7 -12 48.4 6.7
8 -15 -12 65.99 9.3
-7 -8 -12 48.1 7.9
-8 15 -12 57.49 6
7 8 -12 41.5 9.7
15 -6 12 133.89 13.3
-9 -6 -12 115.99 11.6
9 6 -12 137.59 14.7
6 -15 -12 134.39 12.5
-15 6 12 126.09 10
-15 9 -12 126.59 10.5
-15 9 -12 139.99 11.4
-6 15 -12 118.59 9.6
-9 15 12 129.99 10.4
-6 15 12 104.59 9.5
15 -9 12 104.19 12.3
-9 15 -12 95.59 8.9
6 9 -12 96.19 9.4
9 -15 -12 92.89 12.7
-15 6 -12 91.59 9.6
-6 -9 -12 98.09 11.7
6 9 -12 86.09 15.4
-10 -5 -12 16.8 5.8
-15 5 12 13.1 4.9
-10 15 12 14.4 5
-15 10 -12 10.2 5.3
-5 15 -12 22.1 4.8
15 -5 12 14 7
-15 10 -12 10.1 5.4
5 -15 -12 10.1 6.2
10 -15 12 16 6.7
10 5 -12 11.8 7.3
-10 -5 12 1.1 3.3
-10 15 -12 18.3 4.7
5 10 -12 18.7 5.3
-15 5 -12 12.8 5.3
10 -15 -12 5.8 7.3
-5 -10 -12 11 6.7
5 10 -12 3.1 8.1
15 -10 12 25.8 7.3
-5 15 12 12.2 5.3
11 4 -12 -0.3 5.4
15 -4 12 10.9 5.6
4 -15 -12 15.7 5.7
-11 -4 -12 17.9 5.7
-11 15 12 17.4 5.2
11 4 -12 12.2 6.4
11 -15 12 22.1 7.2
-15 11 -12 13.5 5.3
-4 -11 -12 19.8 6.9
-15 4 -12 18 5.5
15 -11 12 20 7.3
4 11 -12 18.2 8
-11 15 -12 18 4.9
11 -15 -12 18.7 7.9
-4 15 12 17.9 5.3
4 11 -12 20.3 5.5
3 -15 -12 15.3 5.4
12 -15 12 13.3 6.9
-12 15 12 17.5 5.3
-15 12 -12 13.5 4.9
12 3 -12 10.8 6.1
-12 -3 -12 14.4 5.3
12 3 -12 3.2 5.8
3 12 -12 7.7 5.7
-12 15 -12 18 4.6
15 -12 12 18.1 7.3
3 -15 12 3.8 6.1
15 -3 -12 -0.6 4.3
12 -15 -12 13.5 7
-3 -12 -12 18.9 6.2
3 12 -12 9.1 5.4
-3 15 12 11.6 5.2
-15 3 -12 11.1 5
13 -15 12 11.3 6.6
2 -15 -12 10.2 5.3
-13 15 12 13 4.7
13 2 -12 4.9 5.8
-13 -2 -12 14.4 5.2
13 2 -12 8.9 5.4
2 13 12 1.9 4.2
-2 15 -12 1 5.3
-15 13 -12 13.9 4.6
-2 -13 -12 3.8 5.6
-15 2 -12 13.2 4.9
-2 -13 -12 1.5 4
-2 15 12 15.6 5.3
-13 15 -12 18.9 4.6
15 -2 -12 8.9 4.6
15 -13 12 17.7 7.1
2 13 -12 12.8 5.1
2 -15 12 10.5 6.2
13 -15 -12 8.5 9.1
14 1 -12 10.5 5.4
1 14 12 5.5 4.5
14 1 -12 5.9 5.4
1 -15 -12 8.9 4.9
-14 -1 -12 10.6 4.9
-1 15 -12 4.6 4.1
-15 14 -12 13 4.4
14 -15 12 7.5 6.2
-14 15 12 10.3 4.6
-15 1 -12 7.9 4.5
-1 -14 -12 -1.9 3.8
-14 15 -12 11.2 4.4
-1 15 12 5.1 4.8
15 -14 12 4.1 6.2
1 14 -12 7.1 4.8
15 -1 -12 7.9 5.2
1 -15 12 7.2 5.6
15 -1 -12 4 4.3
0 -15 12 -8.6 3.9
0 15 12 -3.2 4.6
15 0 -12 -1.8 3.8
15 0 -12 -7.8 4.9
0 15 -12 0.6 4.1
15 -15 12 -1.8 5.4
-15 15 12 -4.3 4.1
0 -15 -12 0 4
-15 15 -12 0.7 3.9
-15 0 -12 0.5 3.9
-16 8 12 67.19 7.6
-8 -8 -12 83.29 10.1
-16 8 -12 93.39 9.1
16 -8 12 93.59 11.9
8 -16 -12 86.89 10.7
8 8 -12 73.99 10
-8 16 -12 85.29 7.9
-8 16 12 84.49 8.7
7 -16 -12 16.3 6
-16 9 -12 9.1 4.3
-9 -7 -12 23.5 5.9
-16 9 -12 17.3 5.3
-9 16 12 21 5.1
-7 16 -12 26.5 4.6
9 7 -12 18.7 7.5
-16 7 12 24.5 4.8
16 -7 12 30.7 7.6
-9 -7 12 10.8 4.3
7 9 -12 14.9 8.2
9 -16 -12 15 6.6
-7 -9 -12 23.2 6.2
-7 16 12 16.8 5
-16 7 -12 19.2 4.9
-9 16 -12 21.7 4.6
16 -9 12 21.1 7.6
-16 7 -12 15.6 4.6
-16 9 12 12.7 4.2
-10 -6 -12 6.3 5.4
6 -16 -12 9.4 5.8
-10 16 12 7.7 4.7
10 6 -12 3.2 6.9
-16 6 12 4 4.3
-6 16 -12 6.6 4.3
16 -6 12 7.6 6
-16 10 -12 10 5.1
-6 16 12 5.3 4.9
-10 -6 12 4 3.5
-10 16 -12 12.3 4.3
-16 6 -12 2.3 4.3
6 10 -12 7.1 4.8
16 -10 12 12.9 7.1
-6 -10 -12 9.5 6.1
6 10 -12 9 8.1
-16 10 12 -1.5 3.6
10 -16 -12 11.5 6.8
-11 16 12 1.1 4.4
11 5 -12 0.5 6.1
5 -16 -12 -0.7 5.2
-16 11 -12 0.5 4.5
-11 -5 -12 1.8 5
-16 5 12 0.8 4.2
11 -16 12 -1.2 5.1
-5 -11 -12 5.1 5.7
16 -11 12 5.7 7
5 11 -12 -2.2 7.5
-11 16 -12 1.1 3.9
-16 5 -12 2.2 4.3
-5 16 12 -2.9 4.5
5 -16 12 -5.6 5.8
11 -16 -12 6.8 6.6
5 11 -12 -2.8 4.7
12 4 -12 -4 5.6
12 -16 12 5 6.3
-12 -4 -12 3.1 4.7
-16 4 12 5 4
-16 12 -12 3.7 4.5
-12 16 12 3.4 4.3
4 -16 -12 4.2 5.1
12 4 -12 9.4 6.1
-16 4 -12 2.8 4
12 -16 -12 9.5 6.1
16 -12 12 6.9 6.7
-12 16 -12 5.9 4.1
4 12 -12 8.6 5.5
4 -16 12 2.3 6
-4 16 12 4.3 4.6
4 12 -12 0.2 4.5
-4 -12 -12 13.5 5.7
13 -16 12 4.5 6.1
-13 16 12 4.2 4.3
-13 -3 -12 5.4 4.6
-16 3 12 4 3.8
13 3 -12 5.8 5.2
-16 13 -12 10.5 4.2
13 3 -12 -0.9 4.7
3 -16 -12 5.4 4.7
-13 16 -12 4 3.9
16 -13 12 1.4 6.1
13 -16 -12 4.6 4.5
-16 3 -12 2.4 3.6
-3 16 12 3.1 4.7
3 13 -12 -2.9 4.7
3 -16 12 3.1 5.6
-3 -13 -12 4.7 4
-14 -2 -12 0.5 4.3
14 -16 12 2 5.8
-16 14 -12 4.5 4.2
2 -16 -12 1.4 4.4
-14 16 12 2.2 4.3
14 2 -12 -1.5 4.9
14 2 -12 -5.7 4.9
16 -14 12 -0.1 6.2
-16 2 -12 -2.3 3.2
2 14 -12 -5.2 4.5
-14 16 -12 1.4 3.7
2 -16 12 -2.8 5.1
-2 16 12 -4.6 4.4
15 1 -12 -4.2 3.5
-15 16 12 1.7 4.1
15 -16 12 -4.2 5.5
-15 -1 -12 3.5 3.4
1 15 12 -1.2 3.7
-16 15 -12 -2.4 3.7
15 1 -12 -6.2 4.9
-16 15 12 5.9 4.4
1 15 -12 -0.2 3.9
16 -15 12 0.4 6
-15 16 -12 3.4 3.6
1 -16 12 -5.5 4
-1 16 12 1.5 4.5
-16 16 -12 9.8 4
-16 16 12 5.9 4.2
0 16 12 -1.5 2.9
16 -16 12 5.8 5.1
9 8 -12 -5.4 6.3
-9 17 12 -2.7 4.3
-8 17 -12 -0.5 3.8
8 -17 -12 2.2 5
17 -8 12 4.8 5.3
-17 9 -12 1.3 4.2
-17 8 12 -2.8 3.7
-9 -8 -12 -2.4 4.8
-9 17 -12 -1 3.6
-8 17 12 2.3 4.4
-17 8 -12 4.1 3.9
17 -9 12 0.4 6.2
-17 9 12 3.3 3.6
-9 -8 12 1.4 3.8
9 -17 -12 2.9 5.5
-8 -9 -12 2.8 4.9
8 9 -12 0.6 7
-17 10 -12 10.7 4.6
10 7 -12 15 6.9
-10 -7 -12 10.1 4.9
-7 17 -12 7.7 4
7 -17 -12 5.7 4.9
-17 7 12 12.8 4.1
-10 17 12 12 4.7
-7 17 12 6.9 4.6
-7 -10 -12 14.6 5.2
7 -17 12 3.4 5.7
-10 -7 12 7.9 3.5
7 10 -12 15.1 7.4
17 -10 12 14.3 6.9
-10 17 -12 7 3.9
10 -17 -12 10.1 5.5
-17 10 12 -1.5 3.3
-11 17 12 37.7 5.4
-11 -6 -12 22.9 5.5
6 -17 -12 26 5.4
11 6 -12 21.8 6.5
-17 11 -12 23 4.8
-17 6 12 19.8 4.4
11 -17 -12 22.8 5.8
6 -17 12 24 6.2
6 11 -12 19.7 4.6
17 -11 12 20.7 6.6
-6 -11 -12 18.7 5.5
-11 17 -12 18.8 4.2
6 11 -12 28.5 7.6
-6 17 12 24.3 4.9
12 5 -12 13.3 5.7
-17 12 -12 21.2 4.4
-12 17 12 18.5 4.7
-17 5 12 14.1 4.1
-12 -5 -12 17 4.9
5 -17 -12 12.4 4.7
17 -12 12 12.6 6.6
5 12 -12 20.7 5.7
5 -17 12 16.9 5.8
5 12 -12 13 4.5
-5 17 12 22.3 5.1
12 -17 -12 21.3 5.9
-12 17 -12 17.7 4.2
-5 -12 -12 19.7 5.2
-17 4 12 0.2 3.8
-13 17 12 0.9 4.4
-17 13 -12 0.2 3.9
4 -17 -12 2.5 4.3
-13 -4 -12 2.8 4.2
13 4 -12 -0.6 4.8
13 -17 12 -3.7 4.6
-13 17 -12 4.9 3.8
4 -17 12 -1 5.3
17 -13 12 1.7 6.2
4 13 -12 -1.7 4.4
-4 -13 -12 5.7 3.8
13 -17 -12 4.7 4.3
-4 17 12 3.6 4.4
14 -17 12 3.5 5.3
3 -17 -12 4.9 3.6
-17 14 -12 6.1 4.1
-14 -3 -12 2.9 3.8
-17 3 12 2.2 3.6
-14 17 12 4.4 4.2
14 3 -12 -1.5 5.8
14 3 -12 2.7 4.4
17 -14 12 4.3 6
3 -17 12 -0.9 5.1
3 14 -12 1.5 4.4
-14 17 -12 4.7 3.6
-3 17 12 7 4.7
15 2 -12 -0.8 3.7
-17 2 12 1.1 3.5
15 -17 12 -4.9 5.1
-15 -2 -12 1.7 3
-15 17 12 -1.2 4
-17 15 -12 2 3.6
17 -15 12 3.6 5.7
2 -17 12 -6.6 3.5
-15 17 -12 -1.6 3.2
-2 17 12 -1.8 4.1
-17 15 12 -1.3 3.8
2 15 -12 0.4 2.9
9 -18 -12 2.8 5
-9 18 12 -0.9 4.3
-18 9 12 0.9 2.9
-18 9 -12 1.3 3
9 -18 12 -3.7 5.3
-9 -9 -12 3.2 4.6
-9 18 -12 -0.8 3.8
9 9 -12 1.4 6.4
-9 -9 12 0.4 3.4
-18 10 -12 8.4 3.7
-10 -8 -12 6.5 4.5
-8 -10 12 2.7 3.6
-8 18 -12 5.1 3.8
8 -18 -12 4.1 5
10 -18 12 4.5 5.6
-18 8 12 4 3.1
-10 18 12 3.1 4.5
10 8 -12 9.5 5.9
10 -18 -12 8.6 4.9
8 -18 12 7.7 5.7
-8 18 12 6.8 4.4
-10 -8 12 -0.5 2.8
18 -10 12 -0.8 4.9
-10 18 -12 3.4 3.6
-8 -10 -12 10.6 4.7
8 10 -12 7.7 6.3
11 -18 12 19.2 5.5
-7 -11 12 20.6 4.1
-11 18 12 24.4 4.9
7 -18 -12 21.4 4.7
-11 -7 -12 21.6 4.9
11 7 -12 21 6.1
-18 11 -12 21.8 4.3
-18 7 12 17.9 3.7
11 -18 -12 26.6 5.4
-7 -11 -12 19.9 5.1
7 11 -12 38.9 7.1
18 -11 12 13.5 5.4
-11 18 -12 22.9 4.2
7 -18 12 24.1 6
-7 18 12 29.2 5
12 6 -12 1.4 5.4
-18 6 12 3.4 3.4
6 -18 -12 6.1 4.6
-12 -6 -12 3.2 4.2
-12 18 12 6 4.2
-18 12 -12 -0.5 3.7
12 -18 12 6.5 4.4
18 -12 12 0.8 5.6
6 12 -12 4.7 4.4
6 -18 12 0.3 5.2
-6 -12 -12 5 4.2
12 -18 -12 9.1 4.9
-12 18 -12 -2.6 3.5
-6 18 12 -3 4.3
-18 5 12 1.1 3.4
5 -18 -12 3.9 4
13 5 -12 0 4.8
-13 18 12 5.8 4.1
-13 -5 -12 2.2 4.1
-18 13 -12 5.8 3.8
-13 18 -12 3.8 3.6
5 -18 12 4.1 5.2
-5 18 12 5.5 4.3
13 -18 -12 3 4.2
18 -13 12 0.9 5.8
-5 -13 -12 2.6 3
0 0 13 -2.2 8.9
0 -1 -13 16 5.8
0 -1 13 14.4 9.1
1 0 13 3.8 11.2
-1 0 13 7.8 8.9
1 0 13 16.8 9.9
-1 1 13 8.5 10.1
1 -1 13 7.3 9.5
0 1 13 11.7 9.5
-1 2 13 28.3 11
2 -1 13 38.6 10.8
1 -2 -13 51.69 7
1 1 13 31 11.2
1 -2 13 27.2 9.6
2 0 13 -1.8 9.1
-2 2 13 3.5 9.3
0 -2 -13 22.6 6.7
2 -2 13 7.7 9.9
2 -2 -13 -4.7 5.2
0 2 13 -0.1 10.4
2 0 13 3.7 10.4
-2 2 -13 -4.2 4.5
-2 0 -13 1.3 6.9
3 -1 13 33.6 10.9
-3 2 -13 40.1 6.4
2 -3 13 34.4 10.5
-2 3 13 34.3 11.8
1 2 13 35.8 12.2
1 2 -13 32.4 6.4
2 1 13 23.9 11.3
2 -3 -13 47.2 7.1
-3 1 -13 35.8 6.2
-1 3 13 31.6 11.8
-3 2 13 6.9 10
1 -3 13 7.4 17.2
3 -2 13 21 10.4
-3 0 -13 66.49 9.8
-3 3 -13 71.29 10.3
-3 3 13 45.2 11.8
3 0 13 34.9 10.5
3 -3 13 74.29 12.9
0 3 13 39.1 12.2
2 -4 -13 30.7 7.4
2 -4 13 5.6 12.2
-2 -2 -13 5.1 6.6
-2 -2 -13 32.1 6.9
-2 4 13 11.8 11
4 -2 13 16.3 10.4
2 2 13 1.1 11.1
-4 2 -13 17.5 6.3
2 2 -13 28.1 7.2
-2 4 -13 3.4 4.8
3 -4 13 24.7 10.4
-3 -1 -13 21.9 6.4
4 -1 13 17.8 10.3
-3 4 13 9.8 10.7
-3 -1 -13 41.9 7.2
1 3 13 18.1 12.1
1 -4 -13 40.7 7.6
-4 3 -13 25.2 6.5
4 -3 13 23.5 11.1
3 -4 -13 24.8 6.4
-3 4 -13 28.6 6.4
1 -4 13 10.9 13.3
1 3 -13 18.6 6.1
-4 3 13 5.9 9.2
-4 1 -13 24.8 6.8
-1 4 13 14.3 11.4
3 1 13 22.1 12.2
-1 -3 -13 43.7 7.6
3 1 13 21.2 10.5
-4 0 -13 21 7.4
0 4 13 15.1 11.8
4 -4 13 17.9 11
4 0 13 14.5 10.3
-4 4 -13 28.2 6.8
0 -4 -13 38.9 7.6
-4 4 13 12.9 10.5
4 0 13 10.8 11.3
-3 -2 -13 126.69 12.6
-5 3 -13 114.89 12.3
5 -2 13 102.59 16.3
2 3 13 104.49 18.8
-3 -2 -13 134.49 12.7
3 2 -13 143.79 13.4
2 -5 -13 142.09 14
-3 5 13 114.29 16.7
3 2 13 104.59 18.7
3 -5 -13 137.19 14.2
-3 5 -13 119.79 11.8
2 3 -13 141.09 13.6
-2 5 13 96.99 17.8
-2 -3 -13 125.89 13
-5 2 -13 103.09 12.4
5 -3 13 105.69 16.6
1 4 13 6.4 11.1
4 -5 13 10.8 10.3
-5 4 -13 27.4 7
-4 -1 -13 12.5 7.3
1 -5 -13 21.8 7.3
5 -1 13 11.9 10.2
-4 5 13 4.6 10.9
1 4 -13 13.1 5.4
-5 1 -13 16.1 7.1
4 1 13 -2.8 9.4
4 1 13 6.6 11.9
-5 4 13 7.3 10
-1 5 13 8.7 11.3
4 -5 -13 19.7 6.7
-1 -4 -13 25 7
-4 5 -13 27.8 6.6
5 -4 13 11.3 11
-5 5 13 19 11
-5 5 -13 43.1 7.3
5 -5 13 29.6 11.6
-5 0 -13 31.1 7.6
0 -5 -13 46.8 7.9
5 0 13 20.8 10.6
0 5 13 35.4 12.7
5 0 13 7.4 12
-6 3 -13 22.1 6.8
3 3 13 16.8 12.6
3 3 -13 35.2 7.9
3 -6 13 20 10.9
6 -3 13 24.7 11.4
-3 -3 -13 39.1 7.3
-3 -3 -13 21.3 7.1
-3 6 13 27.2 12.1
-3 6 -13 32.5 6.2
3 -6 -13 44.8 9
2 4 13 37.3 13
2 -6 -13 55.59 9.1
-6 4 -13 62.99 8.2
-4 -2 -13 43.3 8.5
-4 6 13 49.5 12.8
6 -2 13 37.1 11.7
-4 -2 -13 83.99 11.2
-2 6 13 56.29 14
2 4 -13 78.39 12.9
6 -4 13 56.59 13.1
4 2 13 44.2 12
-2 -4 -13 77.19 11.8
4 2 13 60.89 14.6
6 -2 -13 86.39 11.3
-4 6 -13 75.39 10.4
-6 2 -13 60.59 8.3
4 -6 -13 64.99 9.7
5 -6 13 24.3 10.4
1 5 13 24.9 12
-5 -1 -13 36.6 8
-5 6 13 33.5 12.4
6 -1 13 30.1 11.5
6 -1 13 3.9 14.6
1 -6 -13 51.29 8.5
5 1 13 15.9 12.9
-6 5 13 21.2 10.5
-1 6 13 26.2 12
5 -6 -13 38.6 7.8
1 5 -13 26 6.2
5 1 13 27.9 10.9
6 -5 13 22.1 11.4
-6 1 -13 46.9 8.1
0 -6 -13 70.79 9.1
6 0 -13 85.59 12.4
-6 6 -13 76.39 11.3
6 -6 13 58.29 12.6
6 0 13 43 11.8
-6 0 -13 58.89 8.8
0 6 13 59.39 14.4
-3 7 -13 -2.5 5.1
-7 4 -13 16.8 6.4
3 -7 -13 12.8 8
4 -7 13 11.1 11.3
-4 -3 -13 4.6 7.5
7 -3 13 6.4 10.7
-4 7 13 5.2 11.1
3 4 13 15.6 12.7
4 3 -13 32.7 7.4
-4 -3 -13 16.3 6.3
-3 -4 -13 23.4 6.9
3 -7 13 7.7 10.3
4 -7 -13 26.1 8.5
-3 -4 -13 7.5 7.5
7 -4 13 9.6 11.1
-7 3 -13 13.1 6.3
-4 7 -13 -1.6 7.1
-3 7 13 9.7 11.5
4 3 13 6.4 12.7
3 4 -13 22.7 7.4
-5 -2 -13 70.19 10.7
-7 5 -13 60.19 8
2 -7 -13 55.29 9.3
-5 -2 -13 53.79 9.1
7 -2 13 38.9 12.4
5 2 -13 80.39 13.2
-5 7 13 40.6 12.7
2 5 13 39.6 13.7
5 -7 13 41.9 13
-5 7 -13 68.69 10
7 -2 -13 86.09 11.6
-2 7 13 31.5 12.5
-7 2 -13 53.79 8
2 5 -13 57.39 8.7
-2 -5 -13 59.89 8.4
5 2 13 26.6 13.4
7 -5 13 30.4 12.3
5 -7 -13 49.99 9.5
5 2 13 42.8 12.1
6 -7 13 2.4 10.1
1 6 13 19.3 12.6
-6 7 13 7.3 10.4
7 -1 13 17.3 11.2
-7 6 -13 43.3 7.4
-6 -1 -13 21.8 7.7
1 -7 -13 22.6 8.1
-1 -6 -13 38 7.7
6 -7 -13 25.5 7.9
-7 1 -13 34.7 7.4
-6 7 -13 29.4 6.5
-6 7 -13 -0.1 5.2
6 1 13 16.3 12.9
-1 7 13 21.8 12.2
6 1 13 22.6 10.8
7 -6 13 14.8 10.9
-7 6 13 6.9 10.6
1 6 -13 15.1 6.2
7 -7 13 42.2 11.5
0 7 13 42.2 13.1
-7 7 13 33.8 11.8
7 0 13 6.1 13
-7 0 -13 52.59 8.2
7 0 13 36.4 11.7
-4 -4 -13 55.99 7.7
-4 8 13 37.3 5.7
-8 4 -13 45 7.4
4 4 13 38.3 14
4 -8 -13 48 9.3
-4 -4 -13 36.9 9.3
-4 8 13 33 12.2
-4 8 -13 38.8 5.8
8 -4 13 45.3 12.8
4 -8 13 30.6 11.6
5 3 -13 94.89 13.4
3 5 13 54.49 14.8
-5 -3 -13 74.49 11.1
-8 5 -13 84.89 9
-5 -3 -13 79.99 10.5
-3 8 -13 67.19 8.8
8 -3 13 41.4 12.4
-5 8 13 47.2 12.8
3 -8 -13 84.89 10.4
8 -3 -13 89.49 11
-5 8 -13 72.79 9.4
-3 -5 -13 71.59 10.6
5 -8 -13 98.69 11.7
3 5 -13 99.79 13.8
-3 -5 -13 75.49 11
5 3 13 68.49 15.9
8 -5 13 57.39 13
-8 3 -13 69.89 8.5
5 3 13 72.99 12.9
-3 8 13 68.59 14.6
-2 8 -13 106.19 9.3
8 -2 13 78.09 13.8
-6 -2 -13 110.29 13.6
-8 6 -13 96.19 12.1
2 -8 -13 105.39 13.8
6 -8 13 100.89 15.6
-6 8 13 95.69 15.6
2 6 13 61.59 14.5
6 2 -13 121.29 13.8
-6 8 -13 104.39 10.5
-2 -6 -13 88.89 12.8
-2 -6 -13 88.59 12
-2 8 13 93.29 16
8 -2 -13 121.29 12.8
6 2 13 60.99 14.7
8 -6 13 62.99 13
-8 2 -13 85.79 12
6 -8 -13 115.39 16.3
2 6 -13 109.29 13.6
6 2 13 69.89 12.8
-6 8 -13 96.99 10.1
7 1 -13 27.9 7.9
7 -8 13 0 10.9
7 -8 13 12.7 11.8
1 7 13 13 11.8
8 -1 13 16.4 11.3
-7 8 13 7.9 10.9
-7 -1 -13 15 7.2
-8 7 -13 26 6.8
-1 8 -13 24.3 5.1
1 -8 -13 35.6 8.1
-8 7 -13 1.1 5
7 1 13 11 10.4
-8 1 -13 20 6.8
8 -7 13 5.9 10.4
-1 8 13 13 11.9
-7 8 -13 19.1 5.8
-1 -7 -13 19.4 7
1 7 -13 6 5.4
-7 8 -13 25.5 6.2
7 1 13 6.1 12.6
8 -1 -13 30.3 7.5
7 -8 -13 19 8.2
-8 8 -13 6.5 5.7
0 8 -13 18 4.9
-8 8 -13 7.7 5.9
0 8 13 -0.9 11.2
8 0 -13 9.5 6.8
8 -8 13 -1.2 9.9
-8 8 13 2.7 10.3
8 0 13 7.1 10.4
8 0 13 6.9 15.6
0 -8 -13 11.8 7.1
-8 0 -13 2.5 6.4
-5 -4 -13 147.49 15.8
9 -4 13 120.19 18.6
4 5 13 100.79 17.3
-5 9 13 105.29 18.7
5 4 -13 167.78 15.4
-5 9 13 121.89 11.4
-4 9 -13 145.19 11.1
4 -9 -13 150.08 15.9
-9 5 -13 138.29 12.3
-5 -4 -13 134.39 12.3
-9 4 -13 121.29 11.8
-4 -5 -13 120.59 12.4
9 -5 13 105.79 17.3
5 -9 -13 134.79 16.5
-4 9 13 117.49 11.1
5 4 13 107.39 19.5
4 5 -13 137.79 15.3
-4 -5 -13 120.49 15.7
-5 9 -13 119.09 11
-6 9 13 46.8 12.4
6 -9 13 44.1 11.9
3 6 13 44.4 13.8
9 -3 13 48.6 12.6
6 3 -13 85.39 13.3
-6 -3 -13 57.09 9.3
-3 9 -13 83.09 9.1
3 -9 -13 70.09 9.6
9 -3 -13 83.49 11
3 6 -13 88.29 14.1
6 -9 -13 58.29 10.9
-3 -6 -13 68.69 8.4
6 3 13 26.6 10.1
-3 9 13 44.5 6.2
-3 -6 -13 56.79 10.1
9 -6 13 54.59 12.7
-6 9 -13 76.09 10.3
-3 9 13 58.69 13.9
6 3 13 49.8 14.8
7 2 -13 58.49 8.6
9 -2 13 27.6 11.5
-2 9 -13 70.69 8.7
-7 -2 -13 48.5 8.5
7 -9 13 27.1 11.6
-9 7 -13 55.69 7.6
-7 9 13 24.4 11.6
2 -9 -13 49.9 9
-9 2 -13 61.49 8.1
-7 9 -13 52.39 7
7 -9 -13 38 10.3
-2 -7 -13 42.6 8.7
-2 -7 -13 49.8 7.9
2 7 -13 40.1 8.3
9 -2 -13 57.39 8.1
-2 9 13 25.8 12.2
9 -7 13 20.3 10.9
1 -9 -13 97.09 13
8 1 -13 110.79 13.8
-9 8 -13 113.39 12.1
-8 -1 -13 97.19 12.2
-9 8 -13 111.09 11.1
-1 9 -13 111.59 9.6
8 1 13 7 11.7
-1 9 13 33.1 11.4
8 1 13 6.3 14.9
-9 9 -13 48.6 7.1
-9 0 -13 35.4 7.4
0 -9 -13 46.5 8.2
9 0 -13 40.9 7.7
-9 9 -13 37.2 7.2
5 5 -13 129.29 15.6
-5 10 13 115.59 11.3
-10 5 -13 121.99 11.8
-5 10 -13 124.59 10.8
-5 -5 -13 128.09 11.9
-5 -5 -13 113.29 15.3
5 -10 -13 109.69 15.3
4 6 13 20 12.2
6 4 -13 63.89 9.1
-6 10 13 40.3 6.4
-6 -4 -13 68.79 9.9
-6 10 13 17.3 10.7
6 -10 13 43.2 7
10 -4 13 8.2 10.6
-6 10 -13 90.49 10.1
4 6 -13 76.99 10.4
-4 10 13 72.29 9.6
6 -10 -13 69.59 10.9
-4 -6 -13 63.79 10.7
-10 4 -13 83.29 10.9
-4 -6 -13 81.39 11
-7 10 13 99.29 10.9
7 3 -13 125.49 14.3
-3 10 -13 118.59 10.1
7 -10 13 85.69 12.7
-10 7 -13 111.19 11.7
3 -10 -13 95.59 13.9
-7 -3 -13 110.39 13.8
3 7 -13 86.79 14.9
10 -3 -13 104.09 11.4
-3 -7 -13 82.29 11.5
-10 3 -13 86.39 10.5
-3 10 13 77.19 9.7
7 -10 -13 72.69 11.3
-3 -7 -13 90.09 11.9
-7 10 -13 91.19 10.4
-10 8 -13 26.3 6.8
-8 10 13 6.5 10.1
2 8 13 -1.5 11.3
8 -10 13 4.7 10.6
2 -10 -13 25.8 7.7
8 2 -13 35.6 7.8
8 -10 13 23.8 8
-2 10 -13 30 5.6
-10 8 -13 28.9 6.4
-8 -2 -13 22.1 7
10 -8 13 -0.9 10.9
2 8 -13 28.5 8
-2 -8 -13 42.6 7.4
-2 -8 -13 32.8 8.4
8 2 13 7.9 19.6
-10 2 -13 39.7 7
8 -10 -13 30.5 9.7
10 -2 -13 42 7.6
-2 10 13 5.4 12.8
-2 10 13 23.3 5.4
-8 10 -13 45 6.7
9 -10 13 9.9 7.8
1 -10 -13 10.9 6.8
-9 -1 -13 9.1 6.4
-1 10 -13 17.2 5.1
9 -10 13 5.5 18.6
-10 9 -13 19.2 6
-10 9 -13 11.5 6.7
9 1 -13 9.5 6.9
-9 10 -13 7.9 5.8
1 9 -13 0.7 7.7
-10 1 -13 10.8 6.2
-1 -9 -13 10.4 6.3
-1 10 13 1.6 4.1
9 -10 -13 8.6 8
10 -1 -13 7.4 6.6
0 -10 -13 78.89 11.3
-10 10 -13 79.59 10.9
10 0 -13 91.99 12.4
10 -10 13 77.59 9.4
-10 0 -13 67.39 10.2
-6 -5 -13 57.99 7.4
-6 -5 -13 45.7 9.2
5 -11 -13 50.69 9.6
-6 11 13 45.6 6.9
6 5 -13 51.79 9.3
-5 11 -13 68.69 8.8
-11 6 -13 78.59 8.3
-5 -6 -13 30.9 9.3
-11 5 -13 66.29 7.7
-5 -6 -13 45.2 7.1
-5 11 13 40.4 6.2
5 6 -13 50.29 9.9
-6 11 -13 56.99 6.7
6 5 13 10.2 19.5
6 -11 -13 33.3 9.7
-4 11 -13 87.49 9.6
-7 -4 -13 92.29 10.7
7 4 -13 80.39 10.2
4 -11 -13 103.69 11.2
7 -11 13 75.69 11.2
-7 11 13 67.99 9.8
-11 7 -13 91.79 10.8
7 -11 -13 68.29 11
-11 4 -13 65.59 9.9
-4 11 13 66.39 9.3
-7 11 -13 75.39 9.8
4 7 -13 80.09 10.8
-4 -7 -13 74.39 10.6
-4 -7 -13 56.69 10.1
-11 8 -13 -0.4 6
-11 8 -13 5.8 5.7
-8 -3 -13 1.3 6.8
-3 11 -13 14.2 5.1
-8 11 13 1.4 5.2
8 3 -13 2.9 6.7
8 -11 13 3.6 7.2
3 -11 -13 1.2 6.9
-3 11 13 1.2 5
-3 -8 -13 4.3 6
11 -3 -13 4.9 5.9
3 8 -13 1.5 7.7
-8 11 -13 -0.4 5.1
8 -11 -13 -8 8.8
-3 -8 -13 -6 8.1
-11 3 -13 6 5.4
2 -11 -13 70.79 8.8
9 2 -13 84.39 9.5
-9 -2 -13 71.19 8.8
-11 9 -13 73.79 9.7
-11 9 -13 61.89 8
-2 11 -13 71.59 8.5
9 -11 13 74.29 9.6
11 -9 13 79.99 9.7
9 -11 -13 46.8 10
-2 -9 -13 33.4 8
2 9 -13 49.5 7.9
-2 -9 -13 65.79 7.8
-2 11 13 52.29 6.6
-11 2 -13 62.29 9.6
11 -2 -13 61.89 10.9
-9 11 -13 65.69 7.3
10 1 -13 74.29 11.5
-11 10 -13 63.39 7.8
-10 -1 -13 67.49 10.2
1 -11 -13 68.59 8.4
10 -11 13 66.39 8.8
11 -10 13 40.7 7.9
-11 1 -13 50.69 7.2
-1 -10 -13 53.19 7.5
-10 11 -13 38.6 6.8
-1 11 13 40.3 5.8
11 -1 -13 60.89 8
11 -11 13 62.69 8.8
0 -11 -13 70.89 8.4
-11 11 -13 65.89 7.5
-11 0 -13 64.69 9.5
11 0 -13 64.19 11.3
6 6 -13 13.8 8.5
-6 12 -13 17.9 5.1
6 -12 -13 7.8 8.3
-12 6 -13 16.5 5.9
-6 12 13 13.5 5.1
-6 -6 -13 8.1 7.8
-12 7 -13 4.2 5.5
-5 12 -13 15 5
7 5 -13 6.2 7.5
7 -12 13 1.7 6.7
-7 12 13 12.3 5.3
5 -12 -13 4.8 7.5
-12 7 -13 19 6
-7 -5 -13 6.1 7.5
5 7 -13 1.4 7.9
-5 -7 -13 -2.1 7.7
-12 5 -13 9.1 5.4
-7 12 -13 12.8 5.1
-5 12 13 9.3 5.3
7 -12 -13 -5.3 8.1
-5 -7 -13 7.3 5.9
-12 8 -13 59.59 7.6
-12 8 -13 62.19 9.6
-8 -4 -13 59.19 8.6
8 -12 13 61.79 8.2
8 4 -13 60.89 9
-8 12 13 47 6.6
-4 12 -13 70.39 8.3
4 -12 -13 60.39 8.9
-4 -8 -13 58.89 9.3
4 8 -13 42 9.6
-4 12 13 60.29 8.9
8 -12 -13 40 9.9
-12 4 -13 65.59 9.6
-4 -8 -13 51.59 9.7
-8 12 -13 71.19 6.9
9 3 -13 95.49 13.2
-3 12 -13 96.09 8.8
-9 -3 -13 92.49 11.6
9 -12 13 84.79 11.8
3 -12 -13 86.09 11.5
-9 12 13 93.79 9.8
-12 9 -13 98.49 11.3
-12 9 -13 92.79 9.9
12 -9 13 77.29 9.4
-3 12 13 83.39 9.3
12 -3 -13 88.79 10.5
3 9 -13 79.49 10.3
-3 -9 -13 76.69 10.1
-9 12 -13 83.39 9.6
-12 3 -13 76.39 9.8
9 -12 -13 61.49 10.7
-3 -9 -13 57.39 9.7
2 -12 -13 43.1 7.8
-12 10 -13 43.1 6.9
-10 -2 -13 39.4 7
10 -12 13 25.8 7.5
-10 12 13 38.1 6.3
10 2 -13 35.2 7.5
10 -12 -13 22 8.2
-10 12 -13 30.9 5.7
-2 -10 -13 11.6 6.4
-12 2 -13 29.2 6
12 -2 -13 36.4 7
-2 -10 -13 29.7 6.4
-2 12 13 31.3 5.8
12 -10 13 17.2 7.4
1 -12 -13 49.8 7.5
11 1 -13 62.49 8.2
-12 11 -13 55.79 7.1
11 -12 13 47.3 8.1
-11 -1 -13 61.69 9.3
12 -1 -13 55.19 7.6
-12 1 -13 61.19 7.1
-11 12 -13 48.3 6.4
-1 12 13 39.5 5.9
12 -11 13 48 7.9
-1 -11 -13 49.2 7.2
0 -12 13 36.8 6
0 -12 -13 41.8 6.4
12 -12 13 42.6 7.6
12 0 -13 44.4 6.8
-12 12 -13 52.29 6.6
-12 0 -13 56.79 8.5
7 6 -13 -10.7 7.5
-13 7 -13 2.5 5.5
-6 13 -13 11.9 4.7
-13 7 -13 2.8 5.2
6 -13 -13 -1.4 6.8
-7 13 13 1.6 4.6
-7 -6 -13 -6.4 6.8
6 7 -13 -13.1 7.4
7 -13 -13 -15 7.2
-7 13 -13 4 4.5
-6 -7 -13 -7.9 6.9
-13 6 -13 1.9 5.5
-6 13 13 1.7 4.8
-8 13 13 23.5 5.5
-5 13 -13 34.4 5.3
-13 8 -13 24.2 6.4
8 5 -13 24.9 8.3
-8 -5 -13 32.1 7.4
5 -13 -13 21.6 7.1
-13 8 -13 32.3 6
8 -13 -13 11.5 8.4
5 8 -13 13.2 8.4
-5 -8 -13 24 8.6
13 -8 13 35.2 7.9
-13 5 -13 25.8 6.2
-5 13 13 22.3 5.3
-5 -8 -13 31 6.2
-8 13 -13 32.5 5.4
4 -13 -13 24.1 7.3
-4 13 -13 24.2 4.9
-9 -4 -13 12.9 6.2
-13 4 13 9.7 3.7
-13 9 -13 19.9 5.6
-13 9 -13 21.8 6.4
9 4 -13 26.1 7.4
-9 13 13 20.8 5.7
9 -13 13 14.1 6.8
4 9 -13 16.4 8.7
9 -13 -13 -5.4 7.9
13 -9 13 14.4 7.3
-9 13 -13 21.3 5.1
-4 13 13 17.8 5.3
-13 4 -13 16.1 5.6
-4 -9 -13 16.6 5.6
-4 -9 -13 9.8 7.4
4 9 -13 15.9 5
10 -13 13 24.2 7.3
-10 -3 -13 28.2 6.2
-10 13 13 30.9 5.6
-13 10 -13 30.3 6.3
3 -13 -13 31.6 6.7
10 3 -13 25.5 7
-13 3 -13 20.7 5.3
3 10 -13 16.8 7.3
-3 13 13 23.3 5.6
10 -13 -13 18.4 8.2
-3 -10 -13 12.6 6.9
-3 -10 -13 22.9 5.9
13 -10 13 15.1 7.1
3 10 -13 10.8 4.9
-10 13 -13 15.7 4.9
-11 13 13 24.7 5.6
2 -13 -13 23.4 6.2
11 2 -13 24 6.9
11 -13 13 21.5 7
-13 11 -13 22.2 6
-11 -2 -13 28.3 6.4
13 -2 -13 13.8 5.8
-2 13 13 13.4 5.3
-11 13 -13 15.5 4.9
-2 -11 -13 13.6 5.5
2 11 -13 -2.7 4.8
-13 2 -13 14.6 5.1
13 -11 13 14.4 7
11 -13 -13 6.1 6.5
1 -13 -13 9 5.6
12 1 -13 7.5 5.9
12 -13 13 0.7 6.2
-12 -1 -13 8.5 5
-12 13 13 0 4.4
-13 12 -13 4.3 4.9
13 -12 13 2.5 6.6
13 -1 -13 2.7 5.4
-1 -12 -13 5.4 5.1
1 -13 13 4.8 5.7
-12 13 -13 3.7 4.7
-1 13 13 4.7 4.5
-13 1 -13 4.5 4.7
13 0 -13 35.8 6.3
-13 13 13 32.7 5.3
-13 0 -13 32.4 5.6
13 -13 13 33.7 7.2
-13 13 -13 39.3 5.6
0 -13 -13 32.8 5.6
-7 14 13 3 4.7
7 -14 -13 -1.1 6.6
-14 7 -13 8.8 5.4
7 7 -13 -4.4 7.8
-7 14 -13 7.5 4.4
-7 -7 -13 -3.5 6.3
14 -7 13 7.4 7.3
-14 6 13 0.8 4.6
14 -6 13 12.5 7.4
-14 8 -13 3.9 5.1
8 6 -13 -5.1 7.1
-6 14 -13 8.2 4.4
-8 -6 -13 1.7 6.3
-8 14 13 4.7 4.7
-14 8 -13 6.1 5.3
6 -14 -13 2.7 6.2
14 -8 13 3.6 6.5
-6 -8 -13 3.6 6.7
-14 6 -13 5.4 5.1
-6 14 13 4.9 4.6
8 -14 -13 -3.6 6.8
-8 14 -13 9.7 4.3
6 8 -13 -12.3 7.6
-14 9 -13 0.2 5.2
-9 14 13 5 4.4
-9 -5 -13 -2.7 5.6
-14 5 13 2 3.5
5 -14 -13 2.4 6
-14 9 -13 1.6 4.9
9 -14 13 0.4 6.8
-5 14 -13 4.5 4.3
9 5 -13 -1.6 6.7
-9 14 -13 6.6 4.4
14 -9 13 10.5 7.2
-5 14 13 5.4 4.7
-5 -9 -13 6.9 4.8
9 -14 -13 -4.4 7.1
-14 5 -13 8.4 5.2
-5 -9 -13 9.4 6.7
5 9 -13 -5.6 8.1
-14 10 -13 35.6 6.1
-14 4 13 23.8 4.4
10 -14 13 27.2 6.6
10 4 -13 33.3 7.1
-10 14 13 38.7 5.9
-10 -4 -13 36.8 6.2
4 -14 -13 26.7 6.3
-4 -10 -13 13.1 4.8
-10 14 -13 17.3 4.6
-4 14 13 14.9 5
4 10 -13 14.4 4.7
10 -14 -13 12.5 7.4
-14 4 -13 11.9 4.9
4 10 -13 8.6 7.5
14 -10 13 11.7 7
-4 -10 -13 12.6 6.1
-14 11 -13 32.3 6
11 3 -13 35.6 6.7
-11 -3 -13 29.2 5.8
3 -14 -13 31.6 6.2
-11 14 13 34.5 5.6
11 -14 13 25.9 6.6
3 11 -13 3.2 9.8
3 -14 13 26.5 6.4
11 -14 -13 26.8 6.6
14 -11 13 29.8 7.2
3 11 -13 13.9 4.6
-11 14 -13 23.5 4.8
-3 -11 -13 27.7 5.3
-14 3 -13 31.9 5.5
-3 14 13 27.7 5.3
-3 -11 -13 14.8 5.2
-14 12 -13 15.6 5
12 2 -13 18 6.6
2 -14 -13 17.2 5.5
12 -14 13 10.4 6.2
-12 -2 -13 12.8 5.1
-12 14 13 9.4 4.6
-2 14 13 17 4.8
2 -14 13 18.1 6
-2 -12 -13 16.2 5.1
2 12 -13 -2.4 6
14 -2 -13 17.5 5.4
14 -12 13 22.4 6.8
-14 2 -13 17.1 4.6
-12 14 -13 24.7 4.8
1 -14 -13 13.9 4.8
13 1 -13 17.1 5.4
13 -14 13 13.5 6.4
-13 -1 -13 16 4.9
-14 13 -13 16.7 4.7
-13 14 13 18.2 4.6
1 -14 13 8.3 4.5
-1 -13 -13 10.5 4.9
-13 14 -13 13.5 4.3
-14 13 13 5.9 4.2
-1 14 13 7.6 3.9
-14 1 -13 7.9 4.3
14 -13 13 8.5 6.1
14 -1 -13 5.5 5.1
-14 14 13 6.9 4
14 -14 13 6.6 6
14 0 -13 4.6 4.9
-14 14 -13 5.7 4.2
0 -14 -13 5.4 3.8
-14 0 -13 7.2 3.8
7 -15 -13 0.1 5.8
-15 8 -13 2.7 6
-15 8 -13 4.1 4.6
-7 15 -13 6.3 4.1
15 -7 13 9.9 7.1
8 7 -13 -9.9 7
-8 15 13 2.6 4.4
-8 -7 -13 -0.3 5.6
-8 15 -13 9.8 4.1
-7 15 13 2.1 4.3
-15 7 -13 11.2 4.9
8 -15 -13 5.1 6
-7 -8 -13 7.9 5.8
15 -8 13 13.5 7.2
7 8 -13 -3.6 7.7
-15 9 -13 12.4 4.6
-15 9 -13 18.6 4.8
9 6 -13 8.6 7.4
6 -15 -13 19.8 6
-9 15 13 17.5 4.8
15 -6 13 15.3 6.8
-9 -6 -13 14.7 5.8
-6 15 -13 18.5 4.4
-9 15 -13 13.7 4.3
9 -15 -13 10.7 6.2
-6 15 13 10.6 4.7
15 -9 13 14.1 6.8
-6 -9 -13 6.9 5.5
6 9 -13 5.2 7.9
-15 6 -13 10.8 4.7
-10 15 13 24 4.9
-15 5 13 12 3.3
-10 -5 -13 16.5 5.2
-15 10 -13 19.9 5.2
10 5 -13 19.1 6.5
5 -15 -13 22.1 6
15 -5 13 25.3 6.2
-15 5 -13 13.3 5
-10 15 -13 20.3 4.4
15 -10 13 19.5 7.1
-5 -10 -13 17.5 6.2
5 10 -13 11.6 7.4
-5 15 13 11.7 4.8
10 -15 -13 15.6 6.6
-15 4 13 3 3.3
-11 -4 -13 6.1 4.7
11 -15 13 -3.3 4.7
11 4 -13 -1.1 5.7
15 -4 13 6.5 7.6
-11 15 13 3 4.1
4 -15 -13 4.1 5.1
-15 11 -13 -0.5 4.8
-4 15 13 5.6 4.4
-4 -11 -13 9.4 5
4 11 -13 5.2 4.1
-11 15 -13 8.9 4
15 -11 13 1.2 6.5
11 -15 -13 9.1 5.9
-15 4 -13 4.7 4.4
4 11 -13 2.8 5.4
4 -15 13 4.6 5.4
-12 15 13 1.6 4.1
12 -15 13 -1.2 5.4
-15 12 -13 5.4 4.6
12 3 -13 4.3 5.6
3 -15 -13 0.2 4.7
-12 -3 -13 8.3 4.5
-15 3 13 3.5 3.4
-3 15 13 8.2 4.6
15 -12 13 2.7 6.1
3 12 -13 -2.8 3.7
-12 15 -13 6.6 4.2
-15 3 -13 5.6 4.2
3 -15 13 2 5.5
-15 2 13 6.9 3.1
13 -15 13 1.3 5.6
-13 -2 -13 8.2 4.3
-15 13 -13 9.4 4.4
2 -15 -13 4 4.5
13 2 -13 1 4.8
-13 15 13 2.5 4.1
15 -13 13 6.3 5.9
-13 15 -13 7.6 4.1
2 -15 13 2 4.5
-2 15 13 8.4 3.8
-15 2 -13 5.4 4
14 1 -13 -3.3 4.3
14 -15 13 -1.3 5.4
-15 14 -13 -1.4 3.9
-14 15 13 -3 3.9
-14 -1 -13 3.2 4
1 -15 -13 -1.2 3
15 -14 13 -3.2 5.7
-15 14 13 2 4.1
-1 15 13 -0.8 5.9
-14 15 -13 0.7 3.7
-15 1 -13 3.8 3.5
-8 -8 13 -0.1 2.9
8 -16 -13 -1.2 5.4
8 8 -13 -5.6 7.3
-8 -8 -13 3.3 5.1
-8 16 -13 -1.8 3.7
-8 16 13 1.4 4.4
16 -8 13 8.3 6.4
-7 16 -13 5.5 4
7 -16 -13 5.9 5.4
-16 9 -13 1.2 4
-9 16 13 4.1 4.2
-9 -7 -13 10.2 5.1
16 -7 13 6.8 5.6
9 7 -13 7 6.9
9 -16 -13 4.1 5.4
-9 16 -13 2.2 3.8
-7 16 13 5 4.4
-7 -9 -13 4.5 5.1
7 9 -13 1.9 7.2
16 -9 13 8 6.7
-10 16 13 30.5 4.8
-10 -6 -13 30.1 5.5
-16 10 -13 23.8 4.1
6 -16 -13 33.8 5.9
10 6 -13 33.7 7.1
10 -16 -13 35.5 6
16 -10 13 37.8 7.2
-10 16 -13 48.8 5.1
6 -16 13 36.7 6.6
-6 16 13 31.1 5
-6 -10 -13 36.9 5.8
6 10 -13 49.3 8.5
-11 16 13 3.3 4.2
-11 -5 -13 3.1 4.3
-16 11 -13 7.5 4
5 -16 -13 6 5.1
11 5 -13 -2.1 5.8
-16 5 13 1.2 2.8
11 -16 -13 3.4 4.9
5 -16 13 3.3 5.5
16 -11 13 -2.8 6.7
-16 5 -13 -6.4 3.3
-5 16 13 1.6 4.2
5 11 -13 1.5 5.6
-11 16 -13 -0.9 3.8
-5 -11 -13 9.8 4.4
-16 12 -13 23.7 4.4
12 4 -13 21.6 6
-12 16 13 19.2 4.5
-12 -4 -13 18.7 4.6
4 -16 -13 23.3 5
16 -12 13 25.2 6.4
4 -16 13 22.5 5.4
-12 16 -13 25.1 4.2
-4 16 13 20.7 4.6
-16 13 -13 7.6 4
-13 16 13 11 4.2
-16 3 13 4 2.4
13 3 -13 5.2 5.2
3 -16 -13 7.7 4
-13 -3 -13 8.1 4.2
13 -16 13 -4.7 3.8
3 -16 13 14.6 4.8
16 -13 13 16.8 6.5
-13 16 -13 19.1 4
-3 16 13 11.3 3.8
-8 17 -13 4.6 3.9
8 -17 -13 6.8 5
9 8 -13 2.5 6.5
-9 17 13 0.3 4.4
9 -17 13 4.5 5.4
-9 -8 -13 2.4 4.6
-8 17 13 5.2 4.3
17 -9 13 -0.1 4.5
8 9 -13 3.3 7
8 -17 13 7.4 5.3
9 -17 -13 2.9 5
-9 17 -13 0.7 3.7
-8 -9 -13 5.8 4.6
7 -17 -13 10.4 4.6
-10 17 13 9.7 4.3
-7 -10 13 0.3 2.2
10 7 -13 4.7 6.2
-10 -7 -13 6.5 4.4
-7 17 13 1.6 4.2
7 -17 13 3.9 5.5
10 -17 -13 5.8 5.2
17 -10 13 -1.1 5.3
7 10 -13 11 6.9
-7 -10 -13 5.8 4.7
-10 17 -13 5.6 3.6
6 -17 -13 11.9 4.8
-17 11 -13 -0.1 3.8
-11 17 13 6.5 4.1
-11 -6 -13 12 4.5
11 6 -13 9.2 6.2
-6 -11 -13 7.1 3.6
6 -17 13 3.9 5.4
11 -17 -13 12.1 4.5
-6 17 13 5.8 4.3
-11 17 -13 6.9 3.7
17 -11 13 6.9 5.7
1 0 14 5.1 9.1
1 -1 -14 32.7 6.3
0 1 14 9.2 9.5
2 -1 14 0.2 8.8
1 1 14 5 8.7
-2 1 -14 0.8 5.2
-2 2 -14 60.09 7
2 0 14 68.69 11.5
2 -2 -14 68.49 9.8
-3 2 -14 46.2 7.4
1 2 14 24.2 10.1
3 -1 14 31.6 10.5
-1 3 14 5.5 12.7
2 1 14 25.9 10.2
-2 3 -14 34.7 6
3 -2 14 10.8 9.2
-3 1 -14 45.3 6.9
3 -3 14 5.7 16.5
-3 0 -14 10.5 6.3
0 3 14 4 10.6
0 -3 -14 22.6 6.7
3 -3 -14 -4.2 5.7
-3 3 -14 18.1 6.3
3 0 14 9.6 9.1
2 -4 -14 26.5 7.3
-2 -2 -14 4.2 5.5
2 2 14 2.5 9.4
2 2 14 -0.2 19.7
-2 4 -14 11.6 5.1
4 -2 14 2.2 9.5
-2 4 14 6.4 10.1
-4 2 -14 20.3 6.5
4 -1 14 34.9 11.1
-3 4 14 9.3 17.9
-4 3 -14 50.59 7.7
-3 -1 -14 46.1 7.7
3 -4 -14 53.39 8.2
-1 -3 -14 75.19 11.2
-3 4 -14 76.49 10.2
-4 1 -14 53.09 8.1
-4 4 -14 20.4 6.3
0 -4 -14 18.1 6.7
4 -4 14 5.6 15.8
-4 0 -14 9.6 6.7
4 0 14 -0.1 9.3
0 4 14 0.5 9.9
4 -4 -14 -2.1 5.7
2 -5 -14 34.7 7.8
-3 -2 -14 31.4 6.7
-3 5 14 5.7 9.6
-5 3 -14 15.9 6.8
-3 -2 -14 19.8 7.3
2 3 14 -1 10.1
5 -2 14 14.7 10
3 2 14 11.5 9.6
3 -5 -14 35.1 7.8
5 -3 14 6.3 9.4
-5 2 -14 27.4 6.7
-2 5 14 5.5 10
-2 -3 -14 37 7
-3 5 -14 61.89 8.7
1 -5 -14 78.99 11.9
5 -1 14 35.8 11
-5 4 -14 80.79 11.5
-4 -1 -14 56.09 8.4
4 -5 -14 60.49 8.6
-5 1 -14 48.8 7.6
4 1 14 22.9 10.1
1 4 -14 52.69 7.8
-1 -4 -14 82.09 11.1
0 5 14 5.2 10
0 -5 -14 17 6.7
-5 0 -14 12.3 6.7
5 0 14 5.6 10.1
-5 5 -14 18.5 6.1
5 -5 -14 -3.3 5.9
-3 -3 -14 44.5 8.6
3 3 14 19.1 9.5
6 -3 14 14.1 9.7
3 3 14 -2.4 11.3
-3 6 14 4.4 10
2 4 14 -0.8 10.6
-4 6 14 5.8 10.5
2 -6 -14 14.6 7.4
6 -2 14 -3.4 9.8
-6 4 -14 13 6.3
-4 -2 -14 8.4 7.5
6 -4 14 2.7 9.7
-2 -4 -14 20.5 6.5
-2 -4 -14 6.3 6.1
2 4 -14 21.2 7.6
4 2 14 5.1 9.7
-2 6 14 2.8 9.7
4 -6 -14 12.5 7.4
-6 2 -14 8.2 6.1
1 5 14 0.8 9.9
-5 -1 -14 14.9 7.5
-6 5 -14 24.6 6.5
1 -6 -14 22.3 7.2
6 -1 14 5.2 9.8
6 -5 14 2.9 17.5
5 -6 -14 18.8 7.6
-6 1 -14 20.4 7
5 1 14 0.3 9.2
-1 6 14 1.2 9.8
-5 6 -14 22.3 5.8
1 5 -14 11.6 6.8
-1 -5 -14 19.4 6.8
0 6 14 1.4 10.1
-6 6 -14 19.3 6.1
-6 0 -14 5.6 6.4
0 -6 -14 11.1 6.5
6 -6 -14 -0.3 6.8
6 0 14 3.6 9.7
7 -3 14 12.2 10
-7 4 -14 75.79 11
-4 -3 -14 42.6 9
3 -7 -14 71.09 9.5
3 4 -14 92.29 13.3
-3 -4 -14 74.59 10.6
-7 3 -14 59.19 7.9
-3 -4 -14 54.49 9.5
4 -7 -14 60.19 9.6
2 5 14 -1.4 10.4
-5 -2 -14 8.2 7.7
-7 5 -14 17.2 6.2
2 -7 -14 17.7 7.4
7 -2 14 2.7 9.7
-5 7 14 4 3.6
-5 7 14 5.9 12.1
-2 7 14 3.5 9.9
-2 -5 -14 13.6 6.3
5 -7 -14 17.8 8.2
5 2 14 2.1 9.2
2 5 -14 15.6 7.6
-7 2 -14 7.2 6.1
-2 -5 -14 5 6.4
7 -5 14 2.4 11.3
-6 -1 -14 87.09 10.2
-7 6 -14 83.39 10.9
6 1 -14 94.29 11.9
1 -7 -14 86.09 9.7
-7 1 -14 73.29 10.9
6 -7 -14 84.89 12.9
1 6 -14 43.8 7.3
-7 0 -14 46.2 8
0 -7 -14 51.39 8.2
-7 7 -14 73.89 9.5
8 -4 14 2.8 11.5
-4 -4 -14 15.3 6.1
4 4 -14 15.4 7.4
4 4 14 9.6 12.2
-4 -4 -14 7.4 8.2
4 -8 -14 17 8.2
-4 8 14 7.1 17.2
-8 4 -14 19.5 6.5
-4 8 -14 0.2 4.1
-4 8 14 3.8 3.7
5 3 -14 22.3 7.3
-3 8 -14 3.6 4
-5 8 14 6.4 4.2
3 -8 -14 27.9 8.2
-5 -3 -14 8.1 8
-8 5 -14 24.2 6.6
8 -3 14 2.6 11.4
-3 -5 -14 15.7 6.1
5 -8 -14 14.8 8.9
-3 8 14 4.9 12.3
3 5 -14 21.8 7.6
-8 3 -14 15.2 6.2
-5 8 -14 2.2 4.2
-3 -5 -14 10.2 8
6 2 -14 50.69 8.1
-6 8 14 24.6 5.5
-6 -2 -14 31.4 8.2
2 -8 -14 41.8 8.3
-8 6 -14 37.3 6.8
-2 -6 -14 40.1 7.2
-8 2 -14 37.4 7.1
6 -8 -14 39.2 9.5
2 6 -14 34.1 8.2
-8 7 -14 25 6.2
-7 -1 -14 9.4 7.1
1 -8 -14 12.3 6.6
7 1 -14 29.2 7.3
8 -1 -14 25.4 6.7
-7 8 -14 0.7 4.7
-8 1 -14 17.6 6.5
7 -8 -14 8.8 7.4
-1 -7 -14 17.5 6.3
1 7 -14 -5.6 5.4
-8 0 -14 25.1 7
8 0 -14 45.4 7.8
0 -8 -14 28.7 7.3
-8 8 -14 29.5 5.9
4 -9 -14 5.6 7.8
-9 5 -14 6.6 5.9
5 4 -14 8.7 7.7
-5 9 14 2.2 4.8
-5 -4 -14 2.2 7.8
-4 9 -14 12.7 4.8
-4 -5 -14 -4.3 7.8
-4 -5 -14 8 5.8
-9 4 -14 8.4 5.8
-5 9 -14 7.8 5
5 -9 -14 -1 8.4
4 5 -14 8.6 7.6
-4 9 14 0.5 3.8
-6 9 14 1.5 4.8
3 -9 -14 8.3 7.3
-6 -3 -14 6.7 7.7
6 -9 14 10.5 6.7
-9 6 -14 18 6.1
6 3 -14 13.6 7.4
-3 9 -14 19.8 4.9
-3 -6 -14 1.4 7.6
-9 3 -14 3.1 5.6
3 6 -14 13.5 8
-6 9 -14 17.5 5.3
-3 9 14 0.7 3.5
6 -9 -14 1.5 8.9
-3 -6 -14 8.4 5.9
-9 7 -14 28.7 6.4
-2 9 -14 29.9 5
2 -9 -14 17.9 7.2
7 -9 14 15.6 7.5
-7 9 14 7.6 5
-7 -2 -14 9.5 7.2
7 2 -14 26.5 7.7
-2 -7 -14 18.1 6.1
2 7 -14 10.8 6.9
7 -9 -14 6.9 8.7
-7 9 -14 20.1 5.5
-9 2 -14 17.5 5.9
-2 -7 -14 5.1 6.5
-8 -1 -14 27.7 7
1 -9 -14 27.6 7.2
-9 8 -14 29.5 6
8 1 -14 43.3 8.1
8 -9 14 25.7 7.8
-1 -8 -14 31.8 7.1
-8 9 -14 30.5 5.9
9 -1 -14 33 6.8
-9 1 -14 21.7 6.4
-9 9 -14 17.3 5.6
0 -9 -14 23.8 6.8
-9 0 -14 16.5 6.3
9 -9 14 12.5 7.2
9 0 -14 29.1 7.2
-10 5 -14 2.8 6
-5 -5 -14 -6.1 7.7
-5 10 14 -3.1 4.4
5 -10 -14 -12.4 7.7
5 5 -14 7.7 7.9
-5 10 -14 7.3 5
-6 10 14 10.7 5.1
-6 -4 -14 9.7 7.7
6 4 -14 13.9 7.7
-10 6 -14 20.1 6
6 -10 14 3.6 6.1
-4 10 -14 22.7 5.1
4 -10 -14 7.8 7.8
6 -10 -14 0.5 8.7
-10 4 -14 15.4 6
-6 10 -14 13.5 5.2
-4 10 14 7.9 4.7
4 6 -14 8.8 8.2
-4 -6 -14 4.6 8
-4 -6 -14 8.9 5.7
7 -10 14 33.1 7.2
-7 10 14 30.9 5.7
3 -10 -14 40.1 8.5
-10 7 -14 39.4 6.4
-3 10 -14 41 5.7
-7 -3 -14 46.5 8.5
7 3 -14 50.69 8.5
3 7 -14 23.1 8.3
-3 -7 -14 32.7 6.5
7 -10 -14 19.7 9.5
-3 -7 -14 16.9 7.7
-10 3 -14 29.1 6.2
-7 10 -14 32.3 6
-8 10 14 5.3 4.7
-10 8 -14 17.5 5.3
8 2 -14 16.2 6.9
8 -10 14 2.5 6.7
2 -10 -14 11.1 6.7
-8 -2 -14 7.3 6.6
-10 8 -14 0.6 6
-10 2 -14 13.8 5.3
2 8 -14 2.4 6
-8 10 -14 12.4 5.6
8 -10 -14 -3.6 8.2
-2 -8 -14 5.8 5.8
9 1 -14 31.7 7.4
1 -10 -14 21.2 6.3
-9 -1 -14 19.8 6.4
-10 9 -14 14.7 5.6
9 -10 14 12.8 6.9
-9 10 14 13.8 5
-1 -9 -14 17.5 6
10 -9 14 9.5 7
-10 1 -14 15.3 5.7
10 -1 -14 23 6.2
-9 10 -14 11.9 5.7
-10 10 -14 12.4 5.7
10 0 -14 24.8 6.8
-10 0 -14 22.5 6
0 -10 -14 19.2 6.1
10 -10 14 13.5 6.9
-6 11 14 12.8 4.8
-11 6 -14 33.4 6.3
-6 -5 -14 7.9 7.4
6 5 -14 14.8 7.9
-5 11 -14 20.4 5.1
5 -11 -14 12.9 8.1
-5 11 14 12 4.9
6 -11 -14 -4.5 7.9
5 6 -14 5.1 8
-6 11 -14 15.3 5.2
-11 5 -14 19.9 6
-5 -6 -14 1.7 7.6
-4 11 -14 6.3 4.6
-7 -4 -14 -1.5 6.7
4 -11 -14 -7.8 6.6
-7 11 14 -0.4 4.6
-11 7 -14 2.6 5.1
7 4 -14 -4 7.2
7 -11 14 1.8 5.1
-4 11 14 -0.8 4.4
-11 4 -14 8.6 5.4
-4 -7 -14 -5.1 7.2
-4 -7 -14 7.6 5.8
-7 11 -14 4.3 4.7
4 7 -14 -3.1 7.7
7 -11 -14 -10.8 8.2
8 3 -14 43.7 8.3
-8 11 14 32.5 5.9
3 -11 -14 43.4 8
-8 -3 -14 40.2 7.3
8 -11 14 35 7.1
-3 11 -14 55.59 7.5
-11 8 -14 42 6.1
-3 -8 -14 16.8 7.3
8 -11 -14 15.9 8.8
3 8 -14 24.9 8.2
-3 -8 -14 22.6 5.8
11 -8 14 23.2 7.2
-3 11 14 16.1 4.4
-8 11 -14 30.7 5.7
-11 3 -14 39.4 6.2
2 -11 -14 35.3 6.8
-11 9 -14 24.2 5.8
9 -11 14 19.8 7
-9 -2 -14 27.8 6.6
9 2 -14 31.6 7.4
-9 11 14 14.8 4.8
-11 2 -14 23 5.7
-9 11 -14 19.4 5.6
11 -9 14 13.6 6.7
-2 -9 -14 21.2 5.7
9 -11 -14 18.6 7.5
10 1 -14 6.2 6.3
-11 10 -14 0.4 5.4
1 -11 -14 3.6 5.9
-10 11 14 2.1 4.3
10 -11 14 2.1 6.6
-10 -1 -14 3.4 5.4
-10 11 -14 3.5 5.2
-1 -10 -14 6.9 5.2
11 -1 -14 4.2 5.5
-11 1 -14 7 5.1
11 -10 14 -5.9 6.3
0 -11 -14 3.3 5.2
-11 11 14 -5.2 4.2
11 0 -14 -1.2 5.6
-11 11 -14 -0.4 4.9
-11 0 -14 0.3 4.8
11 -11 14 -2.1 6.2
6 6 -14 -4.2 7.7
-6 -6 -14 5.2 6.9
6 -12 -14 2 7.3
-12 6 -14 10.2 5.2
-6 12 14 5.7 4.6
-6 12 -14 9 4.6
-5 12 -14 38.4 5.5
-7 -5 -14 30.6 7.3
-12 7 -14 37 5.8
7 5 -14 21.8 8.1
5 -12 -14 28.2 8.2
-7 12 14 20.1 5.1
-5 -7 -14 19.9 7.5
-7 12 -14 36.2 5.3
7 -12 -14 11.1 8.1
-5 12 14 19.8 4.5
-12 5 -14 24.5 5.8
5 7 -14 14.6 8.7
4 -12 -14 47 7.7
-4 12 -14 53.29 5.7
8 4 -14 48.8 8.5
-8 -4 -14 36.4 7.1
-12 8 -14 46.3 6.1
-8 12 14 34.7 5.2
-4 -8 -14 28.5 5.7
-4 12 14 20.8 4.9
12 -8 14 26.8 7.2
-8 12 -14 27.4 5.2
8 -12 -14 14 8.7
-4 -8 -14 11.8 6.8
-12 4 -14 35.2 6
4 8 -14 19.8 8.3
-9 -3 -14 0.4 5.7
9 3 -14 -4.6 6.4
-12 9 -14 0.4 5.1
9 -12 14 1.4 5.7
-9 12 14 1.1 4.4
3 -12 -14 2 5.8
12 -9 14 -0.1 6.2
-12 3 -14 2.8 4.5
9 -12 -14 -2.8 7.3
-3 12 14 -1.6 3.7
-9 12 -14 4.7 4.9
-3 -9 -14 5.8 5.9
3 9 -14 -6.7 6
-3 -9 -14 1.6 4.9
-10 12 14 15.7 4.5
10 -12 14 15.6 6.7
-10 -2 -14 24.2 5.8
-12 10 -14 18.5 5.2
2 -12 -14 22.9 5.9
10 2 -14 27.8 6.9
-10 12 -14 11.7 5.1
12 -10 14 -0.1 6.3
-2 -10 -14 7.3 4.9
-12 2 -14 9 5
-11 -1 -14 14.5 5
11 1 -14 15.8 5.8
-11 12 14 12.9 4.2
11 -12 14 9.3 6.2
-12 11 -14 19.7 5.4
1 -12 -14 16.1 5.4
-1 -11 -14 11.8 5
1 -12 14 5.5 4.5
-12 1 -14 17.6 4.9
-11 12 -14 11.6 5
12 -11 14 9.5 6.2
0 -12 -14 0.7 4.6
12 0 -14 -1.9 5.4
-12 12 14 -5 3.7
-12 12 -14 -1.6 4.6
12 -12 14 -3.8 5.5
-12 0 -14 1.9 4.4
-7 -6 -14 8.2 6.1
-7 13 14 8.2 4.4
-6 13 -14 14.3 4.7
13 -6 14 19.6 7.2
6 -13 -14 3.7 6.7
7 6 -14 -3.5 7.8
-13 7 -14 21 5.3
6 7 -14 -10.7 7.6
7 -13 -14 -5.7 6.8
13 -7 14 10.5 6.4
-6 -7 -14 1.1 5.9
-6 13 14 -1.4 4.1
-13 6 -14 8 4.7
-7 13 -14 4.5 4.2
8 5 -14 -9.4 6.9
-8 -5 -14 1.3 5.8
5 -13 -14 -0.1 6.1
-8 13 14 -1.7 4.2
-5 13 -14 5.3 4.2
-13 8 -14 4.2 4.5
-13 5 -14 4 4.9
13 -8 14 0.3 6.2
-5 13 14 1.5 4.4
5 8 -14 -8.7 7.8
-8 13 -14 3.9 4.2
-5 -8 -14 1 6.1
8 -13 -14 -11.4 6.7
9 4 -14 77.99 12.2
-9 -4 -14 110.69 10.1
-9 13 14 88.09 7.8
4 -13 -14 94.79 10.5
-13 4 -14 67.69 8.2
9 -13 -14 69.29 9.2
4 9 -14 71.09 8.6
-9 13 -14 78.09 7.8
-4 -9 -14 65.09 7.7
-4 -9 -14 61.79 8.9
-4 13 14 61.39 7.3
13 -9 14 66.09 10
-10 -3 -14 19 5.3
-13 10 -14 9.3 4.4
10 3 -14 21.6 6.6
3 -13 -14 23 5.8
-10 13 14 17.7 4.4
10 -13 14 18.4 5.3
-13 3 -14 15.8 4.9
-3 13 14 1.9 3.2
13 -10 14 10 6.4
-10 13 -14 9.5 4.4
10 -13 -14 6.4 5.7
-3 -10 -14 10.1 4.9
-13 11 -14 -4.7 4.3
2 -13 -14 -3.6 4.8
-11 -2 -14 2.3 4.6
11 2 -14 -1.7 5.9
11 -13 14 -3.1 5.6
-11 13 14 -5.5 3.8
-2 -11 -14 0.7 4.4
-11 13 -14 3.7 4.5
2 -13 14 -1.5 4.1
13 -11 14 -6.7 6
-13 2 -14 -1 4.1
12 1 -14 14.4 5.9
-12 -1 -14 15.2 4.5
12 -13 14 13.8 5.9
-13 12 -14 24.3 4.7
-12 13 14 15.4 4.3
1 -13 -14 21.7 4.9
-12 13 -14 10.4 4.5
-1 -12 -14 4 4.3
13 -12 14 7.8 5.8
-13 1 -14 10.9 4.4
-13 12 14 2.2 3.8
-13 13 -14 -0.6 4.1
-13 0 -14 1.3 4
0 -13 -14 -0.5 4.1
13 -13 14 -0.1 5.3
-13 13 14 -3.3 3.5
-14 7 -14 0.9 4.2
-7 -7 -14 -1.4 5.2
-7 14 14 3.8 3.9
14 -7 14 2.7 5.9
7 -14 -14 -5.5 6
-7 14 -14 1.6 4.2
8 6 -14 22.5 8.3
-14 8 -14 27 4.8
14 -6 14 29.5 6.7
-8 14 14 30.5 4.7
-6 14 -14 36.5 4.9
6 -14 -14 27.4 6.4
-8 -6 -14 25.3 5.8
14 -8 14 35.3 7
8 -14 -14 32.3 7
-8 14 -14 30.8 4.7
-14 6 -14 34.2 5.2
6 8 -14 26.8 9.2
-6 -8 -14 24.1 6.1
-6 14 14 22.2 4.5
9 5 -14 51.29 8.3
-9 14 14 35.2 4.9
-9 -5 -14 46.6 6.1
14 -5 14 41.2 7.1
5 -14 -14 45.8 6.4
5 9 -14 36.5 7.8
-5 14 14 27.1 4.7
9 -14 -14 29.5 6.9
-9 14 -14 38.6 5.1
-14 5 -14 35.4 5.3
-5 -9 -14 25.4 5.4
14 -9 14 40.3 6.8
4 -14 -14 27.6 5.7
-10 -4 -14 33.3 5.5
-10 14 14 22.8 4.5
14 -4 14 33.2 5.7
10 4 -14 28.7 7.2
10 -14 -14 18.8 5.5
14 -10 14 29.5 6.6
-4 14 14 21.1 3.7
4 -14 14 26.1 5.7
-14 4 -14 37.7 5.2
-10 14 -14 35.8 4.6
-11 14 14 8 3.8
-14 11 -14 -0.4 3.7
3 -14 -14 13.5 5.1
11 -14 14 -1 5.2
-11 -3 -14 10.5 4.7
11 3 -14 15.3 6.5
-3 14 14 -0.9 4.4
14 -11 14 4.7 6
-14 3 -14 7.1 4.7
-11 14 -14 2.9 4.2
3 -14 14 9.2 4.6
12 2 -14 11.5 5.3
-14 12 -14 8.7 3.4
2 -14 -14 18.8 4.8
-12 14 14 15 4
-12 -2 -14 19.9 4.4
12 -14 14 10.5 4.4
-14 12 14 13.4 4.1
14 -12 14 15 6.2
-14 2 -14 13.3 4.4
-12 14 -14 13.2 4.3
-13 -1 -14 14 3.6
1 -14 -14 12.3 4
-14 13 -14 7.4 3.3
13 1 -14 7.1 5
13 -14 14 12.7 4.9
-13 14 14 10 3.2
-13 14 -14 20.2 4.1
-14 1 -14 12.5 3.8
-14 13 14 14.3 3.9
14 -13 14 19.1 6
-8 -7 -14 22.7 5.6
7 -15 -14 19.7 5.1
15 -7 14 20.9 6.4
8 7 -14 11.6 7.9
-7 15 -14 25.2 4.5
-8 15 14 15.9 4.2
-7 15 14 23.3 4.3
-7 -8 -14 26.8 5.6
8 -15 -14 25.5 6.4
7 8 -14 23 8.7
-15 7 -14 19.2 4.1
-8 15 -14 31 4.7
15 -8 14 34.9 7
-9 -6 -14 13 5.2
6 -15 -14 7.6 5.3
15 -6 14 8.7 5.3
9 6 -14 4.6 7.6
-9 15 14 9.4 4
9 -15 -14 12 6
-6 -9 -14 9.2 4.4
6 9 -14 10.5 6.3
-15 6 -14 7.3 3.8
15 -9 14 14 6.1
-6 15 14 7.3 3.6
-9 15 -14 9.8 4
5 -15 -14 49.9 7.8
10 5 -14 49.6 7.7
-10 -5 -14 56.89 7.6
-10 15 14 49.8 6.5
5 -15 14 54.99 7.6
-5 15 14 29 3.9
-15 5 -14 39 5.9
-10 15 -14 53.89 6.6
-11 15 14 35.9 4.5
11 4 -14 38.8 7.2
4 -15 -14 35.5 5.4
-11 -4 -14 32.1 4.9
-11 15 -14 23.2 4.3
-4 15 14 -1.8 5
15 -11 14 27.3 6.4
-15 4 -14 12.2 3.6
4 -15 14 19.6 4.5
-2 1 -15 -5.9 5.1
-2 0 -15 -7.9 5.3
-2 2 -15 -5.9 4.8
1 -3 -15 13.6 6.6
-3 2 -15 13.6 6
-2 -1 -15 -7.6 5.4
-3 1 -15 22 6.6
2 -3 -15 21.7 6.7
-3 0 -15 14.9 6.5
0 -3 -15 28.9 6.7
-2 -2 -15 -3.9 6.5
-4 2 -15 23 6.5
2 -4 -15 14.3 6.6
1 -4 -15 112.09 11.9
-4 3 -15 129.39 11.4
-3 -1 -15 90.89 11.5
-1 -3 -15 127.49 11.2
3 -4 -15 119.29 12.1
-3 4 -15 122.39 10.1
-4 1 -15 136.99 12.7
0 -4 -15 74.99 10.6
-4 4 -15 94.09 9.9
-5 3 -15 85.09 11.1
2 -5 -15 86.19 11.9
3 -5 -15 60.99 8.8
-5 2 -15 77.59 11.2
1 -5 -15 79.69 11.3
-4 -1 -15 52.29 8.5
-5 4 -15 85.79 10.2
-1 -4 -15 71.09 10
4 -5 -15 46.7 7.9
-5 1 -15 51.19 7.9
-5 0 -15 78.99 11.9
0 -5 -15 84.39 11.3
-5 5 -15 104.99 9.7
-3 -3 -15 3.1 6.1
-6 3 -15 11.2 6.2
3 -6 -15 11.1 7.1
-6 4 -15 183.38 13.3
2 -6 -15 184.68 14.6
-4 -2 -15 176.68 14.5
-2 -4 -15 161.68 12.7
-6 2 -15 171.68 13.8
4 -6 -15 185.88 14.7
1 -6 -15 71.19 11.2
-6 5 -15 83.09 9.7
-5 -1 -15 64.09 8.8
-6 1 -15 74.59 10.9
5 -6 -15 58.79 8.3
-1 -5 -15 70.59 10.3
-6 6 -15 23.9 5.4
0 -6 -15 20.9 6.5
-6 0 -15 24.3 7
-7 4 -15 128.19 11.6
-4 -3 -15 101.89 13.2
3 -7 -15 115.29 13.4
-3 -4 -15 79.09 11.1
-7 3 -15 125.79 11.7
4 -7 -15 117.19 13.4
-5 -2 -15 22.6 7.5
-7 5 -15 39.4 6.4
2 -7 -15 26.8 7.3
-2 -5 -15 33.8 6.5
5 -7 -15 36 8.4
-7 2 -15 37.6 7.1
-7 6 -15 238.68 14.1
-6 -1 -15 247.78 16.1
1 -7 -15 225.18 15.7
-1 -6 -15 221.68 14.5
-7 1 -15 247.88 15.5
0 -7 -15 48.4 7.3
-7 0 -15 47.4 7.8
4 4 -15 11.1 7.1
-4 -4 -15 9 7
4 -8 -15 12.9 7.5
-8 4 -15 13.7 6
-8 5 -15 113.49 10.7
5 3 -15 132.29 13
3 -8 -15 109.99 13.3
-5 -3 -15 117.79 13.2
3 5 -15 129.09 13.3
5 -8 -15 129.69 14.3
-8 3 -15 134.89 11.6
2 -8 -15 74.19 11.5
6 -8 15 62.09 9.8
6 2 -15 92.39 11.1
-8 6 -15 78.39 8.8
-6 -2 -15 77.69 9.4
6 -8 -15 70.39 9.4
-2 -6 -15 69.09 9.4
-8 2 -15 72.09 10.2
-7 -1 -15 83.89 11
1 -8 -15 70.39 10.1
7 -8 15 67.29 8.3
-8 7 -15 81.59 8.3
-1 -7 -15 73.29 9.7
-8 1 -15 72.29 10
-8 0 -15 91.89 10.3
8 -8 15 78.39 10.6
-8 8 15 62.49 6.9
0 -8 -15 75.59 10
4 -9 -15 63.79 9.1
-5 -4 -15 56.29 8.7
-9 5 -15 64.19 8.8
5 4 -15 68.99 9.3
-4 -5 -15 68.19 9
-9 4 -15 67.69 9.4
5 -9 -15 70.29 10.1
4 5 -15 73.79 9.7
-6 -3 -15 -4.8 6.3
-9 6 -15 4.3 4.9
6 -9 15 2.9 5.1
3 -9 -15 -0.9 6.6
-6 9 15 1.7 3
6 3 -15 6.6 7
-3 -6 -15 0.3 6.9
6 -9 -15 -8.1 7.3
-3 -6 -15 2 5.1
-9 3 -15 1.6 5.4
3 6 -15 -7.4 7
-9 7 -15 130.59 9.5
2 -9 -15 100.79 11.4
-7 9 15 86.49 7.9
7 -9 15 111.19 10.1
7 2 -15 123.49 12.2
-7 -2 -15 128.59 11.9
7 -9 -15 75.99 11.1
-2 -7 -15 110.79 9.9
-8 9 15 41.8 6.4
1 -9 -15 68.99 7.7
-8 -1 -15 60.19 7.9
8 -9 15 44 6.8
-9 1 -15 77.39 7.8
9 -8 15 48.4 7.4
-1 -8 -15 57.99 7
-9 9 15 -1 3.7
9 -9 15 -1.8 5.5
-9 0 -15 7.6 5.7
0 -9 -15 3.9 5.4
5 -10 -15 -10.4 7
5 5 -15 -8.3 7.4
-5 10 -15 -4.3 4.2
-10 5 -15 7.5 4.9
-5 -5 -15 -5.6 6.5
6 4 -15 -11.1 7.1
-4 10 -15 -5.5 3.9
4 -10 -15 -3 6.8
-6 -4 -15 -2.6 6.7
-10 6 -15 10.1 4.9
-6 10 15 2 3.2
-4 -6 -15 -2.7 6
-10 4 -15 8.5 5.3
4 6 -15 -10.3 7.7
6 -10 -15 -14.2 7.1
-6 10 -15 -4.7 4.1
-7 -3 -15 -0.8 6.1
7 -10 15 2.9 6.4
7 3 -15 0 6.8
3 -10 -15 -3.6 6.3
-10 7 -15 4 4.4
-7 10 15 0.8 3.2
-7 10 -15 -4.8 5
-3 -7 -15 12.3 5.2
3 7 -15 -3 6
-10 3 -15 13.3 5.4
7 -10 -15 2.5 7.3
8 2 -15 -2.5 6.2
-8 10 15 -2.8 3.7
-8 -2 -15 -8.9 5.4
8 -10 15 1.9 5.1
2 -10 -15 -5.5 5.9
-10 2 -15 -0.6 4.9
10 -8 15 -3.7 5.7
-2 -8 -15 0.5 5
-9 -1 -15 29.3 6
1 -10 -15 40 6.5
-9 10 15 20.5 4.3
9 -10 15 28.1 6.3
-10 1 -15 31.1 5.7
10 -9 15 30 6.2
-1 -9 -15 37.4 5.9
-10 10 15 34.1 4.3
-10 0 -15 50.89 5.7
0 -10 -15 54.89 6.3
10 -10 15 37.5 6.5
-5 11 -15 -0.4 3.6
-6 11 15 -0.1 2.9
-11 6 -15 2.2 4.4
5 -11 -15 -13.2 6.3
-6 -5 -15 -0.6 6.4
6 5 -15 -12.1 7.6
-5 -6 -15 -2.3 6.1
-6 11 -15 -3.2 3.6
-11 5 -15 1.3 4.6
-7 11 15 3.6 3.3
-7 -4 -15 4.9 6.3
7 4 -15 -8.2 7.2
-11 7 -15 9 4.5
4 -11 -15 1 6.1
7 -11 -15 -8.1 7
4 7 -15 -14.5 6.8
-7 11 -15 0.8 3.7
-11 4 -15 6.2 4.7
11 -7 15 -1.3 5.9
-4 -7 -15 1 6
-8 11 15 -2.4 3.3
3 -11 -15 -0.2 5.7
-8 -3 -15 -6.2 5.2
8 3 -15 -7.9 6.7
8 -11 -15 -2.7 5.8
11 -8 15 -3.3 5.4
-8 11 -15 -3.9 3.6
-11 3 -15 10.4 5.3
-9 -2 -15 11.6 5.3
-9 11 15 8.8 3.7
9 -11 15 6.2 4.5
2 -11 -15 16.9 5.6
9 2 -15 13.9 6.6
-11 2 -15 18.8 5.2
11 -9 15 9 5.8
-2 -9 -15 13.6 5.1
10 -11 15 8.1 5.3
-10 -1 -15 10.6 4.8
1 -11 -15 14.1 5.3
-10 11 15 7.7 3.6
-1 -10 -15 10.3 4.9
11 -10 15 6 5.5
-11 10 15 1.7 3.4
-11 1 -15 14.3 4.5
11 -11 15 1.1 5.1
0 -11 -15 -2.2 4.6
-11 11 15 -4.5 3.2
-11 0 -15 0.6 4.2
-6 12 -15 7.5 3.9
6 6 -15 -14.2 7.7
6 -12 -15 -3.5 6.4
-12 6 -15 14.5 4.6
-6 12 15 -0.1 2.6
12 -6 15 11.7 5.9
-6 -6 -15 5.3 5.8
-7 -5 -15 -0.3 5.7
-7 12 15 3.8 3
-12 7 -15 4.4 4.1
5 -12 -15 -6.6 6
-7 12 -15 1.3 3.8
-5 -7 -15 2.3 4.8
12 -7 15 4.2 5.5
7 -12 -15 -2.2 6.5
5 7 -15 -14.9 7.5
-12 5 -15 9.7 4.6
8 4 -15 -9.6 7.1
-8 -4 -15 0.9 5.3
-8 12 15 5.4 3.3
4 -12 -15 -5.1 5.7
-8 12 -15 -4.2 3.6
4 8 -15 -15.1 8.7
8 -12 -15 -5.8 5.5
-12 4 -15 -0.2 4.4
12 -8 15 -1.4 5.6
-9 12 15 5 3.3
-9 -3 -15 2.5 4.8
9 3 -15 -8.7 6.8
3 -12 -15 -2.4 5.1
12 -9 15 -2.2 5.4
-12 3 -15 3 4.5
-9 12 -15 -5 3.5
-10 -2 -15 5.2 5.1
10 -12 15 0.8 6.5
-10 12 15 0 3.3
2 -12 -15 6.8 5.1
-12 10 15 -0.5 3.1
12 -10 15 5.4 5.4
-10 12 -15 -3.4 5.8
-2 -10 -15 5.3 4.6
-12 2 -15 7 4.5
-11 12 15 12.2 3.4
11 -12 15 8 4
-11 -1 -15 22.5 4.4
1 -12 -15 16.9 5
12 -11 15 10.3 5.2
-12 11 15 8.1 3.3
-12 1 -15 17.6 4.7
-1 -11 -15 16.8 4.9
-13 7 -15 -1.3 3.9
-7 -6 -15 -0.7 5
13 -6 15 2.7 5.5
6 -13 -15 -9.8 5.7
-7 13 15 0.2 2.7
-7 13 -15 1.6 3.4
6 7 -15 -14.4 7.3
7 -13 -15 -2.7 5.9
-13 6 -15 5 4.1
-6 -7 -15 6.7 4.4
13 -7 15 5.9 5.8
-8 13 15 -1.5 2.5
-8 -5 -15 -2.3 5
13 -5 15 -1.4 5.7
5 -13 -15 -8.4 5.3
13 -8 15 -2.1 5.9
8 -13 -15 -2.5 4.8
-8 13 -15 -4.2 3.3
5 8 -15 -19.1 9.8
-13 5 -15 -5.2 3.9
13 -4 15 0.2 5.4
4 -13 -15 -1 5.2
-9 -4 -15 -4.9 4.6
-9 13 15 -0.2 3
9 4 -15 -14.2 6.9
-9 13 -15 -4.1 3.2
13 -9 15 -3 5.8
-13 4 -15 -1.7 4.3
3 -13 -15 8 5
-10 -3 -15 11.3 4.7
10 3 -15 -1.4 6.5
13 -3 15 6.9 3.9
-10 13 15 6.1 3
-13 3 -15 19 4.6
13 -10 15 10 5.3
-13 10 15 9.3 3.1
-10 13 -15 -2.8 4.6
-3 2 -16 -3.1 4.5
-3 1 -16 -9.9 4.6
-4 2 -16 11.9 5.3
-4 1 -16 120.29 10.9
-4 0 -16 32.9 6.8
-5 3 -16 32.2 5.8
2 -5 -16 25.6 6.8
-5 2 -16 38.8 6.8
-4 -1 -16 6.5 5.9
-5 4 -16 29 5.3
-5 1 -16 27.5 6.7
-5 0 -16 35.1 7.6
-6 3 -16 65.99 9
3 -6 -16 46.5 8.1
2 -6 -16 44.1 7.8
-6 4 -16 55.49 8.3
-6 2 -16 41 6.8
4 -6 -16 24 6.7
-5 -1 -16 11.3 6.4
1 -6 -16 14.7 6.3
-6 1 -16 26 6.8
-6 0 -16 7.4 6.5
0 -6 -16 7.7 5.6
-7 4 -16 16.8 5.1
-4 -3 -16 -4.2 6.6
3 -7 -16 6.4 7.1
-7 3 -16 15.7 5.7
4 -7 -16 -2.1 6.8
2 -7 -16 -2.5 6.4
-7 5 -16 8.7 4.6
-5 -2 -16 3.3 6.2
-7 2 -16 9.9 5.9
-6 -1 -16 10.6 6.7
6 -7 16 4.9 4.5
1 -7 -16 4.3 6.1
-7 1 -16 18.9 6.1
0 -7 -16 8 6.1
7 -7 16 0.6 5.4
-7 0 -16 9.8 6.1
4 -8 -16 7.8 7.2
-8 4 -16 20.4 5.4
-5 -3 -16 1.5 5.3
3 -8 -16 -7.6 6.2
-8 5 -16 14.5 4.8
-8 3 -16 15.9 5.5
5 -8 -16 -4.7 5.8
2 -8 -16 -6.6 5.8
-6 -2 -16 1.1 5.8
-8 2 -16 2.2 5.9
7 -8 16 4.7 4.1
1 -8 -16 11.7 6.3
-7 -1 -16 8.4 6.2
8 -7 16 8 5.4
-8 1 -16 24.6 6.2
-8 0 -16 6.3 5.8
8 -8 16 4 4.9
0 -8 -16 -1.8 5.4
-5 -4 -16 -4.3 4.9
4 -9 -16 -5.1 6.5
-9 5 -16 8.5 4.6
-9 4 -16 4.4 4.7
5 -9 -16 -12 6.1
-6 -3 -16 -2 5.3
3 -9 -16 -7.3 6
-9 3 -16 9.4 5.2
-7 -2 -16 2.6 5.7
2 -9 -16 -0.1 5.8
-9 2 -16 8.4 5.4
9 -7 16 3.6 5.1
-8 -1 -16 -3.2 5.7
1 -9 -16 -2.8 5.8
8 -9 16 1.1 4.8
9 -8 16 0.9 4.9
-9 1 -16 1.9 5.4
0 -9 -16 8.9 5.5
-9 0 -16 9.1 5.5
9 -9 16 4.8 4
-10 5 -16 17.3 4.7
5 -10 -16 -1.5 6.6
-6 -4 -16 -4.1 4.5
-10 4 -16 5.8 4.7
10 -6 16 -2.5 5.3
6 -10 -16 -11.9 5.5
3 -10 -16 -11.8 5.6
-7 -3 -16 -8.7 5.1
-10 3 -16 -2.5 4.6
10 -7 16 -2.1 5.2
2 -10 -16 9.5 6.1
-8 -2 -16 9.6 5.3
10 -8 16 6.9 5.1
-10 2 -16 13.5 5
1 -10 -16 -3.4 5.4
-9 -1 -16 -4.8 5
-10 1 -16 1.3 5.1
10 -9 16 1.3 4.7
11 -5 16 -1.5 5.1
-11 5 -16 -0.9 4.2
6 -11 -16 -10.8 4.8
11 -6 16 1.4 5.1
4 -11 -16 -9 5.7
-7 -4 -16 -3.4 4
-11 4 -16 3.9 4.4
11 -7 16 3.3 5.8
-7 2 -17 -6.9 4.1
7 -6 17 3.4 3.9
