#------------------------------------------------------------------------------
#$Date: 2019-11-03 16:14:12 +0200 (Sun, 03 Nov 2019) $
#$Revision: 221836 $
#$URL: file:///home/coder/svn-repositories/cod/cif/4/12/87/4128772.cif $
#------------------------------------------------------------------------------
#
# This file is available in the Crystallography Open Database (COD),
# http://www.crystallography.net/
#
# All data on this site have been placed in the public domain by the
# contributors.
#
data_4128772
loop_
_publ_author_name
'Corella-Ochoa, M Nieves'
'Tapia, Jes\'us B'
'Rubin, Heather N.'
'Lillo, Vanesa'
'Gonz\'alez-Cobos, Jes\'us'
'N\'u\~nez-Rico, Jos\'e Luis'
'Balestra, Salvador R. G.'
'Almora-Barrios, Neyvis'
'Lled\'os, Marina'
'G\"uell-Bara, Arnau'
'Cabezas-Gim\'enez, Juanjo'
'Escudero-Ad\'an, Eduardo C'
'Vidal-Ferran, Anton'
'Calero, Sof\'ia'
'Reynolds, Melissa'
'Mart\'i-Gastaldo, Carlos'
'Gal\'an-Mascar\'os, Jos\'e Ram\'on'
_publ_section_title
;
 Homochiral Metal-Organic Frameworks for Enantioselective Separations in
 Liquid Chromatography.
;
_journal_issue                   36
_journal_name_full               'Journal of the American Chemical Society'
_journal_page_first              14306
_journal_page_last               14316
_journal_paper_doi               10.1021/jacs.9b06500
_journal_volume                  141
_journal_year                    2019
_chemical_absolute_configuration ad
_chemical_formula_sum            'C8 H15 Cu0.5 N5 O5.5'
_chemical_formula_weight         301.02
_space_group_IT_number           212
_space_group_name_Hall           'P 4acd 2ab 3'
_space_group_name_H-M_alt        'P 43 3 2'
_symmetry_cell_setting           cubic
_symmetry_space_group_name_H-M   'P 43 3 2'
_atom_sites_solution_hydrogens   mixed
_audit_creation_method           SHELXL-2014/6
_cell_angle_alpha                90
_cell_angle_beta                 90
_cell_angle_gamma                90
_cell_formula_units_Z            24
_cell_length_a                   20.120(4)
_cell_length_b                   20.120(4)
_cell_length_c                   20.120(4)
_cell_measurement_reflns_used    5935
_cell_measurement_temperature    100(2)
_cell_measurement_theta_max      33.34
_cell_measurement_theta_min      2.26
_cell_volume                     8145(3)
_computing_cell_refinement       'Bruker APEX2 v2014.9-0'
_computing_data_collection       'Bruker APEX2 v2014.9-0'
_computing_data_reduction        'Bruker SAINT V7.60A'
_computing_molecular_graphics    'Bruker SHELXTL'
_computing_publication_material  'Bruker SHELXTL'
_computing_structure_refinement  'SHELXL-2014 (Sheldrick, 2014)'
_computing_structure_solution    'SHELXL-2014 (Sheldrick, 2014)'
_diffrn_ambient_temperature      100(2)
_diffrn_detector_area_resol_mean 512
_diffrn_detector_type            '4K CCD area detector APEX II'
_diffrn_measured_fraction_theta_full 0.989
_diffrn_measured_fraction_theta_max 0.990
_diffrn_measurement_device_type  'APEX DUO Kappa 4-axis goniometer'
_diffrn_measurement_method
;
 Fullsphere data collection, phi and omega scans
;
_diffrn_measurement_specimen_support 'magnetic support with MicroMount'
_diffrn_radiation_monochromator  'Quazar MX Multilayer Optics'
_diffrn_radiation_type           MoK\a
_diffrn_radiation_wavelength     0.71073
_diffrn_reflns_Laue_measured_fraction_full 0.989
_diffrn_reflns_Laue_measured_fraction_max 0.990
_diffrn_reflns_limit_k_max       26
_diffrn_reflns_limit_k_min       -6
_diffrn_reflns_limit_l_max       7
_diffrn_reflns_limit_l_min       -24
_diffrn_reflns_point_group_measured_fraction_full 0.992
_diffrn_reflns_point_group_measured_fraction_max 0.994
_diffrn_reflns_theta_full        67.679
_diffrn_reflns_theta_max         88.967
_diffrn_reflns_theta_min         3.805
_diffrn_source                   'Microfocus source E025 IuS'
_diffrn_source_current           0.6
_diffrn_source_power             50
_diffrn_source_size              '0.2 mm x 0.2 mm fine focus'
_diffrn_source_type              'Bruker APEX DUO'
_exptl_absorpt_coefficient_mu    0.875
_exptl_absorpt_correction_T_max  0.949
_exptl_absorpt_correction_T_min  0.906
_exptl_absorpt_correction_type   empirical
_exptl_absorpt_process_details
; 
 SADABS Version 2008/1 Bruker-Nonius
 Blessing, Acta Cryst. (1995) A51 33-38
;
_exptl_crystal_colour            blue
_exptl_crystal_density_diffrn    1.473
_exptl_crystal_description       block
_exptl_crystal_F_000             3756
_exptl_crystal_size_max          0.20
_exptl_crystal_size_mid          0.20
_exptl_crystal_size_min          0.20
_refine_diff_density_max         0.405
_refine_diff_density_min         -0.219
_refine_diff_density_rms         0.057
_refine_ls_abs_structure_details
;
 Flack x determined using 1187 quotients [(I+)-(I-)]/[(I+)+(I-)]
 (Parsons, Flack and Wagner, Acta Cryst. B69 (2013) 249-259).
;
_refine_ls_abs_structure_Flack   -0.594(11)
_refine_ls_extinction_method     none
_refine_ls_goodness_of_fit_ref   1.105
_refine_ls_hydrogen_treatment    noref
_refine_ls_matrix_type           full
_refine_ls_number_parameters     313
_refine_ls_number_reflns         3103
_refine_ls_number_restraints     240
_refine_ls_restrained_S_all      1.851
_refine_ls_R_factor_all          0.0323
_refine_ls_R_factor_gt           0.0307
_refine_ls_shift/su_max          0.030
_refine_ls_shift/su_mean         0.001
_refine_ls_structure_factor_coef Fsqd
_refine_ls_weighting_details
'w=1/[\s^2^(Fo^2^)+(0.0432P)^2^+6.1580P] where P=(Fo^2^+2Fc^2^)/3'
_refine_ls_weighting_scheme      calc
_refine_ls_wR_factor_gt          0.0829
_refine_ls_wR_factor_ref         0.0838
_reflns_Friedel_coverage         0.671
_reflns_Friedel_fraction_full    0.998
_reflns_Friedel_fraction_max     0.998
_reflns_number_gt                2990
_reflns_number_total             3103
_reflns_threshold_expression     'I > 2\s(I)'
_cod_data_source_file            ja9b06500_si_001.cif
_cod_data_source_block           TAMOF1_100K
_cod_depositor_comments
;
The following automatic conversions were performed:

data item '_symmetry_cell_setting' value 'Cubic' was changed to
'cubic' in accordance with the
/home/data/users/saulius/crontab/automatic-downloads/current/ACS/lib/dictionaries/cif_core.dic
dictionary named 'cif_core.dic' version 2.4.2 last updated on
2011-04-26.

Automatic conversion script
Id: cif_fix_values 6909 2019-04-08 15:41:33Z antanas 
;
_cod_original_cell_volume        8145(4)
_cod_original_sg_symbol_H-M      P4(3)32
_cod_original_formula_sum        'C8 H15 Cu0.50 N5 O5.50'
_cod_database_code               4128772
_shelx_space_group_comment
;
The symmetry employed for this shelxl refinement is uniquely defined
by the following loop, which should always be used as a source of
symmetry information in preference to the above space-group names.
They are only intended as comments.
;
_shelx_estimated_absorpt_t_min   0.917
_shelx_estimated_absorpt_t_max   0.949
_shelxl_version_number           2014/6
_shelx_res_file
;
TITL mo_NCII143B2100K_0m_a.res in P4(3)32
CELL  1.54178  20.1204  20.1204  20.1204   90.000   90.000   90.000
ZERR   24.000   0.0037   0.0037   0.0037    0.000    0.000    0.000
LATT -1
SYMM 1/2-X, -Y, 1/2+Z
SYMM -X, 1/2+Y, 1/2-Z
SYMM 1/2+X, 1/2-Y, -Z
SYMM Z, X, Y
SYMM 1/2+Z, 1/2-X, -Y
SYMM 1/2-Z, -X, 1/2+Y
SYMM -Z, 1/2+X, 1/2-Y
SYMM Y, Z, X
SYMM -Y, 1/2+Z, 1/2-X
SYMM 1/2+Y, 1/2-Z, -X
SYMM 1/2-Y, -Z, 1/2+X
SYMM 1/4+Y, 3/4+X, 3/4-Z
SYMM 1/4-Y, 1/4-X, 1/4-Z
SYMM 3/4+Y, 3/4-X, 1/4+Z
SYMM 3/4-Y, 1/4+X, 3/4+Z
SYMM 1/4+X, 3/4+Z, 3/4-Y
SYMM 3/4-X, 1/4+Z, 3/4+Y
SYMM 1/4-X, 1/4-Z, 1/4-Y
SYMM 3/4+X, 3/4-Z, 1/4+Y
SYMM 1/4+Z, 3/4+Y, 3/4-X
SYMM 3/4+Z, 3/4-Y, 1/4+X
SYMM 3/4-Z, 1/4+Y, 3/4+X
SYMM 1/4-Z, 1/4-Y, 1/4-X
SFAC C H N O CU
UNIT 192 360 120 132 12
TEMP -173.150
SIZE 0.03 0.05 0.05
REM damp 100
L.S. 40
DAMP 100
ACTA
CONF
REM EQIV $1 1/2-Y,-Z, -1/2+X
REM DFIX -2.12 0.01 H1WA H3WA
REM DFIX -2.12 0.01 H1WA H3WB_$1
LIST 4
FMAP 2
PLAN 20
ISOR 0.01
DFIX 0.85 0.01 O1W H1WA
DFIX 0.85 0.01 O1W H1WB
DFIX 1.35 0.01 H1WA H1WB
REM DFIX 0.85 0.01 O2W H2WA
REM DFIX 0.85 0.01 O2W H2WB
REM DFIX 1.35 0.01 H2WA H2WB
REM O2W 4 0.125000 0.125000 0.125000 0.05958 10.03000
WGHT    0.043200    6.158000
FVAR       0.09686
CU01  5    0.625000    0.095751    0.154249    10.50000    0.00534    0.00302 =
         0.00302    0.00125    0.00256    0.00256
O1    4    0.394542    0.187008    0.284334    11.00000    0.02270    0.02122 =
         0.02267    0.00158    0.00311   -0.00191
O2    4    0.345876    0.168428    0.186868    11.00000    0.03578    0.01784 =
         0.03480   -0.00331   -0.01197   -0.00333
N1    3    0.431308    0.311463    0.253962    11.00000    0.01384    0.01350 =
         0.01662   -0.00115   -0.00079    0.00157
N2    3    0.508482    0.337487    0.325096    11.00000    0.01546    0.01211 =
         0.01655    0.00187    0.00119    0.00108
N3    3    0.464131    0.390294    0.322376    11.00000    0.01673    0.01550 =
         0.01702    0.00191   -0.00002    0.00199
N4    3    0.573588    0.177744    0.137418    11.00000    0.01856    0.01770 =
         0.01600    0.00122    0.00184    0.00329
N5    3    0.544994    0.281573    0.121023    11.00000    0.02247    0.01351 =
         0.02219    0.00165    0.00250    0.00312
AFIX  43
H5    2    0.548305    0.324482    0.113226    11.00000   -1.20000
AFIX   0
C1    1    0.390529    0.275778    0.205007    11.00000    0.01364    0.01476 =
         0.02031   -0.00192   -0.00358    0.00190
AFIX  13
H1    2    0.346637    0.299012    0.203061    11.00000   -1.20000
AFIX   0
C2    1    0.488125    0.291558    0.283732    11.00000    0.01428    0.01382 =
         0.01594    0.00167   -0.00004    0.00016
AFIX  43
H2    2    0.509989    0.250460    0.275844    11.00000   -1.20000
AFIX   0
C3    1    0.419074    0.372762    0.279042    11.00000    0.01475    0.01244 =
         0.01848    0.00101    0.00133    0.00233
AFIX  43
H3    2    0.382295    0.399650    0.266648    11.00000   -1.20000
AFIX   0
C4    1    0.420984    0.280163    0.135474    11.00000    0.02052    0.01468 =
         0.01703   -0.00086   -0.00470    0.00449
AFIX  23
H4A   2    0.390536    0.259053    0.103096    11.00000   -1.20000
H4B   2    0.425966    0.327480    0.122930    11.00000   -1.20000
AFIX   0
C5    1    0.487025    0.246968    0.132024    11.00000    0.02007    0.01942 =
         0.01435   -0.00098   -0.00101    0.00322
C6    1    0.505610    0.182982    0.142263    11.00000    0.01926    0.01673 =
         0.01821    0.00025   -0.00003    0.00359
AFIX  43
H6    2    0.476154    0.147228    0.151391    11.00000   -1.20000
AFIX   0
C7    1    0.595717    0.238089    0.124315    11.00000    0.02056    0.01781 =
         0.01979   -0.00005    0.00285    0.00200
AFIX  43
H7    2    0.641160    0.249283    0.118071    11.00000   -1.20000
AFIX   0
C8    1    0.376751    0.203871    0.228416    11.00000    0.01451    0.01453 =
         0.02374   -0.00266    0.00030    0.00290
O1W   4    0.535415    0.027878    0.106503    11.00000    0.02819    0.02541 =
         0.02673   -0.00021   -0.00493   -0.00535
H1WA  2    0.509688    0.038514    0.075150    11.00000   -1.50000
H1WB  2    0.530666   -0.014193    0.110979    11.00000   -1.50000
SIMU 0.01 O2W > O12W
DELU 0.01 O2W > O12W
ISOR 0.005 O2W > O12W
DFIX 0.85 0.01 O2W H2WA
DFIX 0.85 0.01 O2W H2WB
DFIX 1.35 0.01 H2WA H2WB
DFIX 0.85 0.01 O3W H3WA
DFIX 0.85 0.01 O3W H3WB
DFIX 1.35 0.01 H3WA H3WB
DFIX 0.85 0.01 O4W H4WA
DFIX 0.85 0.01 O4W H4WB
DFIX 1.35 0.01 H4WA H4WB
DFIX 0.85 0.01 O5W H5WA
DFIX 0.85 0.01 O5W H5WB
DFIX 1.35 0.01 H5WA H5WB
DFIX 0.85 0.01 O6W H6WA
DFIX 0.85 0.01 O6W H6WB
DFIX 1.35 0.01 H6WA H6WB
DFIX 0.85 0.01 O7W H7WA
DFIX 0.85 0.01 O7W H7WB
DFIX 1.35 0.01 H7WA H7WB
DFIX 0.85 0.005 O8W H8WA
DFIX 0.85 0.005 O8W H8WB
DFIX 1.35 0.01 H8WA H8WB
DFIX 0.85 0.01 O9W H9WA
DFIX 0.85 0.01 O9W H9WB
DFIX 1.35 0.01 H9WA H9WB
PART -1
O2W   4    0.439602    0.026283    0.004794    10.33333    0.07472    0.04533 =
         0.04557    0.01774    0.00572    0.01653
H2WA  2    0.417389    0.060126    0.017123    10.33333   -1.50000
H2WB  2    0.460802    0.038893   -0.029486    10.33333   -1.50000
PART 1
O3W   4    0.324944    0.151896    0.054454    10.33333    0.06233    0.07552 =
         0.05335   -0.02374   -0.02182   -0.00068
H3WA  2    0.297037    0.183667    0.059120    10.33333   -1.50000
H3WB  2    0.300918    0.118138    0.045649    10.33333   -1.50000
PART 2
O4W   4    0.447372    0.101553    0.016256    10.33333    0.07836    0.04496 =
         0.05098   -0.00955   -0.02540    0.02597
H4WA  2    0.416190    0.117166    0.040535    10.33333   -1.50000
H4WB  2    0.464295    0.135745   -0.002346    10.33333   -1.50000
PART 1
O5W   4    0.739200    0.289098    0.037745    10.33333    0.09546    0.06087 =
         0.07716    0.00459    0.02504    0.00054
H5WA  2    0.779661    0.297205    0.027490    10.33333   -1.50000
H5WB  2    0.728827    0.320570    0.064099    10.33333   -1.50000
PART -3
O6W   4    0.241289    0.221142    0.114554    10.33333    0.07347    0.05334 =
         0.10627   -0.02177   -0.06544    0.01214
H6WA  2    0.225178    0.195261    0.143537    10.33333   -1.50000
H6WB  2    0.262351    0.196690    0.087437    10.33333   -1.50000
PART 2
O7W   4    0.693635    0.288751   -0.003451    10.25000    0.07732    0.04052 =
         0.05490   -0.01020    0.02467    0.00073
H7WA  2    0.725245    0.307227    0.017643    10.25000   -1.50000
H7WB  2    0.674230    0.320155   -0.024040    10.25000   -1.50000
PART -5
O8W   4    0.316932    0.210188   -0.033203    10.16666    0.12774    0.10841 =
         0.10211    0.00824    0.01054    0.02711
H8WA  2    0.290098    0.200284   -0.064311    10.16666   -1.50000
H8WB  2    0.310203    0.180980   -0.003410    10.16666   -1.50000
PART -3
O9W   4    0.630379    0.360816   -0.098021    10.08333    0.06920    0.05916 =
         0.06066   -0.00613    0.00692    0.00511
PART -3
H9WA  2    0.619157    0.324371   -0.079730    10.08333   -1.50000
H9WB  2    0.664613    0.373605   -0.076730    10.08333   -1.50000
PART 1
DFIX 0.85 0.01 O10W H10X
DFIX 0.85 0.01 O10W H10Y
DFIX 1.35 0.01 H10X H10Y
PART 6
O10W  4    0.625000    0.287028   -0.037028    10.08333    0.07704    0.05558 =
         0.05558   -0.01074    0.01322    0.01322
H10X  2    0.625000    0.332702   -0.082702    10.08333   -1.50000
H10Y  2    0.625000    0.301082   -0.051082    10.08333   -1.50000
DFIX 0.85 0.01 O11W H11X
DFIX 0.85 0.01 O11W H11Y
DFIX 1.35 0.01 H11X H11Y
PART -2
O11W  4    0.231478    0.170803    0.131680    10.08333    0.05833    0.05379 =
         0.08135   -0.01145   -0.03973    0.00596
H11X  2    0.210258    0.147604    0.103413    10.08333   -1.50000
H11Y  2    0.255997    0.196382    0.108563    10.08333   -1.50000
PART 3
DFIX 0.85 0.01 O12W H12X
DFIX 0.85 0.01 O12W H12Y
DFIX 1.35 0.01 H12X H12Y
O12W  4    0.353660    0.123550    0.051046    10.16666    0.05113    0.04572 =
         0.03691   -0.01590   -0.01839    0.01030
H12X  2    0.318772    0.102929    0.038924    10.16666   -1.50000
H12Y  2    0.356297    0.156758    0.025002    10.16666   -1.50000
PART 0
HKLF 4
REM  mo_NCII143B2100K_0m_a.res in P4(3)32
REM R1 =  0.0307 for    2990 Fo > 4sig(Fo)  and  0.0323 for all    3103 data
REM    313 parameters refined using    240 restraints
END
WGHT      0.0432      6.1571
REM Highest difference peak  0.405,  deepest hole -0.219,  1-sigma level  0.057
Q1    1   0.2213  0.2131  0.1499  11.00000  0.05    0.40
Q2    1   0.3750  0.2067 -0.0433  10.50000  0.05    0.40
Q3    1   0.3076  0.1899 -0.0662  11.00000  0.05    0.38
Q4    1   0.3340  0.2344 -0.0314  11.00000  0.05    0.37
Q5    1   0.5988  0.2838 -0.0514  11.00000  0.05    0.28
Q6    1   0.2788  0.2154  0.0689  11.00000  0.05    0.25
Q7    1   0.2699  0.1993  0.0676  11.00000  0.05    0.25
Q8    1   0.2788  0.1739 -0.0108  11.00000  0.05    0.23
Q9    1   0.2659  0.1802  0.0732  11.00000  0.05    0.23
Q10   1   0.2546  0.2403  0.0976  11.00000  0.05    0.22
Q11   1   0.2818  0.2102  0.1254  11.00000  0.05    0.21
Q12   1   0.7448  0.2942  0.0776  11.00000  0.05    0.21
Q13   1   0.3638  0.3638  0.3638  10.33333  0.05    0.17
Q14   1   0.6678  0.2831 -0.0118  11.00000  0.05    0.17
Q15   1   0.2083  0.1410  0.1572  11.00000  0.05    0.17
Q16   1   0.7048  0.3750 -0.0452  10.50000  0.05    0.16
Q17   1   0.3496  0.3684  0.2748  11.00000  0.05    0.16
Q18   1   0.2243  0.1478  0.1449  11.00000  0.05    0.16
Q19   1   0.3906  0.3906  0.3906  10.33333  0.05    0.16
Q20   1   0.3199  0.1608  0.1061  11.00000  0.05    0.15
;
_shelx_res_checksum              23891
_shelx_hkl_file
;
   0   0  -1    0.00    0.01
   0   0   1    0.00    0.01
  -1   1  -1   72.93    1.64
   1  -1   1   81.48    1.64
   0   0  -2   -0.56    0.03
   0   0   2   -0.58    0.02
  -2   0   1   57.17    1.21
   0  -1   2   54.40    1.22
   0   1  -2   56.92    1.23
   2   0  -1   57.34    1.21
  -1   0   2   56.25    1.23
   0   2  -1   54.83    1.22
   1   0  -2   52.89    1.23
  -2   1   1   49.46    1.08
  -1   1  -2   49.77    1.09
  -1   2  -1   50.14    1.08
   1  -1   2   49.70    1.09
   2  -1  -1   49.69    1.08
   2   1  -1   50.15    1.11
  -2   0   2  104.64    2.28
   0  -2   2  105.68    2.28
   0   2  -2  104.89    2.28
   2   0  -2  108.95    2.28
  -2   1   2    6.03    0.21
  -2   2  -1    6.04    0.16
  -1   2  -2    5.95    0.20
   1  -2   2    5.88    0.20
   1   2  -2    6.25    0.23
   2  -1  -2    6.26    0.22
   2  -1   2    6.29    0.19
  -2   2  -2  674.64   14.12
   2  -2   2  654.24   14.05
   2   2  -2  689.79   14.30
   0   0  -3    0.06    0.06
   0   0   3    0.24    0.07
   3   0   0    0.02    0.04
  -3   0   1   12.54    0.34
   0  -1   3   13.65    0.38
   0   1  -3   12.21    0.37
   3   0  -1   12.92    0.35
   1   0  -3   13.69    0.39
   3  -1   0   13.30    0.30
  -3   1   0   13.20    0.30
   1   1  -3  290.96    6.18
   3  -1  -1  296.24    6.12
   3   1  -1  296.10    6.16
  -3  -1   1  292.26    6.16
  -3   1   1  295.36    6.12
  -1   1  -3  292.07    6.16
   1  -1   3  290.88    6.15
   3   0  -2   44.30    0.99
  -3   0   2   42.13    0.98
   0   2  -3   41.49    1.00
   2   0  -3   42.74    1.01
   0   3  -2   43.42    1.00
   0  -3   2   42.03    1.03
   1   2  -3   11.49    0.38
  -1   3  -2   11.69    0.35
   3   1  -2   12.33    0.37
   1  -2   3   11.76    0.35
  -3   1   2   11.67    0.34
  -1   2  -3   16.88    0.46
  -3   2   1   16.59    0.42
   3  -1  -2   17.08    0.46
   1  -3   2   16.35    0.45
   1   3  -2   16.59    0.49
   2  -1   3   17.80    0.45
   2   1  -3   17.55    0.49
  -3   2  -2  338.49    7.03
  -3   2   2  330.07    7.08
  -2   2  -3  342.99    7.07
  -2   3  -2  343.84    7.06
   2  -3   2  334.15    7.06
   2  -2   3  337.88    7.07
   2   2  -3  345.56    7.14
   2   3  -2  340.98    7.14
   3  -2   2  330.19    7.02
   3   2  -2  342.56    7.13
   0   3  -3  118.55    2.58
   3   0  -3  118.67    2.59
  -1   3  -3  795.17   16.14
   1   3  -3  794.10   16.34
   3  -1  -3  770.60   16.16
   3  -1   3  729.67   16.10
   3   1  -3  775.18   16.22
  -3   2  -3  364.32    7.47
  -3   3  -2  357.96    7.45
  -2   3  -3  365.03    7.49
   2  -3   3  345.23    7.49
   2   3  -3  351.99    7.56
   3  -3   2  354.68    7.45
   3  -2   3  361.40    7.47
   3   2  -3  365.75    7.56
  -3   3  -3  403.98    8.49
   3  -3   3  400.71    8.49
   3   3  -3  417.81    8.60
   0   0  -4  391.60    8.28
   4   0   0  395.55    8.20
  -4   0   1   36.61    0.85
   0   1  -4   36.55    0.90
   4   0  -1   35.93    0.85
   1   0  -4   36.28    0.91
   4  -1   0   36.32    0.81
   4   1  -1   16.31    0.44
  -1   1  -4   15.36    0.46
   1   1  -4   15.64    0.48
   4  -1  -1   15.70    0.40
  -4   1   1   15.88    0.40
   0   4  -2  133.13    2.99
   0   2  -4  135.52    3.00
   4   0  -2  139.98    2.97
  -4   2   0  143.89    2.89
   2   0  -4  138.73    3.02
  -1   4  -2  316.16    6.60
  -4   1   2  319.59    6.58
   4   1  -2  308.54    6.61
   2  -1  -4  309.15    6.64
   4   2  -1  305.57    6.55
   4  -1  -2  313.97    6.52
   1   4  -2  302.18    6.56
  -1   2  -4  320.77    6.55
   2   1  -4  307.13    6.57
  -4   2   1  311.25    6.47
  -2   4  -2   14.74    0.41
   4  -2   2   14.50    0.34
   2   2  -4   14.24    0.47
   4   2  -2   14.31    0.46
  -4   2   2   14.76    0.41
  -2   2  -4   14.41    0.43
   4   0  -3    0.28    0.11
   0   3  -4    0.13    0.11
   3   0  -4    0.35    0.12
   0   4  -3    0.42    0.12
   3  -1  -4  123.94    2.70
   1   3  -4  121.26    2.70
  -1   4  -3  123.55    2.67
   4   1  -3  120.64    2.69
  -1   3  -4  120.36    2.65
   4  -1  -3  121.69    2.65
   2   3  -4   83.60    1.91
   4  -2   3   82.02    1.79
   4   2  -3   84.10    1.91
   3   4  -2   82.22    1.92
  -3   2  -4   84.12    1.84
  -2   4  -3   83.83    1.84
  -4   3  -2   82.84    1.76
   4  -2  -3   92.30    2.08
  -4   3   2   93.03    2.08
  -3   4  -2   93.48    2.02
  -2   3  -4   94.58    2.07
   3  -2   4   95.45    2.09
   3   2  -4   92.34    2.13
   4   3  -2   94.51    2.13
  -4   3  -3    1.70    0.12
  -3   3  -4    1.53    0.14
  -3   4  -3    1.56    0.13
   3  -4   3    1.43    0.13
   3   3  -4    1.48    0.18
   3   4  -3    1.14    0.17
   4  -3   3    1.58    0.12
   4   3  -3    1.70    0.19
   0   4  -4   33.73    0.88
   4   0  -4   33.69    0.88
  -1   4  -4  164.41    3.55
   1   4  -4  168.51    3.59
   4  -1  -4  161.11    3.56
   4   1  -4  162.34    3.58
  -4   4  -2   52.33    1.14
  -2   4  -4   50.78    1.22
   2   4  -4   52.70    1.29
   4  -2  -4   52.97    1.27
   4  -2   4   51.70    1.19
   4   2  -4   54.24    1.29
   4   4  -2   51.73    1.29
  -4   3  -4   72.76    1.60
  -4   4  -3   71.67    1.58
  -3   4  -4   73.74    1.63
   4  -4   3   69.26    1.58
   4  -3   4   72.15    1.60
   4   3  -4   74.69    1.73
   4   4  -3   72.52    1.72
  -4   4  -4  322.49    6.90
   4  -4   4  337.40    6.94
   4   4  -4  326.43    7.04
   0   0  -5    0.07    0.09
   5   0   0    0.02    0.07
  -5   0   1  330.26    6.75
   0   1  -5  309.57    6.81
   5   0  -1  329.23    6.74
   1   0  -5  316.73    6.82
   5  -1   0  321.29    6.70
   1   1  -5    1.37    0.17
  -1   1  -5    0.77    0.14
  -5   1   1    1.21    0.11
   5   1  -1    1.29    0.14
   5  -1  -1    1.22    0.11
  -5   2   0   60.87    1.28
   5   0  -2   59.73    1.37
   0   2  -5   58.48    1.41
   5  -2   0   59.49    1.28
   5   1  -2  387.56    8.19
   2  -1  -5  393.40    8.24
   5  -2  -1  393.31    8.11
   1   2  -5  382.70    8.22
   5  -1  -2  399.65    8.45
   2   1  -5  407.95    8.54
   5   2  -1  391.88    8.50
  -5   2   1  409.17    8.41
  -1   2  -5  410.85    8.51
  -2   2  -5    0.37    0.12
  -5   2   2    0.23    0.09
   2   2  -5    0.11    0.12
   5  -2  -2    0.10    0.09
   5   2  -2    0.19    0.11
  -2   5  -2    0.23    0.10
  -5   3   0   24.03    0.54
   0   5  -3   24.16    0.68
   0   3  -5   23.52    0.68
   5   0  -3   23.81    0.66
   3   0  -5   23.87    0.70
   3  -1  -5  120.68    2.70
  -1   5  -3  121.08    2.65
   5   1  -3  119.72    2.67
   1   5  -3  105.27    2.40
  -1   3  -5  105.88    2.37
   5  -1  -3  108.70    2.35
  -5   3   1  106.93    2.27
   3   1  -5  104.85    2.40
  -3   2  -5  331.85    7.06
   5  -2   3  341.19    6.97
   5   2  -3  336.47    7.11
  -2   5  -3  329.97    7.05
   5   3  -2  339.83    7.00
  -2   3  -5  326.48    6.95
   5  -2  -3  333.88    6.94
  -3   5  -2  323.55    6.90
   3   2  -5  326.13    7.01
   2   5  -3  324.06    7.01
   5   3  -3   31.05    0.85
   3   5  -3   29.77    0.87
  -3   3  -5   31.75    0.79
  -3   5  -3   29.90    0.76
   3   3  -5   31.80    0.87
   5  -3   3   30.77    0.70
   5   0  -4    0.46    0.13
   0   4  -5    0.20    0.12
   4   0  -5    0.41    0.14
   0   5  -4    0.70    0.15
   1   4  -5   46.62    1.20
   5   1  -4   49.01    1.20
   4  -1  -5   49.19    1.21
  -1   5  -4   46.54    1.17
  -1   4  -5   57.32    1.39
   1   5  -4   58.03    1.42
   5  -1  -4   59.27    1.39
   5  -2   4   13.89    0.39
   2   4  -5   14.26    0.51
   5   2  -4   13.23    0.49
  -2   5  -4   13.11    0.44
   5  -2  -4   13.99    0.48
   2   5  -4   13.78    0.51
   5   4  -2   13.98    0.51
  -4   5  -2   14.18    0.39
  -2   4  -5   13.79    0.46
   5   3  -4   12.13    0.48
   5  -3   4   11.82    0.34
   3   4  -5   11.55    0.48
  -5   4  -3   11.41    0.32
  -4   3  -5   12.21    0.39
  -3   5  -4   12.51    0.40
  -3   4  -5   13.71    0.44
  -4   5  -3   13.51    0.39
   4   3  -5   13.62    0.52
   5  -4   3   13.22    0.35
  -5   4  -4  578.58   12.12
  -4   4  -5  594.40   12.17
  -4   5  -4  582.68   12.15
   4   4  -5  559.77   12.29
   4   5  -4  590.76   12.31
   5  -4   4  580.25   12.12
   5   4  -4  594.14   12.30
   0   5  -5  132.32    2.95
   5   0  -5  131.10    2.95
  -1   5  -5    2.21    0.21
   1   5  -5    2.57    0.25
   5  -1  -5    2.12    0.22
   5   1  -5    2.52    0.24
  -5   5  -2  149.82    3.09
  -2   5  -5  141.94    3.21
   2   5  -5  146.87    3.28
   5  -2  -5  144.36    3.25
   5   2  -5  146.65    3.28
   5   5  -2  147.69    3.29
  -5   5  -3  370.95    7.81
  -3   5  -5  374.02    7.90
   3   5  -5  379.34    8.01
   5   3  -5  383.89    8.00
   5   5  -3  364.33    8.00
  -5   4  -5    2.52    0.18
  -5   5  -4    2.85    0.18
  -4   5  -5    2.58    0.20
   4   5  -5    2.53    0.27
   5  -5   4    2.91    0.20
   5   4  -5    2.59    0.28
   5   5  -4    2.91    0.29
  -5   5  -5  375.47    7.91
   5   5  -5  377.99    8.09
   6   0   0    0.29    0.09
   0   1  -6   27.25    0.76
   6   0  -1   25.43    0.67
   1   0  -6   26.01    0.77
   6  -1   0   25.94    0.63
  -6   1   1  914.02   19.57
  -1   1  -6  910.88   19.63
   1   1  -6  957.63   19.65
   6   1  -1  926.57   19.67
   6  -1  -1 1000.00   19.69
   2   0  -6   22.38    0.68
   0   2  -6   21.70    0.66
   6   0  -2   20.88    0.60
   6  -2   0   21.73    0.51
   6   1  -2  127.40    2.86
   1   2  -6  129.62    2.92
   2  -1  -6  133.79    2.95
   6  -2  -1  132.05    2.79
  -1   2  -6  137.15    3.04
   2   1  -6  133.36    3.06
   6   2  -1  138.30    3.02
   6  -1  -2  140.45    2.97
  -6   2   1  137.22    2.92
  -2   2  -6  220.84    4.81
   2   2  -6  224.56    4.85
   6  -2  -2  224.39    4.73
   6   2  -2  223.87    4.81
   6   0  -3    7.42    0.33
  -6   3   0    7.46    0.21
   0   6  -3    8.10    0.36
   0   3  -6    7.73    0.37
   3   0  -6    7.65    0.38
   1   3  -6  271.99    5.87
   6   1  -3  271.47    5.83
  -1   6  -3  274.56    5.83
   3  -1  -6  274.22    5.89
   1   6  -3  280.42    6.02
  -1   3  -6  278.65    6.00
   3   1  -6  273.48    6.03
  -6   3   1  284.79    5.87
   6  -1  -3  285.14    5.96
   2   3  -6   38.11    1.05
  -2   6  -3   39.98    0.98
  -3   2  -6   38.41    1.00
   6   2  -3   39.18    1.02
  -2   3  -6   46.15    1.13
   6  -2  -3   44.58    1.09
   6   3  -2   44.94    1.15
   2   6  -3   42.90    1.16
  -3   6  -3  112.62    2.41
  -3   3  -6  107.36    2.44
   3   3  -6  106.63    2.51
   6  -3   3  106.47    2.29
   6   3  -3  110.39    2.49
   3   6  -3  109.14    2.52
   0   4  -6   32.78    0.93
   6   0  -4   35.71    0.93
  -6   4   0   34.84    0.77
   0   6  -4   35.11    0.94
   4   0  -6   35.63    0.97
   6   1  -4   29.10    0.82
   4  -1  -6   29.12    0.85
  -1   6  -4   28.99    0.80
  -6   4   1   25.12    0.61
   6  -1  -4   25.06    0.71
   4   1  -6   23.78    0.75
   1   6  -4   24.42    0.75
  -1   4  -6   24.82    0.73
   6  -2   4  193.31    4.08
   2   4  -6  189.34    4.24
   6   2  -4  195.05    4.23
  -2   6  -4  193.51    4.17
   2   6  -4  191.80    4.23
  -2   4  -6  195.79    4.17
   4   2  -6  191.71    4.23
   6  -2  -4  191.41    4.16
   6   4  -2  186.75    4.21
  -4   6  -2  193.07    4.08
   4   6  -3  165.93    3.73
   6  -3   4  166.30    3.52
  -4   3  -6  169.49    3.62
   3   4  -6  161.84    3.71
   6   3  -4  163.99    3.70
  -3   6  -4  170.69    3.61
  -4   6  -3  165.89    3.54
   3   6  -4  161.87    3.69
   6   4  -3  167.68    3.68
  -3   4  -6  162.81    3.60
   4   3  -6  167.48    3.70
   4   6  -4    2.02    0.25
   6   4  -4    1.81    0.22
   6  -4   4    1.91    0.13
   4   4  -6    2.22    0.27
  -4   4  -6    2.21    0.20
  -4   6  -4    1.80    0.16
   0   5  -6   61.17    1.54
   5   0  -6   63.52    1.56
   6   0  -5   62.89    1.54
   0   6  -5   63.30    1.54
   5  -1  -6   89.78    2.16
   6   1  -5   94.50    2.16
   1   5  -6   92.47    2.17
  -1   6  -5   91.75    2.13
  -1   5  -6   86.26    2.06
   1   6  -5   88.28    2.09
   6  -1  -5   89.64    2.06
   5   1  -6   88.93    2.10
   6   2  -5  211.45    4.62
   5  -2  -6  214.80    4.63
  -2   6  -5  209.86    4.56
   2   5  -6  207.17    4.63
   2   6  -5  205.36    4.55
   5   2  -6  204.84    4.55
   6  -2  -5  206.14    4.50
  -2   5  -6  205.19    4.48
   6   5  -2  208.26    4.56
  -5   6  -2  209.70    4.37
   5   6  -3   42.12    1.18
   6   3  -5   43.22    1.17
   3   5  -6   43.03    1.18
  -3   6  -5   43.53    1.08
  -6   5  -3   42.60    0.95
   3   6  -5   46.03    1.27
   5   3  -6   47.61    1.28
  -5   6  -3   48.77    1.10
  -3   5  -6   48.17    1.19
   4   5  -6   13.05    0.55
   6   4  -5   11.80    0.54
  -4   6  -5   12.48    0.43
  -5   4  -6   12.43    0.43
  -6   5  -4   12.32    0.35
  -4   5  -6   13.27    0.46
  -5   6  -4   12.94    0.40
   4   6  -5   12.97    0.56
   5   4  -6   13.55    0.57
   6   5  -4   13.50    0.56
  -6   5  -5    1.13    0.13
  -5   5  -6    1.21    0.16
  -5   6  -5    0.99    0.14
   5   5  -6    1.62    0.26
   5   6  -5    1.29    0.26
   6   5  -5    1.55    0.25
   0   6  -6   61.03    1.53
   6   0  -6   60.43    1.53
  -1   6  -6  119.90    2.76
   1   6  -6  123.88    2.81
   6  -1  -6  119.83    2.78
   6   1  -6  123.42    2.80
  -6   6  -2   97.13    2.06
  -2   6  -6   93.51    2.21
   2   6  -6   95.47    2.29
   6  -2  -6   96.64    2.26
   6   2  -6   97.46    2.29
  -6   6  -3  559.02   11.81
  -3   6  -6  562.56   11.95
   3   6  -6  570.19   12.06
   6   3  -6  574.98   12.06
   6   6  -3  577.39   12.08
  -6   6  -4    1.36    0.13
  -4   6  -6    1.54    0.19
   4   6  -6    1.59    0.26
   6   4  -6    1.52    0.26
   6   6  -4    0.94    0.22
  -6   5  -6    4.36    0.25
  -6   6  -5    4.95    0.25
  -5   6  -6    4.71    0.28
   5   6  -6    4.39    0.36
   6   5  -6    4.16    0.36
   6   6  -5    4.73    0.40
  -6   6  -6  149.84    3.25
   6   6  -6  148.81    3.46
   7   0   0   -0.02    0.09
   0   1  -7   23.30    0.72
   7   0  -1   22.28    0.62
   7   1   0   23.12    0.64
   7  -1   0   23.10    0.58
   7  -1  -1  206.28    4.32
   7   1  -1  202.47    4.37
  -1   1  -7  198.53    4.44
   1   1  -7  202.15    4.46
   7  -1   1  207.55    4.29
   7  -2   0   51.50    1.13
   7   0  -2   51.22    1.22
   0   2  -7   51.41    1.31
   2   0  -7   50.67    1.32
   1   2  -7  121.40    2.73
   7  -2  -1  120.69    2.57
   7   1  -2  115.46    2.65
   2   1  -7  138.79    3.14
   7   2  -1  139.28    3.07
  -1   2  -7  139.45    3.11
   7  -2   1  137.71    2.91
  -7   2   1  140.21    2.97
   7  -1  -2  135.80    3.01
  -2   2  -7   86.72    2.02
   7  -2  -2   86.30    1.92
   7   2  -2   85.59    1.99
  -7   3   0   40.58    0.85
   0   7  -3   37.48    1.03
   7   0  -3   38.65    0.99
   0   3  -7   37.36    1.04
   3   0  -7   38.04    1.07
   1   3  -7  212.64    4.65
  -1   7  -3  205.10    4.60
   7   1  -3  213.35    4.60
   3  -1  -7  218.44    4.68
  -7   3   1  210.98    4.33
   7  -1  -3  204.76    4.42
   3   1  -7  199.48    4.52
   1   7  -3  205.07    4.51
  -1   3  -7  211.58    4.50
   7   3  -1  200.89    4.47
  -2   7  -3  283.05    6.09
   2   3  -7  286.03    6.18
   7   2  -3  287.26    6.13
  -2   3  -7  290.19    6.20
   7  -2  -3  292.91    6.14
   7   3  -2  285.23    6.21
   2   7  -3  290.45    6.25
   3   2  -7  285.97    6.25
  -3   7  -3   37.06    0.94
   7   3  -3   36.00    1.00
  -3   3  -7   36.31    0.98
   4   0  -7    2.35    0.26
  -7   4   0    2.66    0.12
   7   0  -4    2.45    0.23
   0   4  -7    2.25    0.24
   0   7  -4    2.38    0.24
   4  -1  -7  157.18    3.51
  -1   7  -4  154.97    3.45
   1   4  -7  155.84    3.50
   7   1  -4  154.30    3.45
  -7   4   1  159.00    3.34
   7  -1  -4  155.39    3.46
   1   7  -4  157.12    3.53
   4   1  -7  158.09    3.55
  -1   4  -7  157.98    3.51
   7   2  -4  159.56    3.53
   2   4  -7  157.15    3.56
  -2   7  -4  157.54    3.48
  -2   4  -7  167.03    3.60
   2   7  -4  160.47    3.64
   7  -2  -4  159.90    3.56
   4   2  -7  158.83    3.65
   7   4  -2  165.33    3.63
   7  -3   4   31.11    0.74
   4   7  -3   33.18    0.98
   3   4  -7   33.52    0.98
  -4   3  -7   33.21    0.89
   7   3  -4   31.58    0.94
  -3   7  -4   31.59    0.86
   4   3  -7   24.77    0.81
   7   4  -3   23.60    0.78
   3   7  -4   24.04    0.80
  -4   7  -3   25.86    0.68
  -3   4  -7   24.99    0.73
  -4   7  -4    0.36    0.13
   4   4  -7    0.71    0.20
   4   7  -4    0.43    0.20
  -4   4  -7    0.72    0.16
   7  -4   4    0.66    0.08
   7   4  -4    0.47    0.20
   7   0  -5   78.35    1.90
   0   7  -5   79.62    1.92
   0   5  -7   80.47    1.93
   5   0  -7   78.77    1.94
  -7   5   0   81.28    1.71
  -1   7  -5  177.16    3.95
   5  -1  -7  180.81    4.01
   1   5  -7  184.91    4.01
   7   1  -5  174.15    3.96
   7  -1  -5  182.92    4.03
  -7   5   1  182.51    3.87
  -1   5  -7  183.71    4.04
   1   7  -5  183.13    4.07
   5   1  -7  182.79    4.09
   7   2  -5   71.40    1.76
  -2   7  -5   71.13    1.70
   2   5  -7   71.71    1.78
   5  -2  -7   71.36    1.78
   5   2  -7   70.79    1.79
   2   7  -5   71.00    1.78
   7   5  -2   73.85    1.79
  -2   5  -7   71.27    1.73
   7  -2  -5   71.75    1.73
   3   5  -7   27.28    0.89
   5   7  -3   28.60    0.92
   7   3  -5   28.67    0.89
  -3   7  -5   29.67    0.81
   7  -3   5   29.13    0.75
   7   5  -3   20.70    0.73
  -5   7  -3   21.20    0.58
  -3   5  -7   21.30    0.67
   5   3  -7   20.36    0.74
   7   4  -5   15.47    0.62
  -4   7  -5   15.92    0.51
   7  -4   5   15.11    0.43
  -5   4  -7   15.46    0.52
   5   4  -7   11.15    0.55
  -4   5  -7   12.39    0.47
  -5   7  -4   12.40    0.41
   7   5  -5  123.89    2.89
   5   7  -5  123.36    2.91
   5   5  -7  120.69    2.90
   7  -5   5  120.24    2.64
  -5   7  -5  124.49    2.71
  -5   5  -7  124.95    2.75
   7   0  -6  152.91    3.42
   0   6  -7  152.32    3.43
   0   7  -6  149.02    3.42
   6   0  -7  152.01    3.45
  -1   7  -6   57.63    1.46
   1   6  -7   57.68    1.50
   6  -1  -7   57.05    1.50
   7   1  -6   58.24    1.50
   6   1  -7   56.95    1.51
   1   7  -6   60.02    1.51
   7  -1  -6   55.70    1.47
  -1   6  -7   58.18    1.48
   2   6  -7   93.22    2.26
  -2   7  -6   94.40    2.19
   6  -2  -7   94.14    2.25
   7   2  -6   93.10    2.25
   7  -2  -6   99.43    2.33
   6   2  -7   94.32    2.36
   2   7  -6  100.69    2.38
  -6   7  -2   99.61    2.16
  -2   6  -7   99.10    2.31
   7   6  -2  102.47    2.40
   6   7  -3   70.12    1.81
   3   6  -7   70.88    1.80
  -3   7  -6   70.27    1.68
   7   3  -6   68.35    1.77
   3   7  -6   64.98    1.74
  -3   6  -7   69.20    1.66
   7   6  -3   69.12    1.75
   6   3  -7   68.95    1.75
  -6   7  -3   67.55    1.52
  -7   6  -4   10.61    0.31
   7   4  -6   10.73    0.54
  -4   7  -6   10.86    0.43
   4   6  -7   10.57    0.55
   6   7  -4   10.46    0.55
  -6   7  -4   12.54    0.39
  -4   6  -7   12.13    0.47
   6   4  -7   12.76    0.59
   7   6  -4   11.38    0.57
   5   6  -7   12.72    0.59
   7   5  -6   13.11    0.60
  -7   6  -5   12.92    0.39
  -6   5  -7   12.94    0.46
  -5   7  -6   12.78    0.46
  -5   6  -7   21.62    0.65
  -6   7  -5   19.99    0.57
   5   7  -6   19.87    0.77
   6   5  -7   20.14    0.77
   7   6  -5   20.91    0.78
  -7   6  -6  443.27    9.27
  -6   6  -7  454.58    9.32
  -6   7  -6  448.55    9.30
   6   6  -7  440.08    9.53
   6   7  -6  431.90    9.52
   7   6  -6  432.12    9.52
   0   7  -7  319.86    6.84
   7   0  -7  311.15    6.83
  -1   7  -7    0.16    0.17
   1   7  -7    0.38    0.19
   7  -1  -7    0.23    0.18
   7   1  -7   -0.09    0.17
  -7   7  -2    8.79    0.27
  -2   7  -7    7.91    0.43
   2   7  -7    8.99    0.49
   7  -2  -7    7.84    0.46
  -7   7  -3   38.58    0.89
  -3   7  -7   38.39    1.06
   3   7  -7   39.80    1.17
   7   3  -7   37.90    1.15
   7   7  -3   39.87    1.17
  -7   7  -4  324.52    6.83
  -4   7  -7  322.73    6.97
   4   7  -7  327.35    7.13
   7   4  -7  319.18    7.10
   7   7  -4  336.41    7.14
  -7   7  -5    0.25    0.11
  -5   7  -7    0.02    0.14
   5   7  -7    0.28    0.24
   7   5  -7    0.38    0.23
   7   7  -5    0.17    0.20
  -7   6  -7   29.54    0.79
  -7   7  -6   30.45    0.77
  -6   7  -7   28.59    0.81
   6   7  -7   29.66    1.01
   7   6  -7   27.93    0.98
   7   7  -6   29.81    1.01
  -7   7  -7   26.91    0.76
   7   7  -7   27.74    0.99
   8   0   0  369.23    7.76
   0   1  -8    2.92    0.29
   8   0  -1    4.07    0.24
   8   1   0    3.34    0.24
   8  -1   0    3.95    0.20
   1   1  -8    6.11    0.39
   8  -1  -1    5.59    0.26
   8   1  -1    5.79    0.30
   8  -1   1    5.98    0.23
  -1   1  -8    5.22    0.34
   2   0  -8  261.45    5.71
   8  -2   0  264.67    5.48
   8   0  -2  260.79    5.58
   0   2  -8  258.07    5.68
   1   2  -8  125.78    2.92
   8  -2  -1  126.53    2.74
   8   1  -2  128.87    2.83
   8  -2   1  140.53    2.92
  -1   2  -8  136.05    3.14
   8  -1  -2  142.47    3.03
   2   1  -8  135.35    3.16
   8   2  -1  137.45    3.08
   8  -2   2    0.16    0.07
   8  -2  -2    0.06    0.11
  -2   2  -8    0.27    0.16
   2   2  -8    0.04    0.16
   8   2  -2    0.11    0.14
   3   0  -8   49.16    1.35
   0   8  -3   52.02    1.32
   0   3  -8   48.50    1.32
   8   0  -3   51.86    1.26
  -1   8  -3    9.14    0.42
   8   1  -3    8.79    0.41
   1   3  -8    9.18    0.46
   8  -3  -1    8.51    0.30
  -1   3  -8   11.20    0.50
   8  -1  -3   11.40    0.42
  -8   3   1   10.64    0.33
   1   8  -3   10.41    0.49
   8   3  -1   11.59    0.47
   2   3  -8  111.20    2.58
  -2   8  -3  105.74    2.49
   8   2  -3  110.22    2.51
   8  -3  -2  110.02    2.40
   3   2  -8  117.01    2.73
   8  -2  -3  119.50    2.59
   2   8  -3  115.47    2.72
   8   3  -2  113.74    2.66
  -2   3  -8  115.51    2.67
   8   3  -3    0.32    0.17
  -3   3  -8    0.18    0.16
  -3   8  -3    0.14    0.13
   8  -3  -3    0.28    0.13
   3   8  -3    0.28    0.19
   3   3  -8    0.24    0.19
   8   0  -4    4.66    0.32
   0   4  -8    5.29    0.37
   0   8  -4    5.24    0.36
   4  -1  -8   61.71    1.60
   1   4  -8   62.62    1.59
   8   1  -4   62.50    1.54
  -1   8  -4   60.98    1.54
   4   1  -8   67.52    1.74
  -1   4  -8   68.23    1.70
   8  -1  -4   70.41    1.65
   8   4  -1   68.51    1.70
   1   8  -4   69.44    1.72
  -8   4   1   67.64    1.51
   2   4  -8  333.54    7.08
   8   2  -4  321.18    7.01
  -2   8  -4  325.11    6.98
   2   8  -4  335.56    7.16
   8   4  -2  328.02    7.13
   4   2  -8  326.83    7.17
   8  -2  -4  338.34    7.06
  -2   4  -8  326.70    7.11
   4   8  -3   72.54    1.84
   8   3  -4   71.37    1.78
  -3   8  -4   72.79    1.71
   3   4  -8   72.40    1.83
   8  -3   4   70.62    1.55
   8  -3  -4   66.01    1.60
   3   8  -4   68.43    1.73
   4   3  -8   66.98    1.73
  -3   4  -8   66.56    1.65
  -4   8  -3   67.40    1.58
   8   4  -3   67.62    1.69
   4   4  -8  179.66    4.20
  -4   8  -4  188.60    4.05
  -4   4  -8  185.19    4.10
   8   4  -4  189.31    4.18
   4   8  -4  188.61    4.22
   5   0  -8  442.32    9.47
   8   0  -5  443.27    9.40
   0   5  -8  449.64    9.45
   0   8  -5  434.46    9.43
   5  -1  -8   37.97    1.11
   8   1  -5   37.26    1.06
   1   5  -8   37.75    1.10
  -1   8  -5   39.71    1.07
   1   8  -5   36.87    1.07
   8  -1  -5   37.96    1.02
  -8   5   1   37.88    0.86
  -1   5  -8   34.48    1.04
   5   1  -8   37.58    1.10
   8   2  -5   16.64    0.64
   2   5  -8   16.97    0.67
  -2   8  -5   16.89    0.60
   2   8  -5   15.16    0.62
  -2   5  -8   14.56    0.58
   8   5  -2   14.52    0.61
   8  -2  -5   15.55    0.56
   3   5  -8   80.99    2.08
  -3   8  -5   86.20    1.98
   5   8  -3   84.92    2.11
   8   3  -5   83.87    2.06
   8  -3   5   83.88    1.84
  -3   5  -8   84.28    2.04
   3   8  -5   87.30    2.14
   8  -3  -5   85.51    2.03
  -5   8  -3   87.91    1.95
   5   3  -8   84.71    2.13
   8   5  -3   86.84    2.12
  -4   8  -5   60.83    1.47
   5   8  -4   61.47    1.64
   8   4  -5   60.46    1.60
   8  -4   5   58.12    1.34
   4   5  -8   63.70    1.64
  -5   8  -4   57.18    1.36
   4   8  -5   56.38    1.55
   5   4  -8   56.15    1.54
   8   5  -4   57.85    1.53
  -4   5  -8   57.37    1.43
   5   5  -8   69.37    1.79
   5   8  -5   67.72    1.79
   8  -5   5   64.89    1.48
   8   5  -5   67.22    1.76
  -5   5  -8   66.55    1.64
  -5   8  -5   69.44    1.60
   8   0  -6  125.76    2.92
   0   6  -8  124.58    2.94
   6   0  -8  127.63    2.97
   0   8  -6  127.00    2.93
  -8   6   0  127.71    2.69
   1   6  -8   10.69    0.52
  -1   8  -6    9.96    0.47
   8   1  -6    9.87    0.49
   8  -1  -6   10.15    0.49
   6   1  -8    9.60    0.52
  -1   6  -8    9.83    0.48
   1   8  -6    9.60    0.50
  -8   6   1   10.57    0.36
   6  -2  -8  138.89    3.19
  -2   8  -6  138.45    3.11
   2   6  -8  136.45    3.19
   8   2  -6  134.87    3.16
   8  -2  -6  139.45    3.19
   2   8  -6  139.10    3.25
   6   2  -8  141.67    3.27
  -2   6  -8  139.07    3.19
   8   6  -2  141.48    3.26
   3   6  -8   18.16    0.71
   8   3  -6   16.04    0.66
  -3   8  -6   15.79    0.58
   6   8  -3   18.49    0.72
  -3   6  -8   11.61    0.50
   8   6  -3   12.52    0.58
  -6   8  -3   11.70    0.39
   3   8  -6   10.74    0.54
   8  -3  -6   12.42    0.52
   8   4  -6  114.55    2.75
   6   8  -4  116.66    2.80
   4   6  -8  116.58    2.79
  -4   8  -6  114.73    2.62
  -6   8  -4  109.27    2.48
   4   8  -6  111.15    2.72
   6   4  -8  115.16    2.73
   8   6  -4  114.00    2.71
  -4   6  -8  113.71    2.59
   5   6  -8   48.28    1.43
   8   5  -6   51.91    1.43
  -5   8  -6   50.86    1.26
   6   8  -5   51.02    1.45
   6   5  -8   49.50    1.42
  -5   6  -8   49.23    1.27
   8   6  -5   51.48    1.43
  -6   8  -5   47.80    1.19
   5   8  -6   50.85    1.43
  -6   6  -8  106.16    2.41
   8   6  -6  102.43    2.58
   6   8  -6  106.22    2.61
   6   6  -8  105.43    2.61
  -6   8  -6  105.94    2.37
   0   7  -8   75.59    1.92
   0   8  -7   76.93    1.92
   7   0  -8   78.84    1.96
   8   0  -7   76.48    1.92
   8   1  -7   21.98    0.79
   7  -1  -8   23.28    0.81
  -1   8  -7   23.39    0.78
   1   7  -8   23.66    0.81
  -1   7  -8   19.93    0.72
   1   8  -7   19.47    0.74
   8  -1  -7   21.28    0.75
   7   1  -8   20.03    0.76
  -2   8  -7   19.24    0.68
   2   7  -8   19.73    0.75
   7  -2  -8   19.75    0.74
   8   2  -7   19.53    0.74
  -7   8  -2   15.64    0.45
  -2   7  -8   16.57    0.62
   8   7  -2   16.29    0.69
   2   8  -7   14.73    0.66
   7   2  -8   16.23    0.68
   8  -2  -7   16.06    0.63
   3   7  -8   42.40    1.25
   8   3  -7   42.46    1.23
  -3   8  -7   40.11    1.13
   7   8  -3   41.27    1.25
   7   3  -8   40.09    1.21
  -3   7  -8   40.13    1.12
   8   7  -3   41.58    1.23
   3   8  -7   41.64    1.22
  -7   8  -3   39.12    0.95
  -4   8  -7   65.92    1.63
   4   7  -8   63.68    1.76
   7   8  -4   66.16    1.79
   8   4  -7   67.84    1.77
  -8   7  -4   67.30    1.44
   7   4  -8   65.42    1.78
   8   7  -4   69.65    1.81
  -4   7  -8   67.05    1.66
   4   8  -7   69.04    1.80
  -7   8  -4   64.98    1.51
   5   7  -8   47.92    1.42
   8   5  -7   48.59    1.42
  -5   8  -7   49.40    1.26
   7   8  -5   50.83    1.45
  -8   7  -5   49.68    1.13
   5   8  -7   52.09    1.45
  -7   8  -5   47.56    1.15
  -5   7  -8   47.95    1.26
   8   7  -5   47.24    1.41
   7   5  -8   48.66    1.42
   6   7  -8  115.40    2.77
   7   8  -6  113.01    2.76
   8   6  -7  105.67    2.72
  -8   7  -6  111.48    2.43
  -6   8  -7  110.89    2.52
  -6   7  -8  109.76    2.50
  -7   8  -6  108.23    2.43
   6   8  -7  109.86    2.71
   7   6  -8  109.12    2.71
   8   7  -6  110.37    2.71
  -7   7  -8   31.48    0.89
  -7   8  -7   33.10    0.87
   7   7  -8   31.93    1.11
   7   8  -7   31.50    1.10
   8   7  -7   32.69    1.12
   0   8  -8   57.44    1.52
   8   0  -8   54.71    1.52
  -1   8  -8   73.66    1.87
   1   8  -8   73.97    1.91
   8  -1  -8   73.64    1.90
   8   1  -8   75.79    1.92
  -8   8  -2    7.50    0.26
  -2   8  -8    7.17    0.43
   2   8  -8    8.91    0.52
   8  -2  -8    7.83    0.49
   8   2  -8    8.14    0.50
  -8   8  -3  114.05    2.54
  -3   8  -8  120.18    2.77
   3   8  -8  124.62    2.90
   8   3  -8  119.35    2.87
   8   8  -3  119.19    2.90
  -8   8  -4   16.96    0.47
  -4   8  -8   17.22    0.63
   4   8  -8   18.87    0.78
   8   8  -4   18.36    0.78
  -8   8  -5  107.57    2.36
  -5   8  -8  108.62    2.51
   5   8  -8  109.94    2.70
   8   5  -8  105.10    2.67
   8   8  -5  110.92    2.71
  -8   8  -6   18.97    0.55
  -6   8  -8   20.17    0.65
   6   8  -8   19.06    0.82
   8   6  -8   18.51    0.82
   8   8  -6   18.39    0.82
  -8   8  -7    9.42    0.38
  -7   8  -8   10.30    0.44
   7   8  -8   10.64    0.65
   8   7  -8    9.59    0.62
   8   8  -7    9.42    0.62
  -8   8  -8  147.41    3.28
   8   8  -8  149.14    3.60
   9   0   0    0.14    0.11
   0   1  -9  231.19    5.14
   9   0  -1  234.49    4.99
   9   0   1  235.55    4.96
   9   1   0  227.61    5.00
   9  -1   0  235.81    4.94
   9  -1   1    6.98    0.27
   9  -1  -1    6.89    0.30
   9   1  -1    6.12    0.33
   9   0  -2    2.15    0.21
   0   2  -9    1.96    0.27
   9  -2   0    2.31    0.17
   9   2   0    1.65    0.21
   2   0  -9    1.62    0.27
   9   1  -2  127.26    2.94
   9  -2  -1  135.23    2.85
   1   2  -9  132.36    3.06
   2   1  -9  136.04    3.21
   9  -2   1  142.25    2.95
  -1   2  -9  137.51    3.19
   9  -1  -2  137.32    3.04
   9   2  -1  139.77    3.11
  -2   2  -9    5.94    0.39
   9  -2   2    6.10    0.21
   9   2  -2    6.02    0.35
   9  -2  -2    5.83    0.29
   9   0  -3    0.53    0.16
   3   0  -9    0.78    0.22
   0   3  -9    0.47    0.20
   9  -3   0    0.58    0.09
   1   3  -9    4.86    0.39
   9  -3  -1    5.90    0.25
   9   1  -3    5.78    0.34
   3   1  -9    2.82    0.33
  -9   3   1    3.16    0.21
  -1   3  -9    3.15    0.31
   9  -1  -3    3.66    0.27
   9   3  -1    3.02    0.29
   2   3  -9  125.21    2.92
   9   2  -3  124.43    2.84
  -2   9  -3  123.89    2.83
   9  -3  -2  122.85    2.71
   9   3  -2  122.99    2.78
   9  -2  -3  118.40    2.69
  -2   3  -9  121.97    2.81
   3   2  -9  120.28    2.86
   9   3  -3   20.00    0.70
   3   3  -9   21.22    0.76
  -3   3  -9   20.15    0.71
   9  -3  -3   21.03    0.63
  -3   9  -3   21.98    0.68
   4   0  -9    2.67    0.33
   9   0  -4    3.59    0.28
   0   9  -4    3.17    0.31
   0   4  -9    3.13    0.32
  -1   9  -4  126.40    2.89
   9   1  -4  126.07    2.87
   4  -1  -9  122.61    2.96
   1   4  -9  127.35    2.95
  -9   4   1  138.93    2.93
   9  -1  -4  136.72    3.08
   9   4  -1  135.01    3.14
   4   1  -9  135.42    3.20
  -1   4  -9  142.57    3.17
   1   9  -4  134.39    3.17
  -2   9  -4   25.59    0.79
   9   2  -4   24.69    0.80
   2   4  -9   25.01    0.86
   9  -2  -4   23.25    0.69
  -2   4  -9   21.18    0.75
   9   4  -2   21.43    0.75
   2   9  -4   22.37    0.79
   4   2  -9   21.64    0.80
   4   9  -3  181.72    4.25
   3   4  -9  184.77    4.24
  -3   9  -4  190.99    4.12
   9   3  -4  186.94    4.19
   9  -3   4  190.56    3.93
   4   3  -9  188.30    4.29
   3   9  -4  184.62    4.27
   9   4  -3  189.92    4.23
   9  -3  -4  193.06    4.13
  -4   9  -3  191.47    4.13
  -3   4  -9  185.50    4.20
   4   4  -9  115.53    2.74
   9   4  -4  110.19    2.67
   4   9  -4  111.91    2.73
  -4   4  -9  114.41    2.64
  -4   9  -4  114.21    2.57
   0   5  -9  329.56    7.19
   9   0  -5  333.91    7.13
   0   9  -5  330.76    7.18
   5   0  -9  332.61    7.23
   5  -1  -9   15.73    0.68
   9   1  -5   16.60    0.61
   1   5  -9   15.17    0.63
  -1   9  -5   15.39    0.60
   9  -1  -5   12.94    0.53
  -1   5  -9   13.20    0.57
   5   1  -9   12.42    0.60
  -9   5   1   12.78    0.37
   1   9  -5   13.25    0.59
  -2   9  -5   77.42    1.89
   9   2  -5   78.57    1.92
   2   5  -9   76.64    1.97
  -2   5  -9   88.55    2.12
   9  -2  -5   84.84    2.06
   2   9  -5   90.15    2.18
   5   2  -9   87.12    2.19
   9   5  -2   86.14    2.14
   9   3  -5   52.83    1.43
   9  -3   5   51.42    1.19
   3   5  -9   53.45    1.47
   5   9  -3   54.11    1.50
  -3   9  -5   52.82    1.35
  -3   5  -9   53.76    1.42
  -5   9  -3   54.96    1.33
   9  -3  -5   54.23    1.39
   5   3  -9   52.44    1.49
   9   5  -3   56.68    1.48
   3   9  -5   53.53    1.50
  -4   9  -5  220.31    4.67
   9  -4   5  205.40    4.49
   9   4  -5  213.68    4.79
   5   9  -4  214.70    4.85
   4   5  -9  218.03    4.84
  -4   5  -9  217.05    4.73
  -5   9  -4  215.66    4.64
   5   4  -9  211.96    4.84
   9   5  -4  206.32    4.79
   4   9  -5  221.14    4.85
   9   5  -5   49.07    1.38
  -5   5  -9   48.77    1.28
   5   5  -9   48.33    1.41
  -5   9  -5   47.78    1.22
   5   9  -5   48.07    1.41
   9   0  -6   50.99    1.34
   0   6  -9   48.06    1.36
   6   0  -9   48.20    1.38
   0   9  -6   49.83    1.36
   9   1  -6   19.78    0.71
   6  -1  -9   19.62    0.76
   1   6  -9   19.05    0.74
  -1   9  -6   18.84    0.70
   6   1  -9   23.51    0.83
   9  -1  -6   21.56    0.74
  -9   6   1   21.57    0.56
   1   9  -6   20.58    0.77
  -1   6  -9   22.15    0.77
   2   6  -9   42.53    1.23
  -2   9  -6   39.61    1.13
   9   2  -6   40.54    1.18
   6  -2  -9   40.34    1.22
   6   2  -9   45.06    1.28
   2   9  -6   43.29    1.24
   9  -2  -6   39.42    1.15
   9   6  -2   42.65    1.24
  -2   6  -9   40.84    1.18
   6   9  -3    0.87    0.24
  -3   9  -6    0.90    0.20
   9   3  -6    0.43    0.22
   3   6  -9    0.59    0.25
   3   9  -6    0.92    0.24
  -6   9  -3    0.92    0.16
  -3   6  -9    0.73    0.21
   9  -3  -6    0.87    0.20
   6   3  -9    0.80    0.26
   9   6  -3    0.92    0.26
   6   9  -4  115.34    2.81
  -4   9  -6  111.72    2.62
   9   4  -6  118.33    2.77
   4   6  -9  112.93    2.79
   6   4  -9  111.86    2.68
   4   9  -6  104.52    2.65
  -6   9  -4  110.21    2.43
  -4   6  -9  106.62    2.54
   9   6  -4  110.25    2.65
   9  -5   6   77.76    1.69
   9   5  -6   76.34    1.99
   5   6  -9   76.34    2.01
   6   9  -5   75.48    2.02
  -5   9  -6   75.52    1.82
   9   6  -5   72.35    1.88
  -6   9  -5   68.63    1.66
  -5   6  -9   71.21    1.74
   6   5  -9   69.40    1.88
   5   9  -6   72.51    1.91
  -6   6  -9   36.85    1.05
   6   9  -6   39.42    1.22
   9   6  -6   36.79    1.20
  -6   9  -6   38.57    1.00
   6   6  -9   38.67    1.23
   9  -6   6   37.47    0.89
   0   7  -9    6.71    0.45
   0   9  -7    6.00    0.43
  -9   7   0    6.50    0.23
   9   0  -7    6.35    0.43
   7   0  -9    7.21    0.48
   1   7  -9  118.59    2.79
  -1   9  -7  114.43    2.72
   9   1  -7  111.32    2.73
   7  -1  -9  117.33    2.79
  -1   7  -9  108.59    2.55
   9  -1  -7  105.46    2.54
   1   9  -7  106.72    2.58
   7   1  -9  104.57    2.59
  -2   9  -7   92.79    2.29
   2   7  -9   96.84    2.39
   7  -2  -9   98.71    2.39
   9   2  -7   95.73    2.36
   9  -2  -7   94.25    2.35
   9   7  -2   99.82    2.44
  -7   9  -2   94.71    2.17
  -2   7  -9  100.52    2.37
   2   9  -7   99.06    2.42
   7   2  -9   99.02    2.44
   7   9  -3   47.17    1.42
   9   3  -7   49.74    1.40
   3   7  -9   49.00    1.42
  -3   9  -7   49.38    1.31
   9  -3  -7   47.66    1.30
   3   9  -7   46.11    1.36
   7   3  -9   45.51    1.36
   9   7  -3   46.09    1.36
  -3   7  -9   46.98    1.27
  -7   9  -3   46.02    1.11
  -4   9  -7  185.53    4.17
   4   7  -9  187.53    4.33
   7   9  -4  193.79    4.36
   9   4  -7  186.83    4.31
   4   9  -7  195.61    4.48
  -4   7  -9  195.66    4.34
   7   4  -9  199.71    4.49
   9   7  -4  189.72    4.46
  -7   9  -4  196.41    4.19
   9   5  -7   37.75    1.20
   5   7  -9   37.67    1.22
  -5   9  -7   38.39    1.05
   7   9  -5   37.88    1.21
   5   9  -7   35.26    1.14
  -5   7  -9   32.16    0.97
  -7   9  -5   32.91    0.87
   7   5  -9   33.74    1.12
   9   7  -5   34.42    1.12
   7   9  -6   48.82    1.46
   6   7  -9   46.76    1.44
  -6   9  -7   46.39    1.22
   9   6  -7   48.89    1.44
   6   9  -7   38.12    1.26
  -7   9  -6   38.95    1.01
   9   7  -6   40.76    1.27
  -6   7  -9   39.74    1.09
   7   6  -9   40.54    1.28
  -7   9  -7    1.10    0.19
   9   7  -7    0.67    0.30
   7   7  -9    0.70    0.31
  -7   7  -9    0.86    0.20
   7   9  -7    0.88    0.31
   8   0  -9  116.01    2.82
   9   0  -8  119.93    2.80
   0   8  -9  115.58    2.80
   0   9  -8  114.03    2.78
   9   1  -8   34.64    1.09
   8  -1  -9   35.44    1.11
  -1   9  -8   33.62    1.05
   1   8  -9   33.72    1.09
  -1   8  -9   41.76    1.21
   1   9  -8   40.78    1.23
   9  -1  -8   41.70    1.22
   8   1  -9   40.37    1.24
   9   2  -8    7.84    0.51
   8  -2  -9    8.19    0.53
   2   8  -9    8.79    0.54
  -2   9  -8    7.81    0.46
  -2   8  -9    8.21    0.47
   8   2  -9    8.19    0.53
   9  -2  -8    8.00    0.49
  -8   9  -2    8.79    0.31
   2   9  -8    8.48    0.53
   9   8  -2    9.11    0.56
   3   8  -9   23.47    0.89
  -3   9  -8   23.56    0.80
   9   3  -8   23.14    0.88
   8   9  -3   24.31    0.93
   9   8  -3   22.02    0.87
  -3   8  -9   21.47    0.76
   3   9  -8   21.47    0.85
   8   3  -9   22.52    0.86
  -8   9  -3   21.13    0.57
   4   8  -9  141.02    3.37
  -4   9  -8  138.85    3.21
   9   4  -8  141.95    3.36
   8   9  -4  140.07    3.38
   4   9  -8  127.35    3.05
   8   4  -9  122.93    3.03
  -4   8  -9  123.33    2.89
  -8   9  -4  123.47    2.70
   9   8  -4  125.60    3.04
   5   8  -9    2.22    0.35
  -5   9  -8    2.76    0.28
   8   9  -5    1.79    0.35
   9   5  -8    2.58    0.37
   5   9  -8    1.75    0.33
   8   5  -9    1.22    0.29
  -8   9  -5    1.40    0.16
  -5   8  -9    1.22    0.23
   9   8  -5    1.50    0.32
   6   8  -9   49.68    1.53
   8   9  -6   52.25    1.54
   9   6  -8   52.47    1.54
  -6   9  -8   50.26    1.32
  -8   9  -6   54.10    1.31
   9   8  -6   55.36    1.62
   8   6  -9   56.98    1.63
   6   9  -8   53.79    1.61
  -6   8  -9   55.70    1.43
   9   7  -8  213.05    4.97
   8   9  -7  217.84    4.99
   7   8  -9  218.66    5.00
  -7   9  -8  213.36    4.70
  -8   9  -7  228.14    4.98
  -7   8  -9  237.64    5.07
   7   9  -8  226.10    5.31
   8   7  -9  235.75    5.33
   9   8  -7  232.56    5.32
  -8   8  -9   52.26    1.35
  -8   9  -8   52.01    1.32
   8   8  -9   54.01    1.63
   8   9  -8   54.81    1.62
   9   8  -8   52.88    1.62
   0   9  -9   17.34    0.72
   9   0  -9   16.13    0.72
  -1   9  -9    3.10    0.35
   1   9  -9    2.81    0.36
   9  -1  -9    3.12    0.36
   9   1  -9    2.34    0.33
  -9   9  -2    1.75    0.13
  -2   9  -9    1.34    0.27
   2   9  -9    1.71    0.33
   9  -2  -9    1.52    0.30
   9   2  -9    1.15    0.28
  -9   9  -4    3.32    0.18
  -4   9  -9    3.26    0.33
   4   9  -9    2.91    0.39
   9   4  -9    3.89    0.42
   9   9  -4    2.92    0.38
  -9   9  -5   26.21    0.65
  -5   9  -9   26.77    0.85
   5   9  -9   25.11    0.98
   9   5  -9   28.39    1.03
   9   9  -5   23.39    0.97
  -9   9  -6   15.76    0.47
  -6   9  -9   15.91    0.62
   6   9  -9   15.29    0.78
   9   6  -9   16.97    0.77
   9   9  -6   16.05    0.80
  -9   9  -7   13.68    0.46
  -7   9  -9   13.19    0.54
   7   9  -9   12.06    0.73
   9   7  -9   13.86    0.76
   9   9  -7   13.39    0.76
  -9   9  -8   50.85    1.25
  -8   9  -9   50.88    1.31
   8   9  -9   49.11    1.57
   9   8  -9   51.44    1.60
   9   9  -8   50.96    1.60
   9   9  -9   38.37    1.35
   0   1 -10    5.77    0.44
  10   0  -1    6.02    0.32
  10   0   1    6.22    0.30
  10   1   0    5.26    0.32
  10  -1   0    6.51    0.29
  10  -1  -1    3.10    0.22
   1   1 -10    3.74    0.37
  10   1  -1    2.73    0.24
  10  -1   1    2.69    0.19
  10  -2   0   94.52    2.08
  10   2   0   95.23    2.21
  10   0  -2   97.47    2.19
   0   2 -10   91.58    2.32
   2   0 -10   97.06    2.37
   1   2 -10  112.96    2.75
  10  -1   2  117.49    2.51
  10   1  -2  114.39    2.62
  10  -2  -1  115.26    2.52
  10  -1  -2  119.28    2.69
  10   2  -1  119.34    2.76
   2   1 -10  123.91    2.90
  10  -2   1  122.58    2.60
  -1   2 -10  120.63    2.86
   2   2 -10   37.62    1.14
  10  -2  -2   37.03    0.94
  10  -2   2   36.94    0.85
  10   2  -2   35.71    1.02
   0   3 -10   67.43    1.78
   3   0 -10   70.76    1.82
  10   0  -3   69.21    1.67
  10  -3   0   68.78    1.51
  10   3   0   68.11    1.70
  10  -3  -1   72.03    1.63
   1   3 -10   72.33    1.88
  10   1  -3   73.71    1.77
  10  -1  -3   70.19    1.68
   3   1 -10   70.38    1.84
  10   3  -1   69.94    1.74
  -1   3 -10   70.99    1.81
   2   3 -10  187.71    4.22
  10  -3  -2  181.05    3.97
  10   2  -3  186.25    4.11
   3   2 -10  188.57    4.27
  10   3  -2  188.55    4.16
  10  -2  -3  187.67    4.06
  -2   3 -10  182.34    4.21
   3   3 -10   38.16    1.18
  -3   3 -10   40.15    1.14
  -3  10  -3   37.53    1.07
  10  -3  -3   37.52    1.00
  10   3  -3   40.96    1.12
   0  10  -4   22.98    0.81
   0   4 -10   24.65    0.85
  10   0  -4   24.91    0.76
   4   0 -10   24.38    0.88
   4  -1 -10    2.02    0.31
  10   1  -4    2.17    0.26
  -1  10  -4    2.18    0.28
   1   4 -10    2.84    0.34
  10   4  -1    3.92    0.34
  -1   4 -10    3.58    0.35
  10  -1  -4    3.61    0.29
 -10   4   1    3.19    0.19
   4   1 -10    3.59    0.37
   1  10  -4    3.48    0.34
   2   4 -10  183.54    4.10
  -2  10  -4  176.86    3.99
  10   2  -4  174.69    3.99
  10  -2  -4  171.22    3.76
   4   2 -10  167.26    3.92
   2  10  -4  173.40    3.92
  -2   4 -10  171.23    3.88
  10   4  -2  168.94    3.85
  10   3  -4  118.62    2.78
  -3  10  -4  119.91    2.73
   3   4 -10  115.52    2.85
  -4  10  -3  108.67    2.49
   3  10  -4  108.27    2.64
  10   4  -3  108.60    2.58
  -3   4 -10  107.43    2.57
  10  -3  -4  110.08    2.48
   4   3 -10  106.36    2.65
  10   4  -4   39.15    1.15
   4   4 -10   39.25    1.20
   4  10  -4   39.42    1.21
  -4   4 -10   34.80    1.09
  -4  10  -4   39.19    1.06
   0  10  -5    3.30    0.34
   5   0 -10    2.81    0.34
  10   0  -5    3.43    0.31
   0   5 -10    3.88    0.38
   1   5 -10  103.32    2.53
  -1  10  -5  104.16    2.47
   5  -1 -10  104.31    2.56
  10   1  -5  102.59    2.45
   5   1 -10  108.06    2.70
 -10   5   1  112.62    2.38
  10   5  -1  109.56    2.64
   1  10  -5  109.82    2.67
  -1   5 -10  112.64    2.66
  10  -1  -5  112.87    2.58
  10   2  -5    2.52    0.30
  -2  10  -5    2.19    0.27
   2   5 -10    3.10    0.36
  10   5  -2    3.79    0.36
   5   2 -10    2.67    0.33
  10  -2  -5    3.21    0.29
   2  10  -5    3.35    0.37
  -2   5 -10    3.99    0.35
  10   3  -5   52.73    1.45
  10  -3   5   53.93    1.20
  -3  10  -5   53.04    1.39
   5  10  -3   50.54    1.50
   3   5 -10   55.90    1.53
   3  10  -5   56.96    1.57
  10   5  -3   55.30    1.52
  10  -3  -5   55.84    1.43
   5   3 -10   56.62    1.58
  -5  10  -3   56.10    1.39
  -3   5 -10   54.86    1.49
   4   5 -10   25.83    0.93
  10   4  -5   26.44    0.91
  -4  10  -5   26.82    0.81
   5  10  -4   26.80    0.96
  -4   5 -10   25.02    0.82
   5   4 -10   24.33    0.91
   4  10  -5   23.19    0.89
  -5  10  -4   24.59    0.74
  10   5  -4   23.74    0.87
  10   5  -5  292.29    6.32
  -5  10  -5  280.98    6.13
  -5   5 -10  275.05    6.20
   5   5 -10  291.19    6.37
   5  10  -5  287.85    6.36
  10   0  -6    4.12    0.35
   0  10  -6    3.96    0.36
   0   6 -10    4.10    0.39
   6   0 -10    4.82    0.43
   1   6 -10   63.38    1.70
  10   1  -6   62.68    1.64
  -1  10  -6   62.15    1.64
   6  -1 -10   64.50    1.73
  10  -1  -6   68.94    1.74
   1  10  -6   67.56    1.79
 -10   6   1   69.56    1.51
   6   1 -10   68.52    1.84
  -1   6 -10   67.58    1.78
   2   6 -10    1.20    0.27
  10   2  -6    0.78    0.23
  -2  10  -6    0.96    0.22
   6   2 -10    0.63    0.23
  -2   6 -10    0.74    0.23
  10   6  -2    0.88    0.25
   2  10  -6    0.48    0.24
  10  -2  -6    0.87    0.21
  -3  10  -6   66.47    1.74
  10   3  -6   74.44    1.85
   6  10  -3   70.17    1.90
   3  10  -6   67.66    1.82
  -6  10  -3   65.99    1.60
  10   6  -3   65.58    1.79
   6   3 -10   68.91    1.84
  10  -3  -6   67.37    1.71
  -3   6 -10   69.62    1.74
  10  -4   6   27.69    0.69
   6  10  -4   28.81    1.01
  10   4  -6   28.26    0.96
  -4  10  -6   28.46    0.87
   4   6 -10   28.43    1.01
   6   4 -10   25.97    0.95
  10   6  -4   24.07    0.90
  -4   6 -10   24.43    0.83
  -6  10  -4   25.49    0.73
   4  10  -6   25.61    0.94
   5   6 -10    0.44    0.25
  10  -5   6    0.29    0.09
   6  10  -5    0.07    0.25
  -5  10  -6    0.39    0.16
  10   5  -6    0.09    0.23
  -6  10  -5    0.54    0.16
  10   6  -5    0.73    0.26
  -5   6 -10    0.76    0.21
   5  10  -6    0.51    0.27
   6   5 -10    0.74    0.28
   6   6 -10   19.76    0.85
  10   6  -6   18.66    0.81
  -6   6 -10   18.69    0.69
  -6  10  -6   18.76    0.63
   0   7 -10   49.30    1.44
   0  10  -7   53.07    1.44
   7   0 -10   49.96    1.47
  10   0  -7   52.98    1.43
  -1  10  -7   23.80    0.84
   7  -1 -10   23.77    0.90
   1   7 -10   24.26    0.88
  10   1  -7   24.25    0.85
   7   1 -10   21.98    0.86
  -1   7 -10   19.97    0.79
 -10   7   1   23.72    0.59
   1  10  -7   21.44    0.82
  10  -1  -7   22.37    0.79
   7  -2 -10   17.86    0.77
   2   7 -10   17.46    0.76
  -2  10  -7   18.77    0.70
  10   2  -7   18.93    0.75
   7   2 -10   16.37    0.73
  10  -2  -7   15.83    0.65
  10   7  -2   15.38    0.71
   2  10  -7   16.23    0.71
  -2   7 -10   15.03    0.64
   7  10  -3   49.44    1.46
  -3  10  -7   47.56    1.31
  10   3  -7   47.96    1.39
   3   7 -10   46.47    1.41
  10   7  -3   53.99    1.55
   3  10  -7   54.70    1.56
  10  -3  -7   54.70    1.46
   7   3 -10   52.47    1.54
  -7  10  -3   53.44    1.30
  -3   7 -10   55.07    1.47
  -4  10  -7   40.93    1.14
   7  10  -4   39.90    1.30
  10   4  -7   39.61    1.25
   4   7 -10   41.44    1.30
  -7  10  -4   31.21    0.82
  -4   7 -10   28.98    0.94
  10   7  -4   31.52    1.06
   7   4 -10   29.25    1.05
   4  10  -7   28.62    1.04
   7  10  -5   21.55    0.89
   5   7 -10   21.52    0.88
  -5  10  -7   21.01    0.71
  10   5  -7   19.64    0.83
  -5   7 -10   14.07    0.59
  10   7  -5   14.09    0.70
  -7  10  -5   14.59    0.49
   7   5 -10   13.75    0.72
  -6  10  -7   98.44    2.30
   6   7 -10  100.31    2.55
   7  10  -6   96.67    2.54
  10   6  -7   98.21    2.52
   6  10  -7   78.73    2.15
  10   7  -6   82.31    2.15
  -6   7 -10   81.25    1.97
  -7  10  -6   81.36    1.88
   7   6 -10   77.42    2.14
  -7   7 -10    2.50    0.28
  -7  10  -7    2.03    0.23
  10   7  -7    3.03    0.42
   7   7 -10    2.31    0.40
   7  10  -7    2.57    0.41
   0  10  -8   23.23    0.87
   8   0 -10   26.84    0.95
 -10   8   0   24.10    0.59
  10   0  -8   24.10    0.89
   0   8 -10   25.89    0.91
  10   1  -8   35.72    1.13
  -1  10  -8   35.38    1.11
   1   8 -10   35.67    1.15
   8  -1 -10   35.16    1.15
  -1   8 -10   35.77    1.11
  10  -1  -8   32.78    1.08
   8   1 -10   35.85    1.16
   1  10  -8   35.01    1.13
  -2  10  -8   29.50    0.94
   2   8 -10   28.15    0.99
  10   2  -8   27.73    0.97
   8  -2 -10   26.78    0.99
  -2   8 -10   19.97    0.79
  10   8  -2   21.80    0.87
   2  10  -8   22.20    0.86
  -8  10  -2   19.72    0.59
   8   2 -10   22.26    0.87
  10  -2  -8   22.68    0.82
  -3  10  -8    5.29    0.41
  10   3  -8    4.92    0.45
   8  10  -3    5.66    0.50
   3   8 -10    4.83    0.45
  10   8  -3    5.60    0.49
  10  -3  -8    6.50    0.45
   3  10  -8    7.20    0.54
   8   3 -10    6.55    0.53
  -3   8 -10    7.00    0.45
  -8  10  -3    6.32    0.30
  10   4  -8   26.72    0.96
   8  10  -4   26.18    0.99
  -4  10  -8   23.59    0.82
   4   8 -10   21.95    0.91
   8   4 -10   27.04    1.03
  -8  10  -4   28.63    0.75
  -4   8 -10   28.01    0.92
  10   8  -4   30.16    1.05
   4  10  -8   28.18    1.02
  -5  10  -8   93.04    2.24
   8  10  -5   92.65    2.44
  10   5  -8   95.08    2.42
   5   8 -10   92.27    2.43
  10   8  -5   96.26    2.45
   8   5 -10   90.86    2.42
  -5   8 -10   94.82    2.27
  -8  10  -5   94.90    2.11
   5  10  -8   90.41    2.43
   6   8 -10    8.64    0.62
  10   6  -8    9.42    0.63
  -6  10  -8    8.02    0.44
   8  10  -6    7.46    0.60
   6  10  -8    3.59    0.45
  10   8  -6    3.43    0.41
  -6   8 -10    3.46    0.33
  -8  10  -6    3.58    0.26
   8   6 -10    3.91    0.45
   8  10  -7   21.66    0.95
  10   7  -8   22.33    0.94
   7   8 -10   22.71    0.95
  -7  10  -8   18.63    0.67
  10   8  -7   16.71    0.84
   8   7 -10   16.63    0.84
  -7   8 -10   17.35    0.65
  -8  10  -7   17.41    0.57
   7  10  -8   17.62    0.85
   8   8 -10   48.88    1.56
   8  10  -8   50.42    1.59
  -8  10  -8   48.71    1.26
  10   8  -8   50.55    1.57
   9   0 -10    1.19    0.30
   0  10  -9    1.39    0.30
  10   0  -9    1.12    0.28
   0   9 -10    0.73    0.27
  -1  10  -9    6.45    0.49
  10   1  -9    6.32    0.51
   9  -1 -10    7.35    0.53
   1   9 -10    5.53    0.47
   9   1 -10    5.98    0.52
  10  -1  -9    6.94    0.52
  -1   9 -10    8.06    0.51
   1  10  -9    7.89    0.53
  10   2  -9    1.52    0.31
   2   9 -10    1.47    0.32
  -2  10  -9    1.05    0.26
   9  -2 -10    1.67    0.33
  -9  10  -2    1.40    0.15
   9   2 -10    1.06    0.31
  -2   9 -10    0.99    0.26
   2  10  -9    0.65    0.28
  10   9  -2    0.96    0.30
  10  -2  -9    0.59    0.27
  -3  10  -9    0.40    0.22
   9  10  -3    0.25    0.29
   3   9 -10    0.19    0.26
  10   3  -9    0.57    0.27
  -3   9 -10    0.37    0.22
  10   9  -3    0.36    0.28
   3  10  -9    0.24    0.28
   9   3 -10    0.51    0.28
  -9  10  -3    0.47    0.11
  -4  10  -9   16.58    0.67
   4   9 -10   16.38    0.80
   9  10  -4   16.20    0.82
  10   4  -9   15.68    0.77
   4  10  -9   12.53    0.71
  -4   9 -10   12.94    0.60
   9   4 -10   14.47    0.74
  -9  10  -4   13.11    0.41
  10   9  -4   15.18    0.75
  -5  10  -9   47.81    1.33
   5   9 -10   49.09    1.53
   9  10  -5   48.48    1.51
  10   5  -9   49.86    1.52
   9   5 -10   48.73    1.48
  -5   9 -10   46.26    1.30
  10   9  -5   43.95    1.44
   5  10  -9   46.86    1.47
  -9  10  -5   45.13    1.09
  -6  10  -9   59.25    1.53
  10   6  -9   58.66    1.74
   9  10  -6   59.15    1.75
   6   9 -10   58.28    1.74
  -9  10  -6   61.96    1.47
  -6   9 -10   61.14    1.63
   9   6 -10   68.02    1.88
   6  10  -9   62.06    1.84
  10   9  -6   66.72    1.87
  10   7  -9   17.14    0.85
   9  10  -7   17.69    0.88
  -7  10  -9   16.11    0.63
   7   9 -10   17.84    0.85
   9   7 -10   16.85    0.82
  10   9  -7   14.78    0.78
   7  10  -9   15.62    0.84
  -7   9 -10   16.03    0.63
  -9  10  -7   15.85    0.52
  10   8  -9   35.72    1.28
  -8  10  -9   32.58    0.97
   8   9 -10   35.15    1.28
   9  10  -8   34.72    1.28
  -9  10  -8   41.33    1.05
  -8   9 -10   40.69    1.13
   8  10  -9   39.07    1.39
   9   8 -10   39.14    1.38
  10   9  -8   39.77    1.39
  -9  10  -9   30.76    0.90
   9   9 -10   32.19    1.24
   9  10  -9   31.60    1.20
  10   9  -9   32.38    1.23
   0  10 -10   98.33    2.47
  10   0 -10   96.35    2.49
 -10  10  -1   36.46    0.86
  -1  10 -10   35.35    1.17
   1  10 -10   34.25    1.18
  10  -1 -10   35.43    1.20
  10   1 -10   38.77    1.23
  -2  10 -10   31.65    1.07
   2  10 -10   34.35    1.17
  10  -2 -10   34.11    1.15
  10   2 -10   34.25    1.16
  10  10  -2   31.04    1.15
  -3  10 -10   76.49    1.98
   3  10 -10   77.18    2.10
  10   3 -10   77.02    2.10
  10  10  -3   76.04    2.12
  -4  10 -10   95.52    2.35
   4  10 -10   92.89    2.49
  10   4 -10   97.52    2.51
  10  10  -4   95.50    2.53
  -5  10 -10   22.57    0.82
   5  10 -10   22.90    0.99
  10   5 -10   24.20    0.99
  10  10  -5   25.17    1.03
 -10  10  -6   12.90    0.40
  -6  10 -10   12.81    0.60
   6  10 -10   12.61    0.76
  10   6 -10   15.08    0.77
  10  10  -6   12.56    0.73
 -10  10  -7   71.94    1.64
  -7  10 -10   69.55    1.81
   7  10 -10   73.93    2.08
  10   7 -10   74.21    2.09
  10  10  -7   71.85    2.06
  -8  10 -10   33.70    1.01
   8  10 -10   30.94    1.25
  10   8 -10   36.20    1.30
  10  10  -8   37.27    1.32
  -9  10 -10   36.76    1.05
   9  10 -10   36.58    1.34
  10   9 -10   37.02    1.34
  10  10  -9   37.19    1.37
  10  10 -10   14.75    0.89
  11   0  -1   18.97    0.61
  11   0   1   20.25    0.59
  11   1   0   18.89    0.62
  11  -1   0   19.26    0.57
  11   1  -1   38.20    1.03
   1   1 -11   37.22    1.18
  11  -1  -1   38.60    0.97
  11  -1   1   37.31    0.93
  11   1   1   38.57    1.01
   0   2 -11  123.92    3.11
  11  -2   0  130.53    2.85
  11   2   0  134.43    2.99
  11   0  -2  136.79    2.96
  11  -2  -1   57.44    1.32
   1   2 -11   56.47    1.57
  11   1  -2   55.42    1.42
  11  -1   2   55.56    1.31
  11   2  -1   60.16    1.51
  11  -2   1   60.88    1.34
  11  -1  -2   57.98    1.43
   2   1 -11   60.60    1.66
  -1   2 -11   57.54    1.61
  11  -2   2   11.60    0.35
  11   2  -2   11.12    0.50
   2   2 -11   11.88    0.62
  11  -2  -2   11.26    0.42
  11  -3   0    0.53    0.11
   0   3 -11    0.71    0.25
  11   0  -3    0.46    0.17
  11   3   0    0.54    0.19
   3   0 -11    0.45    0.24
  11  -3  -1  114.36    2.50
  11   1  -3  111.69    2.64
   1   3 -11  117.26    2.79
  11  -1  -3  110.51    2.54
  11  -3   1  113.59    2.37
  11   3  -1  110.65    2.61
  -1   3 -11  112.29    2.71
   3   1 -11  111.26    2.74
   2   3 -11  156.22    3.56
  11   2  -3  145.35    3.40
  11  -2   3  151.32    3.21
  11  -3  -2  149.22    3.28
  11   3  -2  151.39    3.39
  11  -2  -3  146.43    3.28
   3   2 -11  147.63    3.50
  -2   3 -11  147.23    3.45
   3   3 -11   28.18    0.99
  11   3  -3   27.03    0.89
  11  -3  -3   27.88    0.78
   0   4 -11   40.30    1.23
   4   0 -11   39.99    1.26
  11   4   0   42.05    1.17
   0  11  -4   40.97    1.21
  11   0  -4   39.10    1.11
   1   4 -11   21.76    0.83
  11   1  -4   22.26    0.75
  -1  11  -4   22.16    0.79
   4   1 -11   23.39    0.89
  11   4  -1   24.63    0.83
  -1   4 -11   25.15    0.87
  11  -1  -4   24.17    0.76
   1  11  -4   22.93    0.85
  11   2  -4    4.32    0.36
   2   4 -11    4.93    0.46
  -2  11  -4    4.28    0.36
  -2   4 -11    2.90    0.34
   4   2 -11    2.76    0.37
  11   4  -2    3.12    0.32
  11  -2  -4    3.20    0.28
   2  11  -4    3.49    0.38
  -3  11  -4   20.84    0.71
   3   4 -11   18.25    0.79
  11   3  -4   19.17    0.72
  11  -3  -4   15.06    0.55
  11   4  -3   14.08    0.63
  -4  11  -3   15.91    0.60
  -3   4 -11   16.17    0.68
   3  11  -4   15.19    0.71
   4   3 -11   17.71    0.75
  -4  11  -4    4.15    0.34
   4  11  -4    3.69    0.42
  11   4  -4    4.54    0.40
   4   4 -11    3.69    0.40
  11   0  -5   20.19    0.73
   5   0 -11   22.71    0.89
   0   5 -11   23.72    0.86
   0  11  -5   22.46    0.82
   5  -1 -11   65.18    1.78
  11   1  -5   60.71    1.63
  -1  11  -5   62.54    1.67
   1   5 -11   67.04    1.76
   5   1 -11   59.67    1.71
  11  -1  -5   62.01    1.58
 -11   5   1   63.22    1.38
   1  11  -5   60.72    1.67
  11   5  -1   62.37    1.66
  -1   5 -11   63.82    1.68
  11   2  -5   70.40    1.82
  -2  11  -5   73.00    1.82
   2   5 -11   71.17    1.91
   5   2 -11   82.55    2.17
  -2   5 -11   81.58    2.09
  11  -2  -5   81.48    1.99
   2  11  -5   83.99    2.14
  11   5  -2   83.92    2.09
  11   3  -5   20.67    0.78
  -3  11  -5   20.06    0.73
   3   5 -11   21.31    0.85
  11  -3   5   20.60    0.52
  -3   5 -11   21.84    0.78
  11  -3  -5   20.06    0.69
   3  11  -5   19.86    0.82
   5   3 -11   19.52    0.81
  -5  11  -3   19.31    0.67
  11   5  -3   20.58    0.78
   5  11  -4   32.38    1.14
  -4  11  -5   34.26    1.00
  11   4  -5   34.84    1.09
   4   5 -11   32.49    1.13
   5   4 -11   33.63    1.15
  -4   5 -11   36.06    1.08
  11   5  -4   34.63    1.11
  -5  11  -4   34.43    0.98
   4  11  -5   35.03    1.17
   5  11  -5   16.69    0.78
  -5  11  -5   17.37    0.62
  11   5  -5   16.93    0.74
   6   0 -11   25.09    0.94
  11   0  -6   23.82    0.82
   0   6 -11   24.23    0.90
   0  11  -6   25.08    0.88
  -1  11  -6   60.63    1.61
  11   1  -6   59.18    1.59
   1   6 -11   60.28    1.66
   6  -1 -11   58.28    1.68
  -1   6 -11   49.23    1.40
   6   1 -11   47.93    1.45
 -11   6   1   48.58    1.09
  11  -1  -6   47.62    1.33
  11   6  -1   49.42    1.40
   1  11  -6   48.03    1.41
  11   2  -6    9.29    0.53
   2   6 -11   10.16    0.60
  -2  11  -6   10.21    0.53
  11  -2  -6    9.59    0.49
   6   2 -11   10.27    0.61
  11   6  -2    8.87    0.56
  -2   6 -11    9.71    0.54
   2  11  -6   10.04    0.58
   6  11  -3   81.99    2.14
   3   6 -11   75.22    2.08
  -3  11  -6   78.56    1.96
  11   3  -6   79.68    2.03
  -6  11  -3   82.17    1.95
  -3   6 -11   83.71    2.09
  11   6  -3   81.45    2.13
  11  -3  -6   82.92    2.03
   3  11  -6   82.21    2.16
   6   3 -11   83.39    2.19
  -4  11  -6   14.93    0.61
  11  -4   6   15.44    0.42
   4   6 -11   16.51    0.77
   6  11  -4   14.96    0.75
  11   4  -6   16.68    0.72
  11   6  -4   11.36    0.62
   4  11  -6   13.06    0.69
  -6  11  -4   11.55    0.48
  -4   6 -11   11.94    0.58
   5   6 -11   78.63    2.12
   6  11  -5   78.37    2.12
  -5  11  -6   77.15    1.91
  11   5  -6   79.95    2.08
   5  11  -6   75.33    2.02
  11   6  -5   71.87    1.95
  -6  11  -5   74.80    1.76
   6   5 -11   69.03    1.98
  -5   6 -11   71.34    1.85
  11   6  -6  142.62    3.45
   6   6 -11  148.51    3.52
  -6  11  -6  142.97    3.24
   6  11  -6  142.41    3.50
   0   7 -11   66.35    1.75
   7   0 -11   61.00    1.76
   0  11  -7   63.73    1.71
  11   0  -7   60.59    1.67
   7  -1 -11   89.46    2.35
  -1  11  -7   93.48    2.27
   1   7 -11   87.96    2.31
  11   1  -7   92.07    2.28
  11  -1  -7   94.52    2.34
  -1   7 -11   93.51    2.39
   1  11  -7   98.18    2.42
  11   7  -1   93.83    2.41
   7   1 -11   98.78    2.47
 -11   7   1   95.65    2.07
  11   2  -7    5.26    0.44
   2   7 -11    5.62    0.49
  -2  11  -7    5.20    0.41
  11  -2  -7    4.75    0.40
  -2   7 -11    4.82    0.42
   7   2 -11    4.38    0.47
  11   7  -2    5.20    0.47
   2  11  -7    5.01    0.46
   7  11  -3   68.57    1.90
  -3  11  -7   68.13    1.73
   3   7 -11   64.53    1.84
  11   3  -7   65.06    1.79
  11   7  -3   67.72    1.85
   7   3 -11   69.28    1.89
   3  11  -7   66.92    1.85
  11  -3  -7   68.86    1.76
  -7  11  -3   66.77    1.61
  -3   7 -11   64.25    1.76
  -4  11  -7   79.06    1.96
  11   4  -7   75.88    2.06
   7  11  -4   81.59    2.16
   4   7 -11   78.60    2.13
  11   7  -4   76.51    2.05
  -4   7 -11   77.85    1.96
   7   4 -11   78.80    2.10
  -7  11  -4   75.94    1.81
   4  11  -7   74.72    2.06
  11  -5   7   41.45    0.99
   7  11  -5   42.42    1.37
   5   7 -11   39.56    1.33
  -5  11  -7   38.93    1.14
  11   5  -7   41.44    1.30
   5  11  -7   38.05    1.28
  -5   7 -11   38.36    1.15
   7   5 -11   38.02    1.27
  -7  11  -5   37.66    1.02
  11   7  -5   38.53    1.26
   6   7 -11    1.32    0.32
   7  11  -6    0.94    0.30
  11  -6   7    1.13    0.12
  11   6  -7    1.58    0.33
  -6  11  -7    1.44    0.24
   7   6 -11    0.83    0.32
  -6   7 -11    0.83    0.24
  11   7  -6    0.79    0.30
  -7  11  -6    1.16    0.21
   6  11  -7    1.29    0.35
  -7  11  -7  100.16    2.29
   7  11  -7   94.64    2.56
  11   7  -7   97.90    2.55
   7   7 -11   97.45    2.58
   0  11  -8  205.90    4.76
   0   8 -11  208.43    4.78
   8   0 -11  211.96    4.84
  11   0  -8  211.24    4.75
   1   8 -11    2.21    0.34
  -1  11  -8    2.35    0.33
   8  -1 -11    2.28    0.38
  11   1  -8    2.62    0.35
   8   1 -11    2.39    0.38
  11  -1  -8    1.79    0.31
   1  11  -8    1.79    0.34
 -11   8   1    2.34    0.17
  -1   8 -11    1.80    0.31
  11   2  -8   52.82    1.51
   2   8 -11   51.11    1.54
  -2  11  -8   52.72    1.46
   2  11  -8   54.36    1.56
  -2   8 -11   53.42    1.50
  11  -2  -8   53.27    1.49
  -8  11  -2   51.74    1.28
  11   8  -2   50.24    1.54
   8   2 -11   52.58    1.57
  -3  11  -8   77.81    1.96
  11   3  -8   77.36    2.04
   3   8 -11   75.17    2.07
   8  11  -3   75.16    2.10
  -3   8 -11   83.59    2.14
   8   3 -11   78.85    2.22
   3  11  -8   84.88    2.23
  -8  11  -3   84.60    1.93
  11   8  -3   84.17    2.23
  11  -3  -8   88.21    2.16
  -4  11  -8   28.79    0.95
  11   4  -8   29.78    1.07
   8  11  -4   31.71    1.13
   4   8 -11   29.55    1.10
  -4   8 -11   34.16    1.08
  11   8  -4   34.18    1.19
   8   4 -11   35.20    1.22
  -8  11  -4   34.85    0.91
   4  11  -8   34.27    1.20
  11   5  -8   27.98    1.05
  -5  11  -8   29.13    0.92
   5   8 -11   29.70    1.10
   8  11  -5   26.51    1.08
  -8  11  -5   25.23    0.73
   5  11  -8   23.72    0.99
  11   8  -5   25.01    1.00
  -5   8 -11   26.26    0.88
   8   5 -11   25.13    1.02
  11   6  -8   52.44    1.59
   8  11  -6   51.19    1.62
  -6  11  -8   53.03    1.39
   6   8 -11   50.95    1.61
   8   6 -11   51.94    1.63
  -6   8 -11   54.17    1.45
  -8  11  -6   51.71    1.31
   6  11  -8   53.61    1.64
  11   8  -6   53.80    1.62
   7   8 -11   32.50    1.22
  -7  11  -8   33.97    0.97
  11   7  -8   31.90    1.17
   8  11  -7   32.07    1.20
  11   8  -7   30.78    1.15
  -8  11  -7   28.83    0.85
   8   7 -11   29.59    1.15
  -7   8 -11   30.07    0.95
   7  11  -8   30.54    1.16
   8  11  -8  122.25    3.09
   8   8 -11  122.51    3.11
  -8  11  -8  119.39    2.75
  11   8  -8  117.91    3.06
   0  11  -9   -0.20    0.21
  11   0  -9    0.18    0.23
   9   0 -11   -0.25    0.24
   0   9 -11    0.21    0.24
   9  -1 -11  114.76    2.90
  -1  11  -9  119.07    2.85
  11   1  -9  112.38    2.85
   1   9 -11  118.38    2.90
   1  11  -9  113.51    2.79
  -1   9 -11  111.10    2.76
   9   1 -11  108.94    2.81
  11  -1  -9  112.26    2.76
   2   9 -11   45.33    1.39
  -2  11  -9   44.75    1.32
   9  -2 -11   40.70    1.37
  11   2  -9   45.94    1.38
  11   9  -2   46.35    1.45
  -2   9 -11   47.35    1.37
  11  -2  -9   45.64    1.38
   2  11  -9   45.63    1.43
  -9  11  -2   45.70    1.12
   9   2 -11   45.44    1.44
   3   9 -11   62.32    1.81
  11   3  -9   61.96    1.78
   9  11  -3   63.16    1.85
  -3  11  -9   63.33    1.69
   9   3 -11   67.72    1.94
   3  11  -9   67.14    1.92
  -9  11  -3   68.83    1.58
  11   9  -3   70.25    1.95
  -3   9 -11   70.32    1.83
   9  11  -4   48.46    1.55
   4   9 -11   47.39    1.53
  -4  11  -9   49.51    1.38
  11   4  -9   49.09    1.51
   9   4 -11   47.07    1.46
  -4   9 -11   46.60    1.34
  11   9  -4   45.80    1.46
   4  11  -9   43.54    1.44
  -9  11  -4   44.90    1.10
   5   9 -11   35.32    1.25
   9  11  -5   37.97    1.32
  11   5  -9   36.03    1.26
  -5  11  -9   35.48    1.09
   9   5 -11   43.87    1.42
  -9  11  -5   41.63    1.04
   5  11  -9   40.92    1.40
  -5   9 -11   40.99    1.24
  11   9  -5   42.54    1.40
  -6  11  -9   44.86    1.25
  11   6  -9   43.99    1.45
   9  11  -6   46.37    1.51
   6   9 -11   43.83    1.48
  -6   9 -11   44.63    1.29
  11   9  -6   44.14    1.46
  -9  11  -6   43.72    1.11
   6  11  -9   44.22    1.48
   9   6 -11   47.91    1.51
   9  11  -7   40.86    1.43
  11   7  -9   40.26    1.40
  -7  11  -9   41.52    1.17
   7   9 -11   43.34    1.43
   9   7 -11   44.97    1.51
  11   9  -7   44.12    1.49
   7  11  -9   47.46    1.54
  -7   9 -11   44.35    1.28
  -9  11  -7   46.03    1.15
   9  11  -8   25.92    1.06
  -8  11  -9   24.06    0.78
  11   8  -9   22.89    1.04
   8   9 -11   22.77    1.05
   8  11  -9   23.02    1.05
   9   8 -11   23.24    1.05
  11   9  -8   22.38    1.02
  -8   9 -11   23.62    0.80
  -9  11  -8   22.12    0.70
   9  11  -9   21.05    1.03
   9   9 -11   21.64    1.02
  -9  11  -9   20.66    0.70
  11   9  -9   22.83    1.04
  11   0 -10    0.45    0.28
 -11  10   0    0.51    0.18
   0  11 -10    0.50    0.27
  10   0 -11    0.58    0.30
   0  10 -11    0.58    0.29
  10  -1 -11   46.07    1.46
  11   1 -10   46.18    1.45
  -1  11 -10   49.67    1.43
   1  10 -11   45.36    1.45
  11  -1 -10   40.83    1.32
  10   1 -11   41.54    1.36
   1  11 -10   41.30    1.33
  -1  10 -11   41.30    1.30
  -2  11 -10   29.48    1.04
  10  -2 -11   31.91    1.12
   2  10 -11   30.55    1.13
  10  11  -2   30.66    1.17
  11   2 -10   29.72    1.10
  11  -2 -10   31.56    1.09
  -2  10 -11   29.00    1.03
   2  11 -10   29.27    1.11
 -10  11  -2   29.60    0.75
  10   2 -11   31.40    1.13
  11  10  -2   29.38    1.14
  10  11  -3   68.85    1.95
   3  10 -11   66.28    1.90
  -3  11 -10   62.98    1.77
  11   3 -10   66.33    1.89
  10   3 -11   67.38    1.90
  11  10  -3   64.83    1.90
 -10  11  -3   64.38    1.46
   3  11 -10   65.91    1.88
  -3  10 -11   64.19    1.77
  11   4 -10   49.25    1.52
  -4  11 -10   43.76    1.35
   4  10 -11   46.68    1.52
  10  11  -4   51.28    1.59
   4  11 -10   48.18    1.53
  11  10  -4   46.68    1.51
  10   4 -11   48.30    1.52
 -10  11  -4   47.13    1.09
  -4  10 -11   46.29    1.37
  10  11  -5  161.68    3.83
  -5  11 -10  151.89    3.58
   5  10 -11  157.00    3.80
  11   5 -10  149.27    3.76
  11  10  -5  160.52    3.92
 -10  11  -5  157.99    3.43
  -5  10 -11  161.68    3.72
   5  11 -10  161.83    3.92
  10   5 -11  161.01    3.91
   6  10 -11    8.94    0.70
  11   6 -10    9.57    0.72
  -6  11 -10    9.73    0.53
  10  11  -6    9.36    0.71
  10   6 -11    7.73    0.64
  11  10  -6    8.32    0.69
   6  11 -10    8.70    0.70
  -6  10 -11    8.11    0.52
 -10  11  -6    8.76    0.34
  11   7 -10   25.28    1.08
   7  10 -11   24.39    1.08
  10  11  -7   24.64    1.06
  -7  11 -10   24.35    0.84
  -7  10 -11   23.23    0.82
  11  10  -7   21.26    0.98
 -10  11  -7   21.54    0.64
   7  11 -10   22.87    1.01
  10   7 -11   24.00    1.05
  11   8 -10   50.36    1.63
  -8  11 -10   47.30    1.32
   8  10 -11   49.54    1.64
  10  11  -8   46.84    1.61
  11  10  -8   54.50    1.73
  10   8 -11   54.16    1.73
   8  11 -10   52.46    1.72
  -8  10 -11   52.20    1.43
 -10  11  -8   52.81    1.30
  11   9 -10    2.06    0.46
  10  11  -9    2.31    0.46
   9  10 -11    2.64    0.50
  -9  11 -10    2.89    0.30
 -10  11  -9    4.52    0.32
   9  11 -10    3.80    0.53
  10   9 -11    3.92    0.54
  11  10  -9    3.79    0.50
  10  10 -11   17.15    0.96
  10  11 -10   15.10    0.92
  11  10 -10   14.60    0.91
   0  11 -11    4.07    0.46
  11   0 -11    4.17    0.47
 -11  11  -1   89.92    1.98
  -1  11 -11   88.83    2.35
   1  11 -11   93.07    2.42
  11  -1 -11   90.28    2.40
  11   1 -11   92.77    2.43
  -2  11 -11   46.13    1.39
   2  11 -11   44.56    1.45
  11  -2 -11   44.70    1.44
  11   2 -11   43.44    1.44
  11  11  -2   46.04    1.51
  -3  11 -11    0.36    0.26
   3  11 -11    0.16    0.33
  11   3 -11    0.12    0.30
  11  11  -3    0.10    0.32
  -4  11 -11  131.71    3.18
   4  11 -11  135.23    3.37
  11   4 -11  134.29    3.34
  11  11  -4  132.30    3.37
  -5  11 -11    0.03    0.24
   5  11 -11    0.57    0.36
  11   5 -11    0.73    0.36
  11  11  -5    0.32    0.31
  -6  11 -11    0.54    0.25
   6  11 -11    0.18    0.34
  11   6 -11    0.92    0.35
  11  11  -6   -0.07    0.33
  -7  11 -11    2.87    0.35
   7  11 -11    1.60    0.40
  11   7 -11    1.98    0.44
  11  11  -7    2.54    0.45
  -8  11 -11   -0.03    0.21
   8  11 -11    0.21    0.36
  11   8 -11    0.67    0.38
  11  11  -8    0.96    0.37
  -9  11 -11   43.79    1.24
   9  11 -11   43.24    1.57
  11   9 -11   43.80    1.56
  11  11  -9   45.96    1.59
  10  11 -11    7.39    0.68
  11  10 -11    8.33    0.76
  11  11 -10    7.72    0.70
  11  11 -11   27.75    1.26
  12   0   0   53.81    1.32
  12   0  -1  163.97    3.66
  12   0   1  163.33    3.63
  12  -1   0  167.53    3.61
  12   1   0  170.16    3.69
  12  -1   1   15.88    0.49
  12   1  -1   16.68    0.58
   1   1 -12   14.19    0.72
  12  -1  -1   15.46    0.52
  12   1   1   15.10    0.55
  12   0  -2  170.68    3.75
   0   2 -12  160.22    3.93
  12  -2   0  176.34    3.65
  12   0   2  168.41    3.70
  12   2   0  170.50    3.78
  12  -1   2   42.42    1.03
  12   2   1   43.39    1.16
  12  -2  -1   42.64    1.05
   1   2 -12   39.38    1.30
  12   1  -2   43.01    1.15
   2   1 -12   37.76    1.21
  12   2  -1   36.68    1.05
  12  -2   1   36.71    0.89
  12  -1  -2   35.69    0.98
  12  -2   2   87.60    1.93
  12   2  -2   89.57    2.13
   2   2 -12   92.48    2.31
  12  -2  -2   83.95    2.02
   0   3 -12  113.84    2.78
  12   0  -3  114.42    2.61
   3   0 -12  113.70    2.83
  12  -3   0  111.07    2.44
  12   3   0  111.59    2.65
   1   3 -12  111.13    2.76
  12  -3  -1  108.93    2.44
  12   1  -3  113.14    2.60
   3   1 -12  115.84    2.89
  -1   3 -12  112.21    2.83
  12  -3   1  116.10    2.48
  12   3  -1  118.32    2.73
  12  -1  -3  119.04    2.66
  12   2  -3   28.61    0.91
   2   3 -12   28.19    1.03
  12  -2   3   29.19    0.71
  12  -3  -2   28.54    0.78
  12  -2  -3   27.10    0.78
  -2   3 -12   26.91    0.95
   3   2 -12   26.09    0.99
  12   3  -2   24.37    0.84
  12   3  -3   74.87    1.88
   3   3 -12   74.85    2.00
  12  -3  -3   71.66    1.74
   0  12  -4   93.37    2.27
   4   0 -12   86.57    2.31
   0   4 -12   90.13    2.29
  12   0  -4   88.32    2.14
  12   4   0   87.29    2.19
   1   4 -12  155.09    3.71
  12   1  -4  157.53    3.57
  -1  12  -4  158.79    3.64
  -1   4 -12  157.56    3.67
  12  -1  -4  154.01    3.50
   1  12  -4  158.01    3.66
   4   1 -12  152.79    3.71
  12   4  -1  156.93    3.59
  -2  12  -4   22.25    0.81
  12   2  -4   22.35    0.79
   2   4 -12   22.84    0.90
   4   2 -12   21.84    0.88
  -2   4 -12   23.08    0.86
   2  12  -4   21.46    0.87
  12  -2  -4   21.71    0.72
  12   4  -2   22.63    0.80
   3   4 -12    1.93    0.32
  12   3  -4    2.39    0.32
  -3  12  -4    2.51    0.30
  12  -3  -4    1.49    0.22
  -4  12  -3    1.54    0.25
  12   4  -3    1.36    0.27
   4   3 -12    1.67    0.33
  -3   4 -12    1.50    0.28
   3  12  -4    1.77    0.33
  -4  12  -4    0.67    0.21
   4  12  -4    0.27    0.28
   4   4 -12    0.58    0.29
  12   4  -4    0.49    0.24
   0  12  -5  218.14    4.86
   5   0 -12  209.48    4.93
  12   5   0  212.79    4.82
  12   0  -5  211.72    4.76
   0   5 -12  220.32    4.91
   1   5 -12   12.31    0.67
  -1  12  -5   12.86    0.63
  12   1  -5   13.59    0.60
  12  -1  -5   10.29    0.51
   5   1 -12    9.92    0.61
  -1   5 -12   11.55    0.61
   1  12  -5   10.05    0.59
  12   5  -1    9.93    0.57
  12   2  -5   89.05    2.24
  -2  12  -5   90.38    2.24
   2   5 -12   92.66    2.36
   2  12  -5  105.00    2.64
  12  -2  -5  103.94    2.48
  12   5  -2  107.18    2.59
   5   2 -12  105.36    2.68
  -2   5 -12  106.47    2.61
  12  -3   5   19.05    0.49
  12   3  -5   19.16    0.76
  -3  12  -5   18.49    0.72
   3  12  -5   22.39    0.91
   5   3 -12   21.15    0.91
  -3   5 -12   22.57    0.85
  12   5  -3   21.94    0.85
  12  -3  -5   22.69    0.75
  -5  12  -3   22.94    0.76
   4   5 -12   72.46    1.97
   5  12  -4   72.02    1.97
  -4  12  -5   72.02    1.80
  12   4  -5   66.59    1.86
   5   4 -12   69.45    1.89
   4  12  -5   63.13    1.84
  12   5  -4   66.14    1.78
  -5  12  -4   64.59    1.65
  -4   5 -12   66.19    1.76
  -5  12  -5   21.20    0.74
   5  12  -5   20.67    0.91
   5   5 -12   21.67    0.92
  12   5  -5   21.31    0.86
   0   6 -12  110.97    2.70
   0  12  -6  105.26    2.65
  12   0  -6  107.62    2.59
   6   0 -12  107.76    2.74
  12   1  -6    7.83    0.48
   1   6 -12    8.41    0.58
   6  -1 -12    6.99    0.56
  -1  12  -6    9.62    0.54
   1  12  -6    5.33    0.47
  -1   6 -12    4.97    0.45
  12   6  -1    6.33    0.48
  12  -1  -6    6.04    0.43
   6   1 -12    5.18    0.48
   2   6 -12   15.46    0.76
  12   2  -6   17.06    0.70
  -2  12  -6   16.58    0.70
   6   2 -12   20.69    0.88
  12   6  -2   19.68    0.80
  -2   6 -12   18.49    0.78
  12  -2  -6   19.10    0.72
   2  12  -6   19.91    0.84
  -3  12  -6    2.10    0.29
   3   6 -12    1.64    0.32
  12   3  -6    2.30    0.32
   3  12  -6    3.13    0.41
  12   6  -3    3.31    0.38
  12  -3  -6    3.08    0.32
   6   3 -12    2.63    0.36
  -6  12  -3    2.97    0.29
  -3   6 -12    3.18    0.36
  -4  12  -6   82.86    2.04
   4   6 -12   78.98    2.19
   6  12  -4   82.89    2.24
  12   4  -6   83.86    2.15
   4  12  -6   88.31    2.34
  -4   6 -12   89.37    2.24
   6   4 -12   88.23    2.35
  12   6  -4   87.04    2.28
  -6  12  -4   88.24    2.10
  -5  12  -6   57.45    1.50
   5   6 -12   56.35    1.70
   6  12  -5   57.40    1.72
  12   5  -6   56.51    1.64
   6   5 -12   56.69    1.70
   5  12  -6   56.91    1.70
  -6  12  -5   56.94    1.46
  12   6  -5   57.12    1.65
  -5   6 -12   55.45    1.56
   6   6 -12  127.49    3.26
  -6  12  -6  133.14    3.03
  12   6  -6  130.45    3.23
   6  12  -6  136.68    3.31
  12   0  -7    2.44    0.33
   7   0 -12    2.37    0.38
   0  12  -7    2.28    0.35
   0   7 -12    2.29    0.36
   7  -1 -12    2.68    0.40
  12   1  -7    2.58    0.34
   1   7 -12    2.67    0.38
  -1  12  -7    2.92    0.35
  -1   7 -12    4.59    0.44
   1  12  -7    5.82    0.50
  12  -1  -7    4.68    0.42
   7   1 -12    5.96    0.54
  12   7  -1    5.14    0.47
  12   2  -7   60.45    1.68
   2   7 -12   61.77    1.76
  -2  12  -7   61.54    1.66
   7   2 -12   69.82    1.96
   2  12  -7   69.41    1.91
  12  -2  -7   70.13    1.81
  -2   7 -12   69.05    1.86
  12   7  -2   67.05    1.88
  12   3  -7   28.68    1.03
  -3  12  -7   29.93    0.97
   3   7 -12   28.25    1.08
   7  12  -3   28.51    1.10
  12  -3  -7   30.97    1.00
   7   3 -12   33.93    1.17
   3  12  -7   30.56    1.09
  -7  12  -3   30.57    0.89
  12   7  -3   29.84    1.08
  -3   7 -12   31.44    1.05
   4   7 -12   15.89    0.79
  12   4  -7   16.80    0.77
   7  12  -4   17.83    0.85
  -4  12  -7   17.24    0.69
   4  12  -7   14.59    0.77
  12   7  -4   15.69    0.76
  -4   7 -12   15.32    0.70
  -7  12  -4   14.58    0.56
   7   4 -12   15.29    0.79
   5   7 -12   49.00    1.55
  12   5  -7   52.51    1.54
   7  12  -5   48.06    1.55
  -5  12  -7   49.70    1.36
  12   7  -5   45.47    1.46
   7   5 -12   49.88    1.54
  -7  12  -5   48.05    1.24
  -5   7 -12   47.09    1.37
   5  12  -7   47.26    1.51
  -6  12  -7    3.23    0.32
   7  12  -6    2.46    0.41
   6   7 -12    3.11    0.46
  12   6  -7    3.83    0.46
  -7  12  -6    3.74    0.32
  -6   7 -12    3.74    0.39
  12   7  -6    4.04    0.47
   6  12  -7    3.17    0.44
   7   6 -12    3.77    0.48
  -7  12  -7    1.76    0.26
   7  12  -7    2.00    0.42
   7   7 -12    1.54    0.40
  12   7  -7    1.82    0.38
   0   8 -12    0.57    0.27
   8   0 -12    0.25    0.29
   0  12  -8    0.02    0.24
  12   0  -8   -0.15    0.22
   1   8 -12   49.01    1.51
  12   1  -8   48.22    1.45
   8  -1 -12   51.25    1.56
  -1  12  -8   50.79    1.47
   8   1 -12   49.97    1.51
   1  12  -8   46.90    1.44
  -1   8 -12   48.76    1.44
  12   8  -1   43.86    1.43
  12  -1  -8   46.25    1.37
  12   2  -8   44.91    1.38
  -2  12  -8   43.44    1.33
   2   8 -12   46.17    1.44
   8   2 -12   39.40    1.33
  12  -2  -8   39.88    1.23
  -8  12  -2   38.61    1.05
  12   8  -2   40.04    1.31
  -2   8 -12   38.96    1.26
   2  12  -8   42.78    1.33
  12   3  -8   13.47    0.70
  -3  12  -8   15.11    0.66
   3   8 -12   12.89    0.74
   8  12  -3   13.31    0.74
  -8  12  -3   14.49    0.53
  12  -3  -8   16.94    0.71
   8   3 -12   15.31    0.79
  12   8  -3   14.60    0.76
  -3   8 -12   14.04    0.69
   3  12  -8   14.93    0.77
   8  12  -4   53.86    1.66
   4   8 -12   52.59    1.64
  12   4  -8   53.09    1.60
  -4  12  -8   54.67    1.49
  12   8  -4   60.91    1.75
   8   4 -12   60.49    1.79
  -8  12  -4   59.35    1.45
   4  12  -8   58.73    1.75
  -4   8 -12   57.07    1.63
  12   5  -8   19.36    0.87
  -5  12  -8   19.46    0.75
   8  12  -5   20.92    0.95
  12   8  -5   25.58    1.05
  -8  12  -5   28.00    0.80
   8   5 -12   25.75    1.06
  -5   8 -12   29.43    0.97
   5  12  -8   27.63    1.09
   6   8 -12   44.00    1.48
  -6  12  -8   43.07    1.24
   8  12  -6   42.44    1.48
  12   6  -8   46.92    1.46
   6  12  -8   40.88    1.40
  -6   8 -12   39.81    1.22
   8   6 -12   40.93    1.40
  -8  12  -6   40.40    1.08
  12   8  -6   39.36    1.35
   8  12  -7   36.57    1.35
   7   8 -12   39.71    1.39
  12   7  -8   38.72    1.34
  -7  12  -8   38.27    1.10
  12   8  -7   44.06    1.44
   8   7 -12   40.56    1.43
   7  12  -8   41.46    1.44
  -8  12  -7   41.24    1.12
  -7   8 -12   42.41    1.24
   8   8 -12   12.37    0.79
   8  12  -8   12.53    0.80
  -8  12  -8   12.11    0.53
  12   8  -8   11.31    0.75
   0   9 -12   44.89    1.41
   0  12  -9   45.07    1.41
  12   0  -9   44.50    1.38
   9   0 -12   46.61    1.47
  12   1  -9  115.47    2.86
  -1  12  -9  113.10    2.83
   1   9 -12  114.19    2.89
   9  -1 -12  116.21    2.93
  12  -1  -9  114.44    2.86
   1  12  -9  114.99    2.90
 -12   9   1  117.96    2.49
  12   9  -1  114.45    2.93
   9   1 -12  117.19    2.96
  -1   9 -12  116.52    2.89
  12   2  -9   54.09    1.59
   2   9 -12   54.07    1.64
  -2  12  -9   53.54    1.55
   2  12  -9   58.19    1.73
  -9  12  -2   59.09    1.42
   9   2 -12   58.04    1.74
  12   9  -2   59.81    1.76
  12  -2  -9   60.96    1.68
  -2   9 -12   57.38    1.67
   9  12  -3   30.54    1.19
   3   9 -12   31.84    1.17
  -3  12  -9   30.45    1.04
  12   3  -9   31.67    1.13
  12  -3  -9   32.96    1.11
  -9  12  -3   33.19    0.89
   9   3 -12   34.92    1.24
  12   9  -3   32.92    1.21
  -3   9 -12   32.53    1.12
   3  12  -9   33.76    1.21
  -4  12  -9   17.58    0.73
  12   4  -9   17.46    0.84
   4   9 -12   17.19    0.88
   9  12  -4   17.67    0.90
   9   4 -12   12.71    0.78
  12   9  -4   14.36    0.79
   4  12  -9   15.27    0.82
  -9  12  -4   15.65    0.51
  -4   9 -12   14.53    0.70
  -5  12  -9   49.16    1.39
   5   9 -12   49.55    1.58
   9  12  -5   47.38    1.57
  12   5  -9   50.67    1.57
   5  12  -9   57.22    1.72
  -5   9 -12   52.24    1.53
   9   5 -12   52.98    1.69
  -9  12  -5   55.88    1.33
  12   9  -5   54.37    1.69
   9  12  -6   11.46    0.78
   6   9 -12   11.62    0.73
  -6  12  -9   12.54    0.59
  12   6  -9   11.46    0.74
  12   9  -6   12.60    0.78
   6  12  -9   12.42    0.79
   9   6 -12   11.66    0.77
  -9  12  -6   11.99    0.47
  -6   9 -12   12.51    0.62
  12   7  -9   52.75    1.68
  -7  12  -9   53.43    1.42
   9  12  -7   51.81    1.70
   7   9 -12   52.66    1.70
  -7   9 -12   45.88    1.37
  -9  12  -7   48.98    1.23
  12   9  -7   46.08    1.57
   9   7 -12   49.12    1.61
   7  12  -9   52.41    1.65
   8   9 -12   42.43    1.50
  12   8  -9   43.52    1.49
  -8  12  -9   40.12    1.17
   9  12  -8   43.58    1.51
   8  12  -9   36.28    1.39
  12   9  -8   38.22    1.38
  -9  12  -8   38.29    1.04
   9   8 -12   37.97    1.40
   9   9 -12  131.70    3.40
  12   9  -9  127.70    3.35
  -9  12  -9  131.69    2.98
   9  12  -9  131.42    3.39
   0  10 -12  146.64    3.60
  12   0 -10  150.17    3.60
  10   0 -12  147.13    3.65
   0  12 -10  153.12    3.61
   1  10 -12    3.31    0.45
  -1  12 -10    1.88    0.36
  10  -1 -12    2.51    0.44
  12   1 -10    2.27    0.40
  10   1 -12    5.56    0.54
  -1  10 -12    4.83    0.49
   1  12 -10    5.29    0.53
  12  -1 -10    4.91    0.49
  -2  12 -10   61.62    1.77
   2  10 -12   65.78    1.88
  10  -2 -12   63.67    1.87
  12   2 -10   63.90    1.84
  -2  10 -12   69.38    1.87
 -10  12  -2   66.32    1.54
   2  12 -10   62.26    1.88
  12  10  -2   67.78    1.95
  10   2 -12   67.63    1.95
  12  -2 -10   64.81    1.86
  10  12  -3    9.44    0.74
  12   3 -10    8.34    0.64
  -3  12 -10    9.53    0.59
   3  10 -12    9.39    0.68
  10   3 -12    8.18    0.65
 -10  12  -3    9.42    0.36
   3  12 -10    9.26    0.70
  -3  10 -12    9.16    0.60
  12  10  -3    8.10    0.67
   4  10 -12   64.70    1.94
  10  12  -4   66.59    1.99
  12   4 -10   68.90    1.95
  -4  12 -10   67.43    1.81
  10   4 -12   73.91    2.12
  -4  10 -12   74.46    1.97
   4  12 -10   72.96    2.11
 -10  12  -4   73.88    1.67
  12  10  -4   73.29    2.11
   5  10 -12    3.73    0.53
  12   5 -10    3.89    0.51
  -5  12 -10    3.80    0.39
  10  12  -5    3.21    0.50
  10   5 -12    4.47    0.51
 -10  12  -5    4.87    0.27
  -5  10 -12    4.38    0.42
   5  12 -10    4.78    0.53
  12  10  -5    4.72    0.56
  12   6 -10   73.75    2.14
   6  10 -12   73.58    2.16
  10  12  -6   77.32    2.21
  -6  12 -10   74.76    1.93
  10   6 -12   72.15    2.08
   6  12 -10   66.98    2.04
  -6  10 -12   67.26    1.84
 -10  12  -6   69.32    1.61
  12  10  -6   73.28    2.08
   7  10 -12    5.82    0.62
  12   7 -10    5.15    0.60
  -7  12 -10    6.98    0.47
  10  12  -7    6.41    0.66
  10   7 -12    2.81    0.48
   7  12 -10    4.14    0.55
  -7  10 -12    4.20    0.40
 -10  12  -7    4.14    0.28
  12  10  -7    3.50    0.52
   8  10 -12   35.50    1.35
  12   8 -10   37.00    1.37
  10  12  -8   35.83    1.38
  -8  12 -10   34.62    1.06
  10   8 -12   34.09    1.35
  12  10  -8   34.05    1.34
  -8  10 -12   36.19    1.11
   8  12 -10   35.11    1.36
 -10  12  -8   35.07    0.95
  -9  12 -10   11.03    0.53
  12   9 -10   11.63    0.78
   9  10 -12   12.39    0.86
  10  12  -9   12.67    0.86
  10   9 -12    9.21    0.76
  12  10  -9    9.64    0.80
   9  12 -10   11.26    0.78
 -10  12  -9   10.74    0.48
 -10  12 -10    0.94    0.24
  12  10 -10    1.60    0.47
  10  12 -10    1.02    0.42
  10  10 -12    1.07    0.44
  12   0 -11    0.54    0.32
   0  12 -11    0.61    0.30
   0  11 -12    0.42    0.30
  11   0 -12    0.77    0.35
  12   1 -11    6.28    0.56
  11  -1 -12    6.82    0.60
   1  11 -12    6.45    0.58
  -1  12 -11    6.70    0.57
  11   1 -12    5.79    0.57
   1  12 -11    5.47    0.55
  12  -1 -11    5.59    0.54
 -11  12  -1    6.21    0.29
  -1  11 -12    4.84    0.49
  11  -2 -12   37.88    1.34
  -2  12 -11   38.61    1.28
   2  11 -12   38.69    1.35
  12   2 -11   41.26    1.37
  11  12  -2   39.56    1.42
   2  12 -11   43.34    1.42
  -2  11 -12   39.22    1.31
 -11  12  -2   41.15    0.96
  12  11  -2   39.65    1.41
  11   2 -12   40.58    1.40
  12  -2 -11   39.03    1.35
  -3  12 -11    8.39    0.60
  12   3 -11   10.01    0.70
   3  11 -12    9.03    0.68
  11  12  -3    8.26    0.69
  12  11  -3    8.37    0.67
  11   3 -12    7.39    0.64
  -3  11 -12    9.95    0.63
   3  12 -11    8.92    0.69
  12   4 -11    1.45    0.39
  -4  12 -11    1.72    0.34
   4  11 -12    1.12    0.38
  11  12  -4    1.66    0.43
  -4  11 -12    2.66    0.38
   4  12 -11    1.63    0.41
  11   4 -12    2.55    0.47
  12  11  -4    2.39    0.47
  -5  12 -11    1.41    0.31
  12   5 -11    1.30    0.39
   5  11 -12    1.22    0.40
  11  12  -5    2.36    0.47
   5  12 -11    1.58    0.43
  -5  11 -12    1.00    0.30
  11   5 -12    0.75    0.38
  12  11  -5    1.29    0.39
  -6  12 -11   63.80    1.70
  11  12  -6   62.30    1.95
   6  11 -12   61.49    1.94
  12   6 -11   60.80    1.90
   6  12 -11   60.95    1.89
  -6  11 -12   60.57    1.66
  12  11  -6   59.60    1.88
  11   6 -12   57.75    1.86
  12   7 -11   34.33    1.33
  11  12  -7   33.34    1.35
   7  11 -12   34.34    1.35
  -7  12 -11   34.69    1.09
  12  11  -7   30.01    1.25
  11   7 -12   28.89    1.24
   7  12 -11   32.37    1.30
  -7  11 -12   32.02    1.04
  -8  12 -11   41.83    1.22
  12   8 -11   39.90    1.49
  11  12  -8   39.83    1.51
   8  11 -12   42.58    1.53
   8  12 -11   49.35    1.68
  -8  11 -12   48.10    1.37
  11   8 -12   45.91    1.64
  12  11  -8   48.22    1.66
  12   9 -11    9.86    0.80
  -9  12 -11    9.62    0.54
   9  11 -12    8.92    0.77
  11  12  -9    9.96    0.81
  12  11  -9    6.03    0.66
   9  12 -11    6.52    0.68
  -9  11 -12    7.11    0.49
  11   9 -12    7.55    0.73
  12  10 -11    2.16    0.51
  11  12 -10    1.51    0.46
  10  11 -12    1.82    0.49
 -10  12 -11    2.30    0.29
  10  12 -11    0.54    0.42
  11  10 -12    1.37    0.42
  12  11 -10    1.38    0.45
  11  11 -12    0.09    0.41
  11  12 -11    0.55    0.43
  12  11 -11    0.78    0.44
   0  12 -12    0.42    0.32
  12   0 -12    0.04    0.30
  -1  12 -12    6.68    0.57
   1  12 -12    6.25    0.59
  12  -1 -12    6.96    0.61
  12   1 -12    5.99    0.57
  -2  12 -12   12.32    0.69
   2  12 -12   11.20    0.76
  12  -2 -12   10.54    0.71
  12   2 -12   10.69    0.75
  12  12  -2   13.72    0.83
  -3  12 -12    0.77    0.30
   3  12 -12    1.07    0.40
  12   3 -12    0.07    0.31
  12  12  -3    0.71    0.37
  -4  12 -12    1.53    0.34
   4  12 -12    1.37    0.41
  12   4 -12    2.62    0.47
  12  12  -4    2.01    0.46
  -5  12 -12    0.22    0.27
   5  12 -12    0.72    0.39
  12   5 -12    0.56    0.36
  12  12  -5    0.23    0.38
  -6  12 -12   30.94    1.06
   6  12 -12   28.33    1.24
  12   6 -12   29.71    1.24
  12  12  -6   30.23    1.27
  -7  12 -12    9.83    0.60
   7  12 -12    9.86    0.79
  12   7 -12   11.61    0.82
  12  12  -7    9.41    0.76
  -8  12 -12    0.61    0.26
   8  12 -12    0.70    0.43
  12   8 -12    0.41    0.37
  12  12  -8    1.17    0.45
  -9  12 -12    0.70    0.27
   9  12 -12    0.54    0.42
  12   9 -12    0.61    0.40
  12  12  -9    0.85    0.44
  10  12 -12    0.62    0.44
  12  10 -12    0.89    0.44
  12  12 -10    1.05    0.43
  11  12 -12   18.71    1.09
  12  11 -12   19.12    1.09
  12  12 -11   16.62    1.06
  12  12 -12   13.94    0.95
  13   0  -1   30.54    0.87
  13   0   1   29.68    0.84
  13  -1   0   31.00    0.83
  13   1   0   30.07    0.88
  13  -1  -1    0.14    0.14
  13  -1   1    0.11    0.13
  13   1  -1    0.05    0.16
  13   1   1    0.25    0.17
  13   2   0   68.55    1.72
  13   0  -2   67.17    1.68
  13   0   2   71.38    1.64
  13  -2   0   67.18    1.57
   0   2 -13   68.93    1.91
  13   1  -2   83.89    2.01
   1   2 -13   87.12    2.24
  13  -2  -1   81.80    1.90
  13  -1   2   81.04    1.88
  13   2   1   82.79    2.01
  13   1   2   82.21    1.97
  13  -1  -2   81.83    1.96
   2   1 -13   86.01    2.25
  13  -2   1   83.59    1.86
  13   2  -1   83.34    2.03
   2   2 -13    0.12    0.24
  13   2  -2    0.11    0.18
  13  -2  -2    0.07    0.14
  13  -2   2    0.09    0.10
  13   3   0  167.29    3.80
   0   3 -13  170.28    3.97
  13   0  -3  166.88    3.75
  13  -3   0  165.76    3.58
  13  -3  -1   43.59    1.07
  13  -1   3   43.63    1.08
  13   3   1   43.87    1.24
  13   1  -3   43.64    1.22
   1   3 -13   46.14    1.41
  -1   3 -13   36.73    1.23
  13   3  -1   37.80    1.13
  13  -1  -3   39.66    1.07
  13  -3   1   38.94    0.89
   3   1 -13   38.35    1.29
  13  -3  -2    3.37    0.25
  13  -2   3    3.02    0.20
   2   3 -13    2.88    0.38
  13   2  -3    2.76    0.33
   3   2 -13    2.88    0.40
  13   3  -2    2.85    0.33
  13  -2  -3    2.48    0.26
   3   3 -13   19.90    0.87
  13  -3  -3   18.52    0.62
  13   3  -3   18.17    0.73
  13   4   0   20.96    0.77
  13   0  -4   21.29    0.73
   0   4 -13   19.30    0.85
   0  13  -4   20.03    0.82
   4   0 -13   19.28    0.89
  -1  13  -4   21.83    0.85
   1   4 -13   22.30    0.92
  13   1  -4   22.73    0.79
   1  13  -4   30.06    1.05
  13  -1  -4   30.30    0.91
  13   4  -1   29.02    0.97
  -1   4 -13   29.45    1.06
   4   1 -13   29.18    1.09
  13   2  -4  116.55    2.74
   2   4 -13  111.42    2.87
  13  -2   4  111.59    2.49
  -2  13  -4  118.99    2.79
   2  13  -4  108.68    2.69
  -2   4 -13  102.72    2.65
  13   4  -2  105.59    2.59
   4   2 -13  112.51    2.76
  13  -2  -4  103.11    2.47
  -3  13  -4   89.87    2.21
   3   4 -13   88.00    2.35
  13   3  -4   86.95    2.21
  13   4  -3   86.60    2.24
   4   3 -13   89.65    2.38
  13  -3  -4   90.32    2.12
   3  13  -4   90.61    2.36
  -4  13  -4   64.27    1.68
   4   4 -13   62.28    1.83
  13   4  -4   63.53    1.73
   4  13  -4   65.53    1.85
   0   5 -13   16.05    0.77
  13   0  -5   15.52    0.64
   0  13  -5   15.88    0.74
  13   5   0   14.82    0.69
   5   0 -13   16.45    0.81
  13   1  -5   18.10    0.70
   1   5 -13   15.70    0.76
  -1  13  -5   16.04    0.72
  13  -1  -5   19.63    0.72
   5   1 -13   20.89    0.91
   1  13  -5   20.89    0.86
  -1   5 -13   19.20    0.84
  13   5  -1   18.89    0.78
   2   5 -13   77.87    2.10
  -2  13  -5   73.70    1.97
  13   2  -5   77.96    1.97
  13  -2  -5   80.11    1.98
  13   5  -2   79.34    2.08
  -2   5 -13   80.90    2.13
   5   2 -13   80.48    2.21
   2  13  -5   82.51    2.16
  13   3  -5   60.18    1.68
   3   5 -13   63.66    1.81
  -3  13  -5   61.43    1.66
   3  13  -5   59.33    1.73
  13  -3  -5   57.70    1.52
  -3   5 -13   60.19    1.68
  13   5  -3   59.52    1.64
   5   3 -13   57.40    1.74
  -5  13  -3   59.70    1.55
  13   4  -5    4.33    0.43
   5  13  -4    3.99    0.49
  -4  13  -5    4.14    0.38
   4   5 -13    3.15    0.42
   5   4 -13    4.51    0.50
   4  13  -5    5.11    0.52
  13   5  -4    4.46    0.45
  -5  13  -4    4.77    0.39
   5  13  -5  138.38    3.37
   5   5 -13  132.66    3.35
  13   5  -5  133.81    3.26
  -5  13  -5  134.11    3.13
  13   6   0   79.31    2.10
   0  13  -6   80.47    2.12
  13   0  -6   82.09    2.05
   0   6 -13   78.40    2.15
   6   0 -13   81.99    2.23
  13   1  -6   16.20    0.71
  -1  13  -6   17.17    0.76
   1   6 -13   17.10    0.81
  -1   6 -13   15.63    0.76
   1  13  -6   16.77    0.79
  13  -1  -6   17.09    0.69
   6   1 -13   14.90    0.81
  13   6  -1   15.63    0.74
   2   6 -13   24.43    1.00
  -2  13  -6   24.63    0.91
  13   2  -6   26.02    0.93
  13  -2  -6   24.03    0.83
  13   6  -2   22.42    0.89
   6   2 -13   23.30    0.96
  -2   6 -13   22.66    0.91
   2  13  -6   23.76    0.95
  13   3  -6   18.06    0.75
  -3  13  -6   15.62    0.70
   3   6 -13   15.71    0.82
  13  -3  -6   17.12    0.68
   3  13  -6   17.15    0.83
  -6  13  -3   17.61    0.66
  -3   6 -13   17.08    0.79
  13   6  -3   17.50    0.79
  13   4  -6   63.66    1.79
  -4  13  -6   62.12    1.68
   4   6 -13   63.95    1.87
   6  13  -4   65.75    1.90
  -4   6 -13   68.78    1.83
   6   4 -13   63.28    1.90
  13   6  -4   67.33    1.85
   4  13  -6   64.88    1.90
  -6  13  -4   65.60    1.67
  13   5  -6   40.44    1.30
   5   6 -13   38.01    1.35
  -5  13  -6   38.67    1.14
   6  13  -5   37.49    1.34
  13   6  -5   41.07    1.31
   6   5 -13   37.87    1.35
  -5   6 -13   38.68    1.23
   5  13  -6   38.70    1.35
  -6  13  -5   41.39    1.14
   6  13  -6    3.87    0.51
   6   6 -13    3.14    0.49
  13   6  -6    3.52    0.45
  -6  13  -6    3.48    0.34
   7   0 -13    2.73    0.43
   0   7 -13    3.83    0.43
   0  13  -7    3.95    0.44
  13   0  -7    4.57    0.42
  13   1  -7   40.57    1.27
   7  -1 -13   41.92    1.41
   1   7 -13   43.09    1.38
  -1  13  -7   41.75    1.31
   7   1 -13   40.07    1.38
  -1   7 -13   40.95    1.32
   1  13  -7   41.77    1.33
  13  -1  -7   41.29    1.23
  13   7  -1   39.22    1.30
  13   2  -7    3.09    0.38
  -2  13  -7    4.07    0.42
   2   7 -13    3.03    0.42
   2  13  -7    2.93    0.41
  13  -2  -7    3.35    0.38
   7   2 -13    3.09    0.42
  -2   7 -13    3.07    0.40
  13   7  -2    3.36    0.42
  -3  13  -7    9.36    0.56
  13   3  -7   10.60    0.62
   3   7 -13    9.32    0.67
   7  13  -3    9.76    0.74
  13   7  -3   11.94    0.68
   3  13  -7    9.90    0.67
  13  -3  -7   10.83    0.58
  -7  13  -3   11.26    0.51
   7   3 -13   11.66    0.73
  -3   7 -13   10.78    0.62
   7  13  -4   69.83    2.04
   4   7 -13   70.27    2.00
  -4  13  -7   71.74    1.85
  13   4  -7   69.66    1.93
  -4   7 -13   82.76    2.09
   4  13  -7   74.21    2.14
  13   7  -4   79.11    2.13
   7   4 -13   77.57    2.19
  -7  13  -4   76.65    1.89
  13   5  -7   49.33    1.49
   7  13  -5   44.08    1.51
  -5  13  -7   47.03    1.33
   5   7 -13   46.74    1.54
   5  13  -7   46.78    1.54
  -7  13  -5   46.91    1.26
   7   5 -13   47.56    1.53
  13   7  -5   47.50    1.48
  -5   7 -13   46.96    1.41
   7  13  -6   26.28    1.12
  -6  13  -7   27.33    0.90
  13   6  -7   28.10    1.08
   6   7 -13   28.10    1.14
  -7  13  -6   27.07    0.86
   7   6 -13   27.43    1.13
  13   7  -6   28.23    1.09
   6  13  -7   26.82    1.09
  -7  13  -7    2.18    0.29
   7   7 -13    1.97    0.44
   7  13  -7    2.31    0.44
  13   7  -7    1.82    0.39
   0   8 -13    2.46    0.39
  13   0  -8    2.74    0.37
   8   0 -13    3.11    0.45
   0  13  -8    3.14    0.42
  13   1  -8   27.83    1.01
   8  -1 -13   27.97    1.10
   1   8 -13   26.49    1.06
  -1  13  -8   26.91    1.01
  13  -1  -8   17.58    0.77
  -1   8 -13   17.81    0.82
   8   1 -13   17.20    0.88
  13   8  -1   18.16    0.85
   1  13  -8   16.64    0.81
   2   8 -13   16.98    0.83
  -2  13  -8   15.18    0.73
  13   2  -8   14.82    0.75
  13   8  -2   13.19    0.74
  13  -2  -8   13.61    0.68
  -2   8 -13   14.25    0.74
   2  13  -8   14.14    0.75
  -8  13  -2   13.88    0.55
   8   2 -13   12.87    0.78
   3   8 -13  139.46    3.39
  -3  13  -8  131.68    3.21
   8  13  -3  130.81    3.40
  13   3  -8  138.92    3.31
   8   3 -13  131.51    3.38
  -8  13  -3  135.86    3.06
   3  13  -8  139.44    3.38
  13   8  -3  135.23    3.35
  -3   8 -13  135.64    3.29
  13  -3  -8  136.68    3.24
  -4  13  -8    1.46    0.29
   8  13  -4    1.55    0.40
  13   4  -8    1.49    0.34
   4   8 -13    1.48    0.37
   8   4 -13    2.68    0.44
  13   8  -4    1.98    0.38
   4  13  -8    2.33    0.41
  -8  13  -4    2.49    0.27
  -4   8 -13    2.32    0.36
   5   8 -13   10.89    0.75
  13   5  -8   11.59    0.71
  -5  13  -8   11.41    0.58
   8  13  -5   10.81    0.72
   5  13  -8    9.11    0.72
  -5   8 -13    8.35    0.57
  13   8  -5    7.00    0.60
   8   5 -13    7.45    0.62
  -8  13  -5    8.26    0.43
   8  13  -6   16.24    0.85
  -6  13  -8   14.67    0.65
  13   6  -8   14.29    0.80
   6   8 -13   15.09    0.85
   6  13  -8   14.02    0.83
  13   8  -6   13.95    0.79
   8   6 -13   13.11    0.83
  -8  13  -6   12.64    0.55
  -6   8 -13   13.81    0.68
   7   8 -13   51.76    1.66
  13   7  -8   46.67    1.57
   8  13  -7   49.83    1.64
  -7  13  -8   47.94    1.34
  -8  13  -7   48.61    1.30
  13   8  -7   49.61    1.60
   7  13  -8   51.08    1.66
   8   7 -13   47.56    1.62
   8   8 -13    0.49    0.38
  13   8  -8    0.77    0.35
  -8  13  -8    0.79    0.22
   8  13  -8    0.32    0.37
  13   0  -9    5.74    0.51
   0  13  -9    5.03    0.50
   0   9 -13    5.60    0.53
   9   0 -13    6.34    0.58
   9  -1 -13   62.97    1.86
   1   9 -13   60.49    1.81
  13   1  -9   61.02    1.76
  -1  13  -9   63.51    1.77
  13  -1  -9   66.84    1.85
   9   1 -13   66.11    1.95
  -1   9 -13   68.48    1.90
   1  13  -9   65.17    1.89
  13   9  -1   65.12    1.91
  -2  13  -9   44.93    1.38
  13   2  -9   43.27    1.40
   2   9 -13   45.89    1.48
  13   9  -2   43.24    1.41
  13  -2  -9   40.06    1.29
  -9  13  -2   39.29    1.08
   2  13  -9   38.27    1.36
  -2   9 -13   44.49    1.37
   9   2 -13   42.97    1.44
   3   9 -13   43.57    1.50
   9  13  -3   49.54    1.59
  -3  13  -9   47.20    1.39
  13   3  -9   44.38    1.45
  13   9  -3   45.73    1.51
   9   3 -13   47.04    1.55
  13  -3  -9   47.48    1.43
   3  13  -9   47.10    1.52
  -9  13  -3   46.03    1.19
  -3   9 -13   47.48    1.45
  -4  13  -9    5.21    0.45
   9  13  -4    5.94    0.61
  13   4  -9    5.32    0.53
   4   9 -13    4.59    0.53
   4  13  -9    4.67    0.56
  13   9  -4    4.63    0.52
   9   4 -13    6.01    0.61
  -9  13  -4    4.93    0.34
  -4   9 -13    5.71    0.49
  13   5  -9   42.86    1.43
   5   9 -13   41.74    1.48
   9  13  -5   43.86    1.51
  -5  13  -9   43.07    1.29
  -5   9 -13   45.92    1.40
  13   9  -5   46.51    1.53
   5  13  -9   48.30    1.57
   9   5 -13   48.22    1.59
  -9  13  -5   45.21    1.19
  -6  13  -9   35.18    1.10
   6   9 -13   34.99    1.33
   9  13  -6   34.35    1.34
  13   6  -9   35.92    1.30
   9   6 -13   29.34    1.23
  -6   9 -13   31.55    1.07
   6  13  -9   28.54    1.18
  13   9  -6   30.90    1.21
  -9  13  -6   31.72    0.89
  13   7  -9   54.68    1.71
   7   9 -13   53.99    1.75
   9  13  -7   52.74    1.74
  -7  13  -9   51.36    1.44
   7  13  -9   51.49    1.68
  -9  13  -7   49.95    1.31
   9   7 -13   53.41    1.72
  13   9  -7   52.30    1.68
  -7   9 -13   49.30    1.47
   8   9 -13   23.90    1.13
  13   8  -9   25.85    1.13
  -8  13  -9   25.97    0.85
   9  13  -8   24.20    1.13
   9   8 -13   20.06    1.01
   8  13  -9   23.16    1.10
  -9  13  -8   22.65    0.74
  13   9  -8   22.18    1.06
  -9  13  -9   28.77    0.88
   9  13  -9   25.94    1.17
   9   9 -13   27.48    1.22
  13   9  -9   26.91    1.19
   0  10 -13   19.72    0.92
  10   0 -13   21.42    1.00
   0  13 -10   19.55    0.89
  13   0 -10   22.87    0.93
  -1  13 -10   28.71    1.07
  13   1 -10   28.35    1.08
  10  -1 -13   28.10    1.14
   1  10 -13   27.92    1.11
  -1  10 -13   28.02    1.06
  13  -1 -10   29.13    1.08
  13  10  -1   27.71    1.12
  10   1 -13   27.45    1.13
   1  13 -10   25.31    1.06
  -2  13 -10   34.47    1.18
   2  10 -13   32.95    1.24
  13   2 -10   33.05    1.20
   2  13 -10   38.41    1.32
  13  -2 -10   37.26    1.25
  10   2 -13   36.21    1.32
  13  10  -2   36.59    1.32
 -10  13  -2   36.13    0.96
  -2  10 -13   35.78    1.25
  13   3 -10   10.68    0.70
  10  13  -3   10.59    0.77
  -3  13 -10   10.08    0.61
   3  10 -13   11.23    0.75
  13  10  -3   11.89    0.78
  -3  10 -13   12.66    0.69
  10   3 -13   13.37    0.81
 -10  13  -3   11.64    0.45
   3  13 -10   11.06    0.75
   4  10 -13    7.17    0.66
  13   4 -10    6.42    0.60
  -4  13 -10    6.42    0.52
  10  13  -4    7.35    0.67
  10   4 -13    8.91    0.73
  13  10  -4    9.52    0.74
   4  13 -10   10.57    0.75
 -10  13  -4    9.45    0.39
  -4  10 -13    9.01    0.62
   5  10 -13    8.03    0.66
  10  13  -5    7.11    0.68
  -5  13 -10    7.67    0.54
  13   5 -10    6.99    0.64
  13  10  -5   10.74    0.75
 -10  13  -5    9.27    0.40
  -5  10 -13    9.61    0.62
  10   5 -13    8.67    0.73
   5  13 -10    7.58    0.66
  10  13  -6   14.02    0.88
  -6  13 -10   14.39    0.67
  13   6 -10   14.30    0.84
   6  10 -13   12.91    0.85
  10   6 -13   13.56    0.85
  -6  10 -13   13.07    0.68
 -10  13  -6   13.09    0.48
  13  10  -6   10.98    0.79
   6  13 -10   13.77    0.86
  10  13  -7   54.50    1.77
  -7  13 -10   52.49    1.46
   7  10 -13   51.52    1.74
  13   7 -10   50.70    1.70
  13  10  -7   53.41    1.73
  10   7 -13   50.02    1.72
 -10  13  -7   49.81    1.29
   7  13 -10   54.53    1.74
  -7  10 -13   53.67    1.52
   8  10 -13    9.45    0.80
  13   8 -10   10.05    0.78
  -8  13 -10    9.71    0.54
  10  13  -8    9.97    0.81
  13  10  -8   11.56    0.84
 -10  13  -8   11.03    0.48
  10   8 -13   10.27    0.83
  -8  10 -13   11.13    0.62
   8  13 -10   11.90    0.80
   9  10 -13    2.38    0.50
  13   9 -10    2.23    0.51
  10  13  -9    2.97    0.53
  -9  13 -10    2.68    0.32
  13  10  -9    2.47    0.50
 -10  13  -9    2.19    0.31
  10   9 -13    1.77    0.48
   9  13 -10    1.81    0.50
  13  10 -10   14.47    0.94
  10  13 -10   12.65    0.91
  10  10 -13   13.22    0.88
  11   0 -13   34.63    1.30
   0  11 -13   35.76    1.27
   0  13 -11   33.36    1.23
  13   0 -11   37.35    1.29
   1  11 -13   12.98    0.77
  -1  13 -11   12.45    0.72
  11  -1 -13   11.59    0.78
  13   1 -11   11.64    0.76
  11   1 -13   11.70    0.78
  13  11  -1   11.88    0.79
  -1  11 -13   12.34    0.75
   1  13 -11   10.29    0.71
 -11  13  -1   11.04    0.43
  13  -1 -11   11.86    0.74
   2  11 -13   30.44    1.19
  11  13  -2   30.89    1.22
  13   2 -11   27.89    1.13
  -2  13 -11   30.40    1.12
  11   2 -13   34.23    1.31
  13  -2 -11   33.54    1.23
 -11  13  -2   34.89    0.88
  -2  11 -13   36.24    1.23
   2  13 -11   35.95    1.30
  13  11  -2   34.33    1.32
  -3  13 -11   38.43    1.28
  11  13  -3   38.01    1.43
  13   3 -11   38.59    1.37
   3  11 -13   39.79    1.41
  11   3 -13   37.15    1.38
   3  13 -11   39.35    1.38
 -11  13  -3   37.62    1.04
  13  11  -3   37.91    1.39
  -3  11 -13   36.17    1.26
  -4  13 -11    3.57    0.43
   4  11 -13    4.11    0.54
  11  13  -4    3.18    0.51
  13   4 -11    3.83    0.51
   4  13 -11    3.17    0.49
  -4  11 -13    3.24    0.43
  11   4 -13    2.42    0.46
  13  11  -4    3.65    0.54
  -5  13 -11   18.39    0.80
   5  11 -13   18.76    0.99
  11  13  -5   18.45    1.01
  13   5 -11   19.80    0.97
  -5  11 -13   20.30    0.87
  13  11  -5   20.20    1.03
   5  13 -11   20.94    1.03
  11   5 -13   22.55    1.06
  -6  13 -11   15.19    0.71
  13   6 -11   15.80    0.90
   6  11 -13   16.18    0.94
  11  13  -6   15.02    0.93
   6  13 -11   16.20    0.94
  11   6 -13   16.21    0.94
  -6  11 -13   13.22    0.71
  13  11  -6   16.15    0.93
  13   7 -11   12.16    0.85
  11  13  -7   14.38    0.91
   7  11 -13   12.29    0.89
  -7  13 -11   12.43    0.65
  -7  11 -13   11.55    0.66
  13  11  -7   11.82    0.84
   7  13 -11   10.84    0.84
  11   7 -13   11.86    0.85
  -8  13 -11    5.72    0.45
  11  13  -8    3.80    0.58
  13   8 -11    4.97    0.61
   8  11 -13    5.09    0.65
   8  13 -11    4.57    0.62
  11   8 -13    4.94    0.62
  13  11  -8    4.59    0.60
  -8  11 -13    5.07    0.45
  -9  13 -11   15.29    0.66
  11  13  -9   16.00    0.99
   9  11 -13   14.62    0.97
  13   9 -11   14.53    0.90
  13  11  -9   14.97    0.96
  11   9 -13   14.59    0.96
   9  13 -11   14.83    0.97
  13  10 -11   30.33    1.33
  10  11 -13   31.40    1.36
  11  13 -10   29.56    1.34
  11  10 -13   36.00    1.46
  10  13 -11   34.95    1.45
  13  11 -10   32.44    1.39
  11  11 -13    5.44    0.70
  11  13 -11    5.67    0.68
  13  11 -11    5.43    0.68
   0  13 -12   17.20    0.87
  13   0 -12   15.76    0.87
  12   0 -13   17.39    0.92
   0  12 -13   18.32    0.89
  13   1 -12   20.92    1.00
  -1  13 -12   20.70    0.95
  12  -1 -13   19.52    0.97
   1  12 -13   18.80    0.95
  13  12  -1   18.56    0.97
   1  13 -12   18.52    0.92
  13  -1 -12   15.06    0.86
  -1  12 -13   18.50    0.90
  12   1 -13   16.33    0.91
  12  13  -2   57.08    1.84
  13   2 -12   56.46    1.79
  -2  13 -12   57.04    1.73
   2  12 -13   60.80    1.83
  12   2 -13   49.48    1.68
  13  12  -2   52.13    1.72
  -2  12 -13   53.24    1.62
  13  -2 -12   52.51    1.66
   2  13 -12   49.81    1.65
  13   3 -12   40.77    1.48
  12  13  -3   41.80    1.55
  -3  13 -12   45.05    1.42
   3  12 -13   45.56    1.54
  -3  12 -13   38.32    1.29
  12   3 -13   35.35    1.37
   3  13 -12   39.75    1.43
  13  12  -3   36.39    1.41
  12  13  -4    4.30    0.60
  -4  13 -12    2.74    0.40
  13   4 -12    2.50    0.48
   4  12 -13    3.05    0.52
  -4  12 -13    3.83    0.47
  12   4 -13    3.25    0.52
  13  12  -4    2.89    0.49
   4  13 -12    4.29    0.57
  13   5 -12   27.33    1.20
  -5  13 -12   28.73    1.05
   5  12 -13   28.83    1.25
  12  13  -5   30.11    1.27
  13  12  -5   22.92    1.11
  12   5 -13   22.61    1.10
  -5  12 -13   23.35    0.94
   5  13 -12   23.68    1.09
  13   6 -12   11.14    0.84
  -6  13 -12   10.80    0.66
   6  12 -13    9.28    0.76
  12  13  -6   10.18    0.82
  -6  12 -13   10.16    0.64
  13  12  -6   10.76    0.83
   6  13 -12    9.96    0.81
  12   6 -13   11.16    0.87
  13   7 -12   87.66    2.53
  -7  13 -12   88.19    2.27
   7  12 -13   86.19    2.55
  12  13  -7   91.75    2.59
  13  12  -7   89.77    2.53
   7  13 -12   81.56    2.49
  -7  12 -13   86.97    2.25
  12   7 -13   87.86    2.53
  13   8 -12    4.46    0.60
  -8  13 -12    4.82    0.44
  12  13  -8    3.79    0.60
   8  12 -13    3.70    0.60
  12   8 -13    5.41    0.63
  -8  12 -13    5.42    0.49
  13  12  -8    6.32    0.72
   8  13 -12    8.25    0.79
  13   9 -12   36.93    1.47
  -9  13 -12   33.93    1.12
   9  12 -13   37.75    1.50
  12  13  -9   35.46    1.46
  12   9 -13   37.28    1.50
   9  13 -12   36.75    1.50
  -9  12 -13   38.36    1.19
  13  12  -9   37.45    1.50
  10  12 -13   15.14    1.01
  12  13 -10   15.99    1.02
  13  10 -12   13.79    0.97
  12  10 -13   17.72    1.08
  10  13 -12   19.00    1.10
  13  12 -10   18.93    1.09
  12  13 -11    1.43    0.51
  13  11 -12    1.18    0.51
  11  12 -13    1.41    0.50
  11  13 -12    0.23    0.45
  12  11 -13    0.20    0.44
  13  12 -11    0.50    0.44
  12  12 -13   15.19    1.01
  12  13 -12   16.46    1.09
  13  12 -12   15.22    1.06
   0  13 -13   36.30    1.33
  13   0 -13   35.56    1.35
  -1  13 -13    0.22    0.31
   1  13 -13    0.43    0.34
  13  -1 -13    0.52    0.36
  13   1 -13    0.26    0.36
  13  13  -1    0.05    0.36
  -2  13 -13    1.16    0.38
   2  13 -13    0.43    0.40
  13   2 -13    1.16    0.43
  13  13  -2    0.56    0.40
  -3  13 -13   28.97    1.07
   3  13 -13   24.02    1.15
  13   3 -13   26.71    1.16
  13  13  -3   23.64    1.17
  -4  13 -13    9.38    0.66
   4  13 -13    9.29    0.77
  13   4 -13    7.78    0.72
  13  13  -4    8.17    0.74
  -5  13 -13   13.55    0.75
   5  13 -13   14.33    0.93
  13   5 -13   15.19    0.93
  13  13  -5   14.00    0.94
  -6  13 -13   19.18    0.85
   6  13 -13   16.87    1.01
  13   6 -13   17.39    1.00
  13  13  -6   16.91    1.02
  -7  13 -13    0.06    0.28
   7  13 -13   -0.14    0.41
  13   7 -13   -0.29    0.36
  13  13  -7    0.09    0.40
  -8  13 -13   23.01    0.90
   8  13 -13   21.90    1.18
  13   8 -13   24.35    1.19
  13  13  -8   23.79    1.19
  -9  13 -13    4.18    0.45
   9  13 -13    4.13    0.60
  13   9 -13    4.80    0.64
  13  13  -9    3.96    0.63
  10  13 -13   11.72    0.93
  13  10 -13    9.81    0.87
  13  13 -10   11.70    0.94
  11  13 -13   13.80    1.04
  13  11 -13    9.27    0.87
  13  13 -11    9.57    0.89
  12  13 -13   12.55    1.01
  13  12 -13   13.94    0.99
  13  13 -12   13.56    1.06
  13  13 -13   32.47    1.52
  14   0   0    0.50    0.17
  14   0  -1   16.06    0.59
  14   0   1   15.18    0.55
  14   1   0   15.41    0.59
  14  -1   0   15.52    0.53
  14   1   1    0.44    0.18
  14   1  -1    0.55    0.20
  14  -1  -1    0.27    0.16
  14  -1   1    0.68    0.16
  14   0  -2   38.76    1.08
  14   0   2   38.66    1.02
  14  -2   0   37.65    0.97
  14   2   0   38.83    1.11
  14  -2  -1   51.05    1.24
  14   2   1   49.38    1.35
   1   2 -14   51.65    1.58
  14   1  -2   50.24    1.35
  14  -1   2   50.03    1.22
  14   1   2   52.43    1.37
  14   2  -1   52.67    1.43
  14  -2   1   53.62    1.26
  14  -1  -2   54.20    1.36
  14   2   2   37.87    1.10
  14  -2   2   39.06    0.94
  14   2  -2   37.25    1.13
   2   2 -14   38.55    1.32
  14  -2  -2   39.39    1.03
  14   3   0   49.32    1.36
  14  -3   0   49.22    1.15
  14   0  -3   48.52    1.31
   0   3 -14   48.69    1.52
  14   0   3   48.02    1.24
   1   3 -14  100.43    2.62
  14  -1   3  100.72    2.26
  14   1  -3  101.95    2.42
  14  -3  -1   99.18    2.24
  14   3   1  100.43    2.43
  14   3  -1  105.45    2.54
  14  -1  -3  105.20    2.46
  14  -3   1  105.92    2.28
   3   1 -14  104.61    2.74
  14  -2   3   41.02    0.97
  14   2  -3   40.73    1.20
  14  -3  -2   40.15    1.05
   2   3 -14   41.42    1.37
   3   2 -14   41.89    1.42
  14  -2  -3   42.74    1.14
  14   3  -2   41.94    1.24
  14   3  -3   64.07    1.68
  14  -3  -3   62.18    1.52
   3   3 -14   58.36    1.81
  14   4   0   10.20    0.56
  14   0  -4   10.58    0.53
   0  14  -4    9.90    0.61
   0   4 -14    9.62    0.65
  14  -1   4    8.49    0.37
  14   4   1    8.78    0.52
  -1  14  -4    8.67    0.57
   1   4 -14    8.42    0.64
  14   1  -4    7.81    0.50
   4   1 -14    6.38    0.56
   1  14  -4    9.09    0.61
  -1   4 -14    7.35    0.58
  14  -1  -4    6.91    0.44
  14   4  -1    8.03    0.52
  14  -2   4  158.96    3.41
  14   2  -4  162.87    3.67
  -2  14  -4  157.53    3.72
   2   4 -14  155.18    3.84
   4   2 -14  162.46    4.04
  -2   4 -14  170.79    4.00
   2  14  -4  167.55    4.00
  14  -2  -4  168.45    3.76
  14   4  -2  168.99    3.88
   3   4 -14  182.76    4.37
  14   3  -4  185.68    4.21
  -3  14  -4  181.38    4.20
  14  -3  -4  167.90    3.72
   3  14  -4  167.13    3.99
  14   4  -3  164.94    3.86
   4   3 -14  165.44    4.03
   4  14  -4    6.54    0.56
   4   4 -14    6.57    0.57
  -4  14  -4    7.64    0.50
  14   4  -4    6.77    0.52
  14   5   0    2.52    0.35
   5   0 -14    2.09    0.38
   0  14  -5    3.16    0.41
   0   5 -14    2.81    0.43
  14   0  -5    2.38    0.32
   1   5 -14   62.84    1.88
  14   1  -5   66.56    1.75
  14   5   1   66.20    1.78
  -1  14  -5   66.59    1.82
  14  -1  -5   59.38    1.60
   5   1 -14   64.77    1.87
   1  14  -5   61.68    1.76
  -1   5 -14   62.15    1.78
  14   5  -1   58.84    1.68
  -2  14  -5   38.94    1.21
   2   5 -14   38.20    1.32
  14   2  -5   37.12    1.18
   5   2 -14   42.94    1.42
   2  14  -5   39.16    1.33
  -2   5 -14   40.27    1.32
  14   5  -2   41.33    1.26
  14  -2  -5   38.60    1.15
  -3  14  -5   34.89    1.13
  14   3  -5   36.58    1.16
   3   5 -14   33.88    1.26
  14   5  -3   40.29    1.28
  -3   5 -14   41.72    1.34
  14  -3  -5   42.69    1.18
  -5  14  -3   38.81    1.20
   5   3 -14   42.18    1.42
   3  14  -5   42.14    1.39
  14   4  -5   32.61    1.11
  -4  14  -5   31.63    1.04
   5  14  -4   30.10    1.19
   4   5 -14   33.24    1.23
  -5  14  -4   27.85    0.95
   5   4 -14   28.08    1.14
  14   5  -4   29.98    1.04
   4  14  -5   28.54    1.12
  -5  14  -5   66.45    1.72
   5  14  -5   66.71    1.94
  14   5  -5   64.18    1.82
   5   5 -14   63.43    1.92
   0   6 -14    9.81    0.71
  14   0  -6    9.26    0.54
   6   0 -14    8.53    0.65
   0  14  -6    7.76    0.59
  14   6   0    7.42    0.56
  -1  14  -6   30.18    1.07
   1   6 -14   31.28    1.16
  14   1  -6   28.92    1.01
  -1   6 -14   29.05    1.09
  14   6  -1   27.11    1.01
  14  -1  -6   28.78    0.96
   6   1 -14   29.48    1.16
   1  14  -6   27.21    1.05
  14   2  -6   34.52    1.12
   2   6 -14   31.91    1.22
  -2  14  -6   35.28    1.14
   6   2 -14   32.65    1.22
   2  14  -6   32.71    1.19
  14  -2  -6   34.37    1.04
  -2   6 -14   32.44    1.17
  14   6  -2   32.67    1.13
   3   6 -14   10.99    0.74
  -3  14  -6   10.41    0.61
  14   3  -6   11.02    0.64
  14  -3  -6    7.21    0.48
   3  14  -6    6.20    0.57
  14   6  -3    5.93    0.51
   6   3 -14    6.36    0.60
  -3   6 -14    8.27    0.61
  -6  14  -3    7.08    0.46
   6  14  -4   71.78    2.10
  -4  14  -6   71.34    1.89
  14   4  -6   75.53    1.99
   4   6 -14   71.21    2.08
  -6  14  -4   73.08    1.86
   4  14  -6   72.51    2.09
  -4   6 -14   74.37    2.01
  14   6  -4   76.19    2.03
   6   4 -14   70.93    2.09
   6  14  -5   46.73    1.57
   5   6 -14   46.51    1.57
  -5  14  -6   48.80    1.37
  14   5  -6   47.84    1.49
  14   6  -5   54.31    1.64
   6   5 -14   53.58    1.70
   5  14  -6   54.88    1.70
  -6  14  -5   55.00    1.47
   6   6 -14   20.58    0.98
  -6  14  -6   18.39    0.73
   6  14  -6   17.77    0.93
  14   6  -6   18.79    0.87
  14   7   0  137.71    3.31
  14   0  -7  132.06    3.22
   0   7 -14  136.19    3.35
   0  14  -7  134.62    3.30
   7   0 -14  136.06    3.42
   1   7 -14   60.74    1.78
  14   1  -7   57.07    1.64
  -1  14  -7   58.73    1.69
   7   1 -14   59.14    1.78
   1  14  -7   54.34    1.66
  14  -1  -7   55.61    1.56
  -1   7 -14   56.99    1.68
  14   7  -1   54.44    1.65
  -2  14  -7   13.38    0.69
   2   7 -14   11.51    0.75
  14   2  -7   12.65    0.69
   7   2 -14   10.42    0.70
  14  -2  -7   10.56    0.58
   2  14  -7   10.17    0.69
  14   7  -2   11.02    0.67
  -2   7 -14   11.13    0.67
  -3  14  -7   10.82    0.63
  14   3  -7   11.44    0.66
   7  14  -3   13.55    0.82
   3   7 -14   11.89    0.77
  14  -3  -7   12.77    0.63
   7   3 -14   13.01    0.77
  -3   7 -14   13.69    0.72
   3  14  -7   13.28    0.78
  -7  14  -3   11.77    0.56
  14   7  -3   13.19    0.73
   7  14  -4  137.57    3.41
  -4  14  -7  132.27    3.15
  14   4  -7  128.20    3.24
   4   7 -14  132.77    3.36
   4  14  -7  141.62    3.44
  -4   7 -14  134.62    3.31
  14   7  -4  134.63    3.35
  -7  14  -4  134.84    3.13
   7   4 -14  135.11    3.45
  -5  14  -7   19.99    0.78
   7  14  -5   18.38    0.96
   5   7 -14   20.08    0.98
  14   5  -7   19.15    0.89
  -7  14  -5   22.96    0.78
  -5   7 -14   20.30    0.88
   5  14  -7   21.82    1.02
   7   5 -14   22.05    1.03
  14   7  -5   21.95    0.95
   6   7 -14   14.10    0.86
  -6  14  -7   14.46    0.64
   7  14  -6   15.36    0.88
  14   6  -7   14.11    0.79
   6  14  -7   12.40    0.82
  14   7  -6   12.29    0.76
  -7  14  -6   13.15    0.58
   7   6 -14   13.69    0.84
  -7  14  -7   56.90    1.52
   7  14  -7   56.05    1.82
  14   7  -7   55.60    1.74
   7   7 -14   58.06    1.82
   0  14  -8    0.76    0.31
  14   0  -8    0.43    0.27
   8   0 -14   -0.10    0.29
   0   8 -14    0.39    0.31
  14   8   0    0.08    0.28
  -1  14  -8    3.21    0.41
  14   1  -8    3.04    0.41
   1   8 -14    3.22    0.46
  14  -1  -8    1.79    0.33
   8   1 -14    1.11    0.35
  14   8  -1    1.50    0.37
  -1   8 -14    1.12    0.35
   1  14  -8    1.53    0.35
  -2  14  -8   66.42    1.89
   2   8 -14   73.11    2.04
  14   2  -8   67.57    1.90
   8   2 -14   82.54    2.31
  -2   8 -14   80.94    2.20
  14  -2  -8   82.23    2.12
   2  14  -8   80.65    2.24
  -8  14  -2   78.26    1.97
  14   8  -2   82.78    2.23
   3   8 -14   17.31    0.91
  -3  14  -8   17.04    0.78
  14   3  -8   18.99    0.84
  -3   8 -14   16.91    0.82
  -8  14  -3   16.81    0.63
   8   3 -14   15.37    0.88
   3  14  -8   15.70    0.85
  14  -3  -8   16.90    0.75
  14   8  -3   16.19    0.85
  14   4  -8   30.57    1.16
  -4  14  -8   32.74    1.08
   8  14  -4   30.21    1.22
   4   8 -14   31.02    1.23
  -4   8 -14   36.64    1.24
  14   8  -4   34.84    1.27
   8   4 -14   37.76    1.37
   4  14  -8   36.82    1.33
  -8  14  -4   34.67    1.03
   5   8 -14   24.10    1.09
  -5  14  -8   24.94    0.91
  14   5  -8   24.78    1.03
   8  14  -5   24.87    1.12
   8   5 -14   26.93    1.15
  -8  14  -5   27.08    0.84
  -5   8 -14   24.98    1.00
  14   8  -5   26.15    1.08
   5  14  -8   26.48    1.13
  -6  14  -8   31.67    1.03
  14   6  -8   32.83    1.22
   8  14  -6   33.76    1.31
   6   8 -14   28.56    1.24
  -6   8 -14   25.69    0.98
   8   6 -14   27.11    1.16
  14   8  -6   24.01    1.07
  -8  14  -6   25.08    0.83
   6  14  -8   27.65    1.16
   7   8 -14   19.59    1.02
  -7  14  -8   19.73    0.75
  14   7  -8   20.21    0.99
   8  14  -7   17.92    1.00
   8   7 -14   18.01    0.95
  14   8  -7   18.91    0.97
   7  14  -8   18.73    0.95
  -8  14  -7   18.37    0.69
  -8  14  -8   12.52    0.59
   8  14  -8   13.44    0.88
  14   8  -8   13.14    0.84
   8   8 -14   12.88    0.82
   0   9 -14  117.14    2.96
   9   0 -14  115.81    3.03
   0  14  -9  118.80    2.93
  14   0  -9  108.69    2.86
  14   1  -9    6.44    0.56
  -1  14  -9    6.06    0.53
   9  -1 -14    6.47    0.62
   1   9 -14    3.99    0.53
   9   1 -14    4.17    0.54
  14   9  -1    3.98    0.49
   1  14  -9    3.75    0.49
  -1   9 -14    4.54    0.50
  14  -1  -9    4.22    0.45
  -2  14  -9    2.04    0.37
   2   9 -14    1.88    0.41
  14   2  -9    1.63    0.37
  14   9  -2    2.97    0.44
   9   2 -14    2.25    0.45
  -2   9 -14    2.41    0.40
  -9  14  -2    3.11    0.29
   2  14  -9    3.51    0.49
  14  -2  -9    2.96    0.41
   3   9 -14   14.63    0.86
   9  14  -3   16.83    0.89
  -3  14  -9   16.77    0.76
  14   3  -9   16.05    0.84
   3  14  -9   13.87    0.83
  -3   9 -14   12.90    0.73
  -9  14  -3   14.72    0.56
   9   3 -14   14.54    0.86
  14  -3  -9   13.14    0.71
  14   9  -3   14.57    0.82
  -4  14  -9   16.22    0.76
   9  14  -4   15.92    0.93
  14   4  -9   17.27    0.85
   4   9 -14   16.17    0.90
  -9  14  -4   14.55    0.56
   9   4 -14   16.04    0.91
  -4   9 -14   15.29    0.78
  14   9  -4   13.39    0.82
   4  14  -9   15.24    0.86
  14   5  -9    9.34    0.72
  -5  14  -9    9.47    0.59
   9  14  -5    8.49    0.74
   5   9 -14    8.95    0.71
   9   5 -14    7.47    0.68
   5  14  -9   10.25    0.79
  -9  14  -5    8.66    0.44
  -5   9 -14    9.00    0.63
  14   9  -5    8.60    0.69
   9  14  -6   27.19    1.18
   6   9 -14   28.47    1.21
  -6  14  -9   27.06    0.96
  14   6  -9   26.84    1.13
  -6   9 -14   35.92    1.20
   6  14  -9   33.11    1.34
  14   9  -6   36.59    1.34
   9   6 -14   34.94    1.37
  -9  14  -6   36.17    1.01
  14   7  -9   33.47    1.31
   7   9 -14   31.45    1.29
  -7  14  -9   32.86    1.05
   9  14  -7   33.33    1.31
  -7   9 -14   34.43    1.13
   9   7 -14   30.43    1.30
   7  14  -9   30.59    1.29
  14   9  -7   34.12    1.30
  -9  14  -7   32.02    0.95
  -8  14  -9    0.11    0.23
   8   9 -14    0.16    0.37
  14   8  -9    0.22    0.37
   9  14  -8    0.53    0.40
  -9  14  -8    0.53    0.22
  14   9  -8    1.24    0.40
   8  14  -9    0.16    0.39
   9   8 -14    0.38    0.37
   9  14  -9   29.49    1.28
  14   9  -9   27.14    1.22
   9   9 -14   27.74    1.22
  -9  14  -9   29.16    0.92
   0  10 -14   21.82    0.99
  10   0 -14   22.06    1.04
   0  14 -10   21.91    0.98
  14   0 -10   22.08    0.96
  14   1 -10   24.64    1.01
  10  -1 -14   24.70    1.09
   1  10 -14   25.70    1.07
  -1  14 -10   22.61    0.98
   1  14 -10   25.01    1.05
  14  10  -1   24.70    1.09
  10   1 -14   24.88    1.12
  14  -1 -10   26.23    1.04
  -1  10 -14   26.45    1.06
  14   2 -10   36.76    1.31
   2  10 -14   42.58    1.42
  -2  14 -10   36.15    1.27
  14  -2 -10   36.89    1.29
  14  10  -2   41.12    1.42
  -2  10 -14   40.61    1.35
  10   2 -14   39.82    1.44
 -10  14  -2   39.76    1.06
   2  14 -10   38.83    1.38
  14   3 -10    8.45    0.66
  10  14  -3    7.57    0.69
  -3  14 -10    7.53    0.58
   3  10 -14    8.73    0.72
 -10  14  -3    6.75    0.38
  -3  10 -14    7.36    0.61
  10   3 -14    6.91    0.68
   3  14 -10    8.40    0.71
  14  10  -3    7.09    0.64
  -4  14 -10   15.38    0.75
   4  10 -14   14.33    0.89
  10  14  -4   13.21    0.88
  14   4 -10   14.87    0.86
  14  10  -4   13.13    0.83
   4  14 -10   12.52    0.78
 -10  14  -4   12.13    0.49
  10   4 -14   11.45    0.83
  -4  10 -14   14.18    0.76
  14   5 -10   21.98    1.06
   5  10 -14   25.12    1.13
  10  14  -5   25.50    1.15
  -5  14 -10   22.66    0.91
  10   5 -14   24.78    1.15
  14  10  -5   27.25    1.15
   5  14 -10   26.34    1.16
  -5  10 -14   26.63    1.02
 -10  14  -5   25.21    0.76
  -6  14 -10    1.28    0.32
   6  10 -14    1.37    0.43
  14   6 -10    1.08    0.40
  10  14  -6    0.94    0.39
  14  10  -6    1.07    0.40
   6  14 -10    0.90    0.42
 -10  14  -6    1.09    0.21
  -6  10 -14    1.21    0.34
  10   6 -14    0.00    0.38
  14   7 -10   41.45    1.48
  10  14  -7   40.55    1.52
   7  10 -14   35.30    1.45
  -7  14 -10   41.00    1.23
   7  14 -10   40.10    1.50
  10   7 -14   39.18    1.49
  14  10  -7   39.35    1.46
  -7  10 -14   38.29    1.27
  14   8 -10   26.05    1.17
   8  10 -14   25.86    1.21
  10  14  -8   22.84    1.17
  -8  14 -10   27.54    0.92
  14  10  -8   30.80    1.26
   8  14 -10   26.99    1.22
  10   8 -14   27.16    1.26
  14   9 -10   42.20    1.58
  10  14  -9   43.33    1.62
   9  10 -14   43.79    1.62
  -9  14 -10   42.62    1.24
  14  10  -9   52.26    1.81
  10   9 -14   52.44    1.84
   9  14 -10   57.89    1.90
  10  10 -14   10.38    0.85
  14  10 -10    9.83    0.84
  10  14 -10   11.84    0.92
   0  11 -14   22.46    1.02
   0  14 -11   19.22    0.93
  11   0 -14   20.70    1.03
  14   0 -11   21.40    0.96
  -1  14 -11    7.22    0.63
   1  11 -14    7.05    0.64
  14   1 -11    7.87    0.66
  11  -1 -14    7.93    0.72
  -1  11 -14    9.76    0.70
   1  14 -11   10.61    0.74
  14  -1 -11    9.15    0.69
  14  11  -1   10.80    0.81
  11   1 -14   10.20    0.77
 -11  14  -1   10.04    0.44
  -2  14 -11   14.85    0.81
  14   2 -11   13.40    0.81
  11  14  -2   14.57    0.92
   2  11 -14   16.11    0.90
   2  14 -11   13.49    0.84
  -2  11 -14   17.08    0.85
  14  11  -2   15.94    0.91
  11   2 -14   14.86    0.89
 -11  14  -2   15.16    0.74
  14  -2 -11   15.48    0.83
   3  11 -14   22.38    1.06
  11  14  -3   22.62    1.11
  -3  14 -11   22.59    0.96
  14   3 -11   21.54    1.04
  -3  11 -14   18.78    0.89
  11   3 -14   17.85    0.99
   3  14 -11   19.72    0.98
  14  11  -3   17.82    0.97
   4  11 -14   62.43    1.95
  -4  14 -11   62.17    1.77
  14   4 -11   62.23    1.90
  11  14  -4   58.86    1.95
  11   4 -14   67.27    2.08
  14  11  -4   69.15    2.07
  -4  11 -14   66.46    1.92
   4  14 -11   67.62    2.06
  11  14  -5   34.33    1.41
  -5  14 -11   37.61    1.21
   5  11 -14   34.82    1.40
  14   5 -11   37.29    1.38
   5  14 -11   36.05    1.40
  -5  11 -14   35.73    1.24
  11   5 -14   37.56    1.43
  14  11  -5   34.54    1.38
   6  11 -14   13.00    0.91
  11  14  -6   15.24    0.96
  -6  14 -11   15.05    0.72
  14   6 -11   13.69    0.91
  14  11  -6   15.73    0.94
  -6  11 -14   14.39    0.75
  11   6 -14   15.13    0.94
   6  14 -11   13.36    0.90
  11  14  -7   89.13    2.53
  -7  14 -11   82.14    2.17
  14   7 -11   83.58    2.44
   7  11 -14   84.28    2.49
  -7  11 -14   77.20    2.04
  14  11  -7   73.35    2.25
   7  14 -11   73.81    2.28
  11   7 -14   74.38    2.28
  11  14  -8   30.26    1.33
  14   8 -11   31.42    1.33
  -8  14 -11   30.60    1.03
   8  11 -14   30.65    1.35
  -8  11 -14   36.61    1.18
   8  14 -11   34.79    1.43
  14  11  -8   32.60    1.39
  11   8 -14   33.25    1.41
  14   9 -11   23.86    1.19
  11  14  -9   26.30    1.25
  -9  14 -11   24.52    0.88
   9  11 -14   24.84    1.24
   9  14 -11   25.87    1.25
  11   9 -14   26.29    1.26
  14  11  -9   24.22    1.21
  10  11 -14    1.92    0.52
  14  10 -11    1.53    0.51
  11  14 -10    1.56    0.51
  10  14 -11    1.06    0.47
  14  11 -10    1.43    0.49
  11  10 -14    0.90    0.45
  11  11 -14    1.25    0.51
  11  14 -11    1.19    0.47
  14  11 -11    1.44    0.49
  12   0 -14    1.42    0.44
   0  14 -12    0.70    0.36
  14   0 -12    0.60    0.37
   0  12 -14    1.39    0.41
  12  -1 -14  124.96    3.21
  14   1 -12  122.30    3.15
  -1  14 -12  117.76    3.09
   1  12 -14  121.80    3.17
  14  -1 -12  102.21    2.78
   1  14 -12  109.66    2.84
  14  12  -1  108.07    2.89
  12   1 -14  105.45    2.87
  -1  12 -14  102.73    2.77
  -2  14 -12   82.10    2.23
  14   2 -12   80.52    2.30
  12  14  -2   78.61    2.38
   2  12 -14   80.59    2.32
  14  -2 -12   78.26    2.25
  -2  12 -14   79.78    2.23
   2  14 -12   81.24    2.31
  14  12  -2   76.96    2.32
  12   2 -14   82.48    2.35
   3  12 -14   84.36    2.40
  -3  14 -12   81.71    2.25
  12  14  -3   84.12    2.45
  14   3 -12   81.07    2.36
  14  12  -3   82.80    2.41
  -3  12 -14   82.22    2.26
  12   3 -14   82.15    2.39
   3  14 -12   80.24    2.36
  -4  14 -12    4.51    0.49
  12  14  -4    4.31    0.61
   4  12 -14    3.50    0.55
  14   4 -12    4.09    0.56
  14  12  -4    7.32    0.71
  -4  12 -14    7.40    0.62
   4  14 -12    7.33    0.68
  12   4 -14    6.20    0.68
  -5  14 -12   23.52    0.96
   5  12 -14   23.63    1.16
  14   5 -12   24.20    1.13
  12  14  -5   23.21    1.17
  12   5 -14   26.01    1.21
  14  12  -5   24.93    1.19
   5  14 -12   25.62    1.20
  -5  12 -14   26.61    1.04
   6  12 -14   71.20    2.25
  12  14  -6   75.46    2.29
  -6  14 -12   75.61    2.02
  14   6 -12   74.50    2.24
   6  14 -12   70.00    2.23
  14  12  -6   76.83    2.28
  -6  12 -14   75.20    2.04
  12   6 -14   71.95    2.25
   7  12 -14    7.30    0.76
  12  14  -7    6.39    0.68
  14   7 -12    6.77    0.72
  -7  14 -12    8.55    0.59
  -7  12 -14    8.87    0.62
  12   7 -14    8.23    0.77
   7  14 -12    9.27    0.84
  14  12  -7    8.89    0.81
  14   8 -12   16.73    1.01
  12  14  -8   16.85    1.04
   8  12 -14   16.58    1.05
  -8  14 -12   15.72    0.74
   8  14 -12   19.87    1.13
  14  12  -8   19.97    1.12
  -8  12 -14   20.69    0.88
  12   8 -14   21.78    1.15
  12  14  -9   12.06    0.96
  14   9 -12   10.26    0.89
  -9  14 -12   12.25    0.68
   9  12 -14    9.46    0.82
  14  12  -9   13.29    0.97
  12   9 -14   12.03    0.94
   9  14 -12   14.40    1.00
  10  12 -14    1.65    0.51
  14  10 -12    1.72    0.54
  12  14 -10    2.00    0.50
  12  10 -14    4.64    0.68
  10  14 -12    3.46    0.66
  14  12 -10    3.60    0.60
  14  11 -12    3.69    0.64
  12  14 -11    4.59    0.69
  11  12 -14    3.90    0.64
  14  12 -11    5.11    0.68
  11  14 -12    3.84    0.65
  12  11 -14    4.58    0.70
  12  12 -14   25.41    1.33
  14  12 -12   25.41    1.31
  12  14 -12   23.09    1.29
   0  13 -14    1.87    0.43
  13   0 -14    1.38    0.42
   0  14 -13    1.52    0.42
  14   0 -13    1.98    0.45
   1  13 -14   13.10    0.85
  13  -1 -14   13.68    0.89
  -1  14 -13   13.34    0.81
  13  14  -1   13.14    0.91
  14   1 -13   11.06    0.82
  13   1 -14   12.92    0.90
  14  13  -1   13.17    0.90
  14  -1 -13   11.43    0.80
   1  14 -13   10.66    0.81
  -1  13 -14   14.31    0.85
  14   2 -13    9.12    0.75
  -2  14 -13    9.74    0.72
  13  14  -2    8.70    0.79
   2  13 -14    9.19    0.75
  13   2 -14    8.55    0.74
   2  14 -13    8.66    0.75
  -2  13 -14    8.08    0.67
  14  13  -2    7.23    0.72
  -3  14 -13   12.22    0.77
   3  13 -14   10.68    0.84
  13  14  -3   11.54    0.88
  14   3 -13   11.69    0.84
  14  13  -3   11.64    0.88
   3  14 -13   11.74    0.85
  -3  13 -14   11.73    0.78
  13   3 -14   12.99    0.88
   4  13 -14   14.27    0.93
  -4  14 -13   12.17    0.76
  13  14  -4   14.21    0.95
  14   4 -13   13.74    0.89
  -4  13 -14   16.89    0.85
  13   4 -14   18.09    1.02
  14  13  -4   18.55    1.00
   4  14 -13   15.21    0.97
   5  13 -14    1.10    0.45
  14   5 -13    1.21    0.46
  13  14  -5    2.16    0.50
  -5  14 -13    2.12    0.41
  14  13  -5    1.60    0.46
   5  14 -13    2.59    0.54
  -5  13 -14    1.56    0.39
  13   5 -14    1.91    0.50
  -6  14 -13   84.91    2.27
  14   6 -13   83.34    2.49
  13  14  -6   91.26    2.60
   6  13 -14   81.25    2.51
   6  14 -13   81.17    2.46
  14  13  -6   83.09    2.48
  -6  13 -14   83.38    2.24
  13   6 -14   81.23    2.46
  14   7 -13    1.81    0.48
  13  14  -7    0.96    0.49
   7  13 -14    2.08    0.54
  -7  14 -13    1.61    0.37
  -7  13 -14    1.72    0.39
  13   7 -14    2.42    0.56
   7  14 -13    0.74    0.47
  14  13  -7    1.48    0.51
   8  13 -14   24.78    1.25
  14   8 -13   23.53    1.20
  13  14  -8   21.48    1.19
  -8  14 -13   22.05    0.92
  14  13  -8   22.29    1.19
  13   8 -14   23.88    1.21
   8  14 -13   21.58    1.19
  -8  13 -14   22.83    0.94
   9  13 -14   11.72    0.95
  13  14  -9   10.50    0.91
  14   9 -13    9.84    0.85
  -9  13 -14   13.32    0.72
   9  14 -13   14.17    1.06
  13   9 -14   11.87    0.96
  14  13  -9   11.50    0.96
  13  14 -10   30.40    1.42
  14  10 -13   29.23    1.38
  10  13 -14   29.25    1.40
  10  14 -13   26.31    1.32
  13  10 -14   25.65    1.31
  14  13 -10   27.39    1.34
  13  14 -11    2.68    0.61
  14  11 -13    3.35    0.64
  11  13 -14    1.77    0.59
  13  11 -14    4.67    0.72
  14  13 -11    5.02    0.74
  11  14 -13    4.18    0.68
  14  12 -13   12.12    1.01
  12  13 -14   12.04    1.00
  13  14 -12   11.77    1.03
  12  14 -13   10.35    0.94
  13  12 -14   12.92    1.05
  14  13 -12   11.21    0.97
  13  13 -14   32.35    1.54
  13  14 -13   32.55    1.54
  14  13 -13   32.14    1.54
   0  14 -14    3.36    0.51
  14   0 -14    3.22    0.53
  -1  14 -14    0.50    0.38
   1  14 -14   -0.62    0.31
  14  -1 -14    0.10    0.37
  14   1 -14   -0.06    0.37
  14  14  -1   -0.41    0.38
  -2  14 -14    3.79    0.51
   2  14 -14    2.35    0.52
  14   2 -14    2.86    0.53
  14  14  -2    3.53    0.58
  -3  14 -14   33.17    1.26
   3  14 -14   33.33    1.37
  14   3 -14   33.19    1.37
  14  14  -3   32.92    1.42
  -4  14 -14    8.36    0.67
   4  14 -14    7.90    0.76
  14   4 -14    7.43    0.73
  14  14  -4    9.25    0.85
  -5  14 -14   -0.16    0.32
   5  14 -14    0.32    0.42
  14   5 -14   -0.05    0.38
  14  14  -5   -0.13    0.40
  -6  14 -14   -0.12    0.30
   6  14 -14    0.05    0.42
  14   6 -14   -0.16    0.39
  14  14  -6    0.00    0.42
  -7  14 -14   -0.01    0.30
   7  14 -14    0.61    0.47
  14   7 -14    0.42    0.44
  14  14  -7    1.07    0.49
  -8  14 -14    2.13    0.39
   8  14 -14    2.33    0.54
  14   8 -14    2.91    0.57
  14  14  -8    3.00    0.63
   9  14 -14   33.48    1.50
  14   9 -14   32.38    1.47
  14  14  -9   32.53    1.48
  10  14 -14   11.96    0.99
  14  10 -14   10.31    0.94
  14  14 -10   10.36    0.94
  11  14 -14    0.64    0.47
  14  11 -14    1.25    0.54
  14  14 -11    0.28    0.51
  12  14 -14    4.59    0.74
  14  12 -14    3.87    0.72
  14  14 -12    4.37    0.72
  13  14 -14   14.21    1.16
  14  13 -14   13.38    1.07
  14  14 -13   15.10    1.18
  14  14 -14   53.23    2.07
  15   0   0    0.14    0.17
  15   0  -1    9.84    0.48
  15   0   1   10.66    0.45
  15   1   0    9.08    0.47
  15  -1   0    9.53    0.43
  15   1   1   37.85    1.08
  15  -1  -1   39.17    1.04
  15  -1   1   38.36    1.01
  15   1  -1   38.48    1.10
  15   0  -2  313.80    6.78
  15   2   0  316.07    6.82
  15  -2   0  309.95    6.66
  15   0   2  316.50    6.72
  15   2   1   33.37    1.00
  15  -1   2   32.58    0.87
  15   1  -2   32.72    1.00
  15  -2  -1   31.28    0.88
  15  -2   1   38.28    0.97
  15   1   2   40.03    1.10
  15  -1  -2   37.72    1.07
  15   2  -1   40.40    1.16
  15   2  -2    6.18    0.45
  15   2   2    6.92    0.44
  15  -2  -2    6.19    0.38
  15  -2   2    6.39    0.29
   2   2 -15    4.66    0.52
  15  -3   0   12.41    0.41
   0   3 -15   12.66    0.76
  15   0  -3   13.33    0.58
  15   0   3   11.90    0.50
  15   3   0   12.26    0.60
  15   1  -3   36.90    1.10
  15  -3  -1   36.43    0.93
  15  -1   3   34.60    0.93
  15   3   1   35.72    1.10
   1   3 -15   36.85    1.31
  15   3  -1   33.82    1.07
  15  -3   1   33.40    0.81
  15   1   3   33.71    0.98
  15  -1  -3   34.29    1.00
  15   2  -3   47.55    1.35
  15   3   2   46.86    1.34
   2   3 -15   46.29    1.55
  15  -3  -2   47.19    1.20
  15  -2   3   48.82    1.12
  15  -2  -3   49.53    1.28
  15   3  -2   46.37    1.37
   3   2 -15   48.34    1.58
   3   3 -15    4.32    0.54
  15  -3  -3    3.98    0.32
  15   3  -3    4.89    0.44
  15   0   4    1.77    0.24
  15   0  -4    1.56    0.28
   0  15  -4    1.12    0.33
  15   4   0    1.02    0.28
   0   4 -15    0.93    0.38
  15   4   1   19.26    0.77
   1   4 -15   19.23    0.93
  -1  15  -4   19.46    0.86
  15   1  -4   19.08    0.75
  15  -1   4   18.83    0.60
  15  -1  -4   20.43    0.73
   4   1 -15   18.98    0.96
   1  15  -4   20.43    0.90
  -1   4 -15   18.87    0.90
  15   4  -1   18.49    0.78
  15   2  -4   73.72    1.92
  -2  15  -4   76.53    2.00
  15  -2   4   72.75    1.65
   2   4 -15   70.49    2.09
  15  -2  -4   63.18    1.59
   2  15  -4   61.07    1.82
  15   4  -2   62.63    1.70
   4   2 -15   59.63    1.87
  15   3  -4   39.37    1.25
  -3  15  -4   42.64    1.29
   3   4 -15   40.48    1.42
  15  -3  -4   40.40    1.12
   4   3 -15   37.81    1.40
   3  15  -4   38.36    1.37
  -4  15  -3   41.96    1.26
  15   4  -3   40.61    1.26
   4   4 -15   23.15    1.04
  -4  15  -4   24.27    0.89
  15   4  -4   22.12    0.90
   4  15  -4   22.59    1.00
   0   5 -15    2.36    0.42
  15   0  -5    2.30    0.33
  15   5   0    2.28    0.35
   0  15  -5    2.66    0.42
  -1  15  -5   14.86    0.75
  15   1  -5   14.35    0.68
  15   5   1   17.14    0.74
   1   5 -15   14.97    0.84
  15   5  -1   14.82    0.72
   1  15  -5   14.12    0.78
  15  -1  -5   15.69    0.66
  -1   5 -15   14.38    0.81
   5   1 -15   16.85    0.89
  -2  15  -5   10.93    0.66
   2   5 -15   13.24    0.79
  15   2  -5   11.91    0.64
  15  -2   5   12.20    0.41
   2  15  -5   12.84    0.77
   5   2 -15   13.90    0.84
  15  -2  -5   14.11    0.62
  -2   5 -15   12.73    0.76
  15   5  -2   14.08    0.69
  -3  15  -5   20.24    0.84
  15   3  -5   20.30    0.85
   3   5 -15   20.77    0.98
   5   3 -15   12.77    0.81
  -5  15  -3   13.70    0.64
   3  15  -5   12.46    0.78
  15   5  -3   12.66    0.67
  15  -3  -5   12.00    0.57
   5  15  -4    7.18    0.65
  15   4  -5    9.02    0.60
   4   5 -15   10.44    0.75
  -4  15  -5   10.09    0.59
  -5  15  -4    8.57    0.55
  15   5  -4    7.83    0.59
   5   4 -15    8.62    0.70
   4  15  -5    8.27    0.68
  15   5  -5    9.53    0.66
   5  15  -5   10.59    0.76
  -5  15  -5   10.15    0.57
   5   5 -15    7.76    0.65
   0  15  -6   39.53    1.33
   0   6 -15   41.33    1.40
  15   6   0   40.43    1.30
  15   0  -6   40.56    1.24
  15   6   1   73.31    2.04
  -1  15  -6   76.61    2.08
   1   6 -15   79.14    2.19
  15   1  -6   77.20    2.02
   6   1 -15   83.27    2.41
  15   6  -1   88.93    2.29
  -1   6 -15   87.37    2.36
  15  -1  -6   86.37    2.18
   1  15  -6   86.67    2.34
  15   2  -6   24.44    0.94
  -2  15  -6   24.07    0.96
   2   6 -15   25.49    1.08
  15  -2  -6   24.20    0.85
   2  15  -6   25.16    1.04
  -2   6 -15   23.94    1.00
   6   2 -15   22.46    1.06
  15   6  -2   23.23    0.96
  15   3  -6   18.08    0.82
   3   6 -15   17.69    0.90
  -3  15  -6   18.54    0.81
  -3   6 -15   22.12    0.94
   6   3 -15   18.36    0.95
   3  15  -6   23.33    1.01
  -6  15  -3   21.39    0.80
  15   6  -3   21.80    0.92
  15  -3  -6   20.94    0.80
  -4  15  -6    6.27    0.50
   6  15  -4    6.26    0.64
   4   6 -15    5.71    0.58
  15   4  -6    6.79    0.56
  -6  15  -4    3.75    0.38
  15   6  -4    2.47    0.40
   6   4 -15    3.11    0.50
   4  15  -6    2.78    0.48
  -5  15  -6   56.94    1.62
  15   5  -6   60.73    1.75
   5   6 -15   59.23    1.87
   6  15  -5   59.73    1.86
   6   5 -15   66.26    2.02
  15   6  -5   67.67    1.93
   5  15  -6   65.17    2.01
  -6  15  -5   69.57    1.78
   6  15  -6    3.49    0.54
  -6  15  -6    3.62    0.38
   6   6 -15    3.62    0.52
  15   6  -6    3.09    0.45
   0   7 -15   21.49    0.98
   7   0 -15   19.77    1.01
  15   7   0   22.01    0.92
   0  15  -7   21.56    0.93
  15   0  -7   21.50    0.86
   1   7 -15   48.75    1.61
  15   1  -7   50.26    1.49
  -1  15  -7   50.23    1.52
  -1   7 -15   41.94    1.42
   1  15  -7   43.11    1.42
  15  -1  -7   43.46    1.30
   7   1 -15   40.20    1.48
  15   7  -1   42.81    1.38
   2   7 -15    5.38    0.58
  15   2  -7    5.90    0.51
  -2  15  -7    6.83    0.55
  15  -2  -7    6.59    0.50
  -2   7 -15    7.38    0.60
   2  15  -7    6.01    0.60
  15   7  -2    4.82    0.51
   7   2 -15    6.06    0.63
   7  15  -3   21.11    1.04
   3   7 -15   21.93    1.02
  -3  15  -7   21.27    0.87
  15   3  -7   20.53    0.91
   3  15  -7   16.47    0.90
  15  -3  -7   17.82    0.76
   7   3 -15   18.08    0.95
  -3   7 -15   16.54    0.85
  -7  15  -3   17.44    0.69
  15   7  -3   16.85    0.84
   7  15  -4   26.38    1.16
  15   4  -7   25.79    1.03
   4   7 -15   27.06    1.15
  -4  15  -7   25.96    0.96
  -4   7 -15   30.68    1.15
   4  15  -7   30.15    1.21
  15   7  -4   32.11    1.17
  -7  15  -4   31.46    0.99
   7   4 -15   29.03    1.23
  -5  15  -7   92.53    2.29
  15   5  -7   91.17    2.43
   5   7 -15   88.79    2.51
   7  15  -5   87.32    2.53
   5  15  -7   78.27    2.30
   7   5 -15   82.12    2.35
  15   7  -5   79.50    2.22
  -7  15  -5   80.33    2.01
  -6  15  -7    8.93    0.56
   6   7 -15    9.09    0.76
   7  15  -6    9.16    0.76
  15   6  -7    9.06    0.69
  15   7  -6    9.75    0.71
   6  15  -7    9.94    0.78
   7   6 -15   11.36    0.82
  -7  15  -6   10.09    0.55
  -7  15  -7    2.69    0.35
   7   7 -15    3.09    0.53
   7  15  -7    2.96    0.49
  15   7  -7    2.99    0.48
  15   0  -8    0.15    0.27
   8   0 -15    0.60    0.38
  15   8   0    0.35    0.30
   0   8 -15    0.13    0.32
   0  15  -8    0.36    0.32
  15   1  -8    5.76    0.52
   1   8 -15    6.86    0.64
  -1  15  -8    5.90    0.55
  15   8  -1    2.91    0.45
  -1   8 -15    3.87    0.48
   1  15  -8    4.27    0.51
  15  -1  -8    3.71    0.42
   8   1 -15    3.51    0.52
   2   8 -15   54.93    1.71
  15   2  -8   52.26    1.59
  -2  15  -8   49.88    1.55
   8   2 -15   51.33    1.71
  15   8  -2   49.41    1.60
  -8  15  -2   49.27    1.37
  -2   8 -15   52.41    1.61
  15  -2  -8   50.27    1.49
   2  15  -8   52.11    1.64
  -3  15  -8    9.76    0.64
   8  15  -3    9.26    0.76
  15   3  -8   10.41    0.69
   3   8 -15   11.26    0.79
  -8  15  -3   14.17    0.62
   3  15  -8   15.39    0.86
   8   3 -15   14.01    0.89
  -3   8 -15   17.06    0.83
  15  -3  -8   15.12    0.72
  15   8  -3   13.53    0.82
  -4  15  -8   15.08    0.73
   4   8 -15   13.30    0.86
  15   4  -8   15.26    0.81
   8  15  -4   14.56    0.90
  -4   8 -15   13.19    0.76
  15   8  -4   10.82    0.74
   8   4 -15   12.45    0.80
  -8  15  -4   13.77    0.59
   4  15  -8   12.04    0.81
  -5  15  -8    0.87    0.30
  15   5  -8    0.37    0.34
   8  15  -5    0.68    0.41
   5   8 -15    0.46    0.39
  -8  15  -5    0.77    0.23
   8   5 -15    0.32    0.38
   5  15  -8    0.51    0.39
  15   8  -5    0.27    0.34
  -5   8 -15    0.29    0.28
  15   6  -8   20.77    1.01
  -6  15  -8   21.13    0.84
   8  15  -6   21.55    1.04
   6   8 -15   22.46    1.10
  15   8  -6   20.37    1.01
   6  15  -8   24.28    1.12
  -8  15  -6   22.94    0.81
   8   6 -15   26.04    1.16
  15   7  -8   24.65    1.09
  -7  15  -8   24.61    0.89
   8  15  -7   23.42    1.12
   7   8 -15   25.68    1.18
   7  15  -8   26.80    1.18
   8   7 -15   28.21    1.24
  -8  15  -7   26.10    0.89
  15   8  -7   26.99    1.15
  -8  15  -8   24.31    0.85
   8  15  -8   23.02    1.15
   8   8 -15   23.54    1.15
  15   8  -8   22.74    1.08
   9   0 -15    5.79    0.63
   0  15  -9    6.99    0.60
  15   9   0    6.58    0.61
  15   0  -9    6.80    0.57
   0   9 -15    6.44    0.60
  -1  15  -9   33.79    1.21
   1   9 -15   34.61    1.29
  15   1  -9   31.95    1.19
   9   1 -15   32.17    1.30
   1  15  -9   32.88    1.25
  -1   9 -15   33.82    1.26
  15  -1  -9   31.61    1.15
  15   9  -1   34.55    1.26
   2   9 -15    6.54    0.63
  -2  15  -9    5.54    0.54
  15   2  -9    5.44    0.55
  -9  15  -2    5.91    0.43
   9   2 -15    6.12    0.66
  15  -2  -9    6.72    0.56
  -2   9 -15    6.82    0.60
  15   9  -2    4.61    0.53
   2  15  -9    6.68    0.62
  15   3  -9   19.93    0.93
   3   9 -15   19.71    1.00
   9  15  -3   17.89    0.96
  -3  15  -9   18.11    0.84
   9   3 -15   11.22    0.79
   3  15  -9   11.59    0.80
  -3   9 -15   13.84    0.79
  15  -3  -9   12.42    0.70
  -9  15  -3   12.45    0.55
  15   9  -3   12.20    0.79
   9  15  -4    0.03    0.33
  -4  15  -9    0.06    0.26
  15   4  -9    0.16    0.32
   4   9 -15   -0.30    0.33
  15   9  -4    0.22    0.33
  -9  15  -4    0.60    0.22
  -4   9 -15    0.89    0.33
   4  15  -9    1.08    0.39
   9   4 -15    0.29    0.38
  -5  15  -9   51.51    1.51
   9  15  -5   51.16    1.74
  15   5  -9   53.53    1.68
   5   9 -15   50.79    1.73
  -5   9 -15   57.90    1.71
  15   9  -5   57.58    1.80
   5  15  -9   58.50    1.85
   9   5 -15   55.01    1.83
  -9  15  -5   55.01    1.46
   6   9 -15   28.70    1.22
  15   6  -9   26.44    1.16
   9  15  -6   28.84    1.27
  -6  15  -9   30.23    1.01
  -6   9 -15   22.16    0.94
   9   6 -15   22.13    1.11
  -9  15  -6   20.51    0.74
  15   9  -6   21.06    1.04
   6  15  -9   23.13    1.10
  15   7  -9   46.48    1.58
  -7  15  -9   44.49    1.34
   7   9 -15   45.74    1.65
   9  15  -7   44.79    1.65
  15   9  -7   43.29    1.54
  -9  15  -7   41.37    1.18
   9   7 -15   42.79    1.58
   7  15  -9   42.62    1.57
  -8  15  -9   10.44    0.57
   9  15  -8    9.08    0.78
   8   9 -15    9.44    0.81
  15   8  -9    9.81    0.78
  15   9  -8   11.09    0.84
   9   8 -15   10.02    0.84
  -9  15  -8   10.44    0.53
   8  15  -9   10.96    0.86
  15   9  -9    4.14    0.59
   9  15  -9    4.79    0.64
  -9  15  -9    4.65    0.40
   9   9 -15    3.57    0.58
  15  10   0   16.43    0.90
  15   0 -10   16.17    0.85
   0  15 -10   17.20    0.87
   0  10 -15   16.09    0.92
  10   0 -15   18.70    0.99
  15   1 -10   66.79    1.92
  -1  15 -10   65.74    1.91
   1  10 -15   64.04    1.97
  -1  10 -15   64.88    1.93
  10   1 -15   66.32    2.04
   1  15 -10   65.29    1.95
  15  10  -1   64.14    1.97
  15  -1 -10   64.30    1.88
  -2  15 -10    7.30    0.61
  15   2 -10    7.42    0.64
   2  10 -15    6.82    0.66
   2  15 -10    8.37    0.70
 -10  15  -2    9.50    0.46
  15  10  -2    9.20    0.73
  15  -2 -10    9.03    0.66
  10   2 -15    7.95    0.73
  -2  10 -15    8.17    0.66
  -3  15 -10   27.79    1.07
  15   3 -10   27.40    1.12
   3  10 -15   27.39    1.19
  10  15  -3   25.37    1.17
 -10  15  -3   30.86    0.91
   3  15 -10   29.67    1.24
  10   3 -15   31.70    1.31
  15  10  -3   30.46    1.26
  -3  10 -15   32.02    1.19
  10  15  -4    2.73    0.55
  -4  15 -10    2.12    0.37
   4  10 -15    2.55    0.49
  15   4 -10    1.69    0.42
  10   4 -15    2.57    0.49
   4  15 -10    3.90    0.57
  -4  10 -15    2.97    0.44
  15  10  -4    2.53    0.48
 -10  15  -4    3.90    0.32
   5  10 -15   88.90    2.56
  -5  15 -10   90.81    2.34
  10  15  -5   90.01    2.60
  15   5 -10   88.93    2.49
  15  10  -5   81.34    2.33
  10   5 -15   79.68    2.36
  -5  10 -15   76.87    2.18
   5  15 -10   81.89    2.36
  15   6 -10   32.90    1.31
  -6  15 -10   35.85    1.14
   6  10 -15   30.81    1.34
  10  15  -6   30.78    1.36
   6  15 -10   33.54    1.36
  -6  10 -15   33.26    1.18
  15  10  -6   31.87    1.31
  10   6 -15   29.69    1.33
   7  10 -15   49.86    1.73
  10  15  -7   44.39    1.68
  15   7 -10   45.55    1.63
  -7  15 -10   48.44    1.40
  15  10  -7   40.96    1.54
   7  15 -10   39.59    1.56
  10   7 -15   44.90    1.64
  -7  10 -15   44.03    1.39
  10  15  -8   24.50    1.23
  -8  15 -10   26.45    0.93
   8  10 -15   25.69    1.24
  15   8 -10   25.92    1.20
  10   8 -15   27.42    1.28
   8  15 -10   27.53    1.29
  15  10  -8   27.14    1.24
  15   9 -10   54.17    1.84
  10  15  -9   52.92    1.87
  -9  15 -10   51.79    1.60
   9  10 -15   52.97    1.87
   9  15 -10   47.20    1.75
  10   9 -15   47.20    1.75
  15  10  -9   47.78    1.71
  10  10 -15   55.13    1.92
  15  10 -10   53.83    1.87
  10  15 -10   52.38    1.87
   0  15 -11   54.15    1.77
   0  11 -15   58.14    1.82
  15  11   0   57.31    1.84
  11   0 -15   63.22    1.93
  15   0 -11   55.89    1.77
  -1  15 -11   14.24    0.81
  15   1 -11   12.22    0.78
   1  11 -15   13.12    0.88
  15  11  -1    9.95    0.77
  15  -1 -11    9.10    0.70
  11   1 -15    9.15    0.76
   1  15 -11    9.15    0.73
  -1  11 -15    9.13    0.72
  11  15  -2   33.97    1.37
  -2  15 -11   37.05    1.27
  15   2 -11   33.16    1.28
   2  11 -15   34.10    1.34
  15  -2 -11   41.85    1.42
  11   2 -15   42.09    1.54
   2  15 -11   40.61    1.47
  -2  11 -15   41.36    1.42
  15  11  -2   39.66    1.49
  -3  15 -11   36.70    1.27
  11  15  -3   35.21    1.44
  15   3 -11   35.59    1.33
   3  11 -15   33.58    1.37
  -3  11 -15   37.79    1.32
  15  11  -3   37.17    1.41
   3  15 -11   34.55    1.38
  11   3 -15   38.39    1.46
  11  15  -4   17.31    1.03
  -4  15 -11   17.90    0.85
  15   4 -11   18.34    0.98
   4  11 -15   15.87    0.97
   4  15 -11   22.67    1.11
  15  11  -4   22.83    1.11
  -4  11 -15   24.31    1.03
  11   4 -15   22.26    1.13
  11  15  -5   17.36    1.03
  -5  15 -11   16.55    0.81
  15   5 -11   17.61    0.97
   5  11 -15   17.01    1.01
   5  15 -11   20.94    1.08
  -5  11 -15   21.34    0.95
  15  11  -5   20.69    1.06
  11   5 -15   19.02    1.08
   6  11 -15   23.52    1.19
  -6  15 -11   24.86    0.97
  11  15  -6   27.86    1.24
  15   6 -11   27.01    1.19
  15  11  -6   24.31    1.18
  -6  11 -15   21.68    0.96
  11   6 -15   24.69    1.18
   6  15 -11   20.23    1.10
   7  11 -15   16.07    1.01
  11  15  -7   11.45    0.91
  -7  15 -11   13.60    0.70
  15   7 -11   13.71    0.92
  15  11  -7   11.11    0.87
   7  15 -11   12.42    0.94
  -7  11 -15   12.79    0.73
  11   7 -15   11.11    0.87
  15   8 -11    7.48    0.72
  -8  15 -11    8.07    0.58
  11  15  -8    7.41    0.74
   8  11 -15    7.39    0.76
   8  15 -11    8.21    0.80
  15  11  -8    9.59    0.85
  11   8 -15    8.92    0.83
  11  15  -9    4.01    0.65
   9  11 -15    4.21    0.64
  15   9 -11    5.27    0.68
  11   9 -15    4.84    0.65
  15  11  -9    4.57    0.64
   9  15 -11    5.76    0.69
  15  10 -11   16.67    1.06
  10  11 -15   17.72    1.06
  11  15 -10   17.40    1.11
  11  10 -15   14.55    1.04
  10  15 -11   16.69    1.08
  15  11 -10   15.61    1.03
  15  11 -11    2.57    0.58
  11  11 -15    2.06    0.53
  11  15 -11    3.10    0.62
  15  12   0    3.74    0.57
   0  12 -15    4.04    0.55
  12   0 -15    3.70    0.56
   0  15 -12    3.39    0.52
  15   0 -12    2.64    0.48
  -1  15 -12    6.61    0.62
  12  -1 -15    6.13    0.67
   1  12 -15    7.39    0.70
  15   1 -12    6.31    0.63
   1  15 -12    7.54    0.68
  15  -1 -12    6.29    0.63
  12   1 -15    8.46    0.76
  15  12  -1    7.67    0.74
  -1  12 -15    7.94    0.68
  12  15  -2    4.36    0.63
  15   2 -12    5.74    0.61
   2  12 -15    3.98    0.58
  -2  15 -12    6.11    0.61
  15  12  -2    5.71    0.66
  15  -2 -12    5.46    0.59
  -2  12 -15    5.95    0.59
  12   2 -15    4.93    0.62
   2  15 -12    5.85    0.63
  15   3 -12   18.62    1.02
  12  15  -3   19.87    1.10
  -3  15 -12   20.15    0.95
   3  12 -15   21.14    1.07
  15  12  -3   24.16    1.16
   3  15 -12   25.67    1.16
  -3  12 -15   25.38    1.09
  12   3 -15   22.56    1.15
   4  12 -15   29.13    1.29
  -4  15 -12   30.93    1.15
  15   4 -12   28.97    1.26
  12  15  -4   27.54    1.31
  12   4 -15   30.36    1.31
  15  12  -4   27.71    1.29
  -4  12 -15   29.30    1.14
   4  15 -12   29.01    1.28
   5  12 -15    9.62    0.82
  15   5 -12   10.51    0.83
  12  15  -5   11.10    0.90
  -5  15 -12   12.05    0.72
  15  12  -5   11.16    0.87
   5  15 -12   12.51    0.93
  12   5 -15   10.28    0.84
  -5  12 -15   12.72    0.77
  -6  15 -12   32.05    1.14
  15   6 -12   32.29    1.34
   6  12 -15   30.10    1.36
  12  15  -6   34.32    1.45
  15  12  -6   32.07    1.39
   6  15 -12   32.92    1.41
  12   6 -15   33.43    1.42
  -6  12 -15   34.00    1.23
   7  12 -15    5.34    0.70
  15   7 -12    5.25    0.64
  12  15  -7    5.34    0.70
  -7  15 -12    5.69    0.53
  -7  12 -15    2.92    0.45
  12   7 -15    2.19    0.51
  15  12  -7    3.86    0.63
   7  15 -12    2.83    0.59
  -8  15 -12   25.21    0.95
   8  12 -15   23.32    1.24
  15   8 -12   23.80    1.21
  12  15  -8   25.15    1.25
   8  15 -12   20.59    1.18
  -8  12 -15   22.16    0.95
  12   8 -15   21.44    1.18
  15  12  -8   24.15    1.20
   9  12 -15    0.78    0.46
  12  15  -9    0.80    0.50
  15   9 -12    1.51    0.49
  15  12  -9    0.94    0.48
   9  15 -12    1.39    0.54
  12   9 -15    1.31    0.50
  15  10 -12    6.83    0.76
  12  15 -10    5.94    0.76
  10  12 -15    5.54    0.73
  12  10 -15    8.15    0.81
  10  15 -12    6.50    0.76
  15  12 -10    6.21    0.74
  15  11 -12   20.84    1.21
  11  12 -15   20.18    1.22
  12  15 -11   21.59    1.23
  11  15 -12   19.31    1.20
  15  12 -11   19.77    1.19
  12  11 -15   22.24    1.24
  12  15 -12   35.24    1.58
  15  12 -12   32.92    1.53
  12  12 -15   32.38    1.54
  15  13   0   18.44    1.03
  13   0 -15   15.40    0.97
   0  15 -13   17.23    0.95
   0  13 -15   17.80    0.97
  15   0 -13   18.62    1.00
  13  15  -1   18.87    1.09
   1  13 -15   19.29    1.03
  13  -1 -15   19.48    1.08
  15   1 -13   20.21    1.03
  -1  15 -13   21.23    1.03
  -1  13 -15   21.60    1.03
   1  15 -13   21.31    1.08
  15  13  -1   21.39    1.12
  13   1 -15   18.98    1.06
  15  -1 -13   20.78    1.06
  13  15  -2   46.36    1.70
  -2  15 -13   46.19    1.54
   2  13 -15   45.72    1.63
  15   2 -13   43.28    1.59
  15  13  -2   46.92    1.70
  -2  13 -15   46.82    1.58
  13   2 -15   47.54    1.70
   2  15 -13   46.20    1.64
   3  13 -15    8.37    0.78
  15   3 -13    8.61    0.76
  -3  15 -13    9.06    0.70
  13  15  -3    7.97    0.80
  15  13  -3    8.65    0.79
   3  15 -13   10.58    0.83
  13   3 -15    9.66    0.81
  -3  13 -15   11.21    0.78
  13  15  -4   17.39    1.06
  15   4 -13   16.41    0.99
  -4  15 -13   18.58    0.91
   4  13 -15   17.78    1.04
  -4  13 -15   18.13    0.93
  13   4 -15   17.05    1.03
  15  13  -4   17.47    1.08
   4  15 -13   17.73    1.07
   5  13 -15   19.96    1.09
  -5  15 -13   17.09    0.87
  13  15  -5   15.30    1.04
  15   5 -13   17.27    1.02
   5  15 -13   18.10    1.06
  13   5 -15   18.34    1.07
  -5  13 -15   17.01    0.90
  15  13  -5   19.14    1.10
  15   6 -13    3.10    0.55
  -6  15 -13    3.24    0.45
  13  15  -6    3.34    0.61
   6  13 -15    2.67    0.55
   6  15 -13    2.60    0.57
  15  13  -6    2.86    0.57
  13   6 -15    2.75    0.57
  -6  13 -15    2.55    0.45
   7  13 -15   11.28    0.94
  13  15  -7    8.92    0.85
  -7  15 -13    9.76    0.67
  15   7 -13    8.58    0.82
  13   7 -15   11.45    0.93
   7  15 -13    9.42    0.87
  -7  13 -15    9.91    0.71
  15  13  -7   12.20    0.95
  15   8 -13    7.98    0.78
  -8  15 -13    8.11    0.61
  13  15  -8    7.66    0.81
   8  13 -15    8.45    0.85
  15  13  -8    9.72    0.87
  13   8 -15   10.71    0.92
  -8  13 -15   10.50    0.71
   8  15 -13   10.83    0.92
  13  15  -9   14.02    1.07
  15   9 -13   11.49    0.95
   9  13 -15   11.51    0.94
   9  15 -13   14.00    1.08
  13   9 -15   14.62    1.06
  15  13  -9   11.94    0.97
  13  15 -10   21.86    1.26
  10  13 -15   22.77    1.28
  15  10 -13   23.33    1.28
  15  13 -10   23.71    1.29
  10  15 -13   24.85    1.32
  13  10 -15   24.18    1.31
  15  11 -13   35.81    1.57
  11  13 -15   34.73    1.58
  13  15 -11   33.90    1.58
  11  15 -13   33.95    1.56
  13  11 -15   33.71    1.56
  15  13 -11   34.17    1.56
  13  15 -12    6.35    0.82
  15  12 -13    5.73    0.78
  12  13 -15    4.36    0.74
  12  15 -13    6.87    0.86
  13  12 -15    6.43    0.81
  15  13 -12    6.00    0.78
  13  13 -15    8.55    0.91
  15  13 -13    6.19    0.84
  13  15 -13    7.11    0.89
  14   0 -15    0.07    0.39
   0  14 -15    0.15    0.36
  15  14   0    0.96    0.46
   0  15 -14    0.70    0.39
  15   0 -14    0.31    0.40
  -1  15 -14   12.28    0.82
   1  14 -15   11.74    0.87
  15   1 -14   10.97    0.87
  14  15  -1   13.40    1.00
  14  -1 -15   13.13    0.94
   1  15 -14   16.19    0.95
  15  14  -1   15.85    1.03
  -1  14 -15   17.13    0.97
  15  -1 -14   15.86    0.97
  14   1 -15   14.65    0.97
   2  14 -15   17.75    1.04
  14  15  -2   17.90    1.09
  15   2 -14   19.70    1.06
  -2  15 -14   16.99    0.96
   2  15 -14   18.63    1.06
  15  14  -2   16.54    1.06
  -2  14 -15   16.97    0.93
  14   2 -15   17.26    1.06
  15   3 -14    8.78    0.78
  -3  15 -14    7.54    0.68
   3  14 -15    9.08    0.82
  14  15  -3    8.95    0.84
  -3  14 -15   10.49    0.79
  14   3 -15   12.36    0.93
   3  15 -14    9.28    0.81
  15  14  -3   10.46    0.87
  15   4 -14    0.56    0.45
  14  15  -4    1.18    0.51
   4  14 -15    0.64    0.44
  -4  15 -14    0.85    0.38
  -4  14 -15    1.98    0.43
   4  15 -14    1.54    0.49
  14   4 -15    1.25    0.49
  15  14  -4    1.79    0.54
   5  14 -15   67.72    2.19
  14  15  -5   67.98    2.22
  15   5 -14   64.61    2.13
  -5  15 -14   65.84    1.95
  14   5 -15   61.54    2.07
  15  14  -5   61.14    2.08
   5  15 -14   60.37    2.05
  -5  14 -15   63.07    1.88
  15   6 -14   16.97    1.09
  -6  15 -14   15.04    0.84
   6  14 -15   13.02    0.99
  14  15  -6   16.98    1.10
  14   6 -15   11.40    0.96
   6  15 -14   13.83    1.03
  15  14  -6   11.60    0.95
  -6  14 -15   12.73    0.79
  14  15  -7   25.19    1.32
  -7  15 -14   26.34    1.06
   7  14 -15   26.61    1.32
  15   7 -14   23.08    1.24
  14   7 -15   25.07    1.31
   7  15 -14   29.72    1.39
  15  14  -7   27.43    1.35
  -7  14 -15   28.76    1.11
  14  15  -8    5.77    0.76
   8  14 -15    4.42    0.68
  15   8 -14    5.55    0.73
  -8  15 -14    5.82    0.56
  14   8 -15    7.42    0.80
   8  15 -14    8.37    0.83
  -8  14 -15    8.13    0.64
  15  14  -8    9.50    0.90
  14  15  -9   43.33    1.78
   9  14 -15   46.32    1.81
  15   9 -14   46.21    1.78
  14   9 -15   44.27    1.77
   9  15 -14   42.57    1.77
  15  14  -9   48.29    1.82
  10  14 -15   26.83    1.40
  15  10 -14   27.02    1.38
  14  15 -10   24.88    1.37
  10  15 -14   23.42    1.32
  15  14 -10   23.24    1.29
  14  10 -15   22.04    1.28
  15  11 -14    7.33    0.84
  11  14 -15    6.90    0.85
  14  15 -11    6.32    0.80
  15  14 -11    7.94    0.90
  14  11 -15    8.17    0.86
  11  15 -14    5.18    0.76
  14  15 -12    6.24    0.85
  12  14 -15    5.46    0.78
  15  12 -14    6.33    0.82
  14  12 -15    6.76    0.86
  15  14 -12    5.88    0.80
  12  15 -14    7.67    0.88
  15  13 -14    1.01    0.61
  13  14 -15    1.76    0.63
  14  15 -13    1.86    0.63
  13  15 -14    1.67    0.62
  14  13 -15    1.72    0.62
  15  14 -13    1.41    0.60
  14  14 -15   11.25    1.05
  14  15 -14   10.79    1.03
  15  14 -14    9.67    1.01
   0  15 -15  158.32    4.04
  15   0 -15  158.82    4.09
  15  15   0  160.86    4.16
  -1  15 -15    1.78    0.48
   1  15 -15    1.93    0.49
  15  -1 -15    1.28    0.48
  15   1 -15    1.94    0.53
  15  15  -1    1.12    0.50
  -2  15 -15    7.31    0.70
   2  15 -15    7.28    0.73
  15   2 -15    8.40    0.80
  15  15  -2    7.28    0.80
  -3  15 -15   42.48    1.53
   3  15 -15   44.92    1.66
  15   3 -15   42.96    1.67
  15  15  -3   40.83    1.67
  -4  15 -15   -0.21    0.35
   4  15 -15    0.11    0.45
  15   4 -15    0.54    0.48
  15  15  -4   -0.20    0.45
  -5  15 -15    0.41    0.36
   5  15 -15    0.40    0.48
  15   5 -15    1.14    0.51
  15  15  -5    0.08    0.48
  -6  15 -15   33.15    1.27
   6  15 -15   33.57    1.48
  15   6 -15   30.30    1.43
  15  15  -6   32.73    1.49
  -7  15 -15    0.17    0.34
   7  15 -15    0.62    0.50
  15   7 -15   -0.05    0.46
  15  15  -7    0.09    0.49
   8  15 -15    3.00    0.63
  15   8 -15    1.85    0.58
  15  15  -8    3.40    0.65
   9  15 -15    2.07    0.61
  15   9 -15    1.29    0.55
  15  15  -9    1.47    0.56
  10  15 -15    4.38    0.76
  15  10 -15    2.90    0.67
  15  15 -10    3.81    0.71
  11  15 -15    2.15    0.65
  15  11 -15    1.78    0.60
  15  15 -11    2.07    0.61
  12  15 -15    0.39    0.55
  15  12 -15    2.52    0.67
  15  15 -12    2.22    0.66
  13  15 -15   14.03    1.14
  15  13 -15   11.21    1.08
  15  15 -13   13.15    1.14
  14  15 -15    5.38    0.84
  15  14 -15    4.85    0.82
  15  15 -14    4.66    0.84
  15  15 -15    8.94    1.01
  16   0   0   10.87    0.50
  16   0  -1   -0.19    0.18
  16   0   1    0.28    0.18
  16   1   0   -0.01    0.19
  16  -1   0   -0.17    0.16
  16  -1   1   56.55    1.39
  16   1  -1   57.21    1.51
  16   1   1   57.89    1.48
  16  -1  -1   56.11    1.43
  16  -2   0    8.51    0.38
  16   2   0    8.31    0.50
  16   0  -2    8.85    0.49
  16   0   2    8.24    0.42
  16  -1   2   21.38    0.66
  16   2   1   21.49    0.78
  16  -2  -1   22.64    0.69
  16   1  -2   21.94    0.80
  16   2  -1   20.69    0.80
  16  -2   1   22.69    0.64
  16   1   2   23.06    0.76
  16  -1  -2   21.97    0.74
  16  -2  -2    5.64    0.37
  16  -2   2    5.46    0.29
  16   2  -2    4.87    0.42
  16   2   2    5.26    0.41
  16  -3   0    3.58    0.24
  16   0  -3    3.72    0.36
  16   0   3    3.64    0.30
  16   3   0    3.65    0.38
  16  -1   3   71.05    1.68
  16   1  -3   70.99    1.85
  16  -3  -1   73.05    1.68
   1   3 -16   74.43    2.13
  16   3   1   69.42    1.86
  16  -1  -3   81.60    2.00
  16  -3   1   82.74    1.80
  16   1   3   81.93    1.98
  16   3  -1   79.56    2.08
  16   2  -3    2.11    0.33
  16  -2   3    1.92    0.18
   2   3 -16    2.03    0.43
  16  -3  -2    2.04    0.24
  16   3   2    2.28    0.32
   3   2 -16    1.38    0.41
  16   3  -2    1.31    0.31
  16  -2  -3    2.12    0.28
  16   2   3    1.91    0.29
  16  -3  -3   14.83    0.58
   3   3 -16   14.66    0.85
  16   3   3   14.95    0.67
  16   3  -3   15.56    0.71
   0   4 -16   72.02    2.07
   0  16  -4   68.64    1.98
  16   0  -4   69.03    1.81
  16   0   4   67.76    1.69
  16   4   0   72.30    1.88
  16   4   1   42.17    1.28
  -1  16  -4   40.49    1.35
  16  -1   4   41.55    1.06
   1   4 -16   41.85    1.46
  16   1  -4   41.28    1.24
  16   1   4   42.53    1.16
   1  16  -4   40.88    1.40
  16   4  -1   42.48    1.29
  16  -1  -4   39.23    1.18
  -2  16  -4   10.91    0.67
  16   4   2   11.94    0.64
   2   4 -16   10.95    0.79
  16   2  -4   11.43    0.62
  16  -2   4   11.88    0.39
  16   4  -2    9.27    0.60
   4   2 -16    8.86    0.73
  16  -2  -4    8.99    0.50
   2  16  -4    9.07    0.70
  -3  16  -4    4.99    0.48
  16   3  -4    4.62    0.46
   3   4 -16    4.80    0.57
   4   3 -16    4.08    0.55
   3  16  -4    4.89    0.56
  16   4  -3    4.55    0.46
  16  -3  -4    4.52    0.36
  -4  16  -3    4.98    0.46
  16   4  -4   12.83    0.71
  -4  16  -4   12.65    0.68
   4  16  -4   14.47    0.85
   4   4 -16   12.46    0.85
   0   5 -16    2.11    0.44
   0  16  -5    1.97    0.40
  16   5   0    1.86    0.36
  16   0  -5    1.85    0.32
   1   5 -16   50.81    1.68
  16  -1   5   52.82    1.29
  -1  16  -5   53.45    1.61
  16   1  -5   51.24    1.49
  16   5   1   51.27    1.52
   1  16  -5   49.65    1.58
  16   5  -1   49.42    1.47
   5   1 -16   46.53    1.63
  16  -1  -5   50.15    1.39
  -1   5 -16   50.30    1.61
  -2  16  -5   30.05    1.07
  16   5   2   26.24    1.00
  16  -2   5   27.33    0.73
   2   5 -16   28.15    1.18
  16   2  -5   29.27    1.02
   5   2 -16   22.86    1.10
  16  -2  -5   25.35    0.86
   2  16  -5   23.39    1.04
  16   5  -2   23.43    0.93
   3   5 -16   54.58    1.75
  16   3  -5   51.34    1.55
  -3  16  -5   52.87    1.57
   3  16  -5   56.93    1.77
  -5  16  -3   57.50    1.59
  16   5  -3   52.54    1.62
   5   3 -16   54.78    1.78
  16  -3  -5   56.53    1.50
   4   5 -16   33.82    1.33
   5  16  -4   35.65    1.35
  16   4  -5   33.70    1.19
  -4  16  -5   33.58    1.15
  -5  16  -4   36.27    1.16
   5   4 -16   34.99    1.37
  16   5  -4   35.05    1.23
   4  16  -5   35.04    1.34
   5   5 -16  183.10    4.50
   5  16  -5  185.65    4.49
  16   5  -5  183.80    4.34
  -5  16  -5  181.73    4.23
   0  16  -6   45.66    1.49
  16   6   0   44.46    1.43
  16   0  -6   47.54    1.38
   0   6 -16   46.53    1.57
  -1  16  -6    9.06    0.67
  16   6   1    8.54    0.59
  16   1  -6    8.94    0.59
   1   6 -16    9.29    0.73
  -1   6 -16    7.98    0.68
  16   6  -1    9.12    0.62
  16  -1  -6    9.45    0.58
   1  16  -6    9.51    0.69
   6   1 -16    9.31    0.79
  -2  16  -6   11.22    0.69
   2   6 -16   12.33    0.83
  16  -2   6   12.93    0.44
  16   2  -6   12.22    0.68
  -2   6 -16   12.52    0.78
  16   6  -2   14.12    0.76
   2  16  -6   11.93    0.78
   6   2 -16   14.48    0.85
  16  -2  -6   13.49    0.65
   6  16  -3   10.06    0.80
   3   6 -16    8.42    0.71
  16   3  -6    9.39    0.65
  -3  16  -6    9.72    0.64
  -6  16  -3    7.55    0.53
   3  16  -6    6.25    0.62
   6   3 -16    6.46    0.66
  -3   6 -16    5.90    0.58
  16  -3  -6    6.24    0.48
  16   6  -3    6.48    0.56
   6  16  -4   70.02    2.10
   4   6 -16   66.87    2.06
  16   4  -6   68.20    1.93
  -4  16  -6   69.31    1.89
   6   4 -16   77.20    2.28
  16   6  -4   77.09    2.15
   4  16  -6   77.28    2.26
  -6  16  -4   79.67    2.03
   6  16  -5   29.24    1.23
  -5  16  -6   27.31    0.99
   5   6 -16   27.68    1.22
  16   5  -6   26.88    1.10
   5  16  -6   22.89    1.09
  -6  16  -5   23.43    0.88
  16   6  -5   22.92    1.01
   6   5 -16   22.87    1.12
  16   6  -6    0.68    0.34
   6   6 -16    0.54    0.36
   6  16  -6   -0.13    0.35
  -6  16  -6    0.55    0.26
  16   0  -7    2.37    0.36
   0  16  -7    2.01    0.41
  16   7   0    1.86    0.38
   0   7 -16    1.92    0.44
  16   7   1   24.71    1.03
  -1  16  -7   27.11    1.05
   1   7 -16   26.77    1.14
  16   1  -7   26.48    1.00
   7   1 -16   24.91    1.14
  16   7  -1   22.11    0.98
  16  -1  -7   24.11    0.92
   1  16  -7   23.80    1.04
  -1   7 -16   23.65    1.05
   2   7 -16   44.34    1.56
  16   2  -7   44.74    1.41
  -2  16  -7   44.83    1.44
  -2   7 -16   46.51    1.53
   7   2 -16   45.99    1.62
  16   7  -2   46.96    1.50
   2  16  -7   44.99    1.54
  16  -2  -7   44.85    1.37
  16   3  -7   14.69    0.78
   3   7 -16   12.74    0.86
  -3  16  -7   14.01    0.75
   7  16  -3   14.24    0.91
  -7  16  -3   16.59    0.71
   3  16  -7   17.01    0.93
  16   7  -3   15.24    0.82
  -3   7 -16   17.97    0.88
  16  -3  -7   16.59    0.75
   7   3 -16   16.82    0.93
  -4  16  -7   41.58    1.34
  16   4  -7   43.05    1.42
   4   7 -16   44.03    1.57
   7  16  -4   44.19    1.58
  -7  16  -4   44.17    1.32
  16   7  -4   47.96    1.53
   4  16  -7   46.22    1.59
   7   4 -16   42.92    1.61
  -4   7 -16   48.29    1.52
   5   7 -16    5.23    0.63
  16   5  -7    5.26    0.55
  -5  16  -7    5.39    0.49
   7  16  -5    4.39    0.61
   7   5 -16    5.00    0.61
   5  16  -7    5.16    0.61
  -7  16  -5    4.55    0.41
  16   7  -5    4.79    0.55
  -6  16  -7    6.06    0.50
   6   7 -16    5.98    0.69
  16   6  -7    5.82    0.59
   7  16  -6    6.01    0.65
   6  16  -7    6.23    0.65
  -7  16  -6    6.96    0.50
  16   7  -6    6.65    0.64
   7   6 -16    8.48    0.77
  16   7  -7    1.81    0.43
   7   7 -16    2.10    0.51
  -7  16  -7    1.54    0.32
   7  16  -7    2.01    0.50
  16   0  -8   37.17    1.27
   0   8 -16   39.71    1.43
   0  16  -8   38.72    1.36
  16   8   0   38.04    1.33
  16   1  -8    7.50    0.58
   1   8 -16    7.77    0.70
  16   8   1    5.83    0.58
  -1  16  -8    6.87    0.60
   1  16  -8    7.06    0.64
  -1   8 -16    6.96    0.64
  16  -1  -8    6.82    0.56
  16   8  -1    5.96    0.59
   8   1 -16    4.80    0.58
   2   8 -16    3.26    0.50
  -2  16  -8    3.89    0.47
  16   2  -8    3.31    0.44
  16  -2  -8    2.34    0.37
   2  16  -8    2.08    0.45
   8   2 -16    3.32    0.55
  16   8  -2    2.17    0.42
  -8  16  -2    2.69    0.34
  -2   8 -16    2.17    0.45
  -3  16  -8   52.36    1.62
  16   3  -8   58.34    1.72
   8  16  -3   56.12    1.85
   3   8 -16   55.55    1.82
  -3   8 -16   59.91    1.84
  -8  16  -3   59.81    1.60
  16  -3  -8   62.63    1.72
   3  16  -8   60.32    1.88
  16   8  -3   58.66    1.83
   8   3 -16   59.81    1.95
   4   8 -16   15.61    0.95
  -4  16  -8   16.33    0.79
  16   4  -8   16.84    0.89
   8  16  -4   16.37    0.97
  -4   8 -16   20.55    0.98
   4  16  -8   22.98    1.09
   8   4 -16   22.49    1.12
  16   8  -4   23.78    1.03
  -8  16  -4   20.55    0.79
   5   8 -16    0.18    0.39
   8  16  -5    0.51    0.42
  -5  16  -8    0.01    0.27
  16   5  -8   -0.01    0.33
  16   8  -5    0.72    0.38
   8   5 -16    0.21    0.38
  -8  16  -5    0.36    0.24
  -5   8 -16    0.64    0.34
   5  16  -8    0.31    0.39
  16   6  -8    6.05    0.60
   6   8 -16    3.81    0.58
  -6  16  -8    7.17    0.53
   8  16  -6    4.99    0.65
  -8  16  -6    7.37    0.50
   6  16  -8    6.07    0.67
   8   6 -16    6.07    0.69
  16   8  -6    7.26    0.68
   7   8 -16   31.65    1.35
  16   7  -8   30.98    1.26
  -7  16  -8   30.85    1.04
   8  16  -7   28.86    1.31
  -8  16  -7   33.71    1.07
  16   8  -7   31.82    1.30
   8   7 -16   36.15    1.43
   7  16  -8   33.67    1.40
  16   8  -8    7.94    0.71
   8  16  -8    7.51    0.76
   8   8 -16    7.57    0.76
  -8  16  -8    8.99    0.56
  16   0  -9    2.35    0.40
   0   9 -16    2.07    0.46
   0  16  -9    2.20    0.45
  16   9   0    1.95    0.43
   9   0 -16    1.94    0.48
  -1  16  -9   -0.14    0.31
  16   9   1    0.53    0.36
   1   9 -16   -0.19    0.33
  16   1  -9    0.44    0.32
   9   1 -16    0.60    0.37
  16   9  -1    0.76    0.38
   1  16  -9    0.59    0.37
  16  -1  -9    0.70    0.32
  -1   9 -16    0.36    0.36
  16   2  -9  156.15    3.78
  -2  16  -9  152.21    3.75
   2   9 -16  154.46    3.89
  -9  16  -2  155.63    3.52
  -2   9 -16  151.32    3.81
   9   2 -16  154.68    3.94
  16   9  -2  157.46    3.83
   2  16  -9  150.14    3.83
  16  -2  -9  154.26    3.70
   9  16  -3    4.04    0.61
  -3  16  -9    3.67    0.46
   3   9 -16    3.61    0.53
  16   3  -9    3.43    0.48
  -3   9 -16    3.24    0.49
  -9  16  -3    3.46    0.35
   9   3 -16    2.57    0.52
  16   9  -3    3.99    0.53
   3  16  -9    1.97    0.47
  16  -3  -9    2.54    0.41
  16   4  -9    5.23    0.58
   9  16  -4    5.09    0.62
   4   9 -16    5.56    0.64
  -4  16  -9    6.13    0.54
  -4   9 -16    5.98    0.59
  16   9  -4    5.04    0.59
   9   4 -16    5.79    0.68
  -9  16  -4    5.51    0.42
   4  16  -9    5.32    0.62
   9  16  -5   14.88    0.98
   5   9 -16   15.21    0.92
  16   5  -9   15.92    0.91
  -5  16  -9   15.33    0.76
   5  16  -9    9.80    0.80
  -9  16  -5   10.41    0.54
  16   9  -5    9.87    0.76
  -5   9 -16   10.38    0.74
   9   5 -16   12.52    0.92
  -6  16  -9   69.61    1.91
  16   6  -9   73.28    2.13
   9  16  -6   66.61    2.16
   6   9 -16   71.19    2.21
   6  16  -9   72.17    2.20
   9   6 -16   73.38    2.26
  16   9  -6   68.54    2.16
  -9  16  -6   73.93    1.83
   7   9 -16   48.90    1.80
   9  16  -7   55.16    1.86
  -7  16  -9   52.88    1.51
  16   7  -9   51.29    1.76
  -9  16  -7   49.15    1.36
   7  16  -9   48.54    1.74
  16   9  -7   45.66    1.67
   9   7 -16   50.39    1.78
  16   8  -9    3.80    0.59
   9  16  -8    3.36    0.61
  -8  16  -9    3.69    0.40
   8   9 -16    2.52    0.55
  16   9  -8    3.15    0.55
   9   8 -16    2.94    0.53
   8  16  -9    3.33    0.60
   9   9 -16    6.29    0.72
   9  16  -9    4.42    0.67
  16   9  -9    5.10    0.66
   0  16 -10   53.93    1.71
  16   0 -10   52.79    1.67
  16  10   0   56.04    1.78
  10   0 -16   53.02    1.82
   0  10 -16   53.75    1.77
   1  10 -16   28.10    1.19
  16   1 -10   25.76    1.10
  -1  16 -10   25.77    1.09
  -1  10 -16   24.67    1.09
  16  10  -1   23.42    1.10
  10   1 -16   23.23    1.17
  16  -1 -10   25.10    1.04
   1  16 -10   23.97    1.08
  10  16  -2    6.42    0.71
   2  10 -16    8.04    0.73
  16   2 -10    6.74    0.63
  -2  16 -10    6.81    0.61
  16  10  -2    8.93    0.75
 -10  16  -2    9.84    0.51
  -2  10 -16    9.96    0.74
   2  16 -10    9.59    0.77
  10   2 -16    8.31    0.76
  16  -2 -10    9.12    0.67
  -3  16 -10   82.10    2.21
  10  16  -3   77.91    2.40
   3  10 -16   80.63    2.37
  16   3 -10   77.17    2.25
   3  16 -10   80.57    2.34
  10   3 -16   76.54    2.39
  -3  10 -16   83.19    2.29
  16  10  -3   79.76    2.34
 -10  16  -3   79.42    2.11
   4  10 -16   36.54    1.46
  16   4 -10   40.03    1.41
  10  16  -4   36.31    1.50
  -4  16 -10   38.25    1.30
  10   4 -16   34.73    1.44
  16  10  -4   35.76    1.38
  -4  10 -16   36.18    1.32
   4  16 -10   35.03    1.40
  -5  16 -10   25.57    1.02
  10  16  -5   26.29    1.26
  16   5 -10   26.40    1.18
   5  10 -16   27.48    1.26
   5  16 -10   26.26    1.23
  16  10  -5   27.07    1.21
  10   5 -16   28.60    1.29
  -5  10 -16   27.45    1.10
  -6  16 -10    2.85    0.41
  10  16  -6    3.58    0.59
  16   6 -10    4.09    0.57
   6  10 -16    4.33    0.59
  10   6 -16    2.23    0.53
  16  10  -6    3.26    0.57
   6  16 -10    3.81    0.62
  -6  10 -16    4.06    0.50
  -7  16 -10  100.57    2.55
  16   7 -10  100.55    2.82
  10  16  -7  106.26    2.93
   7  10 -16   97.98    2.87
  16  10  -7  102.51    2.84
   7  16 -10   98.80    2.88
  10   7 -16  103.02    2.92
  10  16  -8   44.58    1.70
   8  10 -16   46.68    1.72
  16   8 -10   43.95    1.63
  -8  16 -10   43.07    1.33
  16  10  -8   43.94    1.62
   8  16 -10   43.37    1.67
  10   8 -16   41.01    1.64
  16   9 -10    4.48    0.63
  10  16  -9    5.88    0.73
   9  10 -16    3.47    0.62
   9  16 -10    3.51    0.62
  16  10  -9    3.60    0.60
  10   9 -16    3.72    0.65
  10  10 -16   43.45    1.69
  16  10 -10   39.61    1.62
  10  16 -10   39.01    1.63
   0  11 -16    0.79    0.41
  16   0 -11    0.76    0.37
  11   0 -16    0.39    0.42
  16  11   0    0.42    0.37
   0  16 -11    0.73    0.39
  -1  16 -11   19.51    0.95
   1  11 -16   19.66    1.03
  16   1 -11   19.64    0.99
  16  -1 -11   19.44    0.93
  11   1 -16   21.34    1.11
  16  11  -1   20.29    1.04
   1  16 -11   19.24    1.02
  -1  11 -16   17.84    0.97
  -2  16 -11    1.11    0.39
  16   2 -11    1.15    0.41
   2  11 -16    1.39    0.45
  11  16  -2    1.86    0.52
   2  16 -11    0.12    0.38
  -2  11 -16    0.30    0.35
  16  -2 -11    0.75    0.36
  16  11  -2    0.54    0.41
  11   2 -16    0.58    0.41
  16   3 -11    1.09    0.41
  -3  16 -11    0.69    0.36
   3  11 -16    1.44    0.49
  11  16  -3    1.38    0.51
   3  16 -11    1.49    0.45
  16  11  -3    1.22    0.44
  11   3 -16    1.46    0.50
  -3  11 -16    1.52    0.42
  -4  16 -11   38.35    1.32
   4  11 -16   38.88    1.50
  11  16  -4   35.81    1.52
  16   4 -11   38.18    1.42
  16  11  -4   38.78    1.52
   4  16 -11   42.02    1.54
  -4  11 -16   39.64    1.41
  11   4 -16   39.67    1.56
  -5  16 -11   11.19    0.70
  11  16  -5   11.97    0.93
  16   5 -11   13.07    0.86
   5  11 -16   10.29    0.86
  16  11  -5   10.01    0.81
  -5  11 -16   11.78    0.78
  11   5 -16   11.42    0.90
   5  16 -11   10.58    0.88
  -6  16 -11   11.05    0.67
  11  16  -6   10.00    0.87
  16   6 -11   10.53    0.84
   6  11 -16   10.57    0.88
  -6  11 -16   13.89    0.81
   6  16 -11   13.87    0.96
  16  11  -6   10.86    0.87
  11   6 -16   12.80    0.98
   7  11 -16   34.60    1.48
  16   7 -11   35.06    1.43
  -7  16 -11   32.61    1.17
  11  16  -7   38.11    1.54
   7  16 -11   34.23    1.46
  11   7 -16   30.76    1.38
  16  11  -7   32.33    1.39
  -7  11 -16   32.86    1.23
  -8  16 -11  101.35    2.56
   8  11 -16  103.14    2.97
  16   8 -11  102.66    2.91
  11  16  -8  104.32    3.00
  11   8 -16   99.60    2.88
   8  16 -11   94.98    2.85
  16  11  -8   99.91    2.84
  16   9 -11   13.11    0.97
  11  16  -9   10.04    0.88
   9  11 -16    9.23    0.85
   9  16 -11   11.18    0.94
  11   9 -16   12.83    0.99
  16  11  -9   12.34    0.97
  11  16 -10    4.79    0.71
  16  10 -11    5.92    0.74
  10  11 -16    4.77    0.71
  16  11 -10    6.60    0.77
  11  10 -16    4.77    0.68
  10  16 -11    5.31    0.73
  11  16 -11   11.21    0.98
  16  11 -11    8.25    0.85
  11  11 -16   11.26    0.99
  16   0 -12   85.31    2.43
   0  12 -16   84.58    2.45
  12   0 -16   84.43    2.52
  16  12   0   86.38    2.52
   0  16 -12   86.11    2.43
  -1  16 -12    7.40    0.66
   1  12 -16    7.07    0.70
  16   1 -12    7.26    0.67
  -1  12 -16    9.00    0.76
  16  -1 -12    8.07    0.70
  12   1 -16    7.65    0.78
  16  12  -1    7.77    0.73
   1  16 -12    9.27    0.75
   2  12 -16    6.07    0.67
  12  16  -2    5.18    0.68
  -2  16 -12    6.24    0.61
  16   2 -12    7.04    0.68
  16  -2 -12    6.97    0.66
  -2  12 -16    7.89    0.69
  12   2 -16    6.91    0.74
  16  12  -2    6.23    0.69
   2  16 -12    6.68    0.69
  12  16  -3    1.60    0.52
  -3  16 -12    1.74    0.42
   3  12 -16    0.90    0.47
  16   3 -12    1.60    0.45
  12   3 -16    1.77    0.50
   3  16 -12    1.99    0.51
  16  12  -3    2.14    0.52
  -3  12 -16    1.98    0.45
   4  12 -16   10.41    0.87
  12  16  -4   10.52    0.91
  16   4 -12    8.71    0.78
  -4  16 -12    9.70    0.72
  16  12  -4   11.23    0.87
   4  16 -12    8.97    0.79
  -4  12 -16    9.77    0.75
  12   4 -16    8.36    0.80
   5  12 -16    1.08    0.47
  12  16  -5    1.21    0.47
  -5  16 -12    1.43    0.37
  16   5 -12    0.86    0.45
  16  12  -5    1.37    0.48
  12   5 -16    1.67    0.53
   5  16 -12    1.77    0.52
  -5  12 -16    1.69    0.42
  12  16  -6    5.05    0.70
  16   6 -12    7.13    0.72
  -6  16 -12    6.75    0.58
   6  12 -16    5.85    0.70
  12   6 -16    6.61    0.75
  16  12  -6    7.05    0.75
   6  16 -12    7.00    0.75
  -6  12 -16    5.45    0.58
  16   7 -12   31.25    1.37
  -7  16 -12   28.30    1.08
   7  12 -16   28.23    1.37
  12  16  -7   29.32    1.38
  -7  12 -16   25.16    1.09
  16  12  -7   27.18    1.29
   7  16 -12   28.57    1.33
  12   7 -16   24.53    1.29
  12  16  -8    0.71    0.51
   8  12 -16    0.30    0.47
  -8  16 -12    1.13    0.35
  16   8 -12    0.76    0.46
   8  16 -12    1.21    0.47
  12   8 -16   -0.09    0.46
  16  12  -8    0.06    0.44
  16   9 -12   10.31    0.89
  12  16  -9    9.51    0.90
   9  12 -16    9.88    0.93
   9  16 -12    9.56    0.90
  16  12  -9   10.71    0.91
  12   9 -16   10.81    0.94
  10  12 -16    2.04    0.58
  12  16 -10    3.33    0.68
  16  10 -12    4.28    0.66
  16  12 -10    3.53    0.66
  12  10 -16    3.46    0.66
  10  16 -12    4.38    0.71
  12  16 -11   25.87    1.38
  16  11 -12   23.90    1.32
  11  12 -16   27.72    1.40
  12  11 -16   27.02    1.40
  11  16 -12   26.08    1.38
  16  12 -11   24.63    1.34
  16  12 -12   46.35    1.83
  12  12 -16   44.87    1.84
  12  16 -12   44.36    1.84
   0  13 -16    0.28    0.38
  16   0 -13    0.16    0.39
   0  16 -13   -0.19    0.36
  13   0 -16   -0.12    0.37
  16  13   0    0.07    0.40
  16   1 -13    2.62    0.52
  -1  16 -13    2.61    0.49
   1  13 -16    3.58    0.57
  13  16  -1    2.66    0.59
  16  13  -1    2.86    0.55
  13   1 -16    3.18    0.60
  -1  13 -16    3.05    0.52
   1  16 -13    3.48    0.54
  16  -1 -13    3.65    0.55
  16   2 -13   82.32    2.41
  13  16  -2   80.30    2.50
   2  13 -16   81.38    2.46
  -2  16 -13   85.11    2.35
   2  16 -13   82.32    2.43
  13   2 -16   81.84    2.49
  16  13  -2   82.78    2.49
  -2  13 -16   81.74    2.37
   3  13 -16   23.55    1.18
  13  16  -3   22.51    1.23
  -3  16 -13   23.33    1.06
  16   3 -13   21.57    1.12
   3  16 -13   26.08    1.25
  16  13  -3   25.41    1.26
  13   3 -16   28.27    1.31
  -3  13 -16   29.26    1.19
   4  13 -16    3.10    0.57
  -4  16 -13    3.67    0.50
  13  16  -4    3.38    0.63
  16   4 -13    2.85    0.55
  -4  13 -16    5.11    0.58
   4  16 -13    4.24    0.63
  16  13  -4    5.61    0.68
  13   4 -16    3.86    0.63
  16   5 -13   18.79    1.10
  -5  16 -13   20.29    0.97
   5  13 -16   20.05    1.15
  13  16  -5   19.05    1.10
  16  13  -5   19.78    1.12
   5  16 -13   17.07    1.09
  13   5 -16   18.83    1.12
  -5  13 -16   18.61    0.96
  13  16  -6   16.98    1.11
  16   6 -13   14.57    0.99
  -6  16 -13   15.92    0.83
   6  13 -16   14.81    1.04
  16  13  -6   15.26    1.04
  13   6 -16   17.43    1.10
  -6  13 -16   15.44    0.88
   6  16 -13   14.67    1.05
  13  16  -7   26.83    1.34
  16   7 -13   22.90    1.25
   7  13 -16   25.09    1.31
  -7  16 -13   24.69    1.02
  16  13  -7   30.48    1.40
   7  16 -13   30.09    1.41
  13   7 -16   28.06    1.34
  -7  13 -16   29.84    1.17
  13  16  -8   46.57    1.82
   8  13 -16   46.38    1.81
  16   8 -13   46.48    1.76
  13   8 -16   45.44    1.74
  -8  13 -16   42.75    1.43
  16  13  -8   41.68    1.68
   8  16 -13   38.35    1.67
   9  13 -16   14.63    1.12
  13  16  -9   15.32    1.12
  16   9 -13   16.82    1.11
  13   9 -16   18.37    1.18
   9  16 -13   13.99    1.09
  16  13  -9   19.72    1.17
  16  10 -13   16.66    1.13
  10  13 -16   16.57    1.17
  13  16 -10   15.75    1.20
  10  16 -13   15.92    1.15
  13  10 -16   16.24    1.17
  16  13 -10   15.66    1.12
  11  13 -16    9.59    0.94
  16  11 -13    9.40    0.92
  13  16 -11    9.46    0.94
  16  13 -11    9.14    0.91
  13  11 -16    8.59    0.90
  11  16 -13    6.95    0.85
  16  12 -13    7.07    0.84
  13  16 -12    7.25    0.87
  12  13 -16    5.24    0.81
  12  16 -13    8.95    0.92
  16  13 -12    7.57    0.85
  13  12 -16    8.58    0.92
  13  13 -16   14.87    1.16
  13  16 -13   18.25    1.26
  16  13 -13   17.79    1.24
   0  16 -14    7.96    0.74
  14   0 -16    7.15    0.74
  16   0 -14    7.77    0.75
  16  14   0    7.93    0.80
   0  14 -16    7.51    0.73
   1  14 -16   40.90    1.58
  16   1 -14   41.20    1.58
  -1  16 -14   44.78    1.58
  14  16  -1   42.82    1.69
  14   1 -16   48.01    1.76
  16  14  -1   45.32    1.71
  -1  14 -16   42.49    1.59
   1  16 -14   47.08    1.68
  16  -1 -14   43.88    1.63
  14  16  -2   -0.08    0.40
  -2  16 -14    0.00    0.36
   2  14 -16    0.19    0.42
  16   2 -14   -0.24    0.37
  14   2 -16   -0.25    0.42
  -2  14 -16    0.20    0.40
  16  14  -2    0.45    0.45
   2  16 -14    1.17    0.48
   3  14 -16   56.83    1.96
  -3  16 -14   58.99    1.84
  14  16  -3   58.26    2.03
  16   3 -14   55.37    1.92
   3  16 -14   58.39    1.99
  14   3 -16   59.78    2.02
  -3  14 -16   58.92    1.89
  16  14  -3   59.81    2.04
  16   4 -14   29.94    1.35
  -4  16 -14   30.09    1.22
  14  16  -4   31.60    1.44
   4  14 -16   29.48    1.38
  14   4 -16   34.68    1.47
   4  16 -14   31.16    1.44
  -4  14 -16   31.03    1.27
  16  14  -4   31.62    1.45
  16   5 -14   24.60    1.25
  -5  16 -14   26.66    1.12
  14  16  -5   25.55    1.33
   5  14 -16   25.65    1.30
   5  16 -14   17.64    1.11
  -5  14 -16   17.80    0.96
  14   5 -16   18.32    1.13
  16  14  -5   19.04    1.14
  -6  16 -14    7.87    0.67
   6  14 -16    5.91    0.73
  14  16  -6    5.57    0.75
  16   6 -14    7.02    0.77
  14   6 -16    5.56    0.74
  16  14  -6    4.48    0.69
  -6  14 -16    6.26    0.62
   6  16 -14    6.76    0.77
   7  14 -16   25.77    1.34
  14  16  -7   25.27    1.34
  16   7 -14   26.30    1.30
  -7  16 -14   23.83    1.05
  14   7 -16   26.50    1.37
  -7  14 -16   27.68    1.15
   7  16 -14   27.39    1.38
  16  14  -7   30.49    1.43
   8  14 -16   19.75    1.24
  14  16  -8   24.80    1.33
  16   8 -14   22.92    1.26
  16  14  -8   24.70    1.34
  14   8 -16   25.85    1.36
   8  16 -14   23.57    1.33
  -8  14 -16   26.52    1.10
   9  14 -16    3.15    0.64
  16   9 -14    3.14    0.65
  14  16  -9    4.25    0.72
  16  14  -9    2.69    0.64
   9  16 -14    4.34    0.72
  14   9 -16    4.24    0.70
  16  10 -14   12.42    1.03
  10  14 -16   10.67    0.99
  14  16 -10   11.35    1.05
  16  14 -10   13.59    1.11
  10  16 -14   11.43    1.04
  14  10 -16   11.25    1.02
  11  14 -16    2.15    0.64
  16  11 -14    3.74    0.68
  14  16 -11    2.89    0.67
  11  16 -14    4.37    0.75
  14  11 -16    1.89    0.63
  16  14 -11    1.58    0.62
  12  14 -16   10.46    1.02
  16  12 -14   13.72    1.12
  14  16 -12   11.94    1.11
  16  14 -12   11.13    1.02
  14  12 -16   10.47    1.02
  12  16 -14   12.12    1.08
  13  14 -16    2.43    0.69
  16  13 -14    1.48    0.62
  14  16 -13    1.97    0.68
  16  14 -13    3.49    0.72
  13  16 -14    2.90    0.72
  14  13 -16    2.21    0.69
  14  16 -14   18.16    1.35
  16  14 -14   17.99    1.31
  14  14 -16   16.30    1.27
  15  16   0    1.15    0.53
   0  16 -15    1.96    0.49
   0  15 -16    1.72    0.49
  15   0 -16    1.63    0.50
  16   0 -15    1.01    0.49
  16  15   0    1.67    0.52
  -1  16 -15   11.14    0.85
   1  15 -16   11.67    0.92
  15  16  -1   12.31    1.01
  16   1 -15   10.37    0.89
  15   1 -16   10.04    0.88
  -1  15 -16   10.28    0.84
  16  15  -1   11.01    0.93
   1  16 -15   10.76    0.86
   2  15 -16    9.24    0.83
  -2  16 -15   11.18    0.85
  15  16  -2   10.07    0.92
  16   2 -15   11.46    0.93
  -2  15 -16   11.79    0.87
   2  16 -15   11.56    0.93
  15   2 -16   11.42    0.95
  16  15  -2   10.81    0.95
   3  15 -16   10.27    0.89
  16   3 -15   10.46    0.90
  15  16  -3   10.52    0.93
  -3  16 -15   11.68    0.84
  16  15  -3   12.20    1.01
   3  16 -15   10.79    0.91
  -3  15 -16   10.94    0.84
  15   3 -16   11.85    0.98
   4  15 -16    8.88    0.88
  16   4 -15    9.50    0.86
  -4  16 -15    8.51    0.75
  15  16  -4    8.20    0.86
  -4  15 -16    8.94    0.75
  15   4 -16    9.64    0.89
   4  16 -15    9.50    0.88
  16  15  -4    8.10    0.86
   5  15 -16    8.74    0.89
  15  16  -5    8.53    0.90
  -5  16 -15   10.17    0.77
  16   5 -15    7.80    0.84
  15   5 -16    8.78    0.88
   5  16 -15    7.76    0.85
  16  15  -5    7.77    0.84
  -5  15 -16    8.27    0.73
  16   6 -15   36.89    1.59
  -6  16 -15   40.30    1.43
  15  16  -6   40.02    1.68
   6  15 -16   36.99    1.62
  -6  15 -16   40.10    1.44
  15   6 -16   39.01    1.65
   6  16 -15   40.70    1.67
  16  15  -6   39.22    1.67
  16   7 -15   43.16    1.75
  15  16  -7   46.30    1.83
  -7  16 -15   43.01    1.50
   7  15 -16   45.15    1.80
  15   7 -16   49.66    1.91
  16  15  -7   51.72    1.93
  -7  15 -16   50.01    1.65
   7  16 -15   50.59    1.93
   8  15 -16   28.18    1.44
  15  16  -8   27.83    1.44
  16   8 -15   29.01    1.44
   8  16 -15   24.30    1.38
  16  15  -8   27.31    1.42
  15   8 -16   28.32    1.43
  15  16  -9    4.81    0.74
   9  15 -16    4.48    0.72
  16   9 -15    5.02    0.77
  15   9 -16    4.49    0.74
  16  15  -9    4.80    0.76
   9  16 -15    4.53    0.75
  10  15 -16    0.01    0.53
  16  10 -15    0.74    0.56
  15  16 -10    1.51    0.60
  10  16 -15    1.64    0.64
  16  15 -10    1.89    0.61
  15  10 -16    1.54    0.60
  11  15 -16   19.03    1.28
  15  16 -11   18.46    1.26
  16  11 -15   18.36    1.26
  11  16 -15   18.05    1.28
  16  15 -11   20.27    1.30
  15  11 -16   17.84    1.26
  12  15 -16   24.96    1.46
  15  16 -12   24.53    1.45
  16  12 -15   24.03    1.43
  16  15 -12   20.31    1.37
  15  12 -16   24.01    1.41
  12  16 -15   24.19    1.44
  13  15 -16    8.45    0.98
  16  13 -15    9.36    1.01
  15  16 -13    9.66    1.03
  16  15 -13    9.84    1.04
  13  16 -15    8.92    1.02
  15  13 -16    8.25    0.95
  14  15 -16    3.98    0.79
  15  16 -14    2.76    0.74
  16  14 -15    3.58    0.76
  14  16 -15    3.28    0.77
  15  14 -16    3.32    0.75
  16  15 -14    4.04    0.81
  15  15 -16   23.55    1.50
  15  16 -15   25.20    1.52
  16  15 -15   23.23    1.47
   0  16 -16   16.27    1.05
  16   0 -16   17.19    1.09
  16  16   0   15.81    1.11
  -1  16 -16   14.62    0.96
   1  16 -16   15.92    1.03
  16   1 -16   15.92    1.09
  16  16  -1   14.02    1.08
  -2  16 -16    4.38    0.63
   2  16 -16    5.53    0.72
  16   2 -16    4.65    0.68
  16  16  -2    5.03    0.75
  -3  16 -16    4.98    0.63
   3  16 -16    4.44    0.69
  16   3 -16    4.39    0.68
  16  16  -3    5.85    0.74
  -4  16 -16    1.15    0.45
   4  16 -16    1.33    0.55
  16   4 -16    1.54    0.56
  16  16  -4    1.88    0.61
  -5  16 -16    5.41    0.62
   5  16 -16    5.46    0.76
  16   5 -16    6.49    0.80
  16  16  -5    5.08    0.74
  -6  16 -16    0.10    0.37
   6  16 -16    0.40    0.54
  16   6 -16    1.04    0.54
  16  16  -6    0.32    0.52
  -7  16 -16    0.29    0.44
   7  16 -16    0.75    0.56
  16   7 -16    1.51    0.58
  16  16  -7    1.01    0.56
   8  16 -16   17.06    1.21
  16   8 -16   15.21    1.17
  16  16  -8   18.88    1.24
   9  16 -16    0.94    0.61
  16   9 -16    0.71    0.57
  16  16  -9    1.11    0.58
  10  16 -16   -0.26    0.53
  16  10 -16    0.17    0.54
  16  16 -10   -0.18    0.51
  11  16 -16    4.38    0.81
  16  11 -16    3.78    0.74
  16  16 -11    4.65    0.79
  12  16 -16   37.35    1.79
  16  12 -16   36.29    1.73
  16  16 -12   38.14    1.77
  13  16 -16    0.16    0.62
  16  13 -16    0.50    0.62
  16  16 -13    0.20    0.58
  14  16 -16    4.71    0.86
  16  14 -16    4.43    0.84
  16  16 -14    4.81    0.86
  15  16 -16    5.05    0.89
  16  15 -16    5.35    0.92
  16  16 -15    5.26    0.93
  16  16 -16  121.14    3.75
  17   0   0   -0.17    0.17
  17   0  -1   36.10    1.07
  17   0   1   37.52    1.04
  17   1   0   37.64    1.10
  17  -1   0   36.76    1.02
  17   1   1   -0.03    0.19
  17   1  -1    0.08    0.21
  17  -1  -1   -0.05    0.18
  17  -1   1    0.34    0.17
  17   0  -2   46.74    1.28
  17   0   2   45.59    1.21
  17   2   0   45.36    1.31
  17  -2   0   46.80    1.17
  17   1  -2   23.55    0.83
  17  -1   2   21.60    0.68
  17   2   1   22.95    0.81
  17  -2  -1   22.59    0.71
  17  -2   1   26.53    0.73
  17   2  -1   26.48    0.91
  17  -1  -2   26.77    0.84
  17   1   2   24.89    0.83
  17  -2   2    0.28    0.14
  17  -2  -2    0.16    0.19
  17   2   2    0.07    0.22
  17   2  -2    0.21    0.25
  17   0  -3   35.09    1.05
  17  -3   0   32.02    0.85
  17   3   0   33.14    1.08
  17   0   3   33.66    0.95
  17  -1   3   29.28    0.82
  17   3   1   29.23    1.00
  17   1  -3   29.76    0.99
  17  -3  -1   29.56    0.82
  17   1   3   35.21    1.03
  17   3  -1   34.18    1.12
  17  -1  -3   34.90    1.05
  17  -3  -2   13.60    0.54
  17   2  -3   14.43    0.69
  17   3   2   14.86    0.68
   2   3 -17   13.84    0.89
  17  -2  -3   16.69    0.64
  17   2   3   17.35    0.69
  17   3  -2   16.70    0.76
  17   3  -3    1.05    0.30
  17   3   3    0.57    0.26
  17  -3  -3    0.20    0.22
  -3  17  -3    0.66    0.32
   3   3 -17    0.25    0.39
  17   0  -4    1.33    0.29
  17   0   4    1.35    0.24
  17   4   0    0.96    0.30
   0  17  -4    1.08    0.36
  17  -1   4    4.73    0.32
  17   4   1    4.45    0.45
  -1  17  -4    5.49    0.55
  17   1  -4    4.53    0.43
   1   4 -17    4.00    0.55
  17   4  -1    6.67    0.52
  17  -1  -4    5.40    0.43
   1  17  -4    5.61    0.60
  17   1   4    5.95    0.43
  17   2  -4   83.14    2.15
   2   4 -17   80.34    2.39
  -2  17  -4   84.36    2.26
  17   4   2   84.15    2.16
  17   2   4   81.62    2.07
  17   4  -2   84.63    2.19
  17  -2  -4   82.54    2.05
   2  17  -4   84.01    2.36
   4   2 -17   83.86    2.43
   3   4 -17   52.19    1.74
  -3  17  -4   48.76    1.52
  17   4   3   48.88    1.45
  17   3  -4   49.13    1.48
   4   3 -17   58.91    1.90
  17   4  -3   56.65    1.66
  -4  17  -3   56.68    1.68
  17  -3  -4   58.27    1.51
   3  17  -4   58.78    1.85
   4   4 -17    1.86    0.48
   4  17  -4    1.52    0.45
  -4  17  -4    1.00    0.34
  17   4  -4    1.28    0.36
   0  17  -5   12.29    0.77
  17   0  -5   12.71    0.65
  17   0   5   13.19    0.54
  17   5   0   13.77    0.71
   0   5 -17   13.25    0.85
  17  -1   5    3.93    0.29
  17   5   1    3.48    0.43
  -1  17  -5    3.47    0.48
   1   5 -17    4.57    0.59
  17   1  -5    3.78    0.41
  17   5  -1    6.92    0.57
  -1   5 -17    7.18    0.67
   1  17  -5    7.11    0.64
  17  -1  -5    6.17    0.48
   2   5 -17   12.76    0.86
  -2  17  -5   10.51    0.69
  17   5   2   12.26    0.68
  17   2  -5   11.83    0.66
  17   5  -2   11.83    0.71
  17  -2  -5   11.82    0.61
   5   2 -17   12.89    0.89
   2  17  -5   12.76    0.81
  -3  17  -5   27.69    1.07
  17   3  -5   28.86    1.06
   3   5 -17   28.12    1.24
   5   3 -17   23.48    1.14
  17  -3  -5   21.79    0.82
  -5  17  -3   23.20    0.92
   3  17  -5   24.04    1.10
  17   5  -3   22.98    0.94
  -4  17  -5   32.36    1.15
  17   4  -5   34.04    1.19
   5  17  -4   31.75    1.33
   4   5 -17   32.81    1.36
   4  17  -5   29.20    1.24
  -5  17  -4   29.92    1.07
   5   4 -17   29.47    1.25
  17   5  -4   29.38    1.12
  17   5  -5    6.74    0.59
   5   5 -17    4.53    0.59
   5  17  -5    5.04    0.63
  -5  17  -5    5.20    0.50
   0   6 -17    6.55    0.65
  17   6   0    6.88    0.58
   0  17  -6    7.40    0.63
  17   0  -6    7.47    0.54
  17  -1   6   11.35    0.53
   1   6 -17   12.05    0.84
  17   6   1    9.92    0.67
  -1  17  -6   11.50    0.75
  17   1  -6   11.04    0.64
   1  17  -6    7.82    0.66
  17   6  -1    8.26    0.62
  -1   6 -17    7.06    0.66
  17  -1  -6    8.71    0.56
   2   6 -17    9.35    0.79
  -2  17  -6    9.70    0.71
  17   2  -6   11.10    0.66
  17   6   2    9.85    0.66
  17   6  -2    9.99    0.68
   2  17  -6    7.40    0.66
   6   2 -17    9.32    0.77
  -2   6 -17   10.57    0.76
  17  -2  -6   10.07    0.59
  17   3  -6   13.38    0.75
   6  17  -3   14.27    0.93
   3   6 -17   14.54    0.94
  -3  17  -6   14.48    0.78
   6   3 -17   17.03    1.01
  17  -3  -6   18.15    0.76
  17   6  -3   18.91    0.89
   3  17  -6   15.16    0.93
  -6  17  -3   18.48    0.80
   4   6 -17   52.23    1.78
  -4  17  -6   51.96    1.57
   6  17  -4   52.21    1.78
  17   4  -6   50.80    1.60
   6   4 -17   43.93    1.61
  -6  17  -4   47.10    1.39
   4  17  -6   47.18    1.62
  17   6  -4   44.26    1.48
  -5  17  -6   49.33    1.51
  17   5  -6   52.08    1.62
   5   6 -17   51.81    1.77
   6  17  -5   47.49    1.72
   5  17  -6   46.80    1.66
  17   6  -5   48.02    1.55
  -6  17  -5   48.79    1.43
   6   5 -17   46.28    1.66
  17   6  -6   65.86    1.91
  -6  17  -6   61.65    1.73
   6  17  -6   60.11    1.99
   6   6 -17   61.42    2.03
   0   7 -17   10.46    0.79
   0  17  -7   11.04    0.75
  17   7   0    9.64    0.67
  17   0  -7    9.48    0.63
  17   7   1   36.83    1.28
  17   1  -7   34.47    1.21
  -1  17  -7   36.03    1.29
   1   7 -17   36.28    1.39
   1  17  -7   34.64    1.31
   7   1 -17   36.86    1.45
  17   7  -1   35.04    1.26
  17  -1  -7   33.17    1.16
  -1   7 -17   34.14    1.33
  17   7   2   26.01    1.04
   2   7 -17   24.69    1.15
  -2  17  -7   22.12    0.99
  17   2  -7   25.50    1.01
   7   2 -17   26.13    1.21
  17  -2  -7   24.14    0.94
  17   7  -2   24.37    1.05
   2  17  -7   23.90    1.10
  -2   7 -17   24.77    1.10
  17   3  -7   20.85    0.94
   3   7 -17   19.85    1.02
   7  17  -3   22.11    1.11
  -3  17  -7   20.18    0.92
  17   7  -3   25.07    1.08
  17  -3  -7   27.52    0.97
  -7  17  -3   24.84    0.93
  -3   7 -17   26.67    1.15
   7   3 -17   26.63    1.23
   3  17  -7   24.61    1.15
   4   7 -17    4.34    0.61
  17   4  -7    3.01    0.46
   7  17  -4    3.64    0.59
  -4  17  -7    3.60    0.46
  -7  17  -4    2.13    0.35
  17   7  -4    1.73    0.43
   4  17  -7    1.91    0.47
   7   4 -17    1.43    0.48
  -5  17  -7    8.86    0.63
   7  17  -5    9.01    0.78
   5   7 -17    7.17    0.73
  17   5  -7   10.56    0.74
   7   5 -17    5.98    0.69
   5  17  -7    7.14    0.69
  17   7  -5    6.09    0.61
  -7  17  -5    6.29    0.50
   6   7 -17   16.98    1.02
  17   6  -7   14.36    0.86
   7  17  -6   15.44    0.99
  -6  17  -7   15.62    0.76
  17   7  -6   16.37    0.90
  -7  17  -6   16.22    0.74
   6  17  -7   14.82    0.97
   7   6 -17   15.65    1.00
  -7  17  -7    0.31    0.26
   7   7 -17    0.41    0.42
  17   7  -7    0.01    0.35
   7  17  -7    0.17    0.42
  17   8   0    5.48    0.57
  17   0  -8    5.22    0.52
   0  17  -8    6.25    0.61
   0   8 -17    5.03    0.59
  -1  17  -8    8.85    0.69
   1   8 -17    6.57    0.67
  17   8   1    7.81    0.66
  17   1  -8    7.82    0.62
  17   8  -1    7.94    0.67
   8   1 -17    7.89    0.77
  17  -1  -8    7.93    0.61
  -1   8 -17    7.95    0.71
   1  17  -8    7.62    0.69
  17   2  -8    7.49    0.63
   2   8 -17    8.00    0.72
  -2  17  -8    8.67    0.67
  -8  17  -2    8.48    0.55
   2  17  -8    9.42    0.76
   8   2 -17    8.88    0.79
  17  -2  -8    8.91    0.61
  17   8  -2    8.49    0.69
  -2   8 -17    7.39    0.69
   3   8 -17   65.88    2.09
  17   3  -8   67.41    1.95
  -3  17  -8   63.80    1.89
   8  17  -3   68.85    2.14
  -3   8 -17   67.23    2.03
  17   8  -3   67.56    2.00
  -8  17  -3   66.15    1.79
  17  -3  -8   69.11    1.88
   3  17  -8   65.48    2.06
   8   3 -17   69.90    2.17
  -4  17  -8   33.03    1.17
   8  17  -4   29.72    1.34
  17   4  -8   31.72    1.24
   4   8 -17   32.34    1.36
  -8  17  -4   35.21    1.11
   8   4 -17   33.94    1.44
  -4   8 -17   33.22    1.31
  17   8  -4   35.41    1.34
   4  17  -8   36.56    1.41
  17   5  -8   23.97    1.08
   5   8 -17   22.26    1.16
   8  17  -5   24.43    1.22
  -5  17  -8   22.87    0.95
  17   8  -5   23.98    1.10
   5  17  -8   25.69    1.20
  -8  17  -5   25.48    0.91
   8   5 -17   24.85    1.23
   8  17  -6    4.03    0.61
  -6  17  -8    3.79    0.45
  17   6  -8    5.21    0.60
   6   8 -17    3.86    0.59
  -8  17  -6    6.48    0.49
   6  17  -8    5.97    0.68
  17   8  -6    7.21    0.69
   8   6 -17    6.17    0.72
   8  17  -7   46.22    1.73
   7   8 -17   45.79    1.69
  17   7  -8   46.78    1.63
  -7  17  -8   45.80    1.39
  17   8  -7   49.31    1.68
   7  17  -8   45.19    1.71
  -8  17  -7   47.05    1.37
   8   7 -17   46.84    1.75
  -8  17  -8    4.71    0.45
   8  17  -8    4.24    0.66
   8   8 -17    3.04    0.58
  17   8  -8    4.81    0.63
   0   9 -17   17.06    0.99
   0  17  -9   15.00    0.88
  17   0  -9   18.82    0.88
  17   9   0   16.62    0.93
   1   9 -17   43.79    1.61
  17   9   1   46.47    1.56
  -1  17  -9   45.22    1.53
  17   1  -9   43.66    1.47
   9   1 -17   40.35    1.55
   1  17  -9   38.18    1.44
  17  -1  -9   36.07    1.30
  -1   9 -17   39.51    1.45
  17   9  -1   41.73    1.44
  17   2  -9   31.83    1.22
  -2  17  -9   30.40    1.20
   2   9 -17   32.69    1.35
   9   2 -17   28.33    1.30
  -9  17  -2   28.16    0.96
  -2   9 -17   27.99    1.21
  17  -2  -9   29.58    1.10
   2  17  -9   27.79    1.23
  17   9  -2   25.37    1.15
  -3  17  -9   57.40    1.77
   9  17  -3   61.63    2.03
  17   3  -9   60.56    1.84
   3   9 -17   61.96    1.99
   9   3 -17   65.61    2.10
  17   9  -3   64.08    1.96
  -9  17  -3   64.10    1.68
   3  17  -9   59.36    1.97
  -3   9 -17   63.69    1.95
  17   4  -9   19.03    0.97
   9  17  -4   17.80    1.07
  -4  17  -9   17.08    0.85
   4   9 -17   17.90    1.05
  -4   9 -17   22.14    1.02
  -9  17  -4   21.09    0.79
  17   9  -4   21.58    1.07
   4  17  -9   19.73    1.07
   9   4 -17   21.51    1.17
  -5  17  -9    5.77    0.53
   9  17  -5    5.73    0.72
  17   5  -9    5.51    0.61
   5   9 -17    5.72    0.70
  -9  17  -5    4.67    0.42
   9   5 -17    4.00    0.62
  17   9  -5    4.05    0.56
  -5   9 -17    4.42    0.55
   5  17  -9    4.11    0.60
   9  17  -6    1.50    0.51
  17   6  -9    0.79    0.42
  -6  17  -9    0.67    0.31
   6   9 -17    0.59    0.41
  17   9  -6    0.46    0.40
   6  17  -9    0.01    0.41
   9   6 -17    0.19    0.43
  -7  17  -9    3.46    0.42
  17   7  -9    3.42    0.56
   7   9 -17    2.30    0.51
   9  17  -7    3.33    0.62
   7  17  -9    3.15    0.59
  17   9  -7    4.20    0.59
   9   7 -17    3.50    0.61
   9  17  -8    2.35    0.60
  -8  17  -9    2.73    0.39
   8   9 -17    2.73    0.61
  17   8  -9    1.49    0.49
   9   8 -17    1.98    0.52
  17   9  -8    1.91    0.51
   8  17  -9    2.46    0.59
   9   9 -17   24.22    1.26
  17   9  -9   23.92    1.23
   9  17  -9   21.73    1.22
  17  10   0    5.83    0.65
   0  17 -10    7.73    0.69
   0  10 -17    7.94    0.75
  17   0 -10    9.02    0.69
  -1  17 -10   54.17    1.74
   1  10 -17   51.96    1.80
  17   1 -10   53.99    1.72
  17  10   1   56.91    1.81
  10   1 -17   57.57    1.97
  17  10  -1   61.04    1.89
   1  17 -10   57.45    1.86
  -1  10 -17   59.11    1.90
  17  -1 -10   57.08    1.77
  10  17  -2    5.43    0.69
   2  10 -17    4.79    0.65
  -2  17 -10    5.05    0.58
  17   2 -10    4.76    0.56
  17  10  -2    5.32    0.62
  10   2 -17    5.03    0.68
   2  17 -10    6.39    0.67
  17  -2 -10    5.90    0.59
  -2  10 -17    5.95    0.64
  -3  17 -10    7.97    0.66
  10  17  -3    7.82    0.75
  17   3 -10    7.62    0.69
   3  10 -17    7.91    0.76
  -3  10 -17    8.79    0.73
  17  10  -3    9.86    0.79
   3  17 -10    8.46    0.79
  10   3 -17   10.01    0.84
  10  17  -4   17.47    1.09
   4  10 -17   19.03    1.09
  17   4 -10   21.76    1.04
  -4  17 -10   16.73    0.87
  -4  10 -17   18.84    0.96
  10   4 -17   21.73    1.16
   4  17 -10   19.92    1.08
  17  10  -4   18.24    1.04
   5  10 -17   32.56    1.40
  17   5 -10   31.20    1.28
  10  17  -5   30.90    1.40
  -5  17 -10   30.89    1.15
   5  17 -10   30.97    1.38
  10   5 -17   32.39    1.43
  17  10  -5   31.76    1.32
  -5  10 -17   32.95    1.27
  17   6 -10   13.47    0.89
  -6  17 -10   13.66    0.75
   6  10 -17   14.15    1.01
  10  17  -6   15.40    1.04
  10   6 -17   14.32    1.01
  17  10  -6   15.75    0.97
   6  17 -10   11.69    0.92
  -7  17 -10   16.13    0.81
   7  10 -17   18.73    1.13
  10  17  -7   18.83    1.14
  17   7 -10   19.11    1.04
   7  17 -10   16.93    1.10
  10   7 -17   20.55    1.16
  17  10  -7   19.66    1.07
  -8  17 -10    3.16    0.48
  10  17  -8    3.18    0.61
   8  10 -17    3.89    0.62
  17   8 -10    3.19    0.60
   8  17 -10    2.50    0.59
  17  10  -8    1.63    0.52
  10   8 -17    2.80    0.58
  17   9 -10   27.92    1.31
  10  17  -9   28.04    1.38
   9  10 -17   28.87    1.39
  17  10  -9   29.36    1.39
   9  17 -10   31.77    1.45
  10   9 -17   28.79    1.42
  10  17 -10   32.10    1.50
  17  10 -10   31.33    1.42
  10  10 -17   33.39    1.52
   0  11 -17   42.75    1.55
   0  17 -11   42.28    1.52
  17  11   0   40.26    1.53
  17   0 -11   41.96    1.48
  17  11   1   19.40    1.03
  17   1 -11   18.84    0.96
   1  11 -17   16.91    1.04
  -1  17 -11   19.31    0.97
  -1  11 -17   20.95    1.08
  11   1 -17   21.46    1.14
  17  -1 -11   20.36    0.99
   1  17 -11   18.37    1.01
  17  11  -1   19.48    1.07
   2  11 -17   23.10    1.19
  11  17  -2   28.27    1.33
  -2  17 -11   24.97    1.11
  17   2 -11   27.66    1.18
  17  11  -2   32.47    1.34
  -2  11 -17   32.54    1.30
  11   2 -17   29.27    1.36
   2  17 -11   25.63    1.22
  17  -2 -11   29.75    1.19
  17   3 -11   40.74    1.50
   3  11 -17   41.13    1.58
  11  17  -3   40.32    1.59
  -3  17 -11   39.59    1.41
  11   3 -17   43.27    1.65
  17  11  -3   39.17    1.53
  -3  11 -17   41.37    1.48
   3  17 -11   41.73    1.56
  17   4 -11   25.60    1.21
   4  11 -17   28.98    1.32
  11  17  -4   26.27    1.32
  -4  17 -11   27.76    1.12
   4  17 -11   23.05    1.17
  -4  11 -17   24.19    1.11
  11   4 -17   23.81    1.23
  17  11  -4   21.51    1.13
   5  11 -17   12.09    0.96
  17   5 -11   11.07    0.86
  -5  17 -11   11.55    0.76
  11  17  -5   12.01    0.96
  17  11  -5   12.78    0.93
   5  17 -11   13.81    0.98
  11   5 -17   12.47    0.96
  -5  11 -17   12.21    0.83
  17   6 -11   55.37    1.92
  -6  17 -11   57.78    1.72
  11  17  -6   57.83    2.03
   6  11 -17   59.67    2.03
  11   6 -17   52.54    1.90
   6  17 -11   53.83    1.91
  17  11  -6   58.47    1.91
  -6  11 -17   52.98    1.72
  17   7 -11   21.23    1.16
   7  11 -17   20.88    1.21
  -7  17 -11   19.78    0.90
  11  17  -7   21.51    1.21
  11   7 -17   22.14    1.24
   7  17 -11   25.25    1.27
  17  11  -7   20.16    1.15
  11  17  -8   55.53    1.99
   8  11 -17   50.76    1.92
  17   8 -11   54.32    1.88
  17  11  -8   60.38    2.00
   8  17 -11   57.18    2.03
  11   8 -17   54.97    2.03
   9  11 -17    7.10    0.83
  11  17  -9    6.60    0.79
  17   9 -11    5.55    0.70
  11   9 -17    5.81    0.74
  17  11  -9    5.78    0.74
   9  17 -11    5.43    0.74
  11  17 -10    7.56    0.85
  17  10 -11    6.28    0.75
  10  11 -17    7.91    0.88
  10  17 -11    6.65    0.81
  17  11 -10    8.66    0.86
  11  10 -17    6.15    0.77
  11  11 -17    9.02    0.90
  17  11 -11   10.22    0.94
  11  17 -11   11.34    1.03
  17  12   0    1.22    0.47
   0  12 -17    1.46    0.46
   0  17 -12    1.02    0.44
  17   0 -12    0.44    0.40
   1  12 -17   16.18    0.99
  -1  17 -12   17.51    0.97
  17  12   1   13.81    0.96
  17   1 -12   16.90    0.97
  17  -1 -12   17.48    0.98
   1  17 -12   17.31    1.00
  12   1 -17   16.51    1.07
  17  12  -1   17.44    1.03
  -1  12 -17   18.72    1.01
  12  17  -2    2.92    0.56
  17   2 -12    2.47    0.50
   2  12 -17    3.02    0.57
  -2  17 -12    2.68    0.50
  17  12  -2    2.96    0.56
  -2  12 -17    2.18    0.50
   2  17 -12    2.23    0.52
  17  -2 -12    2.67    0.49
  12   2 -17    2.64    0.59
  -3  17 -12   57.89    1.79
  12  17  -3   56.54    2.00
  17   3 -12   54.05    1.83
   3  12 -17   56.04    1.93
   3  17 -12   57.73    1.95
  -3  12 -17   56.16    1.84
  17  12  -3   59.62    1.97
  12   3 -17   59.48    2.03
  12  17  -4   12.61    1.03
  17   4 -12   11.96    0.91
  -4  17 -12   10.91    0.77
   4  12 -17   10.86    0.91
  12   4 -17   10.37    0.90
   4  17 -12   10.49    0.87
  17  12  -4   10.28    0.86
  -4  12 -17    9.19    0.76
   5  12 -17    6.05    0.74
  17   5 -12    5.21    0.67
  12  17  -5    5.96    0.76
  -5  17 -12    6.44    0.60
  12   5 -17    6.75    0.80
  -5  12 -17    5.49    0.60
  17  12  -5    4.47    0.64
   5  17 -12    6.34    0.74
  12  17  -6    9.70    0.87
  17   6 -12    9.96    0.85
  -6  17 -12    9.66    0.70
   6  12 -17    8.69    0.86
  12   6 -17   10.22    0.92
  -6  12 -17    8.71    0.72
  17  12  -6    9.14    0.84
   6  17 -12    9.08    0.85
  12  17  -7   46.15    1.79
  17   7 -12   44.57    1.70
   7  12 -17   47.40    1.79
  -7  17 -12   43.84    1.44
   7  17 -12   55.27    1.96
  -7  12 -17   53.51    1.71
  17  12  -7   54.38    1.92
  12   7 -17   51.91    1.95
  17   8 -12   28.29    1.38
  12  17  -8   30.29    1.46
   8  12 -17   29.85    1.44
   8  17 -12   25.73    1.33
  12   8 -17   24.81    1.33
  17  12  -8   22.56    1.24
  17   9 -12    9.64    0.90
   9  12 -17    7.37    0.83
  12  17  -9    9.77    0.95
   9  17 -12    8.88    0.93
  12   9 -17    8.50    0.86
  17  12  -9    9.91    0.89
  12  17 -10    1.06    0.56
  17  10 -12    1.94    0.57
  10  12 -17    1.27    0.58
  17  12 -10    0.56    0.51
  10  17 -12    1.06    0.55
  12  10 -17    0.34    0.49
  11  12 -17   11.37    1.00
  12  17 -11   10.04    0.94
  17  11 -12   11.91    1.00
  12  11 -17   11.11    1.02
  11  17 -12   12.27    1.05
  17  12 -11   12.60    1.04
  12  17 -12   28.93    1.49
  17  12 -12   24.34    1.43
  12  12 -17   29.88    1.51
  17   0 -13   16.87    1.00
   0  17 -13   17.79    1.00
   0  13 -17   17.32    1.01
  17  13   0   17.49    1.06
  13   0 -17   17.92    1.10
   1  13 -17   54.44    1.89
  17   1 -13   56.22    1.85
  -1  17 -13   51.12    1.77
  13  17  -1   56.40    1.99
  17  13   1   52.45    1.87
  13   1 -17   55.56    1.94
   1  17 -13   53.83    1.85
  17  -1 -13   52.99    1.80
  -1  13 -17   51.46    1.80
  17  13  -1   57.57    1.95
  13  17  -2   25.55    1.34
  17   2 -13   24.93    1.19
  -2  17 -13   27.08    1.16
   2  13 -17   27.10    1.31
   2  17 -13   23.22    1.17
  -2  13 -17   22.16    1.13
  17  13  -2   23.46    1.21
  13   2 -17   24.51    1.26
   3  13 -17   17.58    1.09
  17   3 -13   18.07    1.07
  -3  17 -13   18.93    0.99
  13  17  -3   18.73    1.17
  13   3 -17   17.63    1.11
   3  17 -13   16.79    1.05
  17  13  -3   16.76    1.06
  -3  13 -17   15.66    0.97
   4  13 -17   12.98    0.98
  -4  17 -13   15.47    0.88
  13  17  -4   14.34    1.09
  17   4 -13   13.31    0.94
  -4  13 -17   14.30    0.90
  13   4 -17   14.54    1.09
  17  13  -4   11.67    0.97
   4  17 -13   11.97    0.95
   5  13 -17    5.15    0.73
  -5  17 -13    3.67    0.54
  13  17  -5    5.26    0.75
  17   5 -13    4.64    0.65
   5  17 -13    6.75    0.79
  17  13  -5    5.72    0.73
  -5  13 -17    7.08    0.68
  13   5 -17    5.71    0.76
  17   6 -13   18.28    1.09
  -6  17 -13   15.92    0.88
   6  13 -17   17.24    1.14
  13  17  -6   15.52    1.13
   6  17 -13   15.40    1.08
  -6  13 -17   16.55    0.93
  13   6 -17   15.18    1.08
  17  13  -6   16.35    1.08
  -7  17 -13    3.47    0.49
   7  13 -17    2.67    0.59
  17   7 -13    2.79    0.61
  13  17  -7    4.19    0.73
   7  17 -13    2.56    0.63
  -7  13 -17    3.17    0.50
  17  13  -7    3.55    0.65
  13   7 -17    1.61    0.58
  17   8 -13    1.86    0.56
   8  13 -17    2.65    0.63
  13  17  -8    3.19    0.69
  13   8 -17    1.69    0.58
  17  13  -8    1.59    0.54
   8  17 -13    0.47    0.54
  17   9 -13   12.80    1.04
   9  13 -17   10.84    0.95
  13  17  -9   13.12    1.07
   9  17 -13   10.94    0.98
  17  13  -9   12.28    1.03
  13   9 -17   11.22    1.00
  10  13 -17   12.81    1.09
  13  17 -10   11.38    1.02
  17  10 -13   13.12    1.06
  10  17 -13   11.97    1.08
  17  13 -10   12.06    1.03
  13  10 -17   12.94    1.09
  13  17 -11   19.10    1.29
  11  13 -17   20.75    1.31
  17  11 -13   20.19    1.25
  13  11 -17   23.51    1.36
  17  13 -11   20.25    1.29
  11  17 -13   18.78    1.27
  12  13 -17    3.57    0.74
  17  12 -13    2.66    0.67
  13  17 -12    1.98    0.64
  12  17 -13    0.95    0.58
  13  12 -17    1.07    0.61
  17  13 -12    1.24    0.59
  17  13 -13    9.64    1.00
  13  17 -13   10.53    1.04
  13  13 -17   11.25    1.06
   0  17 -14    4.09    0.60
  17  14   0    4.38    0.67
   0  14 -17    4.53    0.64
  17   0 -14    2.83    0.56
  14   0 -17    4.23    0.66
  14  17  -1    0.55    0.49
  -1  17 -14    0.36    0.44
   1  14 -17   -0.05    0.42
  17  14   1    0.72    0.49
  17   1 -14    0.27    0.44
  -1  14 -17    0.06    0.40
  14   1 -17    0.25    0.46
   1  17 -14    0.24    0.42
  17  14  -1    0.03    0.43
  17  -1 -14    0.39    0.41
  -2  17 -14    0.68    0.41
   2  14 -17    0.85    0.48
  17   2 -14    0.90    0.46
  14  17  -2    0.79    0.54
  -2  14 -17   -0.25    0.39
   2  17 -14   -0.24    0.40
  17  14  -2   -0.02    0.45
  14   2 -17    0.63    0.46
  17   3 -14   12.65    0.95
  -3  17 -14   11.31    0.84
  14  17  -3   11.91    0.99
   3  14 -17   12.05    0.96
   3  17 -14   11.17    0.94
  -3  14 -17   10.42    0.83
  17  14  -3   11.94    0.95
  14   3 -17   11.43    0.96
  17   4 -14    0.73    0.47
   4  14 -17    1.06    0.53
  14  17  -4    0.58    0.50
  -4  17 -14    1.53    0.45
  -4  14 -17    0.70    0.41
  14   4 -17    1.02    0.52
  17  14  -4    0.10    0.45
   4  17 -14    0.25    0.47
   5  14 -17   47.75    1.86
  -5  17 -14   50.67    1.65
  14  17  -5   49.47    1.92
  17   5 -14   52.16    1.87
  17  14  -5   50.85    1.86
  14   5 -17   46.17    1.83
  -5  14 -17   48.79    1.66
   5  17 -14   47.01    1.82
  -6  17 -14   35.89    1.33
  17   6 -14   32.74    1.51
  14  17  -6   34.59    1.60
   6  14 -17   35.10    1.56
  17  14  -6   32.38    1.51
   6  17 -14   32.66    1.51
  14   6 -17   34.46    1.57
  -6  14 -17   35.47    1.37
  14  17  -7    3.55    0.70
  -7  17 -14    5.57    0.67
  17   7 -14    5.74    0.77
   7  14 -17    5.24    0.77
  17  14  -7    5.93    0.79
  14   7 -17    5.29    0.76
  -7  14 -17    5.70    0.62
   7  17 -14    7.17    0.83
  17   8 -14    6.93    0.82
   8  14 -17    7.21    0.85
  14  17  -8    5.35    0.76
  14   8 -17    6.34    0.79
  17  14  -8    5.53    0.80
   8  17 -14    4.87    0.76
  17   9 -14   29.59    1.45
  14  17  -9   30.16    1.53
   9  14 -17   27.54    1.48
  17  14  -9   30.47    1.53
  14   9 -17   28.87    1.50
   9  17 -14   33.54    1.57
  17  10 -14   29.37    1.47
  14  17 -10   27.81    1.49
  10  14 -17   30.78    1.54
  10  17 -14   29.70    1.53
  14  10 -17   31.31    1.55
  17  14 -10   29.10    1.49
  11  14 -17    7.26    0.86
  17  11 -14    6.98    0.87
  14  17 -11    8.87    0.96
  14  11 -17    7.92    0.94
  11  17 -14    6.91    0.90
  17  14 -11    8.49    0.93
  14  17 -12    6.39    0.88
  17  12 -14    5.81    0.83
  12  14 -17    5.68    0.84
  12  17 -14    7.35    0.93
  17  14 -12    8.31    0.96
  14  12 -17    7.91    0.95
  14  17 -13   14.73    1.24
  13  14 -17   13.38    1.18
  17  13 -14   15.11    1.20
  14  13 -17   17.22    1.31
  17  14 -13   16.17    1.26
  13  17 -14   18.94    1.34
  14  14 -17    9.75    1.07
  17  14 -14    9.26    1.02
  14  17 -14   10.09    1.08
  17  15   0    2.25    0.58
   0  17 -15    2.85    0.56
  15   0 -17    2.26    0.59
  15  17   0    3.41    0.67
  17   0 -15    2.10    0.54
   0  15 -17    3.96    0.62
  17   1 -15    3.95    0.63
  -1  17 -15    2.75    0.55
   1  15 -17    3.05    0.59
  17  15   1    2.72    0.61
  15  17  -1    3.90    0.67
  -1  15 -17    5.03    0.65
  17  15  -1    4.93    0.72
  15   1 -17    4.55    0.69
   1  17 -15    4.18    0.64
   2  15 -17   19.00    1.12
  17   2 -15   18.46    1.10
  15  17  -2   18.85    1.22
  -2  17 -15   19.46    1.07
  15   2 -17   17.04    1.11
   2  17 -15   15.73    1.05
  -2  15 -17   17.00    1.03
  17  15  -2   17.11    1.13
  15  17  -3    0.55    0.52
  17   3 -15   -0.09    0.43
   3  15 -17    0.48    0.47
  -3  17 -15    0.25    0.38
   3  17 -15    0.37    0.49
  15   3 -17    0.72    0.52
  -3  15 -17    0.35    0.42
  17  15  -3    0.61    0.50
  -4  17 -15   27.35    1.22
  17   4 -15   29.51    1.38
   4  15 -17   28.07    1.39
  15  17  -4   27.58    1.44
  -4  15 -17   30.93    1.32
   4  17 -15   29.61    1.42
  15   4 -17   32.69    1.49
  17  15  -4   32.60    1.50
  17   5 -15   18.29    1.17
  15  17  -5   15.76    1.15
  -5  17 -15   15.15    0.93
   5  15 -17   15.39    1.12
   5  17 -15   16.02    1.11
  15   5 -17   15.86    1.12
  -5  15 -17   15.81    0.96
  17  15  -5   13.85    1.07
  17   6 -15    9.98    0.91
  15  17  -6   10.48    0.99
   6  15 -17   11.72    1.02
  -6  17 -15    9.59    0.78
  -6  15 -17   12.27    0.88
  15   6 -17   10.56    0.99
  17  15  -6   10.68    1.00
   6  17 -15   12.14    1.04
  15  17  -7    4.15    0.72
  17   7 -15    3.55    0.68
   7  15 -17    4.52    0.73
  15   7 -17    3.35    0.70
   7  17 -15    4.89    0.79
  -7  15 -17    2.82    0.50
  17  15  -7    2.44    0.65
  15  17  -8   28.86    1.49
   8  15 -17   25.72    1.43
  17   8 -15   28.41    1.48
   8  17 -15   25.19    1.42
  15   8 -17   29.03    1.47
  17  15  -8   29.47    1.49
  17   9 -15    3.08    0.69
   9  15 -17    3.50    0.74
  15  17  -9    2.94    0.70
  17  15  -9    2.67    0.67
  15   9 -17    3.61    0.73
   9  17 -15    1.62    0.64
  10  15 -17   12.60    1.09
  15  17 -10   14.09    1.14
  17  10 -15   13.40    1.10
  17  15 -10   14.26    1.15
  10  17 -15   15.61    1.23
  15  10 -17   14.54    1.17
  11  15 -17    6.53    0.88
  17  11 -15    5.82    0.86
  15  17 -11    5.53    0.84
  11  17 -15    6.80    0.90
  17  15 -11    8.24    0.96
  15  11 -17    7.68    0.95
  12  15 -17    6.22    0.88
  17  12 -15    6.67    0.90
  15  17 -12    7.85    0.97
  17  15 -12    7.18    0.92
  15  12 -17    5.01    0.85
  12  17 -15    6.23    0.92
  15  17 -13   12.50    1.16
  13  15 -17   13.37    1.18
  17  13 -15   16.33    1.28
  15  13 -17   12.61    1.17
  17  15 -13   13.47    1.20
  13  17 -15   14.09    1.23
  17  14 -15    8.55    1.02
  15  17 -14    7.87    0.99
  14  15 -17    9.92    1.10
  17  15 -14    7.66    0.97
  14  17 -15    9.32    1.06
  15  14 -17    8.19    1.03
  15  17 -15    9.71    1.10
  15  15 -17    7.94    1.05
  17  15 -15    9.74    1.10
  16  17   0    2.88    0.64
   0  16 -17    2.43    0.56
  17  16   0    2.94    0.66
   0  17 -16    2.52    0.57
  17   0 -16    1.53    0.56
  -1  17 -16   11.09    0.90
  17  16   1   10.50    0.98
  17   1 -16   10.02    0.91
   1  16 -17    8.68    0.85
  16  17  -1   11.43    1.02
  -1  16 -17   11.51    0.91
  16   1 -17   10.04    0.94
   1  17 -16    8.97    0.85
  17  16  -1   10.83    0.99
  16  17  -2    7.48    0.89
  -2  17 -16    9.20    0.81
  17   2 -16   10.63    0.94
   2  16 -17    8.99    0.87
  17  16  -2   10.23    0.96
  -2  16 -17   11.88    0.93
   2  17 -16   13.00    1.01
  16   2 -17   12.86    1.03
   3  16 -17    8.24    0.86
  16  17  -3    6.98    0.84
  -3  17 -16    8.39    0.78
  17   3 -16    7.54    0.84
  16   3 -17    7.41    0.84
   3  17 -16    7.74    0.81
  17  16  -3    5.59    0.78
  -3  16 -17    5.38    0.68
  17   4 -16    5.60    0.77
   4  16 -17    5.36    0.77
  16  17  -4    5.43    0.77
  -4  17 -16    5.95    0.67
  16   4 -17    5.67    0.78
  17  16  -4    5.41    0.80
  -4  16 -17    6.06    0.68
   4  17 -16    6.55    0.79
  -5  17 -16   11.14    0.84
  17   5 -16    9.47    0.93
   5  16 -17    9.31    0.93
  16  17  -5   10.48    1.02
  16   5 -17   10.03    0.95
   5  17 -16   12.25    1.03
  -5  16 -17   11.83    0.88
  17  16  -5   10.66    0.99
   6  16 -17   11.04    1.03
  16  17  -6    8.07    0.92
  -6  17 -16    9.67    0.78
  17   6 -16   10.41    0.95
   6  17 -16    8.42    0.93
  16   6 -17   10.20    0.98
  17  16  -6    8.12    0.91
  -6  16 -17    9.87    0.78
  16  17  -7   22.55    1.36
   7  16 -17   26.68    1.43
  17   7 -16   23.59    1.37
   7  17 -16   27.81    1.48
  16   7 -17   29.71    1.51
  17  16  -7   31.30    1.53
   8  16 -17   11.45    1.06
  16  17  -8   13.76    1.13
  17   8 -16   10.60    1.02
  17  16  -8    8.32    0.93
  16   8 -17    8.59    0.92
   8  17 -16    8.21    0.95
  17   9 -16    1.06    0.62
   9  16 -17    2.41    0.70
  16  17  -9    2.69    0.73
   9  17 -16    0.93    0.60
  16   9 -17    1.43    0.62
  17  16  -9    1.82    0.64
  16  17 -10    4.06    0.78
  10  16 -17    3.69    0.78
  17  10 -16    2.56    0.68
  10  17 -16    2.23    0.70
  16  10 -17    2.24    0.66
  17  16 -10    2.81    0.69
  11  16 -17    6.55    0.91
  17  11 -16    7.86    0.95
  16  17 -11    6.65    0.93
  17  16 -11    9.32    1.01
  11  17 -16    6.75    0.90
  16  11 -17    9.13    1.02
  12  16 -17    8.14    1.01
  16  17 -12    8.68    1.02
  17  12 -16    8.89    1.00
  17  16 -12    6.90    0.98
  12  17 -16    9.46    1.07
  16  12 -17    6.76    0.95
  16  17 -13    9.76    1.07
  13  16 -17    8.54    1.01
  17  13 -16    8.52    1.01
  13  17 -16    8.11    0.99
  17  16 -13    7.68    0.97
  16  13 -17    8.72    1.04
  16  17 -14    4.43    0.88
  17  14 -16    5.63    0.93
  14  16 -17    5.24    0.89
  14  17 -16    4.12    0.86
  16  14 -17    3.63    0.81
  17  16 -14    4.71    0.87
  17  15 -16   11.34    1.17
  15  16 -17   13.76    1.26
  16  17 -15   11.04    1.19
  15  17 -16   13.48    1.27
  16  15 -17   12.65    1.25
  17  16 -15   13.85    1.27
  16  16 -17    0.84    0.71
  16  17 -16    0.09    0.63
  17  16 -16    0.46    0.68
   0  17 -17   26.20    1.32
  17  17   0   30.75    1.51
  -1  17 -17    5.61    0.73
   1  17 -17    7.05    0.81
  17   1 -17    6.56    0.81
  17  17  -1    6.19    0.85
  17  17   1    6.45    0.84
  -2  17 -17   12.10    0.94
   2  17 -17   10.30    0.94
  17   2 -17   12.05    1.01
  17  17  -2   10.84    1.01
  -3  17 -17    3.78    0.61
   3  17 -17    4.01    0.68
  17   3 -17    2.97    0.66
  17  17  -3    5.35    0.78
  -4  17 -17   17.50    1.06
   4  17 -17   16.48    1.17
  17   4 -17   18.43    1.20
  17  17  -4   17.57    1.23
  -5  17 -17    9.34    0.80
   5  17 -17   10.86    0.99
  17   5 -17    9.38    0.97
  17  17  -5    9.62    0.97
  -6  17 -17   -0.09    0.41
   6  17 -17    0.36    0.54
  17   6 -17    0.71    0.57
  17  17  -6    0.58    0.55
   7  17 -17    6.66    0.86
  17   7 -17    7.50    0.89
  17  17  -7    8.37    0.96
   8  17 -17    4.30    0.76
  17   8 -17    2.93    0.69
  17  17  -8    4.56    0.82
   9  17 -17    0.67    0.61
  17   9 -17   -0.31    0.52
  17  17  -9    0.70    0.60
  10  17 -17    0.52    0.58
  17  10 -17   -0.07    0.56
  17  17 -10    0.02    0.55
  11  17 -17   13.16    1.16
  17  11 -17   14.23    1.21
  17  17 -11   12.16    1.16
  12  17 -17    0.11    0.60
  17  12 -17    0.02    0.58
  17  17 -12   -0.36    0.60
  13  17 -17   28.74    1.71
  17  13 -17   33.55    1.74
  17  17 -13   28.90    1.66
  14  17 -17    0.11    0.66
  17  14 -17    1.02    0.68
  17  17 -14   -0.75    0.61
  15  17 -17    1.88    0.75
  17  15 -17    0.51    0.70
  17  17 -15    0.93    0.69
  16  17 -17    5.42    0.96
  17  16 -17    5.55    0.97
  17  17 -16    4.91    0.96
  17  17 -17    1.01    0.74
  18   0   0    0.20    0.20
  18   0  -1    0.68    0.23
  18   0   1    0.62    0.21
  18  -1   0    0.93    0.21
  18   1   0    0.38    0.23
  18  -1  -1   13.48    0.57
  18  -1   1   13.73    0.53
  18   1  -1   13.22    0.61
  18   1   1   13.53    0.60
  18  -2   0    1.18    0.32
  18   2   0    1.24    0.28
  18   0  -2    1.01    0.26
  18   0   2    1.43    0.24
  18   2   1    8.09    0.53
  18  -1   2    9.68    0.47
  18   1  -2    8.67    0.54
  18  -2  -1    9.44    0.45
  18  -1  -2    9.39    0.50
  18   2  -1    8.90    0.55
  18   1   2    8.34    0.48
  18   2   2    6.58    0.47
  18  -2  -2    5.50    0.40
  18   2  -2    6.05    0.48
  18   0  -3  140.15    3.20
  18   0   3  133.82    3.08
  18   3   0  135.48    3.24
  18   1  -3   58.69    1.61
  18   3   1   58.58    1.62
  18   3  -1   60.21    1.69
  18   1   3   60.90    1.58
  18  -1  -3   62.02    1.61
  18  -3  -2    7.53    0.48
  -2  18  -3    8.36    0.66
  18   3   2    7.31    0.53
  18   2  -3    7.22    0.54
  18  -2  -3    7.22    0.46
  18   2   3    7.22    0.50
  18   3  -2    7.46    0.56
  -3  18  -3    7.58    0.61
  18  -3  -3    7.23    0.45
  18   3  -3    8.66    0.61
  18   3   3    8.85    0.55
  18   0  -4    2.81    0.35
   0  18  -4    2.28    0.46
  18   4   0    2.58    0.38
  18   0   4    2.02    0.27
  18   1  -4    4.26    0.43
  -1  18  -4    4.65    0.55
  18   4   1    4.44    0.45
  18   4  -1    4.24    0.46
  18  -1  -4    5.11    0.43
   1  18  -4    4.43    0.54
  18   1   4    4.89    0.39
  18   4   2    8.67    0.60
  -2  18  -4    8.81    0.67
  18   2  -4    8.69    0.59
   2   4 -18    8.98    0.80
  18   4  -2   12.50    0.69
   2  18  -4   12.40    0.84
  18   2   4   13.26    0.62
  18  -2  -4   12.33    0.60
   4  18  -3   69.21    2.18
   3   4 -18   73.17    2.24
  18   4   3   73.78    1.95
  -3  18  -4   73.30    2.05
  18   3  -4   70.31    1.96
  18   4  -3   66.95    1.92
   4   3 -18   71.07    2.20
   3  18  -4   69.38    2.12
  -4  18  -3   68.68    1.95
  18   3   4   69.73    1.84
  18  -3  -4   69.45    1.76
  18   4   4   10.84    0.65
  18   4  -4    9.69    0.67
  -4  18  -4   11.83    0.72
   4   4 -18   10.19    0.81
   4  18  -4   10.87    0.85
   0   5 -18   16.86    0.98
   0  18  -5   16.66    0.90
  18   0  -5   15.93    0.75
  18   0   5   18.01    0.80
  18   5   0   16.72    0.80
  18   1  -5   14.67    0.73
   1   5 -18   15.44    0.95
  -1  18  -5   15.75    0.88
  18   5   1   14.15    0.75
  18   5  -1   16.65    0.80
  18  -1  -5   14.86    0.71
   1  18  -5   16.60    0.91
  18   1   5   16.18    0.65
  -2  18  -5    0.10    0.33
  18   5   2    1.27    0.34
   2   5 -18    1.14    0.45
  18   2  -5    1.25    0.34
   2  18  -5    0.56    0.41
  18   5  -2    1.12    0.35
  18   2   5    1.12    0.28
  18  -2  -5    1.47    0.30
   3   5 -18   20.68    1.11
  -3  18  -5   22.14    0.97
   5  18  -3   20.57    1.10
  18   5   3   20.68    0.90
  18   3  -5   21.27    0.91
   3  18  -5   17.22    0.98
  18   5  -3   16.07    0.83
  -5  18  -3   18.64    0.84
   5   3 -18   16.21    1.02
  18  -3  -5   17.14    0.71
   4   5 -18    2.02    0.51
   5  18  -4    1.36    0.47
  18   4  -5    1.56    0.37
  -4  18  -5    2.26    0.40
   5   4 -18    0.70    0.48
  18   5  -4    1.24    0.36
   4  18  -5    0.63    0.43
  -5  18  -4    1.20    0.35
  -5  18  -5    1.49    0.36
  18   5  -5    1.18    0.38
   5   5 -18    1.20    0.46
   5  18  -5    1.19    0.45
  18   6   0   18.35    0.88
   0   6 -18   19.98    1.04
  18   0  -6   18.40    0.82
   0  18  -6   18.42    0.97
  -1  18  -6   17.45    0.93
  18   6   1   18.97    0.90
  18   1  -6   18.83    0.84
   1   6 -18   19.19    1.06
  -1   6 -18   20.15    1.04
   1  18  -6   18.25    0.97
  18  -1  -6   18.87    0.82
  18   6  -1   20.77    0.93
   2   6 -18    3.54    0.57
  -2  18  -6    3.40    0.48
  18   6   2    3.34    0.45
  18   2  -6    4.07    0.46
  18   6  -2    1.88    0.39
   2  18  -6    2.33    0.48
  18  -2  -6    2.04    0.36
   6   2 -18    2.14    0.51
   6  18  -3    0.46    0.39
  -3  18  -6    0.70    0.35
  18   3  -6    1.41    0.36
  18   6   3    1.13    0.35
   3   6 -18    1.16    0.48
   6   3 -18    1.98    0.53
  18   6  -3    2.22    0.41
  -6  18  -3    1.41    0.35
   3  18  -6    1.93    0.47
  18  -3  -6    1.73    0.32
  18   4  -6   12.23    0.76
   6  18  -4    9.79    0.86
  -4  18  -6   12.94    0.75
   4   6 -18   11.12    0.88
   4  18  -6    7.13    0.71
  18   6  -4    7.78    0.65
  -6  18  -4    8.03    0.60
   6   4 -18    7.39    0.77
  -5  18  -6   28.13    1.08
   5   6 -18   29.12    1.32
  18   5  -6   29.91    1.17
   6  18  -5   25.85    1.26
  -6  18  -5   23.92    0.96
   6   5 -18   24.65    1.19
  18   6  -5   23.03    1.06
   5  18  -6   24.84    1.19
  -6  18  -6   41.56    1.34
  18   6  -6   44.88    1.51
   6  18  -6   41.43    1.60
   6   6 -18   39.83    1.60
   0  18  -7   33.77    1.32
  18   0  -7   38.47    1.25
  18   7   0   35.41    1.29
   0   7 -18   36.50    1.43
  18   7   1   29.08    1.15
  -1  18  -7   31.62    1.23
   1   7 -18   28.37    1.27
  18   1  -7   30.75    1.12
  -1   7 -18   23.86    1.13
  18   7  -1   23.58    1.03
   1  18  -7   24.93    1.12
  18  -1  -7   23.53    0.95
  18   2  -7    6.13    0.56
  18   7   2    6.96    0.62
   2   7 -18    6.14    0.71
  -2  18  -7    6.73    0.62
  -2   7 -18    7.81    0.74
  -7  18  -2    8.23    0.59
   7   2 -18    6.88    0.74
   2  18  -7    8.64    0.75
  18   7  -2    8.75    0.68
  18  -2  -7    8.47    0.59
  18   3  -7   45.58    1.49
   7  18  -3   45.43    1.68
   3   7 -18   47.99    1.70
  -3  18  -7   42.40    1.47
   3  18  -7   47.69    1.68
   7   3 -18   49.96    1.78
  18   7  -3   46.68    1.55
  -7  18  -3   46.48    1.44
  18  -3  -7   49.48    1.45
   7  18  -4   59.08    2.00
   4   7 -18   58.89    1.99
  18   4  -7   59.18    1.82
  -4  18  -7   61.54    1.79
   7   4 -18   55.28    1.89
   4  18  -7   54.02    1.84
  -7  18  -4   53.88    1.57
  18   7  -4   54.11    1.73
  -5  18  -7   25.60    1.03
  18   5  -7   25.16    1.09
   7  18  -5   27.78    1.30
   5   7 -18   27.06    1.28
   5  18  -7   25.23    1.22
  18   7  -5   24.44    1.13
  -7  18  -5   26.95    0.99
   7   5 -18   26.30    1.29
   6   7 -18   25.56    1.27
   7  18  -6   25.94    1.26
  -6  18  -7   25.08    1.00
  18   6  -7   25.91    1.13
   7   6 -18   24.21    1.25
  18   7  -6   23.05    1.11
  -7  18  -6   25.03    0.95
   6  18  -7   24.79    1.23
  18   7  -7   36.63    1.41
   7   7 -18   40.63    1.60
   7  18  -7   38.08    1.55
  -7  18  -7   38.01    1.25
  18   0  -8    8.07    0.63
  18   8   0    7.96    0.67
   0   8 -18    6.68    0.71
   0  18  -8    7.43    0.69
  18   8   1   51.23    1.68
   1   8 -18   49.78    1.78
  18   1  -8   54.79    1.65
  -1  18  -8   54.04    1.70
   1  18  -8   57.33    1.79
  18  -1  -8   51.84    1.60
  18   8  -1   52.73    1.71
  -1   8 -18   52.43    1.80
  18   2  -8  105.91    2.78
  -2  18  -8  109.40    2.83
  18   8   2  107.23    2.83
   2   8 -18  105.63    2.97
  -8  18  -2  107.42    2.72
  -2   8 -18  109.46    2.99
   8   2 -18  115.28    3.14
  18  -2  -8  107.91    2.78
  18   8  -2  113.51    2.94
   2  18  -8  111.94    3.00
   8  18  -3    6.33    0.70
  -3  18  -8    6.36    0.60
   3   8 -18    5.34    0.66
  18   3  -8    6.28    0.60
  -3   8 -18    6.26    0.65
  -8  18  -3    6.83    0.52
  18   8  -3    5.89    0.62
   3  18  -8    6.81    0.71
   8   3 -18    7.14    0.79
  -4  18  -8    1.32    0.39
   8  18  -4    1.58    0.47
   4   8 -18    1.58    0.52
  18   4  -8    2.06    0.43
   4  18  -8    3.24    0.56
  -8  18  -4    3.67    0.42
  18   8  -4    3.48    0.54
   8   4 -18    2.54    0.57
  -5  18  -8   35.99    1.25
  18   5  -8   36.44    1.35
   5   8 -18   36.29    1.51
   8  18  -5   34.58    1.46
   5  18  -8   34.19    1.45
  18   8  -5   34.91    1.38
  -8  18  -5   36.75    1.17
   8   5 -18   36.50    1.53
  -6  18  -8   42.18    1.36
  18   6  -8   42.53    1.53
   6   8 -18   47.33    1.72
   8  18  -6   40.33    1.61
  -8  18  -6   47.36    1.42
  18   8  -6   48.58    1.67
   6  18  -8   49.90    1.79
   8   6 -18   49.66    1.82
  18   7  -8   -0.20    0.36
   8  18  -7    0.57    0.47
   7   8 -18    0.85    0.49
  -7  18  -8    0.16    0.30
  18   8  -7    0.28    0.41
   8   7 -18    0.38    0.44
  -8  18  -7    0.08    0.27
   7  18  -8    0.08    0.40
   8  18  -8   17.07    1.10
   8   8 -18   19.43    1.11
  -8  18  -8   19.03    1.04
  18   8  -8   18.57    1.07
  18   9   0   20.41    1.03
  18   0  -9   22.40    0.98
   0  18  -9   21.32    1.04
   0   9 -18   23.20    1.13
  -1  18  -9    1.79    0.44
  18   1  -9    2.20    0.45
   1   9 -18    1.96    0.50
  18   9   1    2.31    0.48
  -1   9 -18    2.25    0.49
  18   9  -1    1.89    0.46
  18  -1  -9    2.03    0.42
   1  18  -9    2.46    0.50
   2   9 -18    2.10    0.53
  18   2  -9    2.15    0.45
  18   9   2    1.91    0.46
  -2  18  -9    2.60    0.47
   2  18  -9    1.91    0.49
   9   2 -18    1.14    0.49
  18   9  -2    1.36    0.43
  18  -2  -9    1.32    0.37
  -9  18  -2    1.61    0.32
  -2   9 -18    1.64    0.47
   3   9 -18    5.51    0.68
   9  18  -3    5.55    0.71
  -3  18  -9    4.92    0.55
  18   3  -9    4.41    0.54
   3  18  -9    5.98    0.68
  -9  18  -3    5.28    0.45
  -3   9 -18    4.86    0.60
   9   3 -18    4.78    0.66
  18   9  -3    4.24    0.58
   4   9 -18   11.64    0.93
  -4  18  -9   11.87    0.76
  18   4  -9   11.93    0.83
   9  18  -4   10.53    0.90
   4  18  -9   12.78    0.92
  18   9  -4   12.52    0.89
  -4   9 -18   11.42    0.81
   9   4 -18   11.73    0.93
   5   9 -18    9.27    0.86
   9  18  -5    8.06    0.81
  18   5  -9    7.14    0.69
  -5  18  -9    8.60    0.66
   9   5 -18    8.91    0.85
   5  18  -9    8.94    0.81
  18   9  -5    9.63    0.78
   6   9 -18   32.73    1.42
  18   6  -9   31.39    1.33
  -6  18  -9   31.16    1.16
   9  18  -6   33.56    1.47
   9   6 -18   33.93    1.50
  18   9  -6   35.09    1.40
   6  18  -9   36.13    1.49
   7   9 -18    0.31    0.42
  18   7  -9   -0.09    0.41
  -7  18  -9   -0.21    0.29
   9  18  -7   -0.28    0.43
   7  18  -9    0.25    0.43
   9   7 -18    0.31    0.48
  18   9  -7    0.01    0.40
   8   9 -18   14.26    1.07
   9  18  -8   12.82    1.01
  18   8  -9   14.24    0.99
  18   9  -8   13.02    0.97
   9   8 -18   12.43    1.00
   8  18  -9   14.36    1.07
   9  18  -9   16.06    1.11
   9   9 -18   16.54    1.11
  18   9  -9   16.19    1.03
  18  10   0    1.94    0.46
  18   0 -10    1.36    0.40
   0  18 -10    1.34    0.45
   0  10 -18    1.44    0.48
  -1  18 -10    3.26    0.54
  18  10   1    3.18    0.53
   1  10 -18    4.03    0.59
  18   1 -10    3.51    0.51
   1  18 -10    4.42    0.60
  10   1 -18    3.28    0.63
  18  -1 -10    4.66    0.54
  18  10  -1    4.88    0.60
  -1  10 -18    3.91    0.58
  -2  18 -10   29.75    1.23
  18   2 -10   32.00    1.26
  18  10   2   31.31    1.30
   2  10 -18   29.08    1.34
  10  18  -2   30.14    1.41
  18  10  -2   30.77    1.29
   2  18 -10   29.72    1.32
  10   2 -18   29.37    1.39
  -2  10 -18   30.85    1.32
  18  -2 -10   32.68    1.22
  10  18  -3    4.22    0.64
  -3  18 -10    5.36    0.58
   3  10 -18    4.45    0.65
  18   3 -10    5.22    0.60
   3  18 -10    4.39    0.64
  18  10  -3    4.24    0.59
  10   3 -18    4.60    0.69
  -3  10 -18    5.01    0.61
  18   4 -10    0.87    0.41
  10  18  -4    0.97    0.52
   4  10 -18    0.45    0.46
  -4  18 -10    0.34    0.36
  10   4 -18    0.38    0.47
   4  18 -10    0.10    0.44
  -4  10 -18    0.23    0.39
  18  10  -4   -0.11    0.39
  -5  18 -10   30.71    1.17
   5  10 -18   31.24    1.41
  18   5 -10   28.65    1.25
  10  18  -5   28.94    1.39
  10   5 -18   29.21    1.40
  18  10  -5   30.58    1.31
   5  18 -10   30.56    1.37
  -5  10 -18   28.61    1.24
   6  10 -18    1.32    0.53
  10  18  -6    1.21    0.54
  -6  18 -10    1.56    0.40
  18   6 -10    1.68    0.49
  10   6 -18    1.48    0.52
   6  18 -10    0.92    0.49
  18  10  -6    1.95    0.50
  18   7 -10    2.86    0.57
  10  18  -7    2.09    0.58
   7  10 -18    4.76    0.70
  -7  18 -10    3.51    0.46
  10   7 -18    3.87    0.67
  18  10  -7    4.17    0.62
   7  18 -10    3.45    0.65
   8  10 -18   37.66    1.62
  10  18  -8   37.85    1.62
  18   8 -10   36.08    1.50
  18  10  -8   37.94    1.53
   8  18 -10   36.72    1.55
  10   8 -18   37.31    1.62
  18   9 -10   14.14    1.01
  10  18  -9   17.18    1.15
   9  10 -18   14.10    1.03
   9  18 -10   15.52    1.13
  10   9 -18   16.16    1.13
  18  10  -9   15.44    1.05
  18  10 -10    2.56    0.59
  10  10 -18    2.49    0.62
  10  18 -10    2.08    0.63
   0  11 -18   63.33    2.04
  18  11   0   60.59    1.98
   0  18 -11   61.36    1.97
  18   0 -11   60.17    1.90
  18  11   1    5.17    0.66
   1  11 -18    6.74    0.73
  -1  18 -11    6.98    0.68
  18   1 -11    6.01    0.64
  -1  11 -18    6.91    0.70
  18  -1 -11    6.46    0.64
   1  18 -11    6.03    0.68
  18  11  -1    6.23    0.69
  11   1 -18    6.42    0.78
  11  18  -2    7.49    0.82
   2  11 -18    6.28    0.71
  18   2 -11    6.45    0.66
  -2  18 -11    5.53    0.62
  18  11   2    6.19    0.69
   2  18 -11    6.43    0.70
  18  -2 -11    5.33    0.58
  -2  11 -18    5.72    0.66
  11   2 -18    5.74    0.73
  18  11  -2    5.92    0.68
  11  18  -3    7.41    0.81
  -3  18 -11    5.79    0.62
   3  11 -18    4.91    0.68
  18   3 -11    5.76    0.65
  -3  11 -18    8.18    0.75
   3  18 -11    7.55    0.77
  11   3 -18    8.81    0.87
  18  11  -3    8.27    0.78
   4  11 -18   84.63    2.58
  18   4 -11   82.94    2.46
  11  18  -4   83.80    2.63
  -4  18 -11   87.32    2.38
  18  11  -4   86.08    2.59
  11   4 -18   91.80    2.74
  -4  11 -18   88.26    2.54
   4  18 -11   90.29    2.65
  18   5 -11   14.66    0.98
  -5  18 -11   14.36    0.82
   5  11 -18   12.36    0.98
  11  18  -5   12.15    0.99
  18  11  -5   12.55    0.94
  -5  11 -18   11.85    0.86
   5  18 -11   10.79    0.92
  11   5 -18   12.07    0.98
  18   6 -11    4.81    0.65
   6  11 -18    3.27    0.64
  -6  18 -11    3.40    0.48
  11  18  -6    3.08    0.66
  18  11  -6    2.98    0.59
  11   6 -18    3.74    0.68
   6  18 -11    2.87    0.62
  11  18  -7   38.72    1.62
   7  11 -18   35.66    1.57
  -7  18 -11   33.69    1.23
  18   7 -11   33.88    1.45
   7  18 -11   37.54    1.60
  18  11  -7   38.59    1.55
  11   7 -18   36.28    1.60
  11  18  -8   12.57    1.03
  18   8 -11   12.92    1.00
   8  11 -18   13.75    1.09
   8  18 -11   13.66    1.07
  18  11  -8   12.99    1.01
  11   8 -18   13.90    1.08
  11  18  -9   34.42    1.59
  18   9 -11   35.63    1.55
   9  11 -18   35.48    1.60
   9  18 -11   31.40    1.52
  18  11  -9   34.37    1.53
  11   9 -18   32.15    1.54
  11  18 -10    6.68    0.85
  18  10 -11    5.71    0.78
  10  11 -18    7.17    0.87
  18  11 -10    4.08    0.69
  10  18 -11    5.09    0.79
  11  10 -18    5.09    0.77
  18  11 -11   17.89    1.19
  11  11 -18   19.11    1.26
  11  18 -11   20.97    1.30
   0  18 -12    0.18    0.42
  18   0 -12    1.04    0.42
  18  12   0    0.94    0.46
   0  12 -18    0.76    0.45
   1  12 -18   88.82    2.59
  18   1 -12   84.60    2.48
  18  12   1   84.27    2.55
  -1  18 -12   86.83    2.48
  12  18  -1   87.60    2.69
   1  18 -12   82.43    2.49
  -1  12 -18   83.74    2.50
  18  12  -1   89.33    2.59
  18  -1 -12   85.04    2.44
  12   1 -18   83.94    2.62
  -2  18 -12   30.05    1.25
  18   2 -12   29.04    1.28
  18  12   2   27.49    1.29
  12  18  -2   29.36    1.38
   2  12 -18   27.50    1.32
  18  12  -2   30.56    1.36
   2  18 -12   28.41    1.32
  12   2 -18   28.08    1.39
  -2  12 -18   25.33    1.21
  18   3 -12   16.83    1.00
   3  12 -18   19.02    1.12
  -3  18 -12   16.98    0.96
  12  18  -3   17.67    1.15
  -3  12 -18   16.45    1.00
  12   3 -18   14.67    1.07
   3  18 -12   14.37    1.03
  18  12  -3   14.34    0.98
  -4  18 -12   27.34    1.16
   4  12 -18   27.53    1.35
  12  18  -4   26.63    1.38
  18   4 -12   26.93    1.25
  12   4 -18   26.70    1.38
   4  18 -12   28.27    1.33
  18  12  -4   26.07    1.28
  -4  12 -18   27.13    1.23
   5  12 -18   24.55    1.31
  -5  18 -12   23.96    1.07
  18   5 -12   25.47    1.23
  12  18  -5   24.54    1.33
  18  12  -5   24.15    1.26
  12   5 -18   24.21    1.33
   5  18 -12   26.03    1.34
  -5  12 -18   25.97    1.18
   6  12 -18   24.14    1.31
  12  18  -6   26.40    1.37
  -6  18 -12   23.90    1.04
  18   6 -12   23.35    1.21
  12   6 -18   26.90    1.39
   6  18 -12   26.40    1.36
  -6  12 -18   28.20    1.20
  18  12  -6   28.57    1.35
  -7  18 -12    6.23    0.73
   7  12 -18    7.43    0.85
  18   7 -12    7.57    0.80
  12  18  -7    5.26    0.76
   7  18 -12    8.71    0.88
  18  12  -7    7.10    0.80
  12   7 -18    7.35    0.85
  18   8 -12   11.70    0.98
   8  12 -18   10.53    0.96
  12  18  -8   10.08    0.98
  12   8 -18    9.03    0.91
   8  18 -12    8.56    0.91
  18  12  -8    9.62    0.90
  18   9 -12   16.78    1.17
   9  12 -18   18.09    1.17
  12  18  -9   19.37    1.25
  12   9 -18   16.33    1.18
   9  18 -12   13.63    1.11
  18  12  -9   16.35    1.11
  18  10 -12    1.13    0.56
  12  18 -10    0.91    0.56
  10  12 -18    0.84    0.58
  10  18 -12    1.60    0.62
  18  12 -10    1.64    0.61
  12  10 -18    2.03    0.65
  11  12 -18    6.08    0.84
  12  18 -11    4.33    0.77
  18  11 -12    4.36    0.75
  18  12 -11    3.91    0.72
  11  18 -12    4.27    0.74
  12  11 -18    4.75    0.77
  12  12 -18   15.93    1.23
  18  12 -12   18.14    1.23
  12  18 -12   15.10    1.20
  18  13   0    1.74    0.55
   0  13 -18    1.47    0.51
  18   0 -13    2.20    0.52
   0  18 -13    2.39    0.53
   1  13 -18    0.69    0.47
  18   1 -13    0.30    0.41
  18  13   1    0.27    0.44
  -1  18 -13    0.48    0.43
  13  18  -1    0.64    0.52
  18  13  -1    0.06    0.45
  13   1 -18    0.57    0.48
  -1  13 -18    0.53    0.45
   1  18 -13    0.42    0.45
  18  -1 -13    0.99    0.44
  18   2 -13   28.11    1.33
  -2  18 -13   32.42    1.33
   2  13 -18   33.39    1.45
  13  18  -2   32.10    1.51
   2  18 -13   32.44    1.41
  -2  13 -18   29.62    1.30
  13   2 -18   27.75    1.40
  18  13  -2   28.55    1.36
  -3  18 -13    3.49    0.54
   3  13 -18    2.99    0.61
  13  18  -3    2.62    0.63
  18   3 -13    3.30    0.59
  13   3 -18    3.62    0.67
   3  18 -13    3.06    0.59
  -3  13 -18    3.21    0.56
  18  13  -3    2.48    0.57
  18   4 -13    3.50    0.61
   4  13 -18    2.95    0.64
  -4  18 -13    4.54    0.56
  13  18  -4    3.52    0.67
  -4  13 -18    4.80    0.61
  13   4 -18    5.21    0.74
   4  18 -13    3.89    0.67
  18  13  -4    4.92    0.70
  18   5 -13   21.38    1.19
  -5  18 -13   20.59    1.01
  13  18  -5   20.70    1.26
   5  13 -18   20.23    1.25
  18  13  -5   23.44    1.25
   5  18 -13   25.92    1.32
  13   5 -18   22.84    1.30
  -5  13 -18   22.53    1.13
   6  13 -18   62.71    2.15
  -6  18 -13   56.82    1.80
  18   6 -13   59.65    2.04
  13  18  -6   57.40    2.14
   6  18 -13   58.89    2.09
  13   6 -18   57.28    2.09
  18  13  -6   55.12    2.02
  -6  13 -18   59.06    1.88
  13  18  -7    0.33    0.51
  18   7 -13   -0.33    0.42
   7  13 -18    0.08    0.50
  -7  13 -18    0.38    0.39
  18  13  -7   -0.10    0.46
   7  18 -13    0.82    0.54
  13   7 -18    0.33    0.52
   8  13 -18    0.92    0.55
  13  18  -8    1.02    0.57
  18   8 -13    1.53    0.54
  13   8 -18    1.86    0.60
   8  18 -13    0.99    0.60
  18  13  -8    0.78    0.54
   9  13 -18   13.26    1.09
  13  18  -9   13.10    1.11
  18   9 -13   12.81    1.04
   9  18 -13    6.78    0.87
  13   9 -18    8.14    0.91
  18  13  -9    7.68    0.86
  10  13 -18   52.97    2.07
  18  10 -13   53.45    2.01
  13  18 -10   53.01    2.08
  13  10 -18   62.26    2.25
  10  18 -13   57.87    2.20
  18  13 -10   60.97    2.19
  13  18 -11    3.13    0.70
  11  13 -18    0.73    0.59
  18  11 -13    2.73    0.67
  13  11 -18    2.55    0.69
  18  13 -11    1.89    0.63
  11  18 -13    2.49    0.69
  18  12 -13    1.51    0.62
  12  13 -18    1.33    0.65
  13  18 -12    1.11    0.64
  12  18 -13    1.91    0.68
  18  13 -12    2.42    0.68
  13  12 -18    2.04    0.70
  13  13 -18   16.63    1.28
  18  13 -13   14.40    1.20
  13  18 -13   14.24    1.23
   0  14 -18    1.44    0.53
  18   0 -14    0.76    0.47
  18  14   0    1.48    0.54
   0  18 -14    1.19    0.47
   1  14 -18    1.40    0.50
  18   1 -14    1.28    0.48
  -1  18 -14    1.20    0.47
  14  18  -1    1.85    0.59
  18  14   1    1.23    0.52
  14   1 -18    1.59    0.54
  18  14  -1    2.25    0.58
  18  -1 -14    2.00    0.51
   1  18 -14    2.04    0.56
  -1  14 -18    2.06    0.52
  18   2 -14    8.45    0.80
   2  14 -18    6.78    0.79
  14  18  -2    8.07    0.87
  -2  18 -14    7.55    0.73
  -2  14 -18    9.91    0.86
  14   2 -18    8.19    0.86
  18  14  -2    8.59    0.86
   2  18 -14    8.75    0.85
  -3  18 -14    0.90    0.43
  14  18  -3    0.82    0.58
  18   3 -14    0.07    0.44
   3  14 -18    0.86    0.50
  -3  14 -18    0.04    0.42
  14   3 -18   -0.05    0.49
   3  18 -14    0.83    0.50
  18  14  -3    0.39    0.49
   4  14 -18   13.54    1.07
  14  18  -4   13.52    1.09
  18   4 -14   15.14    1.03
  -4  18 -14   15.12    0.93
   4  18 -14   15.63    1.09
  14   4 -18   16.64    1.14
  -4  14 -18   13.25    0.94
  18  14  -4   14.71    1.07
  -5  18 -14    0.94    0.41
   5  14 -18    1.47    0.56
  18   5 -14    0.82    0.50
  14  18  -5    1.23    0.60
   5  18 -14    1.93    0.57
  -5  14 -18    1.86    0.49
  14   5 -18    1.74    0.58
  18  14  -5    1.28    0.54
  -6  18 -14   10.55    0.79
  14  18  -6   10.09    0.98
  18   6 -14   10.07    0.93
   6  14 -18   10.91    0.99
  14   6 -18   12.89    1.05
  18  14  -6    9.21    0.92
  -6  14 -18   10.24    0.84
   6  18 -14   10.32    0.97
  14  18  -7    3.24    0.70
   7  14 -18    2.29    0.65
  18   7 -14    2.82    0.64
  18  14  -7    2.76    0.66
  -7  14 -18    5.17    0.60
  14   7 -18    3.23    0.68
   7  18 -14    2.58    0.64
  14  18  -8    2.17    0.64
  18   8 -14    2.57    0.62
   8  14 -18    1.97    0.65
   8  18 -14    2.62    0.67
  14   8 -18    2.23    0.63
  18  14  -8    2.79    0.67
   9  14 -18    7.15    0.89
  18   9 -14    7.72    0.86
  14  18  -9    6.97    0.90
  18  14  -9    6.89    0.83
   9  18 -14    5.15    0.81
  14   9 -18    4.28    0.75
  10  14 -18   10.33    1.00
  14  18 -10    8.81    0.99
  18  10 -14    8.97    0.94
  14  10 -18    6.89    0.88
  18  14 -10    7.00    0.86
  10  18 -14    7.62    0.94
  14  18 -11    3.93    0.75
  18  11 -14    3.59    0.76
  11  14 -18    5.37    0.82
  14  11 -18    3.86    0.76
  11  18 -14    4.04    0.77
  18  14 -11    4.40    0.77
  12  14 -18    0.42    0.63
  14  18 -12    1.33    0.63
  18  12 -14    1.36    0.66
  18  14 -12    0.80    0.62
  12  18 -14    0.48    0.62
  14  12 -18    0.35    0.60
  18  13 -14   10.39    1.07
  14  18 -13   11.44    1.12
  13  14 -18   11.34    1.13
  13  18 -14   12.06    1.14
  18  14 -13   12.27    1.14
  14  13 -18   11.85    1.14
  14  14 -18   61.32    2.36
  14  18 -14   53.65    2.22
  18  14 -14   54.12    2.20
  15  18   0   16.05    1.16
  18  15   0   15.28    1.13
   0  15 -18   15.10    1.03
  18   0 -15   15.70    1.04
   0  18 -15   15.76    1.06
  15  18  -1    9.80    0.95
  -1  18 -15   10.18    0.86
  18  15   1    9.43    0.92
   1  15 -18   10.73    0.94
  18   1 -15   11.25    0.93
  15   1 -18    7.88    0.87
   1  18 -15    8.11    0.83
  -1  15 -18    9.62    0.86
  18  15  -1   10.00    0.93
  18  15   2   14.56    1.10
  15  18  -2   13.29    1.08
   2  15 -18   12.71    1.02
  -2  18 -15   12.73    0.94
  18   2 -15   14.50    1.03
  18  15  -2   11.78    0.98
  -2  15 -18    9.75    0.85
   2  18 -15   11.64    0.97
  15   2 -18   11.67    1.01
  15  18  -3    4.06    0.73
  -3  18 -15    4.16    0.61
   3  15 -18    4.57    0.71
  18   3 -15    4.42    0.69
  15   3 -18    5.10    0.74
   3  18 -15    4.40    0.72
  18  15  -3    5.39    0.77
  -3  15 -18    4.36    0.63
  -4  18 -15   32.61    1.35
  15  18  -4   32.55    1.59
  18   4 -15   31.37    1.50
   4  15 -18   35.75    1.57
   4  18 -15   31.75    1.49
  18  15  -4   32.25    1.53
  -4  15 -18   32.45    1.39
  15   4 -18   32.53    1.55
   5  15 -18   11.11    1.00
  18   5 -15    9.99    0.93
  15  18  -5    9.83    0.98
  -5  18 -15   10.15    0.82
  18  15  -5    9.87    0.95
   5  18 -15    9.47    0.93
  15   5 -18    9.30    0.95
  -5  15 -18   11.40    0.88
  15  18  -6   10.97    1.00
  -6  18 -15   10.91    0.82
  18   6 -15   11.04    0.97
   6  15 -18   12.05    1.04
   6  18 -15   13.25    1.08
  18  15  -6   12.19    1.06
  -6  15 -18   13.72    0.93
  15   6 -18   11.98    1.08
  15  18  -7    4.70    0.80
   7  15 -18    3.76    0.75
  18   7 -15    4.28    0.71
  18  15  -7    6.32    0.83
  15   7 -18    5.17    0.81
   7  18 -15    5.13    0.80
  -7  15 -18    6.56    1.05
   8  15 -18    4.51    0.77
  18   8 -15    4.63    0.75
  15  18  -8    4.17    0.77
  18  15  -8    2.07    0.65
   8  18 -15    2.19    0.64
  15   8 -18    3.05    0.70
   9  15 -18   33.21    1.65
  18   9 -15   34.10    1.61
  15  18  -9   33.39    1.66
   9  18 -15   35.47    1.69
  15   9 -18   33.57    1.66
  18  15  -9   36.28    1.67
  15  18 -10   10.83    1.05
  18  10 -15    8.83    0.97
  10  15 -18    9.29    0.99
  15  10 -18   10.87    1.05
  18  15 -10   11.25    1.06
  10  18 -15   10.42    1.05
  11  15 -18    6.40    0.91
  15  18 -11    7.71    0.96
  18  11 -15    8.93    0.99
  15  11 -18    9.58    1.05
  18  15 -11    9.64    1.05
  11  18 -15    8.73    0.98
  15  18 -12   17.10    1.33
  18  12 -15   16.28    1.28
  12  15 -18   19.02    1.36
  15  12 -18   16.74    1.33
  18  15 -12   16.98    1.31
  12  18 -15   20.72    1.41
  15  18 -13    9.40    1.08
  13  15 -18    9.00    1.06
  18  13 -15    9.19    1.04
  13  18 -15    7.68    1.02
  18  15 -13    7.38    0.99
  15  13 -18    9.12    1.04
  18  14 -15   -0.22    0.59
  15  18 -14    0.03    0.63
  14  15 -18   -0.11    0.60
  14  18 -15    0.07    0.66
  18  15 -14    0.35    0.63
  15  14 -18    0.24    0.63
  15  15 -18   13.42    1.23
  18  15 -15   12.72    1.21
  15  18 -15   12.44    1.22
   0  18 -16    9.48    0.88
  16  18   0   10.39    1.00
  18   0 -16   10.47    0.94
   0  16 -18    9.88    0.91
  18  16   0   10.76    0.98
   1  16 -18   57.33    2.01
  18   1 -16   54.02    1.98
  16  18  -1   59.50    2.14
  -1  18 -16   53.23    1.93
  18  16   1   55.02    2.06
   1  18 -16   55.50    2.00
  -1  16 -18   53.50    1.94
  16  18   1   55.17    2.10
  18  16  -1   53.37    2.05
  16   1 -18   59.64    2.12
  -2  18 -16    0.64    0.47
   2  16 -18    0.52    0.52
  18   2 -16    0.36    0.51
  18  16   2   -1.04    0.46
  16  18  -2    0.41    0.55
  18  16  -2    0.68    0.56
   2  18 -16   -0.15    0.46
  -2  16 -18    0.76    0.50
  16   2 -18    0.88    0.56
   3  16 -18   24.24    1.31
  -3  18 -16   22.46    1.17
  16  18  -3   18.63    1.29
  18   3 -16   20.83    1.28
  -3  16 -18   22.96    1.21
  16   3 -18   21.93    1.30
  18  16  -3   21.76    1.31
   3  18 -16   25.22    1.36
   4  16 -18    4.44    0.74
  -4  18 -16    4.42    0.64
  18   4 -16    3.74    0.70
  16  18  -4    4.09    0.74
   4  18 -16    2.86    0.65
  16   4 -18    2.68    0.68
  18  16  -4    2.99    0.67
  -4  16 -18    2.59    0.57
  -5  18 -16   13.20    0.95
  16  18  -5   13.94    1.14
  18   5 -16   13.98    1.12
   5  16 -18   13.09    1.08
  -5  16 -18   12.33    0.92
   5  18 -16   10.71    1.02
  16   5 -18   10.22    1.00
  18  16  -5   13.48    1.09
  18   6 -16    4.45    0.73
   6  16 -18    3.10    0.69
  16  18  -6    4.57    0.79
  16   6 -18    6.58    0.86
  -6  16 -18    4.53    0.64
   6  18 -16    5.41    0.82
  18  16  -6    4.73    0.78
  18   7 -16    5.80    0.81
  16  18  -7    4.85    0.83
   7  16 -18    6.62    0.87
  16   7 -18    5.88    0.86
  18  16  -7    5.47    0.83
   7  18 -16    6.04    0.86
  18   8 -16    0.13    0.56
  16  18  -8    0.13    0.56
   8  16 -18    0.29    0.58
   8  18 -16    0.80    0.61
  18  16  -8    1.21    0.62
  16   8 -18    0.77    0.60
  18   9 -16    4.72    0.79
   9  16 -18    6.42    0.90
  16  18  -9    5.07    0.86
   9  18 -16    5.96    0.84
  16   9 -18    6.62    0.89
  18  16  -9    5.27    0.83
  18  10 -16   -0.58    0.58
  16  18 -10   -0.03    0.57
  10  16 -18    0.76    0.64
  18  16 -10    0.59    0.59
  10  18 -16    0.98    0.61
  16  10 -18    1.01    0.63
  11  16 -18    1.51    0.68
  18  11 -16    1.22    0.66
  16  18 -11    0.57    0.62
  16  11 -18    0.87    0.65
  11  18 -16   -0.04    0.58
  18  16 -11    0.49    0.66
  18  12 -16    0.81    0.63
  12  16 -18    0.32    0.65
  16  18 -12    0.03    0.63
  18  16 -12   -0.27    0.58
  12  18 -16    0.60    0.65
  16  12 -18   -0.15    0.61
  18  13 -16    2.56    0.73
  13  16 -18    0.60    0.66
  16  18 -13    1.29    0.71
  13  18 -16    1.38    0.71
  18  16 -13   -0.72    0.60
  16  13 -18    2.18    0.75
  14  16 -18    0.81    0.73
  16  18 -14    0.02    0.65
  18  14 -16    0.89    0.71
  18  16 -14    0.61    0.65
  14  18 -16    0.65    0.69
  16  14 -18    0.22    0.62
  18  15 -16    0.94    0.70
  15  16 -18    1.09    0.75
  16  18 -15    1.82    0.77
  18  16 -15    2.95    0.83
  15  18 -16    1.55    0.77
  16  15 -18    2.33    0.78
  16  16 -18    6.41    1.00
  16  18 -16    5.42    0.96
  18  16 -16    4.91    0.96
   0  18 -17    7.47    0.81
  18  17   0    6.25    0.84
  17  18   0    5.61    0.82
   0  17 -18    6.32    0.80
  -1  18 -17    1.08    0.52
  18   1 -17    1.02    0.56
   1  17 -18    1.77    0.56
  18  17   1    1.27    0.61
  17  18  -1    1.02    0.61
   1  18 -17    2.21    0.60
  17   1 -18    1.08    0.58
  17  18   1    1.09    0.61
  -1  17 -18    2.10    0.58
  18  17  -1    1.01    0.60
  17  18  -2    2.18    0.66
  -2  18 -17    2.86    0.61
  18  17   2    1.42    0.63
  18   2 -17    2.77    0.62
   2  17 -18    2.31    0.63
  18  17  -2    2.83    0.70
  17   2 -18    4.12    0.73
  -2  17 -18    4.39    0.66
   2  18 -17    3.62    0.67
  18   3 -17    0.60    0.55
  -3  18 -17    0.32    0.45
  17  18  -3    0.17    0.54
   3  17 -18    0.35    0.54
  -3  17 -18    0.26    0.46
   3  18 -17    1.01    0.57
  17   3 -18    0.39    0.55
  18  17  -3    0.57    0.57
  18   4 -17    6.53    0.83
  17  18  -4    6.74    0.87
  -4  18 -17    7.87    0.77
   4  17 -18    5.41    0.81
  17   4 -18    5.98    0.84
  18  17  -4    5.33    0.81
  -4  17 -18    6.79    0.76
   4  18 -17    6.66    0.84
   5  17 -18   31.08    1.54
  18   5 -17   29.14    1.53
  -5  18 -17   29.81    1.33
  17  18  -5   27.83    1.54
  18  17  -5   29.16    1.55
   5  18 -17   32.19    1.57
  17   5 -18   32.97    1.58
  -5  17 -18   29.51    1.35
  18   6 -17   31.11    1.57
   6  17 -18   29.98    1.57
  17  18  -6   31.46    1.62
  18  17  -6   30.54    1.63
   6  18 -17   31.06    1.60
  17   6 -18   29.81    1.56
   7  17 -18    2.15    0.66
  17  18  -7    2.34    0.69
  18   7 -17    2.17    0.69
  17   7 -18    0.95    0.62
   7  18 -17    2.42    0.68
  18  17  -7    1.16    0.62
  18   8 -17   13.24    1.15
   8  17 -18   10.16    1.06
  17  18  -8   12.21    1.15
  17   8 -18   12.30    1.10
   8  18 -17   13.14    1.13
  18  17  -8   11.23    1.10
   9  17 -18   35.34    1.74
  17  18  -9   32.58    1.70
  18   9 -17   34.46    1.68
  17   9 -18   33.28    1.70
  18  17  -9   36.87    1.76
   9  18 -17   34.38    1.74
  10  17 -18   16.40    1.30
  17  18 -10   17.71    1.35
  18  10 -17   16.27    1.28
  17  10 -18   16.28    1.33
  10  18 -17   17.60    1.33
  18  17 -10   16.25    1.29
  11  17 -18    0.38    0.67
  18  11 -17    0.75    0.65
  17  18 -11    1.44    0.70
  18  17 -11    1.37    0.67
  17  11 -18    1.05    0.65
  11  18 -17    1.29    0.71
  17  18 -12    8.55    1.04
  18  12 -17    7.42    0.97
  12  17 -18    8.84    1.06
  17  12 -18    8.20    1.01
  18  17 -12    7.23    0.97
  12  18 -17    7.22    1.00
  18  13 -17   13.40    1.24
  13  17 -18   10.91    1.17
  17  18 -13   11.52    1.19
  13  18 -17   11.10    1.17
  18  17 -13   12.42    1.22
  17  13 -18   13.18    1.25
  18  14 -17    2.89    0.80
  17  18 -14    2.11    0.77
  14  17 -18    2.62    0.82
  14  18 -17    5.71    0.95
  18  17 -14    4.17    0.91
  17  14 -18    3.95    0.89
  17  18 -15    3.21    0.89
  18  15 -17    1.63    0.78
  15  17 -18    2.30    0.78
  18  17 -15    2.87    0.83
  15  18 -17    2.52    0.81
  17  15 -18    1.61    0.77
  16  17 -18   10.84    1.22
  17  18 -16    9.32    1.16
  18  16 -17    9.61    1.16
  16  18 -17    6.97    1.07
  17  16 -18    7.36    1.06
  18  17 -16    8.70    1.14
  17  17 -18   -1.08    0.69
  17  18 -17   -0.05    0.76
  18  17 -17    0.27    0.71
   0  18 -18    1.86    0.59
  18  18   0    3.25    0.72
  -1  18 -18    1.21    0.54
   1  18 -18    0.94    0.54
  18   1 -18    0.98    0.60
  18  18  -1    1.12    0.59
  18  18   1    0.27    0.56
  -2  18 -18    0.26    0.49
   2  18 -18    0.95    0.56
  18   2 -18   -0.47    0.47
  18  18  -2   -0.30    0.52
  18  18   2    0.74    0.58
  -3  18 -18    3.41    0.64
   3  18 -18    4.01    0.74
  18   3 -18    2.61    0.71
  18  18  -3    3.13    0.72
  -4  18 -18   13.75    1.02
   4  18 -18   11.33    1.05
  18   4 -18   15.27    1.17
  18  18  -4   10.44    1.06
  -5  18 -18    0.38    0.48
   5  18 -18    0.31    0.59
  18   5 -18    0.39    0.55
  18  18  -5    0.50    0.59
   6  18 -18    0.83    0.61
  18   6 -18    1.48    0.68
  18  18  -6    0.27    0.60
   7  18 -18    5.23    0.87
  18   7 -18    4.84    0.84
  18  18  -7    6.45    0.91
   8  18 -18    1.68    0.68
  18   8 -18    1.45    0.67
  18  18  -8    2.00    0.71
   9  18 -18    9.74    1.08
  18   9 -18    6.99    0.96
  18  18  -9    8.80    1.00
  10  18 -18   17.82    1.36
  18  10 -18   18.46    1.37
  18  18 -10   17.58    1.37
  11  18 -18   11.27    1.16
  18  11 -18   11.49    1.16
  18  18 -11   10.67    1.14
  12  18 -18   -0.10    0.64
  18  12 -18    0.16    0.68
  18  18 -12   -0.17    0.65
  13  18 -18   -0.27    0.66
  18  13 -18   -0.24    0.65
  18  18 -13   -0.17    0.68
  14  18 -18   31.67    1.84
  18  14 -18   35.46    1.88
  18  18 -14   34.02    1.89
  15  18 -18    7.57    1.09
  18  15 -18    8.01    1.10
  18  18 -15    9.25    1.16
  16  18 -18    0.21    0.74
  18  16 -18    0.84    0.78
  18  18 -16   -0.34    0.69
  17  18 -18    1.03    0.78
  18  17 -18    2.67    0.85
  18  18 -17    0.48    0.76
  18  18 -18    9.43    1.21
  19   0   0    0.30    0.21
  19   0  -1    5.51    0.42
  19   0   1    6.02    0.43
  19   1   0    6.56    0.47
  19   1   1    8.85    0.52
  19   1  -1    8.61    0.54
  19  -1  -1    8.47    0.54
  19   0  -2   44.28    1.26
  19   2   0   41.98    1.27
  19   2   1    1.39    0.30
  19   1  -2    2.47    0.35
  19   1   2    1.56    0.28
  19   2  -1    2.05    0.33
  19  -1  -2    1.63    0.28
  19   2  -2    4.21    0.44
  19   2   2    4.56    0.42
   0  19  -3   42.80    1.54
  19   0  -3   43.84    1.27
  19   3   0   43.10    1.32
  19   3   1   43.82    1.33
  -1  19  -3   45.35    1.55
  19   1  -3   43.59    1.32
  19   3  -1   39.05    1.23
  19  -1  -3   36.62    1.13
  19   1   3   38.11    1.11
   1  19  -3   37.08    1.42
  19   2  -3   10.95    0.65
  19   3   2   11.32    0.63
  -2  19  -3   12.26    0.82
  19   3  -2   12.24    0.69
  19  -2  -3   12.66    0.61
   2  19  -3   12.14    0.87
  19   2   3   13.07    0.62
  19   3   3   24.48    0.93
  19   3  -3   24.37    0.98
   3  19  -3   26.73    1.21
  -3  19  -3   25.55    1.09
  19   4   0    0.19    0.28
   0  19  -4   -0.26    0.36
  19   0  -4    0.28    0.26
  19   1  -4   14.49    0.72
  19   4   1   15.09    0.75
  -1  19  -4   13.48    0.84
   1  19  -4   15.12    0.90
  19  -1  -4   13.12    0.65
  19   4  -1   13.46    0.74
  19   2  -4   69.30    1.90
  19   4   2   68.06    1.87
  -2  19  -4   68.84    2.03
  19   2   4   64.09    1.67
   2  19  -4   60.23    1.97
  19   4  -2   63.59    1.79
  19  -2  -4   61.82    1.65
   4  19  -3   11.24    0.87
  19   4   3   12.62    0.70
  19   3  -4   13.23    0.74
   3   4 -19   11.62    0.90
  -3  19  -4   13.20    0.78
  -4  19  -3   16.48    0.86
  19   4  -3   15.58    0.81
   3  19  -4   13.46    0.93
  19   3   4   14.79    0.72
   4  19  -4   11.18    0.87
  19   4  -4   11.88    0.72
  -4  19  -4   12.60    0.77
   4   4 -19   11.15    0.91
  19   4   4    9.19    0.63
   0  19  -5    2.63    0.49
  19   5   0    2.93    0.42
  19   0  -5    3.72    0.43
  19   1  -5   16.78    0.79
  -1  19  -5   18.19    0.96
  19   5   1   16.58    0.83
   1  19  -5   11.95    0.84
  19  -1  -5   13.10    0.67
  19   5  -1   13.49    0.76
   2   5 -19    8.94    0.81
  -2  19  -5   10.57    0.77
  19   5   2    9.48    0.67
  19   2  -5   10.86    0.68
  19   2   5   10.24    0.58
  19  -2  -5   10.31    0.60
  19   5  -2   10.86    0.72
   2  19  -5    9.71    0.82
  -3  19  -5   16.48    0.88
   3   5 -19   16.40    1.04
  19   3  -5   14.48    0.79
   5  19  -3   15.87    1.01
  19   5   3   16.52    0.80
  19   3   5   13.82    0.70
  19   5  -3   15.10    0.81
  -5  19  -3   15.23    0.80
   5   3 -19   12.57    1.01
   3  19  -5   15.16    0.96
  19  -3  -5   13.83    0.66
   5  19  -4   10.16    0.87
  19   4  -5   10.41    0.72
  -4  19  -5   11.35    0.74
   4   5 -19   10.39    0.89
  19   5   4   10.32    0.66
  19   5  -4    9.63    0.70
   4  19  -5    9.99    0.86
  -5  19  -4   10.30    0.72
   5   4 -19    9.48    0.84
   5  19  -5   17.70    1.06
   5   5 -19   19.06    1.13
  19   5  -5   17.11    0.90
  -5  19  -5   16.91    0.85
  19   6   0   13.88    0.78
  19   0  -6   11.95    0.70
   0   6 -19   11.70    0.90
   0  19  -6   12.52    0.84
   1   6 -19   18.31    1.06
  19   1  -6   19.06    0.87
  19   6   1   19.15    0.91
  -1  19  -6   17.04    0.93
  19  -1  -6   20.41    0.87
   1  19  -6   19.06    1.04
  19   6  -1   20.54    0.94
  19   6   2    9.29    0.68
  19   2  -6    9.07    0.66
   2   6 -19    9.31    0.85
  -2  19  -6    9.55    0.73
  19   6  -2    7.85    0.65
  19  -2  -6    7.33    0.54
   2  19  -6    6.79    0.69
  -3  19  -6    7.73    0.66
  19   6   3    9.25    0.68
   3   6 -19   10.74    0.92
  19   3  -6    8.72    0.67
   6  19  -3    9.20    0.84
   6   3 -19    8.84    0.85
   3  19  -6    8.25    0.78
  19   6  -3    8.17    0.67
  -6  19  -3    8.30    0.64
  19  -3  -6    7.70    0.55
  -4  19  -6  125.54    3.09
   4   6 -19  117.09    3.30
   6  19  -4  118.34    3.29
  19   6   4  120.37    3.04
  19   4  -6  119.25    3.07
  19   6  -4  107.53    2.85
  -6  19  -4  104.81    2.74
   6   4 -19  108.52    3.08
   4  19  -6  112.85    3.04
   6  19  -5    7.74    0.79
  -5  19  -6    8.89    0.66
  19   5  -6    8.12    0.69
   5   6 -19    9.91    0.89
   5  19  -6    9.60    0.85
  -6  19  -5    9.83    0.68
  19   6  -5    8.51    0.71
   6   5 -19    8.06    0.84
   6  19  -6    1.31    0.50
  19   6  -6    3.05    0.50
  -6  19  -6    2.40    0.41
   6   6 -19    1.91    0.54
   0   7 -19    1.56    0.47
  19   0  -7    1.79    0.38
   0  19  -7    1.22    0.43
  19   7   0    0.72    0.38
  19   7   1   16.66    0.90
   1   7 -19   19.01    1.08
  -1  19  -7   16.68    0.92
  19   1  -7   17.28    0.85
  19   7  -1   17.69    0.92
  19  -1  -7   18.62    0.85
  -1   7 -19   19.36    1.06
   1  19  -7   18.26    1.00
  19   2  -7   24.44    1.04
  -2  19  -7   27.12    1.11
  19   7   2   25.07    1.07
   2   7 -19   23.95    1.22
  -7  19  -2   25.14    1.00
  19  -2  -7   25.45    0.97
  19   7  -2   25.63    1.10
   2  19  -7   22.17    1.13
  19   3  -7   21.98    0.99
  19   7   3   21.35    0.99
   3   7 -19   21.12    1.17
  -3  19  -7   21.53    1.01
   7  19  -3   20.19    1.17
   7   3 -19   18.21    1.07
   3  19  -7   18.27    1.04
  19   7  -3   17.64    0.94
  -7  19  -3   16.75    0.82
   4   7 -19    3.52    0.61
   7  19  -4    4.23    0.65
  -4  19  -7    4.07    0.51
  19   4  -7    4.08    0.53
  -7  19  -4    6.93    0.57
  19   7  -4    7.04    0.69
   7   4 -19    7.44    0.81
   4  19  -7    6.20    0.71
  -5  19  -7   14.71    0.81
   7  19  -5   15.71    1.06
   5   7 -19   15.42    1.06
  19   5  -7   14.99    0.91
   7   5 -19   15.28    1.06
   5  19  -7   16.08    1.08
  19   7  -5   15.80    0.94
  -7  19  -5   15.99    0.79
   7  19  -6    3.14    0.60
   6   7 -19    2.94    0.63
  19   6  -7    3.07    0.51
  -6  19  -7    2.55    0.44
   7   6 -19    3.97    0.69
   6  19  -7    3.98    0.66
  -7  19  -6    3.69    0.46
  19   7  -6    4.12    0.56
  -7  19  -7    5.89    0.54
   7  19  -7    6.00    0.72
   7   7 -19    4.90    0.70
  19   7  -7    6.08    0.67
  19   8   0    2.42    0.47
   0  19  -8    2.32    0.50
  19   0  -8    1.66    0.39
   0   8 -19    1.68    0.51
  -1  19  -8   64.79    2.01
   1   8 -19   66.54    2.13
  19   8   1   67.77    2.00
  19   1  -8   61.97    1.88
  -1   8 -19   68.92    2.18
  19   8  -1   69.38    2.06
  19  -1  -8   68.29    1.95
   1  19  -8   68.99    2.14
   2   8 -19    2.82    0.57
  19   2  -8    1.94    0.42
  -2  19  -8    2.65    0.48
  19   8   2    2.40    0.47
  19  -2  -8    1.89    0.40
   8   2 -19    1.59    0.57
  -8  19  -2    1.16    0.34
   2  19  -8    1.38    0.47
  -2   8 -19    1.85    0.50
  19   8  -2    1.23    0.41
  19   3  -8   59.05    1.85
  19   8   3   60.48    1.87
   8  19  -3   60.40    2.08
  -3  19  -8   61.56    1.86
   3   8 -19   61.34    2.07
   8   3 -19   50.32    1.88
  -8  19  -3   51.17    1.53
  19   8  -3   50.63    1.69
   3  19  -8   52.93    1.81
   8  19  -4    3.70    0.63
  -4  19  -8    3.90    0.50
  19   4  -8    3.83    0.55
   4   8 -19    2.79    0.59
   4  19  -8    2.84    0.58
  -8  19  -4    4.28    0.46
  19   8  -4    3.15    0.53
   8   4 -19    3.08    0.63
   8  19  -5    6.16    0.77
   5   8 -19    4.92    0.70
  19   5  -8    7.90    0.71
  -5  19  -8    8.14    0.66
  -8  19  -5    6.66    0.54
  19   8  -5    5.00    0.62
   8   5 -19    6.39    0.79
   5  19  -8    6.78    0.76
   6   8 -19    3.06    0.64
  -6  19  -8    4.80    0.52
  19   6  -8    3.69    0.57
   8  19  -6    4.33    0.69
  -8  19  -6    2.46    0.64
   8   6 -19    1.95    0.58
   6  19  -8    3.38    0.63
  19   8  -6    2.86    0.54
   8  19  -7   44.91    1.72
   7   8 -19   46.70    1.79
  -7  19  -8   42.50    1.40
  19   7  -8   43.64    1.62
  19   8  -7   43.69    1.63
   7  19  -8   46.68    1.76
   8   7 -19   43.37    1.75
  19   8  -8    1.84    0.52
   8   8 -19    2.71    0.64
   8  19  -8    2.29    0.61
   0  19  -9    0.86    0.43
   0   9 -19    0.55    0.43
  19   9   0    0.21    0.39
  19   0  -9    0.57    0.36
  19   1  -9   14.21    0.83
  -1  19  -9   13.39    0.87
  19   9   1   13.68    0.89
   1   9 -19   14.11    0.99
  19  -1  -9   11.71    0.78
  -1   9 -19   11.78    0.90
  19   9  -1   10.97    0.84
   1  19  -9   12.90    0.92
  19   9   2   62.26    1.97
  19   2  -9   66.63    1.95
  -2  19  -9   62.66    1.95
   2   9 -19   61.24    2.09
   9  19  -2   62.18    2.15
  19   9  -2   65.01    2.03
   2  19  -9   63.89    2.06
  -2   9 -19   63.93    2.06
   9   2 -19   65.97    2.22
  19  -2  -9   64.87    1.90
  -3  19  -9   15.41    0.89
   9  19  -3   15.30    1.07
   3   9 -19   15.66    1.06
  19   3  -9   16.41    0.93
  19   9   3   14.94    0.89
   3  19  -9   17.54    1.08
   9   3 -19   18.91    1.11
  -3   9 -19   17.00    1.02
  19   9  -3   16.42    0.98
   4   9 -19    2.56    0.57
  -4  19  -9    2.54    0.48
  19   4  -9    2.64    0.49
   9  19  -4    2.25    0.57
   4  19  -9    2.00    0.55
   9   4 -19    1.92    0.58
  19   9  -4    1.69    0.48
   5   9 -19   35.46    1.55
  -5  19  -9   36.28    1.33
   9  19  -5   39.89    1.63
  19   5  -9   38.03    1.43
   9   5 -19   39.10    1.63
   5  19  -9   35.22    1.52
  19   9  -5   38.40    1.46
   6   9 -19   10.44    0.92
  -6  19  -9    9.20    0.69
   9  19  -6    9.20    0.88
  19   6  -9    9.74    0.81
   6  19  -9    7.13    0.79
  19   9  -6    8.70    0.79
   9   6 -19    7.01    0.81
  19   7  -9    5.87    0.68
  -7  19  -9    5.14    0.54
   7   9 -19    6.92    0.82
   9  19  -7    4.81    0.74
   7  19  -9    7.03    0.80
   9   7 -19    5.03    0.72
  19   9  -7    5.65    0.68
   9  19  -8   28.40    1.42
   8   9 -19   26.81    1.35
  19   8  -9   25.60    1.26
   8  19  -9   24.52    1.32
  19   9  -8   24.38    1.23
   9   8 -19   26.51    1.37
   9   9 -19    6.21    0.81
   9  19  -9    6.26    0.80
  19   9  -9    6.29    0.73
   0  19 -10   -0.10    0.37
  19   0 -10    0.38    0.35
   0  10 -19   -0.30    0.42
  19  10   0    0.04    0.39
  19  10   1   15.66    0.95
  19   1 -10   16.28    0.92
  -1  19 -10   15.25    0.96
   1  10 -19   15.56    1.03
   1  19 -10   18.45    1.06
  -1  10 -19   17.70    1.05
  19  10  -1   16.36    0.97
  19  -1 -10   17.94    0.94
  -2  19 -10    2.85    0.52
  19   2 -10    4.63    0.59
  10  19  -2    4.93    0.72
  19  10   2    4.77    0.63
   2  10 -19    5.31    0.71
  19  10  -2    4.13    0.61
   2  19 -10    5.11    0.68
  10   2 -19    5.31    0.72
  -2  10 -19    4.84    0.66
  19  -2 -10    6.08    0.59
  -3  19 -10    6.77    0.66
  19   3 -10    6.84    0.68
  10  19  -3    4.75    0.72
   3  10 -19    6.37    0.75
  19  10   3    6.22    0.67
  -3  10 -19    7.15    0.73
  10   3 -19    7.80    0.87
  19  10  -3    8.47    0.78
   3  19 -10    8.39    0.82
  -4  19 -10   12.65    0.82
  10  19  -4   10.77    0.97
  19   4 -10   12.28    0.90
   4  10 -19   12.29    1.01
  19  10  -4   10.47    0.86
  10   4 -19   10.99    0.98
  -4  10 -19   11.41    0.88
   4  19 -10   12.64    0.97
  19   5 -10   22.17    1.11
  10  19  -5   21.94    1.27
   5  10 -19   20.95    1.22
  -5  19 -10   21.89    1.00
  10   5 -19   21.04    1.25
   5  19 -10   22.81    1.23
  19  10  -5   22.71    1.19
  19   6 -10    7.95    0.78
  10  19  -6    7.35    0.84
   6  10 -19    8.92    0.90
  -6  19 -10    8.98    0.68
   6  19 -10    9.59    0.88
  19  10  -6    9.53    0.85
  10   6 -19    8.31    0.87
   7  10 -19    8.51    0.90
  19   7 -10    8.34    0.81
  -7  19 -10    8.85    0.97
  10  19  -7    7.31    0.85
  10   7 -19    8.64    0.90
   7  19 -10    8.46    0.85
  19  10  -7    9.08    0.84
  19   8 -10    5.48    0.72
  10  19  -8    5.54    0.76
   8  10 -19    5.18    0.75
   8  19 -10    7.67    0.85
  19  10  -8    8.27    0.83
  10   8 -19    8.37    0.88
  10  19  -9    7.46    0.86
   9  10 -19    5.75    0.82
  19   9 -10    7.02    0.80
  10   9 -19    4.86    0.75
   9  19 -10    2.76    0.66
  19  10  -9    3.71    0.65
  19  10 -10   39.52    1.68
  10  10 -19   40.10    1.76
  10  19 -10   41.03    1.76
   0  19 -11   18.35    1.03
   0  11 -19   19.00    1.13
  19  11   0   17.57    1.03
  19   0 -11   18.03    0.99
  19  11   1   11.05    0.89
  19   1 -11   11.62    0.85
   1  11 -19    9.66    0.88
  -1  19 -11   10.30    0.82
  -1  11 -19   14.97    1.03
  19  11  -1   15.74    1.02
   1  19 -11   14.20    0.95
  19  -1 -11   14.74    0.90
  19   2 -11   32.59    1.33
  11  19  -2   31.53    1.50
  -2  19 -11   32.18    1.32
   2  11 -19   35.17    1.48
  19  11   2   29.69    1.33
  11   2 -19   37.90    1.63
  19  11  -2   39.11    1.54
  -2  11 -19   36.94    1.49
  19  -2 -11   37.67    1.39
   2  19 -11   37.05    1.51
  -3  19 -11   27.33    1.17
  19   3 -11   25.79    1.21
  11  19  -3   23.62    1.28
   3  11 -19   25.57    1.32
  19  11  -3   28.89    1.31
   3  19 -11   27.83    1.34
  11   3 -19   32.42    1.50
  -3  11 -19   30.94    1.35
  -4  19 -11    5.79    0.62
  19   4 -11    5.33    0.66
   4  11 -19    4.60    0.73
  11  19  -4    5.70    0.79
  19  11  -4    6.96    0.75
  11   4 -19    5.39    0.75
  -4  11 -19    5.27    0.65
   4  19 -11    5.72    0.71
  -5  19 -11    8.37    0.70
  11  19  -5    9.23    0.90
  19   5 -11    8.22    0.78
   5  11 -19    8.50    0.87
   5  19 -11    7.32    0.80
  11   5 -19    6.68    0.84
  19  11  -5    6.04    0.71
  -5  11 -19    6.44    0.68
  11  19  -6    2.45    0.64
  19   6 -11    1.84    0.53
  -6  19 -11    2.80    0.48
   6  11 -19    3.01    0.65
  11   6 -19    1.57    0.58
   6  19 -11    1.87    0.58
  19  11  -6    1.39    0.53
   7  11 -19    8.49    0.91
  11  19  -7    9.42    0.96
  19   7 -11    9.99    0.87
  19  11  -7    7.25    0.79
  11   7 -19    6.47    0.81
   7  19 -11    7.87    0.88
  11  19  -8    1.02    0.59
   8  11 -19    2.15    0.60
  19   8 -11    1.42    0.53
   8  19 -11    1.40    0.58
  19  11  -8    0.67    0.51
  11   8 -19    1.39    0.59
   9  11 -19   30.07    1.50
  11  19  -9   29.16    1.50
  19   9 -11   27.64    1.41
  11   9 -19   31.84    1.56
   9  19 -11   30.90    1.53
  19  11  -9   31.67    1.47
  10  11 -19   24.38    1.41
  19  10 -11   25.76    1.38
  11  19 -10   24.29    1.41
  19  11 -10   21.24    1.26
  11  10 -19   23.55    1.39
  10  19 -11   23.18    1.37
  19  11 -11    1.45    0.60
  11  11 -19    0.74    0.58
  11  19 -11    1.10    0.62
  19   0 -12    7.53    0.72
  19  12   0    5.25    0.68
   0  19 -12    5.74    0.68
   0  12 -19    5.39    0.70
  12  19  -1   43.77    1.76
  19  12   1   42.63    1.64
   1  12 -19   39.81    1.63
  19   1 -12   38.94    1.52
  -1  19 -12   40.34    1.56
  19  12  -1   47.69    1.75
  -1  12 -19   47.17    1.76
   1  19 -12   47.54    1.75
  19  -1 -12   46.29    1.64
  -2  19 -12    5.31    0.64
  12  19  -2    3.67    0.70
   2  12 -19    5.04    0.72
  19  12   2    3.64    0.62
  19   2 -12    4.38    0.62
  -2  12 -19    3.68    0.62
  12   2 -19    3.34    0.63
   2  19 -12    4.26    0.66
  19  12  -2    4.70    0.67
  12  19  -3   58.48    2.10
  19   3 -12   53.46    1.89
   3  12 -19   62.57    2.07
  -3  19 -12   53.10    1.81
  19  12  -3   57.32    2.03
   3  19 -12   64.85    2.10
  -3  12 -19   60.61    2.00
  12   3 -19   63.18    2.20
  12  19  -4    8.46    0.94
  -4  19 -12    9.57    0.77
   4  12 -19    9.07    0.90
  19   4 -12    7.58    0.76
  19  12  -4    8.45    0.82
  -4  12 -19    7.78    0.76
   4  19 -12    7.62    0.82
  12   4 -19    7.03    0.86
   5  12 -19   10.71    0.97
  19   5 -12   11.34    0.93
  12  19  -5   11.99    1.04
  -5  19 -12   12.84    0.85
  19  12  -5    9.75    0.89
   5  19 -12   11.32    0.97
  12   5 -19   10.96    0.98
  -5  12 -19   10.96    0.85
   6  12 -19    5.55    0.77
  12  19  -6    5.24    0.77
  19   6 -12    6.73    0.76
  -6  19 -12    6.55    0.63
   6  19 -12    5.20    0.76
  19  12  -6    4.96    0.72
  12   6 -19    6.52    0.86
  12  19  -7   39.34    1.72
  19   7 -12   39.11    1.60
   7  12 -19   37.88    1.69
  12   7 -19   41.32    1.80
  19  12  -7   44.55    1.76
   7  19 -12   43.50    1.79
  12  19  -8   20.22    1.30
  19   8 -12   18.84    1.17
   8  12 -19   20.07    1.27
   8  19 -12   20.03    1.29
  19  12  -8   22.95    1.28
  12   8 -19   21.69    1.33
   9  12 -19    6.71    0.86
  12  19  -9    9.19    0.95
  19   9 -12    9.29    0.91
  12   9 -19    6.06    0.85
   9  19 -12    6.20    0.84
  19  12  -9    6.62    0.81
  12  19 -10    3.45    0.74
  10  12 -19    3.71    0.72
  19  10 -12    3.59    0.69
  12  10 -19    4.01    0.75
  19  12 -10    3.66    0.69
  10  19 -12    3.67    0.72
  11  12 -19   19.21    1.34
  19  11 -12   20.17    1.28
  12  19 -11   23.47    1.41
  19  12 -11   18.83    1.26
  11  19 -12   20.28    1.33
  12  11 -19   22.92    1.39
  12  19 -12   18.13    1.30
  12  12 -19   15.24    1.26
  19  12 -12   15.38    1.19
  19  13   0   14.53    1.06
   0  19 -13   12.31    0.95
   0  13 -19   11.77    0.94
  19   0 -13   11.53    0.91
   1  13 -19   17.00    1.10
  13  19  -1   16.44    1.18
  19   1 -13   17.60    1.06
  19  13   1   18.39    1.16
  -1  19 -13   16.22    1.03
  -1  13 -19   15.86    1.07
  19  13  -1   15.02    1.07
  19  -1 -13   14.51    0.96
   1  19 -13   15.65    1.02
  -2  19 -13   18.59    1.03
   2  13 -19   18.59    1.18
  19   2 -13   18.46    1.06
  13  19  -2   18.70    1.24
  19  13   2   17.54    1.12
  13   2 -19   20.80    1.24
  19  13  -2   18.43    1.14
   2  19 -13   18.61    1.13
  -2  13 -19   20.34    1.12
  19   3 -13   14.15    0.97
  -3  19 -13   14.65    0.93
   3  13 -19   12.84    1.03
  13  19  -3   11.43    1.02
   3  19 -13   14.64    1.05
  -3  13 -19   14.91    1.02
  19  13  -3   14.91    1.05
  13   3 -19   16.78    1.17
  -4  19 -13   26.80    1.22
  19   4 -13   25.63    1.31
   4  13 -19   27.05    1.38
  13  19  -4   25.82    1.42
  13   4 -19   26.30    1.41
  19  13  -4   23.75    1.28
  -4  13 -19   26.03    1.21
   4  19 -13   25.30    1.33
   5  13 -19    2.66    0.63
  -5  19 -13    2.15    0.50
  19   5 -13    2.04    0.56
  13  19  -5    2.60    0.65
   5  19 -13    2.21    0.61
  19  13  -5    2.16    0.57
  13   5 -19    2.44    0.66
  -5  13 -19    1.75    0.51
  19   6 -13    5.59    0.73
  13  19  -6    6.54    0.87
  -6  19 -13    5.81    0.64
   6  13 -19    6.29    0.81
  13   6 -19    5.30    0.81
   6  19 -13    5.01    0.76
  -6  13 -19    6.30    0.69
  19  13  -6    5.78    0.77
   7  13 -19    3.78    0.72
  19   7 -13    1.89    0.58
  13  19  -7    2.26    0.65
  13   7 -19    2.03    0.65
  19  13  -7    1.66    0.59
   7  19 -13    1.84    0.63
  19   8 -13   21.94    1.26
   8  13 -19   19.48    1.30
  13  19  -8   20.62    1.34
   8  19 -13   15.59    1.20
  19  13  -8   16.65    1.16
  13   8 -19   15.51    1.19
  19   9 -13    4.18    0.72
   9  13 -19    2.79    0.67
  13  19  -9    3.56    0.74
  19  13  -9    2.28    0.64
  13   9 -19    2.92    0.70
   9  19 -13    3.93    0.76
  10  13 -19    0.88    0.63
  13  19 -10    0.35    0.58
  19  10 -13    0.86    0.58
  13  10 -19    1.44    0.64
  19  13 -10    0.93    0.57
  10  19 -13    0.31    0.58
  19  11 -13   33.05    1.64
  13  19 -11   32.96    1.67
  11  13 -19   32.55    1.67
  11  19 -13   29.84    1.62
  19  13 -11   32.48    1.58
  13  11 -19   30.83    1.63
  12  13 -19    9.28    1.02
  19  12 -13    7.59    0.93
  13  19 -12    9.76    1.06
  12  19 -13    8.99    1.03
  13  12 -19    8.78    1.03
  19  13 -12   10.33    1.04
  13  13 -19    6.07    0.91
  19  13 -13    5.51    0.86
  13  19 -13    5.72    0.92
   0  14 -19   19.94    1.20
  14  19   0   23.17    1.34
  19   0 -14   20.68    1.16
   0  19 -14   19.16    1.12
  19  14   0   20.13    1.21
  -1  19 -14   21.67    1.18
   1  14 -19   22.20    1.24
  19  14   1   23.90    1.28
  19   1 -14   21.30    1.16
  14  19  -1   21.66    1.32
  19  14  -1   21.45    1.24
   1  19 -14   23.90    1.27
  19  -1 -14   21.61    1.14
  -1  14 -19   21.23    1.23
  19  14   2    6.17    0.76
  -2  19 -14    7.12    0.74
  19   2 -14    6.22    0.74
   2  14 -19    5.51    0.75
  14  19  -2    5.54    0.80
  19  14  -2    5.25    0.75
  -2  14 -19    4.43    0.66
   2  19 -14    4.99    0.70
  14   2 -19    5.13    0.76
  -3  19 -14    4.28    0.61
  14  19  -3    4.24    0.74
  19   3 -14    3.96    0.66
   3  14 -19    3.53    0.68
  -3  14 -19    2.86    0.58
  19  14  -3    2.67    0.65
  14   3 -19    3.15    0.70
   3  19 -14    2.94    0.63
   4  14 -19    6.80    0.81
  -4  19 -14    6.85    0.71
  14  19  -4    9.17    0.98
  19   4 -14    7.78    0.82
   4  19 -14    5.90    0.79
  -4  14 -19    5.70    0.71
  14   4 -19    6.96    0.87
  19  14  -4    7.57    0.83
  19   5 -14   38.67    1.58
  14  19  -5   33.63    1.64
   5  14 -19   33.66    1.61
  -5  19 -14   34.33    1.37
  14   5 -19   41.69    1.79
   5  19 -14   40.17    1.73
  -5  14 -19   42.55    1.60
  19  14  -5   40.59    1.74
  14  19  -6   20.40    1.32
  19   6 -14   18.82    1.18
   6  14 -19   19.89    1.29
   6  19 -14   23.56    1.35
  14   6 -19   23.95    1.39
  -6  14 -19   22.43    1.16
  19  14  -6   21.62    1.29
  19   7 -14    3.48    0.69
   7  14 -19    4.61    0.78
  14  19  -7    5.06    0.83
  19  14  -7    3.09    0.69
  14   7 -19    4.85    0.79
   7  19 -14    4.89    0.79
  19   8 -14   10.35    0.99
  14  19  -8   10.93    1.08
   8  14 -19   13.09    1.15
  19  14  -8   13.52    1.12
   8  19 -14   12.21    1.08
  14   8 -19   10.69    1.06
   9  14 -19   36.56    1.75
  19   9 -14   36.69    1.66
  14  19  -9   37.04    1.75
  14   9 -19   37.36    1.75
  19  14  -9   35.56    1.67
   9  19 -14   36.23    1.71
  10  14 -19   14.99    1.23
  14  19 -10   17.06    1.31
  19  10 -14   18.55    1.25
  19  14 -10   14.35    1.19
  10  19 -14   15.04    1.21
  14  10 -19   16.61    1.31
  19  11 -14    1.63    0.65
  11  14 -19    0.55    0.63
  14  19 -11    1.06    0.65
  19  14 -11    1.52    0.61
  14  11 -19    1.63    0.65
  11  19 -14    1.51    0.68
  19  12 -14    9.07    1.02
  14  19 -12    8.15    0.99
  12  14 -19   10.35    1.10
  14  12 -19    7.24    0.96
  19  14 -12    8.72    0.97
  12  19 -14    7.25    0.98
  14  19 -13   14.25    1.25
  13  14 -19   11.38    1.16
  19  13 -14   12.72    1.16
  19  14 -13   14.95    1.25
  14  13 -19   12.79    1.23
  13  19 -14   14.90    1.29
  14  14 -19    7.47    1.03
  14  19 -14    9.61    1.10
  19  14 -14   10.36    1.10
  19  15   0   42.51    1.78
  15  19   0   41.88    1.81
  19   0 -15   42.47    1.68
   0  15 -19   41.81    1.71
   0  19 -15   40.61    1.66
  19   1 -15    1.62    0.58
  19  15   1    0.91    0.59
  -1  19 -15    0.17    0.47
   1  15 -19    0.57    0.52
  15  19  -1   -0.04    0.50
   1  19 -15    0.95    0.52
  -1  15 -19    1.47    0.54
  19  15  -1    1.72    0.59
  19  15   2   26.90    1.39
   2  15 -19   21.53    1.28
  19   2 -15   27.80    1.37
  -2  19 -15   24.83    1.25
  15  19  -2   25.98    1.45
  19  15  -2   25.28    1.40
  -2  15 -19   25.80    1.32
   2  19 -15   27.60    1.36
  15   2 -19   25.92    1.45
  15  19  -3    9.49    0.97
  19   3 -15   10.48    0.94
  -3  19 -15   10.60    0.88
   3  15 -19   10.12    0.94
  15   3 -19   10.26    0.99
  -3  15 -19   10.57    0.90
  19  15  -3   10.94    0.98
   3  19 -15   10.21    0.96
   4  15 -19   17.28    1.18
  -4  19 -15   13.77    0.96
  19   4 -15   15.96    1.15
  15  19  -4   15.04    1.19
  15   4 -19   15.40    1.18
  -4  15 -19   16.11    1.01
   4  19 -15   14.84    1.14
  19  15  -4   15.22    1.14
  15  19  -5    3.37    0.71
  -5  19 -15    2.26    0.53
  19   5 -15    3.07    0.67
   5  15 -19    3.01    0.68
   5  19 -15    4.09    0.72
  15   5 -19    3.10    0.70
  -5  15 -19    3.87    0.63
  19  15  -5    4.34    0.75
  19   6 -15    2.52    0.62
  15  19  -6    2.30    0.66
   6  15 -19    1.70    0.63
   6  19 -15    3.62    0.72
  15   6 -19    3.23    0.74
  -6  15 -19    2.63    0.56
  19  15  -6    2.93    0.68
   7  15 -19    2.39    0.70
  15  19  -7    1.28    0.62
  19   7 -15    1.39    0.60
   7  19 -15    1.76    0.64
  15   7 -19    1.58    0.64
  19  15  -7    1.81    0.65
   8  15 -19    1.67    0.68
  15  19  -8    2.84    0.70
  19   8 -15    3.24    0.67
   8  19 -15    2.19    0.69
  15   8 -19    3.18    0.73
  19  15  -8    1.92    0.65
  19   9 -15    0.20    0.57
  15  19  -9    0.59    0.61
   9  15 -19   -0.15    0.57
  15   9 -19    0.44    0.58
  19  15  -9    0.32    0.55
   9  19 -15    0.40    0.60
  10  15 -19    1.67    0.67
  19  10 -15    0.71    0.61
  15  19 -10   -0.23    0.57
  15  10 -19   -0.07    0.57
  10  19 -15    2.48    0.73
  19  15 -10    0.41    0.61
  15  19 -11   21.84    1.43
  19  11 -15   18.23    1.32
  11  15 -19   19.59    1.44
  11  19 -15   18.34    1.39
  15  11 -19   19.67    1.38
  19  15 -11   18.57    1.35
  15  19 -12    2.98    0.77
  12  15 -19    2.98    0.79
  19  12 -15    2.36    0.71
  19  15 -12    1.31    0.66
  12  19 -15    1.90    0.73
  15  12 -19    3.33    0.82
  19  13 -15   15.08    1.27
  15  19 -13   17.30    1.40
  13  15 -19   15.62    1.33
  15  13 -19   15.61    1.34
  19  15 -13   16.42    1.34
  13  19 -15   15.25    1.29
  15  19 -14    5.79    0.94
  19  14 -15    5.06    0.91
  14  15 -19    4.87    0.91
  19  15 -14    4.42    0.88
  15  14 -19    3.15    0.82
  14  19 -15    4.10    0.88
  19  15 -15   15.79    1.34
  15  19 -15   17.53    1.45
  15  15 -19   18.97    1.47
  19   0 -16   -0.05    0.47
   0  16 -19   -0.21    0.48
   0  19 -16    0.54    0.48
  19  16   0    0.80    0.56
  16  19   0    0.42    0.60
  19  16   1    0.66    0.54
  16  19  -1    0.44    0.57
  -1  19 -16    1.48    0.52
   1  16 -19    1.66    0.57
  19   1 -16    1.02    0.52
  19  16  -1    2.31    0.64
  16  19   1    2.01    0.64
   1  19 -16    2.34    0.60
  -1  16 -19    1.33    0.53
   2  16 -19   10.38    0.96
  19   2 -16   12.15    1.04
  19  16   2   11.81    1.04
  -2  19 -16   11.73    0.94
  16  19  -2   12.37    1.11
  19  16  -2    7.94    0.91
  16   2 -19    7.93    0.91
  -2  16 -19    8.57    0.88
   2  19 -16    9.42    0.92
  -3  19 -16   23.59    1.22
  19   3 -16   24.82    1.38
  16  19  -3   27.52    1.49
   3  16 -19   22.52    1.37
  19  16  -3   27.65    1.44
   3  19 -16   24.87    1.40
  -3  16 -19   24.93    1.30
  16   3 -19   25.73    1.43
  16  19  -4    5.11    0.82
  -4  19 -16    4.77    0.65
  19   4 -16    5.95    0.80
   4  16 -19    6.41    0.86
  16   4 -19    4.63    0.79
  -4  16 -19    4.21    0.67
  19  16  -4    3.95    0.73
   4  19 -16    3.20    0.71
   5  16 -19    2.25    0.65
  19   5 -16    2.48    0.65
  -5  19 -16    1.91    0.54
  16  19  -5    2.34    0.69
  16   5 -19    1.13    0.66
  -5  16 -19    1.81    0.54
  19  16  -5    1.87    0.67
   5  19 -16    1.44    0.60
  16  19  -6    5.92    0.86
  19   6 -16    6.16    0.83
   6  16 -19    4.55    0.79
  16   6 -19    8.65    0.96
  19  16  -6    7.65    0.92
   6  19 -16    7.97    0.93
  -6  16 -19    9.20    1.07
   7  16 -19   11.81    1.10
  19   7 -16   11.53    1.05
  16  19  -7   11.50    1.09
   7  19 -16   10.38    1.04
  19  16  -7   10.53    1.04
  16   7 -19    9.42    1.02
  16  19  -8    4.24    0.80
  19   8 -16    2.49    0.69
   8  16 -19    2.66    0.74
  16   8 -19    2.87    0.72
  19  16  -8    3.30    0.76
   8  19 -16    3.31    0.76
  19   9 -16    9.71    1.04
   9  16 -19   11.17    1.09
  16  19  -9   10.13    1.09
  19  16  -9   13.85    1.17
   9  19 -16   11.51    1.13
  16   9 -19   12.31    1.15
  19  10 -16    1.82    0.69
  16  19 -10    1.38    0.73
  10  16 -19    2.03    0.70
  16  10 -19    3.28    0.77
  10  19 -16    3.93    0.82
  19  16 -10    2.36    0.71
  19  11 -16    7.93    0.97
  11  16 -19    8.11    1.03
  16  19 -11    8.22    1.03
  19  16 -11   14.09    1.22
  16  11 -19   12.57    1.18
  11  19 -16   11.70    1.17
  12  16 -19    3.41    0.78
  16  19 -12    1.77    0.75
  19  12 -16    2.52    0.74
  19  16 -12    4.73    0.86
  12  19 -16    3.85    0.83
  16  12 -19    3.04    0.82
  13  16 -19    1.49    0.72
  16  19 -13    1.45    0.73
  19  13 -16    1.24    0.71
  13  19 -16   -0.05    0.64
  19  16 -13    1.23    0.68
  16  13 -19    1.02    0.74
  16  19 -14    7.53    1.04
  19  14 -16    4.44    0.88
  14  16 -19    4.69    0.92
  14  19 -16    3.16    0.83
  19  16 -14    5.43    0.95
  16  14 -19    4.69    0.91
  15  16 -19    0.70    0.73
  16  19 -15    1.06    0.74
  19  15 -16    0.94    0.71
  15  19 -16    1.45    0.74
  16  15 -19    0.21    0.71
  19  16 -15    0.64    0.69
  16  19 -16    0.82    0.73
  19  16 -16    0.87    0.72
  16  16 -19    0.06    0.72
  19  17   0   18.21    1.31
   0  19 -17   17.65    1.14
  17  19   0   17.49    1.32
   0  17 -19   20.00    1.23
   1  17 -19    3.56    0.70
  -1  19 -17    2.27    0.60
  19   1 -17    1.90    0.61
  19  17   1    1.16    0.61
  17  19  -1    1.76    0.70
  -1  17 -19    1.30    0.56
  17  19   1    2.02    0.67
   1  19 -17    2.09    0.62
  19  17  -1    1.88    0.68
  -2  19 -17   16.99    1.08
  19   2 -17   15.80    1.19
  17  19  -2   16.20    1.26
  19  17   2   18.36    1.26
   2  17 -19   16.35    1.17
  19  17  -2   20.92    1.34
  -2  17 -19   21.29    1.25
   2  19 -17   23.16    1.32
  17   2 -19   23.34    1.36
  -3  19 -17    1.97    0.55
  17  19  -3    1.70    0.67
   3  17 -19    1.30    0.60
  19  17   3    1.74    0.64
  19   3 -17    2.43    0.64
  19  17  -3    1.98    0.64
  -3  17 -19    2.86    0.63
  17   3 -19    1.45    0.64
   3  19 -17    1.97    0.65
  17  19  -4   28.77    1.56
  -4  19 -17   26.48    1.31
   4  17 -19   27.36    1.48
  19   4 -17   27.42    1.46
   4  19 -17   28.13    1.48
  -4  17 -19   25.73    1.32
  19  17  -4   25.88    1.48
  17   4 -19   26.86    1.49
   5  17 -19    1.59    0.65
  17  19  -5    0.78    0.62
  19   5 -17    1.69    0.63
  19  17  -5    1.32    0.62
  17   5 -19    1.21    0.66
  -5  17 -19    2.01    0.56
   5  19 -17    1.72    0.63
   6  17 -19   17.81    1.29
  17  19  -6   17.23    1.35
  19   6 -17   18.26    1.31
   6  19 -17   17.73    1.28
  19  17  -6   15.19    1.22
  17   6 -19   19.72    1.33
  19   7 -17    8.77    0.98
  17  19  -7    6.55    0.90
   7  17 -19    5.54    0.86
  19  17  -7    7.07    0.94
  17   7 -19    8.42    0.98
   7  19 -17    9.33    1.00
   8  17 -19   14.59    1.21
  17  19  -8   12.99    1.19
  19   8 -17   12.94    1.17
  19  17  -8   14.59    1.24
   8  19 -17   15.40    1.25
  17   8 -19   16.60    1.30
   9  17 -19   -0.21    0.62
  17  19  -9    0.55    0.65
  19   9 -17   -0.32    0.54
   9  19 -17   -0.05    0.58
  19  17  -9    0.09    0.58
  17   9 -19   -0.01    0.61
  10  17 -19    4.16    0.84
  19  10 -17    6.79    0.96
  17  19 -10    5.93    0.94
  10  19 -17    4.64    0.88
  17  10 -19    7.27    0.99
  19  17 -10    9.61    1.03
  11  17 -19   10.80    1.16
  19  11 -17    9.63    1.08
  17  19 -11    6.66    1.00
  17  11 -19    8.08    1.01
  19  17 -11    7.81    1.03
  11  19 -17    8.89    1.07
  19  12 -17    3.28    0.86
  17  19 -12    5.42    0.97
  12  17 -19    5.65    0.93
  12  19 -17    5.86    0.99
  19  17 -12    5.86    0.97
  17  12 -19    4.16    0.88
  17  19 -13   15.11    1.35
  19  13 -17   15.28    1.32
  13  17 -19   16.17    1.37
  19  17 -13   16.21    1.36
  17  13 -19   17.08    1.41
  13  19 -17   16.17    1.39
  19  14 -17    3.29    0.84
  17  19 -14    3.58    0.89
  14  17 -19    3.37    0.87
  17  14 -19    3.01    0.86
  19  17 -14    3.15    0.86
  14  19 -17    2.49    0.83
  15  17 -19    8.28    1.13
  19  15 -17    7.94    1.10
  17  19 -15    9.13    1.12
  17  15 -19    7.51    1.10
  19  17 -15    9.00    1.13
  15  19 -17    7.25    1.09
  19  16 -17    0.29    0.75
  17  19 -16    0.62    0.74
  16  17 -19    0.90    0.77
  19  17 -16   -0.19    0.67
  17  16 -19    0.38    0.72
  16  19 -17   -0.72    0.68
  17  17 -19    3.50    0.98
  19  17 -17    2.53    0.89
  17  19 -17    7.06    1.10
  19  18   0   17.37    1.32
  18  19   0   18.88    1.38
   0  19 -18   17.73    1.17
   0  18 -19   15.26    1.15
  -1  19 -18    1.19    0.54
   1  18 -19    0.98    0.55
  18  19  -1    1.15    0.64
  19  18   1    1.39    0.65
  19  18  -1    0.76    0.61
  18  19   1    1.87    0.70
   1  19 -18    2.17    0.62
  -1  18 -19    1.11    0.55
   2  18 -19    0.45    0.59
  18  19  -2    0.82    0.59
  19   2 -18    2.41    0.66
  -2  19 -18    1.02    0.53
  19  18   2    1.38    0.63
  18  19   2    0.24    0.59
   2  19 -18    0.89    0.56
  18   2 -19    0.30    0.54
  19  18  -2   -0.28    0.55
  -2  18 -19    0.56    0.50
  19  18   3   10.80    1.08
  18  19  -3   11.86    1.14
  -3  19 -18   11.40    0.95
  19   3 -18    8.88    0.99
   3  18 -19    9.45    0.99
  -3  18 -19    9.41    0.91
   3  19 -18   11.88    1.08
  19  18  -3   11.85    1.13
  18   3 -19   13.22    1.15
  18  19  -4    1.19    0.69
  19   4 -18    0.54    0.57
  -4  19 -18    1.97    0.58
   4  18 -19    1.36    0.63
  -4  18 -19    0.21    0.49
   4  19 -18    0.21    0.57
  19  18  -4    1.13    0.64
  18   4 -19   -0.12    0.56
  18  19  -5    6.80    0.96
  19   5 -18    7.00    0.93
   5  18 -19    6.44    0.88
  18   5 -19    5.59    0.86
  19  18  -5    7.93    0.97
   5  19 -18    5.76    0.84
  18  19  -6   17.67    1.37
  19   6 -18   17.73    1.30
   6  18 -19   18.39    1.36
  19  18  -6   20.77    1.43
  18   6 -19   17.19    1.30
   6  19 -18   18.74    1.35
  19   7 -18    0.92    0.65
   7  18 -19    0.84    0.63
  18  19  -7    1.28    0.68
  19  18  -7   -0.32    0.61
   7  19 -18    0.34    0.61
  18   7 -19    1.67    0.70
  19   8 -18    2.78    0.75
   8  18 -19    3.94    0.84
  18  19  -8    3.36    0.81
  19  18  -8    3.47    0.82
  18   8 -19    4.61    0.85
   8  19 -18    4.01    0.83
  18  19  -9    4.13    0.87
  19   9 -18    5.36    0.91
   9  18 -19    4.84    0.88
  19  18  -9    2.78    0.78
   9  19 -18    2.62    0.78
  18   9 -19    2.41    0.74
  18  19 -10   13.88    1.26
  19  10 -18   11.35    1.17
  10  18 -19   10.01    1.14
  19  18 -10   13.07    1.22
  10  19 -18   12.94    1.25
  18  10 -19   11.21    1.17
  18  19 -11    3.77    0.85
  19  11 -18    5.20    0.93
  11  18 -19    5.41    0.95
  19  18 -11    4.09    0.87
  11  19 -18    4.01    0.88
  18  11 -19    5.13    0.93
  18  19 -12    4.08    0.94
  19  12 -18    5.61    0.95
  12  18 -19    7.08    1.02
  19  18 -12    4.74    0.93
  18  12 -19    2.87    0.82
  12  19 -18    4.11    0.90
  13  18 -19   19.36    1.50
  18  19 -13   22.47    1.61
  19  13 -18   18.24    1.47
  18  13 -19   17.83    1.45
  13  19 -18   16.39    1.40
  19  18 -13   17.58    1.46
  19  14 -18    5.38    0.98
  14  18 -19    5.46    0.99
  18  19 -14    5.02    0.99
  19  18 -14    8.26    1.12
  14  19 -18    5.39    0.98
  18  14 -19    6.83    1.03
  15  18 -19    4.55    0.95
  19  15 -18    3.42    0.90
  18  19 -15    3.80    0.91
  19  18 -15    2.44    0.86
  18  15 -19    1.32    0.79
  15  19 -18    1.31    0.80
  19  16 -18    5.34    1.00
  18  19 -16    5.11    1.02
  16  18 -19    4.36    0.98
  16  19 -18    2.74    0.92
  19  18 -16    3.14    0.94
  18  16 -19    4.83    0.99
  19  17 -18    1.24    0.82
  18  19 -17    0.61    0.85
  17  18 -19   -0.88    0.72
  17  19 -18    1.05    0.95
  18  17 -19   -0.86    0.79
  19  18 -17    1.45    0.81
   0  19 -19   12.60    1.08
  19  19   0   11.99    1.13
  -1  19 -19   -0.40    0.51
   1  19 -19   -0.31    0.53
  19  19  -1   -0.30    0.57
  19  19   1   -0.24    0.57
  -2  19 -19   10.14    0.96
   2  19 -19    9.97    1.04
  19   2 -19   10.84    1.06
  19  19  -2    9.20    1.05
  19  19   2    8.48    1.01
  -3  19 -19    0.08    0.50
   3  19 -19    0.93    0.62
  19   3 -19    0.22    0.59
  19  19  -3    0.00    0.60
  19  19   3    0.07    0.64
  -4  19 -19   14.69    1.31
   4  19 -19   17.14    1.29
  19   4 -19   15.52    1.26
  19  19  -4   11.93    1.17
   5  19 -19    2.87    0.75
  19   5 -19    1.98    0.74
  19  19  -5    3.03    0.77
   6  19 -19    0.95    0.64
  19   6 -19   -0.40    0.59
  19  19  -6    0.31    0.62
   7  19 -19   -0.28    0.60
  19   7 -19    0.30    0.60
  19  19  -7   -1.05    0.61
   8  19 -19   -0.25    0.60
  19   8 -19    0.36    0.67
  19  19  -8   -0.14    0.63
   9  19 -19   12.19    1.22
  19   9 -19    9.34    1.09
  19  19  -9    9.86    1.13
  10  19 -19    0.68    0.68
  19  10 -19    0.03    0.67
  19  19 -10   -0.57    0.63
  11  19 -19    1.81    0.80
  19  11 -19    1.72    0.78
  19  19 -11    1.93    0.83
  12  19 -19    4.49    0.90
  19  12 -19    4.26    0.92
  19  19 -12    2.87    0.84
  13  19 -19    0.09    0.70
  19  13 -19    0.25    0.75
  19  19 -13   -0.46    0.67
  14  19 -19    2.82    0.86
  19  14 -19    4.24    0.95
  19  19 -14    3.35    0.91
  15  19 -19   40.71    2.14
  19  15 -19   35.79    2.00
  19  19 -15   33.85    1.96
  19  16 -19    0.42    0.87
  19  19 -16    0.32    0.86
  20   1   0   82.57    2.19
  20   1  -1    8.01    0.54
  20   2   0   35.76    1.17
  20   0  -2   39.72    1.39
  20   1  -2   29.42    1.01
  20   2   1   28.33    0.99
  20   2  -1   31.25    1.07
  20   2  -2    6.82    0.53
  20   2   2    7.63    0.53
  20   0  -3   17.76    0.76
  20   3   0   18.38    0.81
   0  20  -3   18.30    1.00
  -1  20  -3   22.97    1.09
  20   3   1   21.85    0.89
  20   1  -3   23.07    0.89
  20   3  -1   21.28    0.89
   1  20  -3   19.69    1.09
  20   3   2    8.85    0.58
  20   2  -3    8.66    0.61
  -2  20  -3    9.76    0.77
  20   3  -2   10.57    0.67
   2  20  -3    9.91    0.83
  20   3  -3   56.67    1.66
   3  20  -3   54.78    1.90
  20   3   3   55.60    1.58
  -3  20  -3   55.75    1.76
  20   4   0    2.03    0.38
   0  20  -4    1.77    0.47
  20   0  -4    2.21    0.35
  20   4   1    7.85    0.60
  20   1  -4    7.99    0.58
  -1  20  -4    8.14    0.72
   1  20  -4    8.66    0.76
  20  -1  -4    9.15    0.66
  20   4  -1    8.07    0.61
  20   4   2    4.65    0.49
  -2  20  -4    4.29    0.57
  20   2  -4    4.21    0.47
  20   4  -2    7.36    0.61
   2  20  -4    5.10    0.66
  20   4   3   26.31    1.00
  20   3  -4   26.03    1.05
   4  20  -3   28.92    1.31
  -3  20  -4   23.99    1.11
  20   4  -3   22.67    0.98
  -4  20  -3   23.89    1.06
  20   3   4   22.91    0.90
   3  20  -4   23.39    1.21
  20   4   4   15.34    0.77
  -4  20  -4   14.49    0.84
  20   4  -4   13.83    0.82
   4  20  -4   13.23    1.00
   0  20  -5   18.96    1.02
  20   0  -5   18.24    0.82
  20   5   0   19.21    0.88
  -1  20  -5    9.29    0.76
  20   5   1    7.90    0.62
  20   1  -5    8.77    0.63
  20  -1  -5    6.08    0.50
  20   5  -1    8.13    0.63
   1  20  -5    5.65    0.67
  20   5   2   55.63    1.66
  20   2  -5   53.38    1.64
  -2  20  -5   57.15    1.79
   2  20  -5   53.37    1.84
  20   5  -2   51.26    1.62
  -3  20  -5    6.32    0.63
  20   3  -5    6.60    0.59
  20   5   3    5.54    0.54
   5  20  -3    6.80    0.74
   3   5 -20    5.64    0.73
   3  20  -5    4.35    0.64
  -5  20  -3    5.42    0.57
  20   5  -3    3.72    0.51
  -4  20  -5   40.97    1.43
  20   4  -5   40.13    1.40
  20   5   4   40.70    1.35
   5  20  -4   39.92    1.61
   4   5 -20   42.96    1.69
  20   4   5   37.28    1.24
  20   5  -4   35.35    1.33
  -5  20  -4   38.31    1.34
   5   4 -20   37.87    1.56
   4  20  -5   38.48    1.54
   5   5 -20   37.84    1.60
  20   5  -5   38.36    1.41
  20   5   5   40.39    1.34
   5  20  -5   38.96    1.60
  -5  20  -5   42.05    1.40
   0  20  -6    3.89    0.56
  20   6   0    4.44    0.52
  20   0  -6    5.02    0.51
  20   1  -6   12.08    0.73
   1   6 -20   13.17    1.00
  20   6   1   12.27    0.76
  -1  20  -6   13.25    0.88
   1  20  -6   11.41    0.88
  20  -1  -6   12.85    0.71
  20   6  -1   13.95    0.80
   2   6 -20   13.98    1.01
  20   6   2   15.08    0.81
  -2  20  -6   14.21    0.89
  20   2  -6   16.14    0.83
  20   6  -2   14.48    0.84
  -6  20  -2   15.78    0.86
  20  -2  -6   16.69    0.86
   2  20  -6   16.22    0.98
  -3  20  -6    7.65    0.68
   3   6 -20    8.34    0.82
  20   6   3    9.15    0.68
   6  20  -3   10.86    0.94
  20   3  -6    8.48    0.67
  -6  20  -3    7.26    0.64
   3  20  -6    9.00    0.82
  20   6  -3    9.38    0.72
  -4  20  -6   22.91    1.04
   6  20  -4   23.76    1.25
   4   6 -20   20.56    1.23
  20   6   4   22.60    0.99
  20   4  -6   21.47    1.01
  -6  20  -4   17.61    0.87
  20   6  -4   17.02    0.94
   4  20  -6   17.67    1.08
   6   4 -20   21.12    1.20
  20   5  -6   19.39    0.99
  -5  20  -6   17.95    0.92
   6  20  -5   17.78    1.12
   5   6 -20   18.94    1.18
  20   6  -5   17.26    0.95
   5  20  -6   15.94    1.06
  -6  20  -5   16.69    0.85
   6   5 -20   17.32    1.14
  -6  20  -6   18.76    0.91
   6  20  -6   18.89    1.14
   6   6 -20   17.13    1.15
  20   6  -6   18.75    1.01
   0   7 -20    0.50    0.44
  20   7   0   -0.17    0.33
   0  20  -7   -0.68    0.35
  20   0  -7   -0.03    0.31
  20   1  -7    4.23    0.51
   1   7 -20    4.00    0.64
  -1  20  -7    3.58    0.56
  20   7   1    4.41    0.55
  20  -1  -7    4.35    0.49
  20   7  -1    5.62    0.61
   1  20  -7    3.38    0.59
   2   7 -20    1.75    0.56
  -2  20  -7    1.46    0.45
  20   7   2    1.97    0.43
  20   2  -7    1.82    0.42
  20  -2  -7    0.49    0.33
  -7  20  -2    1.36    0.39
  20   7  -2    1.06    0.39
   2  20  -7    0.33    0.41
  20   7   3   10.36    0.74
  -3  20  -7   10.67    0.79
   3   7 -20   10.28    0.93
   7  20  -3   11.12    0.94
  20   3  -7    9.25    0.71
  20   7  -3   10.31    0.78
   7   3 -20    9.91    0.92
  -7  20  -3    9.61    0.68
   3  20  -7   10.24    0.88
   7  20  -4   21.11    1.22
  20   4  -7   21.84    1.03
   4   7 -20   22.85    1.24
  -4  20  -7   20.48    1.00
  20   7   4   20.22    0.98
  -7  20  -4   18.72    0.88
  20   7  -4   17.60    0.98
   7   4 -20   17.56    1.15
   4  20  -7   17.21    1.09
  -5  20  -7    6.80    0.62
   7  20  -5    5.52    0.75
  20   5  -7    7.19    0.69
   5   7 -20    5.91    0.75
  -7  20  -5    7.22    0.61
   5  20  -7    8.10    0.84
  20   7  -5    5.72    0.65
   7   5 -20    7.52    0.84
  20   6  -7    0.78    0.43
   7  20  -6   -0.01    0.46
  -6  20  -7    0.10    0.31
   6   7 -20    0.24    0.52
   6  20  -7    1.31    0.53
   7   6 -20    0.96    0.56
  -7  20  -6    1.21    0.36
  20   7  -6    1.23    0.46
   7   7 -20    5.87    0.77
   7  20  -7    6.22    0.78
  20   7  -7    5.59    0.66
  -7  20  -7    5.84    0.56
   0   8 -20    2.01    0.57
  20   0  -8    1.09    0.39
  20   8   0    1.68    0.45
   0  20  -8    1.52    0.49
  -1  20  -8   10.38    0.82
   1   8 -20   11.03    0.94
  20   8   1   10.82    0.81
  20   1  -8   11.09    0.78
  20  -1  -8    9.94    0.71
  20   8  -1   10.35    0.79
  -1   8 -20    8.65    0.83
   1  20  -8   10.00    0.84
  20   2  -8    4.50    0.55
   2   8 -20    5.53    0.72
   8  20  -2    5.18    0.69
  20   8   2    6.06    0.63
  -2  20  -8    5.84    0.64
  20  -2  -8    7.78    0.61
   2  20  -8    7.47    0.77
  -8  20  -2    7.25    0.60
  20   8  -2    7.58    0.70
  20   8   3   16.39    0.93
   3   8 -20   15.29    1.09
   8  20  -3   16.76    1.11
  20   3  -8   15.47    0.91
  -3  20  -8   17.50    0.95
  -8  20  -3   15.24    0.81
   8   3 -20   16.01    1.13
  20   8  -3   15.14    0.91
   3  20  -8   17.27    1.05
  -4  20  -8   19.96    0.98
  20   4  -8   18.92    1.00
   8  20  -4   17.64    1.16
  20   8   4   19.34    1.01
   4   8 -20   17.66    1.15
   8   4 -20   20.16    1.22
   4  20  -8   18.23    1.11
  20   8  -4   20.08    1.06
  20   5  -8    6.79    0.68
   5   8 -20    5.36    0.74
  -5  20  -8    6.24    0.62
   8  20  -5    7.05    0.82
   5  20  -8    4.52    0.69
  20   8  -5    4.75    0.63
   8   5 -20    4.63    0.72
   6   8 -20   13.41    1.10
  20   6  -8   10.34    0.83
   8  20  -6   10.95    0.95
  -6  20  -8   10.87    0.76
   8   6 -20   11.51    1.02
   6  20  -8   12.73    1.01
  20   8  -6   11.00    0.87
   8  20  -7    2.73    0.65
   7   8 -20    3.74    0.70
  20   7  -8    3.84    0.61
  20   8  -7    2.30    0.54
   8   7 -20    3.30    0.68
   7  20  -8    3.15    0.62
   8  20  -8   53.56    1.99
  20   8  -8   51.78    1.85
   8   8 -20   50.69    1.98
  20   0  -9   47.50    1.57
   0   9 -20   47.96    1.79
   0  20  -9   46.48    1.69
  20   9   0   47.64    1.66
  -1  20  -9    5.12    0.64
  20   9   1    6.29    0.67
   1   9 -20    4.31    0.67
  20   1  -9    5.85    0.60
  -1   9 -20    6.69    0.76
  20  -1  -9    7.59    0.65
  20   9  -1    6.86    0.70
   1  20  -9    6.77    0.73
  20   9   2   71.91    2.20
   2   9 -20   72.93    2.37
  20   2  -9   75.31    2.16
   9  20  -2   76.51    2.45
  -2  20  -9   70.06    2.16
  20   9  -2   68.86    2.15
   2  20  -9   71.13    2.24
  20  -2  -9   69.81    2.01
  -2   9 -20   70.76    2.24
   3   9 -20   14.37    1.09
  20   3  -9   15.08    0.92
   9  20  -3   14.96    1.14
  20   9   3   16.01    0.95
  -3  20  -9   15.13    0.92
  20   9  -3   15.02    0.93
   9   3 -20   13.84    1.07
   3  20  -9   14.03    1.00
   9  20  -4   26.34    1.41
  20   4  -9   28.71    1.25
   4   9 -20   28.36    1.42
  -4  20  -9   29.40    1.22
  20   9   4   29.74    1.26
  20   9  -4   26.70    1.23
   9   4 -20   27.58    1.43
   4  20  -9   28.28    1.34
  20   5  -9   26.70    1.22
  -5  20  -9   23.43    1.06
   9  20  -5   24.53    1.35
   5   9 -20   24.98    1.34
  20   9  -5   24.30    1.18
   9   5 -20   25.46    1.37
   5  20  -9   24.87    1.30
   6   9 -20   12.85    1.04
   9  20  -6   12.70    1.06
  -6  20  -9   12.11    0.78
  20   6  -9   12.10    0.88
   9   6 -20   13.03    1.07
  20   9  -6   14.38    0.96
   6  20  -9   12.67    1.01
  20   7  -9    4.77    0.66
   9  20  -7    5.68    0.81
   7   9 -20    6.29    0.79
   7  20  -9    4.08    0.70
   9   7 -20    5.17    0.76
  20   9  -7    6.08    0.73
   8   9 -20    0.63    0.55
   9  20  -8    1.52    0.62
  20   8  -9    1.16    0.51
   9   8 -20    1.46    0.60
   8  20  -9    1.75    0.60
  20   9  -8    2.01    0.54
   9   9 -20   15.59    1.11
  20   9  -9   15.99    1.07
   9  20  -9   17.88    1.21
   0  10 -20  115.62    3.22
  20   0 -10  113.47    3.01
   0  20 -10  113.10    3.13
  20  10   0  115.49    3.12
  20   1 -10   18.40    0.98
   1  10 -20   18.55    1.14
  20  10   1   17.83    1.02
  -1  20 -10   18.14    1.04
  -1  10 -20   15.06    1.07
  20  10  -1   14.46    0.98
   1  20 -10   15.75    1.00
  20  -1 -10   15.55    0.92
  20   2 -10   11.77    0.87
  10  20  -2   12.19    1.00
  -2  20 -10   12.18    0.89
   2  10 -20   11.22    0.96
  20  10   2   11.14    0.87
   2  20 -10   13.43    1.00
  20  10  -2   12.67    0.92
  -2  10 -20   10.74    0.90
  20  -2 -10   10.71    0.77
  -3  20 -10   24.68    1.14
  20   3 -10   23.33    1.14
   3  10 -20   23.39    1.30
  10  20  -3   24.83    1.36
  20  10   3   25.01    1.20
  10   3 -20   20.52    1.26
   3  20 -10   20.25    1.19
  -3  10 -20   20.45    1.15
  20  10  -3   18.74    1.09
  20   4 -10   28.63    1.30
   4  10 -20   32.99    1.50
  10  20  -4   29.66    1.50
  -4  20 -10   31.96    1.27
   4  20 -10   32.41    1.45
  20  10  -4   30.57    1.37
  10   4 -20   29.15    1.50
  10  20  -5    0.92    0.56
  20   5 -10    0.26    0.43
   5  10 -20    1.45    0.58
  -5  20 -10    2.25    0.47
  20  10  -5    0.93    0.48
  10   5 -20    1.15    0.54
   5  20 -10    0.67    0.53
  -6  20 -10   14.34    0.86
  10  20  -6   12.11    1.05
  20   6 -10   14.84    1.00
   6  10 -20   13.36    1.06
  10   6 -20   11.50    1.04
  20  10  -6   11.05    0.91
   6  20 -10    9.56    0.94
   7  10 -20    4.55    0.74
  10  20  -7    3.54    0.69
  20   7 -10    4.99    0.67
  10   7 -20    4.43    0.74
  20  10  -7    5.01    0.69
   7  20 -10    4.88    0.77
  20   8 -10   19.04    1.16
  10  20  -8   16.45    1.20
   8  10 -20   17.54    1.24
   8  20 -10   11.96    1.04
  10   8 -20   14.13    1.12
  20  10  -8   14.19    1.02
  10  20  -9    2.48    0.66
   9  10 -20    1.14    0.59
  20   9 -10    1.51    0.57
   9  20 -10    2.20    0.67
  10   9 -20    1.71    0.59
  20  10  -9    2.37    0.61
  10  10 -20   38.55    1.77
  10  20 -10   41.07    1.80
  20  10 -10   40.09    1.68
   0  11 -20   19.16    1.15
  20  11   0   19.37    1.11
  20   0 -11   16.50    0.98
   0  20 -11   19.27    1.07
  11  20  -1    1.12    0.58
  -1  20 -11    1.63    0.50
  20  11   1    1.35    0.52
   1  11 -20    2.42    0.61
  20   1 -11    2.36    0.51
  -1  11 -20    2.19    0.56
  20  11  -1    1.83    0.53
  20  -1 -11    1.83    0.47
   1  20 -11    1.76    0.52
  -2  20 -11    6.89    0.71
  20   2 -11    8.11    0.74
  20  11   2    9.21    0.82
   2  11 -20    7.43    0.82
  11  20  -2    6.80    0.83
  20  11  -2    8.71    0.82
  -2  11 -20    8.86    0.85
   2  20 -11    9.32    0.86
  11  20  -3    5.86    0.81
   3  11 -20    7.38    0.84
  20  11   3    6.91    0.74
  -3  20 -11    6.81    0.69
  20   3 -11    7.00    0.73
  -3  11 -20    6.85    0.76
  20  11  -3    6.02    0.72
   3  20 -11    5.83    0.74
  11   3 -20    7.16    0.86
  -4  20 -11   31.67    1.30
   4  11 -20   31.33    1.51
  20   4 -11   33.01    1.40
  11  20  -4   31.45    1.55
   4  20 -11   30.87    1.44
  20  11  -4   31.44    1.39
  11   4 -20   32.84    1.58
  -4  11 -20   30.37    1.38
  -5  20 -11    0.91    0.42
   5  11 -20    1.84    0.60
  20   5 -11    1.32    0.50
  11  20  -5    2.41    0.67
   5  20 -11    1.63    0.59
  20  11  -5    1.47    0.54
  11   5 -20    1.70    0.61
  20   6 -11   17.33    1.10
  11  20  -6   17.62    1.23
  -6  20 -11   18.39    0.98
   6  11 -20   16.78    1.20
  11   6 -20   17.82    1.24
  20  11  -6   14.98    1.04
   6  20 -11   17.67    1.22
  20   7 -11   15.56    1.08
   7  11 -20   12.93    1.10
  11  20  -7   11.31    1.04
   7  20 -11   12.53    1.06
  20  11  -7   13.39    1.03
  11   7 -20   10.27    1.00
  20   8 -11   38.64    1.65
  11  20  -8   40.30    1.78
   8  11 -20   40.21    1.77
  20  11  -8   46.26    1.82
  11   8 -20   46.91    1.93
   8  20 -11   42.84    1.84
   9  11 -20    7.84    0.93
  11  20  -9    7.85    0.90
  20   9 -11    7.93    0.85
  11   9 -20    6.84    0.90
   9  20 -11    7.96    0.95
  20  11  -9    7.19    0.84
  10  11 -20   -0.06    0.55
  20  10 -11   -0.03    0.48
  11  20 -10   -0.22    0.57
  11  10 -20   -0.29    0.55
  10  20 -11    0.33    0.60
  20  11 -10    0.52    0.54
  11  11 -20    3.26    0.72
  11  20 -11    3.30    0.73
  20  11 -11    4.60    0.75
   0  20 -12    4.42    0.66
  20  12   0    4.70    0.69
  20   0 -12    5.49    0.67
   0  12 -20    5.17    0.72
  20   1 -12   14.75    0.98
  20  12   1   14.41    1.01
  -1  20 -12   15.18    0.98
   1  12 -20   15.32    1.07
  12  20  -1   15.68    1.19
   1  20 -12   14.12    1.03
  -1  12 -20   14.97    1.04
  20  -1 -12   15.89    0.96
  20  12  -1   16.81    1.05
  -2  20 -12   10.88    0.87
   2  12 -20    9.48    0.90
  20   2 -12    9.88    0.83
  12  20  -2   10.03    0.98
  20  12   2    9.61    0.88
  12   2 -20   11.31    1.02
  -2  12 -20   13.15    0.98
  20  12  -2   11.91    0.96
   2  20 -12    9.51    0.88
  20  12   3    4.28    0.65
  -3  20 -12    3.54    0.58
   3  12 -20    2.77    0.65
  12  20  -3    3.76    0.72
  20   3 -12    2.97    0.58
   3  20 -12    1.56    0.55
  12   3 -20    3.01    0.67
  20  12  -3    2.78    0.58
  -3  12 -20    3.30    0.62
   4  12 -20    1.48    0.58
  20   4 -12    0.83    0.47
  12  20  -4    1.52    0.65
  -4  20 -12    1.36    0.47
  -4  12 -20    1.24    0.49
   4  20 -12   -0.51    0.46
  20  12  -4   -0.38    0.42
  12   4 -20   -0.34    0.51
  12  20  -5    1.92    0.61
  -5  20 -12    3.16    0.53
  20   5 -12    3.05    0.60
   5  12 -20    1.73    0.60
  20  12  -5    2.04    0.58
  12   5 -20    1.93    0.65
   5  20 -12    2.72    0.64
  12  20  -6    4.12    0.75
  20   6 -12    3.59    0.65
   6  12 -20    3.45    0.70
  12   6 -20    3.59    0.72
   6  20 -12    3.23    0.67
  20  12  -6    3.52    0.67
  12  20  -7    5.32    0.81
   7  12 -20    3.62    0.71
  20   7 -12    3.34    0.64
  12   7 -20    5.34    0.82
  20  12  -7    4.54    0.72
   7  20 -12    5.94    0.81
   8  12 -20    0.21    0.56
  20   8 -12    0.45    0.51
  12  20  -8    1.12    0.63
  12   8 -20    0.03    0.54
  20  12  -8    0.01    0.49
   8  20 -12    1.65    0.62
   9  12 -20    6.03    0.90
  20   9 -12    4.82    0.76
  12  20  -9    4.81    0.81
   9  20 -12    4.59    0.77
  20  12  -9    5.71    0.77
  12   9 -20    5.01    0.79
  10  12 -20    2.89    0.75
  20  10 -12    2.43    0.65
  12  20 -10    2.66    0.72
  20  12 -10    2.27    0.63
  10  20 -12    1.03    0.63
  12  10 -20    2.69    0.69
  12  20 -11   39.11    1.81
  11  12 -20   40.61    1.85
  20  11 -12   36.04    1.69
  12  11 -20   34.98    1.74
  11  20 -12   34.77    1.73
  20  12 -11   36.02    1.70
  12  12 -20   25.38    1.52
  12  20 -12   22.93    1.48
  20  12 -12   24.39    1.43
  20  13   0   -0.45    0.46
   0  13 -20   -0.12    0.47
   0  20 -13   -0.17    0.45
  20   0 -13   -0.26    0.42
  20  13   1   12.24    1.01
   1  13 -20   14.96    1.08
  -1  20 -13   14.68    1.03
  20   1 -13   15.78    0.98
  13  20  -1   12.51    1.07
  20  -1 -13   14.51    0.98
  20  13  -1   16.70    1.09
  -1  13 -20   15.55    1.11
   1  20 -13   14.00    1.04
   2  13 -20   19.38    1.24
  13  20  -2   18.45    1.26
  20  13   2   15.24    1.12
  20   2 -13   18.24    1.11
  -2  20 -13   17.79    1.07
  20  13  -2   17.47    1.16
   2  20 -13   16.53    1.10
  13   2 -20   17.04    1.22
  -2  13 -20   16.15    1.07
   3  13 -20    3.34    0.68
  20  13   3    3.34    0.65
  20   3 -13    4.19    0.67
  -3  20 -13    4.10    0.61
  13  20  -3    3.49    0.72
  13   3 -20    5.70    0.82
  20  13  -3    4.55    0.70
  -3  13 -20    4.69    0.68
   3  20 -13    4.09    0.68
  -4  20 -13    5.63    0.66
  20   4 -13    6.11    0.75
   4  13 -20    4.80    0.75
  13  20  -4    3.75    0.75
  20  13  -4    5.40    0.75
  -4  13 -20    4.41    0.66
   4  20 -13    6.47    0.82
  13   4 -20    5.21    0.83
  20   5 -13    5.27    0.72
  -5  20 -13    4.23    0.58
   5  13 -20    3.98    0.71
  13  20  -5    2.76    0.72
  20  13  -5    3.06    0.67
  13   5 -20    2.88    0.69
   5  20 -13    3.14    0.68
  -5  13 -20    4.02    0.63
  13  20  -6    6.89    0.91
  20   6 -13    7.87    0.86
   6  13 -20    8.77    0.94
  13   6 -20    7.32    0.93
   6  20 -13    5.50    0.81
  20  13  -6    5.58    0.78
  13  20  -7   11.28    1.07
   7  13 -20   12.08    1.07
  20   7 -13   12.61    1.05
  20  13  -7   12.24    1.02
   7  20 -13   11.08    1.04
  13   7 -20   10.90    1.05
   8  13 -20   12.07    1.09
  13  20  -8   10.36    1.04
  20   8 -13   10.80    0.99
  13   8 -20   10.58    1.04
  20  13  -8    8.94    0.95
   8  20 -13   11.90    1.09
   9  13 -20   19.07    1.39
  20   9 -13   19.99    1.25
  13  20  -9   17.03    1.31
  20  13  -9   21.26    1.38
   9  20 -13   22.11    1.40
  13   9 -20   25.51    1.47
  20  10 -13   14.03    1.14
  10  13 -20   12.82    1.15
  13  20 -10   14.06    1.22
  20  13 -10   11.55    1.06
  13  10 -20   11.04    1.10
  10  20 -13   11.88    1.13
  20  11 -13   18.59    1.28
  11  13 -20   20.14    1.40
  13  20 -11   18.73    1.36
  13  11 -20   16.51    1.32
  11  20 -13   17.96    1.38
  20  13 -11   16.58    1.26
  13  20 -12    3.72    0.82
  20  12 -13    1.82    0.68
  12  13 -20    3.06    0.78
  13  12 -20    2.99    0.78
  20  13 -12    3.29    0.77
  12  20 -13    3.54    0.83
  13  20 -13   14.27    1.29
  20  13 -13   12.61    1.16
  13  13 -20   13.07    1.24
  14  20   0    6.93    0.89
   0  20 -14    7.96    0.82
   0  14 -20    7.26    0.84
  20   0 -14    8.62    0.83
  20  14   0    7.65    0.85
  14  20  -1   34.22    1.68
  -1  20 -14   35.24    1.48
  20   1 -14   35.85    1.53
   1  14 -20   37.24    1.64
  20  14   1   35.16    1.58
  20  14  -1   33.00    1.53
   1  20 -14   31.52    1.46
  -1  14 -20   35.01    1.54
   2  14 -20    8.71    0.91
  20   2 -14   10.23    0.92
  -2  20 -14   10.66    0.89
  14  20  -2    9.34    1.02
  20  14   2    8.95    0.92
  20  14  -2    9.77    0.96
  -2  14 -20    9.69    0.90
   2  20 -14   10.14    0.94
  14   2 -20    8.54    0.95
  20   3 -14   15.53    1.10
   3  14 -20   16.65    1.17
  14  20  -3   17.26    1.29
  20  14   3   18.34    1.16
  -3  20 -14   14.76    1.01
  -3  14 -20   16.98    1.12
   3  20 -14   16.82    1.14
  20  14  -3   18.53    1.18
  14   3 -20   15.63    1.20
  14  20  -4    8.95    0.98
   4  14 -20    7.95    0.91
  -4  20 -14    8.55    0.78
  20   4 -14    7.17    0.85
  20  14  -4    7.02    0.86
  -4  14 -20    7.60    0.79
  14   4 -20    6.13    0.87
   4  20 -14    6.40    0.82
   5  14 -20    9.95    0.99
  14  20  -5   10.15    1.05
  -5  20 -14   11.36    0.88
  20   5 -14   10.97    0.97
  -5  14 -20    9.25    0.86
  20  14  -5    8.32    0.91
  14   5 -20    8.75    0.95
   5  20 -14    8.21    0.90
  20   6 -14   13.88    1.10
  14  20  -6   13.69    1.19
   6  14 -20   15.04    1.21
   6  20 -14   13.99    1.12
  20  14  -6   14.01    1.13
  14   6 -20   14.76    1.20
  -6  14 -20   13.93    0.99
   7  14 -20    3.10    0.73
  20   7 -14    3.21    0.68
  14  20  -7    3.40    0.76
  14   7 -20    3.42    0.77
  20  14  -7    2.78    0.70
   7  20 -14    3.64    0.76
  20   8 -14   17.53    1.22
  14  20  -8   20.13    1.37
   8  14 -20   21.64    1.38
  14   8 -20   15.84    1.28
  20  14  -8   21.42    1.32
   8  20 -14   22.07    1.44
  14  20  -9    6.58    0.93
   9  14 -20    8.26    0.98
  20   9 -14    6.95    0.87
  20  14  -9    8.24    0.93
  14   9 -20    6.59    0.91
   9  20 -14    5.80    0.88
  14  20 -10    3.79    0.81
  10  14 -20    5.05    0.88
  20  10 -14    3.69    0.77
  20  14 -10    8.11    0.97
  14  10 -20    6.59    0.96
  10  20 -14    6.79    0.92
  20  11 -14    1.12    0.67
  14  20 -11    1.27    0.67
  11  14 -20    0.63    0.63
  11  20 -14    1.70    0.72
  14  11 -20    0.69    0.67
  20  14 -11    1.01    0.62
  14  20 -12    1.06    0.68
  12  14 -20    1.60    0.70
  20  12 -14    3.43    0.78
  20  14 -12    2.30    0.74
  14  12 -20    1.72    0.74
  12  20 -14    0.64    0.68
  13  14 -20    3.99    0.86
  20  13 -14    2.52    0.76
  14  20 -13    4.15    0.85
  14  13 -20    3.44    0.84
  13  20 -14    2.02    0.76
  20  14 -13    3.12    0.77
  14  20 -14   11.15    1.21
  14  14 -20    9.47    1.13
  20  14 -14    9.95    1.11
  15  20   0    4.16    0.78
  20  15   0    6.44    0.84
   0  15 -20    6.64    0.82
   0  20 -15    7.58    0.82
  20   0 -15    6.93    0.78
  15  20  -1    0.31    0.57
   1  15 -20    0.01    0.48
  20  15   1   -0.35    0.51
  20   1 -15   -0.46    0.47
  -1  20 -15   -0.77    0.45
  -1  15 -20   -0.25    0.49
  20  15  -1    0.19    0.51
   1  20 -15   -0.31    0.49
  -2  20 -15    0.37    0.48
  20  15   2    0.68    0.54
  20   2 -15    0.12    0.49
  15  20  -2   -0.03    0.55
   2  15 -20    0.13    0.51
  -2  15 -20   -0.05    0.48
  15   2 -20    0.23    0.55
  20  15  -2    0.39    0.52
   2  20 -15    0.33    0.53
  -3  20 -15    7.61    0.79
  15  20  -3    6.53    0.89
  20  15   3    5.55    0.81
  20   3 -15    7.28    0.85
   3  15 -20    5.12    0.79
  20  15  -3    7.34    0.88
  -3  15 -20    8.50    0.86
   3  20 -15    7.55    0.87
  15   3 -20    6.26    0.86
  20   4 -15    6.80    0.82
  -4  20 -15    7.41    0.76
  15  20  -4    6.31    0.91
   4  15 -20    6.29    0.86
   4  20 -15    7.13    0.87
  -4  15 -20    5.46    0.73
  20  15  -4    4.63    0.78
  15   4 -20    5.94    0.84
  15  20  -5    0.17    0.58
   5  15 -20    0.74    0.56
  20   5 -15   -0.19    0.49
   5  20 -15   -0.51    0.48
  20  15  -5    0.78    0.57
  -5  15 -20    0.87    0.49
  15   5 -20    0.25    0.57
  15  20  -6    4.34    0.81
   6  15 -20    4.85    0.80
  20   6 -15    5.02    0.77
   6  20 -15    5.84    0.82
  -6  15 -20    4.97    0.68
  15   6 -20    4.89    0.86
  20  15  -6    6.11    0.86
  20   7 -15   22.91    1.35
  15  20  -7   26.08    1.52
   7  15 -20   25.99    1.50
  20  15  -7   24.35    1.44
   7  20 -15   28.06    1.57
  15   7 -20   26.54    1.53
  15  20  -8   19.13    1.36
  20   8 -15   19.31    1.28
   8  15 -20   16.68    1.29
  15   8 -20   22.85    1.48
   8  20 -15   20.76    1.40
  20  15  -8   22.24    1.42
  15  20  -9    1.02    0.68
   9  15 -20    2.23    0.71
  20   9 -15    0.43    0.60
   9  20 -15    1.15    0.65
  20  15  -9    1.27    0.62
  15   9 -20    1.39    0.70
  15  20 -10    2.82    0.78
  10  15 -20    2.01    0.75
  20  10 -15    1.83    0.68
  20  15 -10    1.48    0.66
  10  20 -15    1.00    0.64
  15  10 -20    2.00    0.71
  20  11 -15   10.09    1.05
  15  20 -11   14.12    1.24
  11  15 -20   12.11    1.18
  11  20 -15    9.55    1.10
  15  11 -20   10.81    1.15
  20  15 -11   12.42    1.14
  12  15 -20   10.98    1.15
  20  12 -15    8.14    1.00
  15  20 -12   11.50    1.17
  15  12 -20   10.36    1.13
  12  20 -15   11.94    1.19
  20  15 -12   12.28    1.16
  20  13 -15    0.84    0.67
  15  20 -13    1.09    0.75
  13  15 -20    1.01    0.72
  20  15 -13   -0.33    0.62
  15  13 -20    0.54    0.70
  13  20 -15    2.19    0.75
  15  20 -14    8.28    1.06
  20  14 -15    8.73    1.09
  14  15 -20    6.79    1.03
  14  20 -15    9.45    1.13
  15  14 -20   10.33    1.18
  20  15 -14   10.28    1.15
  20  15 -15   -0.31    0.65
  15  20 -15   -0.38    0.70
  15  15 -20    0.44    0.74
  20  16   0   13.86    1.13
   0  20 -16   14.73    1.07
  16  20   0   15.18    1.21
   0  16 -20   14.07    1.10
  20  16   1    0.21    0.57
   1  16 -20    0.77    0.55
  20   1 -16   -0.07    0.47
  -1  20 -16   -0.57    0.45
  16  20  -1    0.40    0.59
  20  16  -1   -0.20    0.50
  16  20   1   -0.22    0.55
   1  20 -16    0.23    0.52
  -1  16 -20    0.61    0.51
   2  16 -20    0.59    0.57
  -2  20 -16    0.56    0.51
  20  16   2    1.57    0.62
  20   2 -16    1.51    0.59
  16  20  -2    0.23    0.60
   2  20 -16    1.02    0.59
  20  16  -2    1.27    0.61
  -2  16 -20    0.81    0.54
  -3  20 -16    1.20    0.53
  20  16   3    1.29    0.60
   3  16 -20    1.07    0.57
  20   3 -16    0.45    0.56
  16  20  -3    1.33    0.66
  20  16  -3    1.50    0.64
  16   3 -20    1.10    0.62
   3  20 -16    1.22    0.61
  -3  16 -20    1.79    0.58
  20   4 -16    5.76    0.81
   4  16 -20    4.69    0.79
  -4  20 -16    5.13    0.73
  16  20  -4    5.43    0.85
   4  20 -16    4.58    0.77
  16   4 -20    4.62    0.82
  -4  16 -20    3.53    0.66
  20  16  -4    3.95    0.75
  16  20  -5    2.37    0.73
  20   5 -16    3.53    0.71
   5  16 -20    2.75    0.69
  20  16  -5    2.66    0.70
   5  20 -16    2.20    0.66
  -5  16 -20    2.48    0.60
  16   5 -20    2.97    0.71
  20   6 -16    0.37    0.58
   6  16 -20    0.82    0.61
  16  20  -6    0.67    0.62
  16   6 -20    0.07    0.59
  20  16  -6    0.58    0.63
   6  20 -16   -0.34    0.54
   7  16 -20    4.10    0.82
  20   7 -16    3.89    0.78
  16  20  -7    3.26    0.77
   7  20 -16    4.43    0.83
  20  16  -7    3.90    0.79
  16   7 -20    3.05    0.78
   8  16 -20    2.37    0.74
  20   8 -16    2.20    0.70
  16  20  -8    3.49    0.83
  20  16  -8    1.93    0.67
   8  20 -16    1.21    0.66
  16   8 -20    1.63    0.72
   9  16 -20   -0.04    0.64
  16  20  -9    0.27    0.63
  20   9 -16    0.35    0.56
   9  20 -16    0.35    0.65
  20  16  -9   -0.39    0.54
  16   9 -20    0.30    0.64
  10  16 -20    0.95    0.70
  16  20 -10    0.63    0.65
  20  10 -16    1.46    0.68
  10  20 -16    1.34    0.70
  16  10 -20    0.66    0.68
  20  16 -10    1.65    0.70
  16  20 -11   10.60    1.18
  20  11 -16   10.85    1.11
  11  16 -20    8.93    1.10
  16  11 -20   13.10    1.24
  11  20 -16   10.93    1.16
  20  16 -11   10.15    1.12
  20  12 -16   22.76    1.50
  12  16 -20   23.71    1.60
  16  20 -12   21.20    1.57
  20  16 -12   20.81    1.46
  16  12 -20   17.56    1.46
  12  20 -16   21.15    1.54
  20  13 -16    0.18    0.65
  13  16 -20   -0.04    0.70
  16  20 -13    0.78    0.73
  20  16 -13    0.59    0.71
  13  20 -16    0.89    0.72
  16  13 -20    0.15    0.70
  16  20 -14    2.25    0.82
  20  14 -16    2.95    0.84
  14  16 -20    1.46    0.76
  14  20 -16    2.70    0.83
  20  16 -14    1.93    0.76
  16  14 -20    3.07    0.85
  15  16 -20    7.65    1.11
  16  20 -15    9.59    1.17
  20  15 -16    7.48    1.07
  20  16 -15    9.60    1.14
  15  20 -16   10.61    1.25
  16  15 -20    9.72    1.19
  16  16 -20   32.06    1.95
  20  16 -16   33.04    1.87
  16  20 -16   32.82    1.89
  17  20   0    9.16    1.02
   0  20 -17   10.82    0.98
   0  17 -20    7.47    0.88
  20  17   0    9.87    1.00
  17  20  -1    5.90    0.92
  20  17   1    5.89    0.86
  20   1 -17    6.40    0.83
   1  17 -20    6.09    0.84
  -1  20 -17    5.93    0.79
  20  17  -1    7.98    0.95
  17  20   1    6.27    0.90
   1  20 -17    4.80    0.76
  -1  17 -20    5.68    0.78
   2  17 -20    0.98    0.59
  20  17   2    1.55    0.64
  17  20  -2    1.49    0.68
  -2  20 -17    1.55    0.57
  20   2 -17    0.36    0.54
  -2  17 -20    0.82    0.54
  17  20   2    1.38    0.65
  20  17  -2    0.34    0.62
   2  20 -17    1.59    0.64
  17  20  -3    7.99    0.97
  20   3 -17    8.32    0.94
  -3  20 -17   10.63    0.93
  20  17   3   10.43    1.04
   3  17 -20    9.76    1.01
  20  17  -3   14.99    1.22
   3  20 -17   12.52    1.09
  17   3 -20   13.20    1.16
  -3  17 -20   11.33    1.00
   4  17 -20    2.03    0.68
  20   4 -17    1.76    0.63
  17  20  -4    1.40    0.70
  -4  20 -17    3.26    0.64
  -4  17 -20    1.77    0.59
  20  17  -4    2.04    0.70
  17   4 -20    1.75    0.68
   4  20 -17    1.30    0.61
   5  17 -20    1.85    0.68
  20   5 -17    1.70    0.64
  17  20  -5    2.08    0.75
  -5  17 -20   -0.14    0.78
  20  17  -5    1.91    0.67
  17   5 -20    1.92    0.69
   5  20 -17    1.42    0.64
   6  17 -20   12.05    1.15
  20   6 -17   10.79    1.08
  17  20  -6   11.47    1.16
  20  17  -6   11.62    1.11
  17   6 -20   10.90    1.08
   6  20 -17   12.57    1.14
   7  17 -20   21.00    1.43
  20   7 -17   20.06    1.36
  17  20  -7   17.67    1.38
  17   7 -20   16.16    1.34
  20  17  -7   15.63    1.26
   7  20 -17   14.53    1.24
  20   8 -17   10.58    1.10
  17  20  -8    8.66    1.08
   8  17 -20   11.31    1.16
   8  20 -17   11.30    1.15
  20  17  -8   12.53    1.17
  17   8 -20    9.83    1.12
   9  17 -20    0.89    0.67
  20   9 -17    0.94    0.68
  17  20  -9    1.39    0.74
   9  20 -17    2.23    0.74
  17   9 -20    3.24    0.80
  20  17  -9    0.33    0.66
  20  10 -17    0.85    0.64
  10  17 -20    0.87    0.72
  17  20 -10    0.87    0.72
  20  17 -10    0.07    0.65
  10  20 -17    1.15    0.69
  17  10 -20    0.87    0.67
  20  11 -17   22.73    1.55
  17  20 -11   19.74    1.49
  11  17 -20   19.53    1.50
  17  11 -20   23.79    1.64
  20  17 -11   22.27    1.53
  11  20 -17   22.13    1.56
  20  12 -17    7.70    1.00
  17  20 -12    6.06    0.99
  12  17 -20    5.88    0.98
  12  20 -17    7.28    1.06
  17  12 -20    7.96    1.06
  20  17 -12    7.50    1.05
  13  17 -20    3.30    0.89
  17  20 -13    6.22    1.02
  20  13 -17    6.81    1.02
  20  17 -13    5.03    0.96
  13  20 -17    6.12    1.00
  17  13 -20    5.95    1.00
  14  17 -20    3.87    0.95
  17  20 -14    3.34    0.88
  20  14 -17    3.94    0.89
  14  20 -17    4.14    0.92
  20  17 -14    3.88    0.87
  17  14 -20    4.21    0.93
  15  17 -20    8.19    1.14
  17  20 -15    8.38    1.20
  20  15 -17   10.94    1.24
  20  17 -15    9.63    1.17
  15  20 -17   11.41    1.27
  17  15 -20   11.13    1.25
  17  20 -16    2.39    0.85
  20  16 -17    2.74    0.86
  16  17 -20    2.38    0.91
  20  17 -16    4.00    0.95
  16  20 -17    1.56    0.85
  17  16 -20    2.92    0.87
  20  17 -17    1.26    0.86
  17  17 -20    0.51    1.01
   0  18 -20    6.54    0.85
  18  20   0    7.05    0.96
   0  20 -18    6.56    0.82
  20  18   0    5.79    0.89
  18  20  -1   55.54    2.21
  -1  20 -18   53.61    2.02
  20  18   1   51.32    2.12
   1  18 -20   52.01    2.04
  20  18  -1   55.77    2.18
  18  20   1   54.66    2.22
   1  20 -18   53.61    2.08
  -1  18 -20   54.77    2.07
  20   2 -18    4.92    0.81
  18  20  -2    7.06    0.94
  -2  20 -18    5.22    0.78
   2  18 -20    4.91    0.80
  20  18   2    4.49    0.83
  -2  18 -20    7.86    0.89
  18  20   2    8.75    1.01
   2  20 -18    8.09    0.93
  20  18  -2    5.82    0.92
  -3  20 -18    3.62    0.67
  18  20  -3    3.97    0.83
  20   3 -18    3.79    0.77
   3  18 -20    4.55    0.80
  20  18   3    3.56    0.79
  18   3 -20    5.39    0.86
  20  18  -3    5.69    0.90
   3  20 -18    3.98    0.80
  -3  18 -20    5.13    0.77
  18  20  -4    0.83    0.66
   4  18 -20    0.56    0.61
  20  18   4    0.64    0.62
  20   4 -18    1.29    0.62
   4  20 -18   -0.42    0.55
  -4  18 -20    0.93    0.54
  20  18  -4    1.86    0.70
  18   4 -20    0.43    0.65
  20   5 -18   10.53    1.08
  18  20  -5    9.32    1.08
   5  18 -20    8.32    1.00
  20  18  -5   14.25    1.26
   5  20 -18   14.73    1.21
  18   5 -20   14.70    1.25
  20   6 -18    1.37    0.66
   6  18 -20    1.19    0.69
  18  20  -6    1.72    0.72
  20  18  -6    0.22    0.64
   6  20 -18    0.76    0.68
  18   6 -20    0.31    0.65
  20   7 -18   21.10    1.46
  18  20  -7   23.22    1.52
   7  18 -20   20.86    1.52
   7  20 -18   21.44    1.45
  20  18  -7   20.42    1.43
  18   7 -20   19.75    1.46
   8  18 -20    4.02    0.87
  20   8 -18    3.89    0.82
  18  20  -8    1.33    0.75
   8  20 -18    4.15    0.87
  20  18  -8    4.31    0.87
  18   8 -20    2.83    0.79
   9  18 -20    3.03    0.86
  18  20  -9    5.17    0.91
  20   9 -18    6.37    0.94
   9  20 -18    5.62    0.96
  20  18  -9    5.41    0.90
  18   9 -20    5.49    0.95
  20  10 -18    5.11    0.96
  10  18 -20    6.13    1.00
  18  20 -10    5.74    0.95
  18  10 -20    6.06    0.98
  20  18 -10    5.15    0.93
  10  20 -18    4.47    0.93
  18  20 -11    1.72    0.79
  11  18 -20    0.91    0.72
  20  11 -18    1.58    0.73
  11  20 -18    1.54    0.78
  20  18 -11    0.55    0.69
  18  11 -20    0.85    0.71
  18  20 -12    3.79    0.89
  20  12 -18    4.12    0.91
  12  18 -20    4.38    0.90
  20  18 -12    2.04    0.80
  18  12 -20    3.19    0.89
  12  20 -18    4.11    0.90
  13  18 -20    0.48    0.74
  20  13 -18    1.69    0.80
  18  20 -13    0.84    0.77
  18  13 -20    0.92    0.74
  13  20 -18    1.43    0.78
  20  18 -13    1.23    0.79
  20  14 -18    1.01    0.77
  18  20 -14    0.70    0.81
  14  18 -20    2.30    0.87
  14  20 -18    3.33    0.92
  18  14 -20    2.16    0.86
  20  18 -14    1.72    0.81
  15  18 -20   11.47    1.32
  18  20 -15   13.30    1.35
  20  15 -18   10.52    1.26
  15  20 -18   13.58    1.39
  20  18 -15   10.87    1.27
  18  15 -20   13.53    1.35
  20  16 -18    1.40    0.87
  18  16 -20    2.70    1.02
  20  18 -16    1.14    0.87
   0  20 -19    2.25    0.69
   0  19 -20    1.25    0.64
  19  20   0    2.65    0.77
  20  19   0    1.46    0.68
  -1  20 -19   -0.01    0.52
  20  19   1   -0.36    0.61
  19  20  -1   -0.08    0.58
   1  19 -20    0.43    0.57
  19  20   1    0.68    0.65
   1  20 -19   -0.63    0.52
  20  19  -1    0.94    0.65
  -1  19 -20   -0.13    0.54
  20  19   2    8.58    1.05
  19  20  -2    9.32    1.07
  -2  20 -19   10.03    0.98
   2  19 -20    9.87    1.03
   2  20 -19   10.80    1.07
  19  20   2    9.65    1.09
  20  19  -2    8.92    1.05
  -2  19 -20   10.76    1.00
  -3  20 -19    8.33    0.89
  20  19   3    6.81    0.96
  19  20  -3    8.28    1.02
   3  19 -20    6.00    0.90
  20   3 -19    7.96    0.97
  19  20   3    8.15    1.02
  19   3 -20    7.68    0.97
  20  19  -3    6.01    0.94
  -3  19 -20    8.32    0.89
   3  20 -19    7.22    0.91
  20   4 -19    3.89    0.81
   4  19 -20    3.94    0.82
  20  19   4    4.68    0.88
  19  20  -4    5.73    0.92
   4  20 -19    4.77    0.86
  19   4 -20    5.27    0.88
  20  19  -4    3.66    0.80
   5  19 -20    0.95    0.71
  19  20  -5    1.45    0.73
  20   5 -19    0.90    0.68
   5  20 -19    1.91    0.73
  20  19  -5    0.35    0.64
  19   5 -20    1.15    0.70
  19  20  -6    4.97    0.92
  20   6 -19    4.65    0.89
   6  19 -20    6.64    0.96
   6  20 -19    7.86    0.99
  20  19  -6    7.58    1.03
  19   6 -20    8.52    1.04
  19  20  -7   11.37    1.20
   7  19 -20   12.09    1.20
  20   7 -19   11.69    1.17
   7  20 -19   10.56    1.13
  19   7 -20   11.61    1.19
  20  19  -7    9.01    1.11
  19  20  -8    6.28    0.98
   8  19 -20    8.95    1.09
  20   8 -19    7.96    1.04
  20  19  -8    8.75    1.08
  19   8 -20    7.77    1.02
   8  20 -19    9.15    1.08
   9  19 -20    5.11    0.93
  20   9 -19    6.14    0.99
  19  20  -9    4.46    0.94
  19   9 -20    3.94    0.90
  20  19  -9    4.12    0.87
   9  20 -19    4.81    0.90
  20  10 -19   16.73    1.40
  10  19 -20   16.78    1.41
  19  20 -10   20.67    1.54
  10  20 -19   17.11    1.45
  19  10 -20   19.31    1.51
  20  19 -10   21.27    1.56
  19  20 -11   22.36    1.62
  11  19 -20   22.27    1.63
  20  11 -19   24.31    1.62
  20  19 -11   24.22    1.71
  19  11 -20   23.94    1.68
  11  20 -19   24.75    1.67
  20  12 -19    0.31    0.73
  12  19 -20    2.37    0.85
  19  20 -12    1.34    0.78
  20  19 -12   -0.06    0.73
  12  20 -19    0.64    0.75
  19  12 -20    0.69    0.74
  13  19 -20   11.49    1.27
  20  13 -19   11.88    1.24
  19  20 -13   10.97    1.24
  19  13 -20    9.19    1.19
  20  19 -13   11.99    1.29
  13  20 -19    7.78    1.12
  20  14 -19    3.13    0.94
  19  20 -14    2.98    0.92
  14  19 -20    3.53    0.95
  19  14 -20    3.37    0.93
  14  20 -19    2.97    0.92
  20  19 -14    3.43    0.94
  20  15 -19    1.38    0.91
  19  15 -20    1.06    1.30
  20  19 -15    2.91    1.43
   0  20 -20   17.62    1.26
  20  20   0   21.27    1.51
  -1  20 -20    0.20    0.57
   1  20 -20    0.67    0.58
  20  20  -1    0.60    0.65
  20  20   1    0.92    0.68
  -2  20 -20    0.26    0.55
   2  20 -20    0.18    0.60
  20  20  -2    0.57    0.68
  20  20   2    0.91    0.71
   3  20 -20    5.24    0.89
  20   3 -20    2.93    0.75
  20  20  -3    4.95    0.91
  20  20   3    3.12    0.82
   4  20 -20    0.20    0.65
  20   4 -20    0.20    0.65
  20  20  -4   -0.44    0.61
  20  20   4   -0.21    0.62
   5  20 -20   -0.22    0.65
  20   5 -20   -0.12    0.63
  20  20  -5   -0.21    0.63
   6  20 -20    1.64    0.76
  20   6 -20   -0.14    0.66
  20  20  -6    1.30    0.73
   7  20 -20    2.89    0.82
  20   7 -20    1.00    0.74
  20  20  -7    1.56    0.77
   8  20 -20    0.64    0.71
  20   8 -20   -0.03    0.64
  20  20  -8    0.61    0.72
   9  20 -20    7.30    1.06
  20   9 -20    8.38    1.09
  20  20  -9    7.11    1.03
  10  20 -20    6.54    1.03
  20  10 -20    6.22    1.05
  20  20 -10    6.61    1.00
  11  20 -20    8.44    1.11
  20  11 -20   10.88    1.24
  20  20 -11    9.17    1.14
  12  20 -20   26.60    1.75
  20  12 -20   25.47    1.72
  20  20 -12   27.47    1.84
  13  20 -20    3.96    0.96
  20  13 -20    4.97    1.02
  20  20 -13    4.33    1.01
  21   2  -2    0.44    0.29
  21   3   0   26.20    0.98
   0  21  -3   25.05    1.23
  21   3   1   15.89    1.02
  -1  21  -3   14.14    0.96
   1  21  -3   11.83    0.92
  21   3  -1   10.90    0.69
  21   2  -3   11.21    0.69
  -2  21  -3   12.27    0.84
   2  21  -3   16.56    1.04
  21   3  -2   16.97    0.83
  21   3  -3    3.45    0.45
   3  21  -3    3.48    0.61
  -3  21  -3    3.60    0.55
   0  21  -4   -0.01    0.40
  21   4   0   -0.02    0.28
  21   1  -4    5.07    0.50
  -1  21  -4    4.67    0.62
  21   4   1    5.13    0.52
   1  21  -4    4.08    0.61
  21   4  -1    3.30    0.46
  21   2  -4   25.12    0.99
  21   4   2   22.88    0.95
  -2  21  -4   23.74    1.14
  21   4  -2   23.26    1.01
   2  21  -4   25.63    1.25
  21   4   3    3.32    0.51
   4  21  -3    3.30    0.63
  -3  21  -4    3.11    0.51
  21   3  -4    3.00    0.47
  21   4  -3    4.39    0.52
  -4  21  -3    3.48    0.54
   3  21  -4    4.12    0.65
   4  21  -4    1.73    0.55
  21   4  -4    1.34    0.40
  -4  21  -4    0.65    0.40
  21   5   0    0.20    0.31
   0  21  -5   -0.16    0.39
  21   5   1   11.30    0.74
  -1  21  -5   11.85    0.87
  21   1  -5   12.04    0.72
  21   5  -1   10.06    0.71
   1  21  -5    9.21    0.81
  21   2  -5   41.06    1.36
  21   5   2   38.20    1.34
  -2  21  -5   41.95    1.52
   2  21  -5   40.62    1.57
  -5  21  -2   38.10    1.40
  21   5  -2   37.94    1.35
  21   3  -5   10.18    0.70
  21   5   3    7.83    0.63
  -3  21  -5    8.09    0.72
   5  21  -3    9.91    0.91
  21   5  -3    8.83    0.70
   3  21  -5    8.70    0.83
  -5  21  -3   10.69    0.77
  21   4  -5    2.84    0.48
   5  21  -4    2.33    0.57
  -4  21  -5    2.29    0.47
  21   5   4    1.89    0.41
  -5  21  -4    2.91    0.49
   4  21  -5    2.35    0.59
  21   5  -4    3.24    0.50
  -5  21  -5    6.66    0.64
  21   5  -5    7.07    0.66
   5   5 -21    4.48    0.74
   5  21  -5    5.53    0.75
  21   5   5    5.25    0.55
  21   0  -6   58.48    1.74
  21   6   0   59.68    1.81
   0  21  -6   59.03    1.94
  21   6   1   23.74    1.02
  -1  21  -6   22.95    1.12
  21   1  -6   21.45    0.97
   1  21  -6   23.65    1.20
  21   6  -1   23.29    1.05
  21   2  -6    0.33    0.35
  21   6   2    1.48    0.40
  -2  21  -6    1.13    0.44
   2  21  -6    1.90    0.53
  21   6  -2    2.23    0.45
  -6  21  -2    1.66    0.43
  21   6   3   38.87    1.36
  -3  21  -6   39.65    1.46
   6  21  -3   39.62    1.64
  21   3  -6   34.83    1.32
   3   6 -21   37.49    1.64
  21   6  -3   38.02    1.39
   3  21  -6   37.36    1.55
  -6  21  -3   37.50    1.35
  21   4  -6   14.89    0.88
  21   6   4   15.69    0.87
   4   6 -21   15.64    1.11
   6  21  -4   16.71    1.12
  -4  21  -6   15.98    0.92
  21   6  -4   14.90    0.91
   4  21  -6   15.32    1.05
  -6  21  -4   15.37    0.88
   6  21  -5   72.37    2.44
   5   6 -21   79.31    2.54
  21   6   5   76.86    2.17
  21   5  -6   79.88    2.27
  -5  21  -6   74.41    2.18
   6   5 -21   79.83    2.57
  -6  21  -5   76.77    2.21
   5  21  -6   79.49    2.50
  21   6  -5   77.51    2.29
   6   6 -21    0.33    0.51
  -6  21  -6    0.52    0.37
  21   6  -6    0.09    0.39
   6  21  -6    0.33    0.47
  21   0  -7    9.47    0.71
  21   7   0   11.58    0.79
   0  21  -7   11.05    0.90
  -1  21  -7   38.74    1.53
  21   1  -7   41.52    1.41
   1   7 -21   42.40    1.70
  21   7   1   40.57    1.44
   1  21  -7   38.48    1.54
  21   7  -1   39.76    1.43
   2   7 -21    2.11    0.57
   7  21  -2    1.72    0.57
  21   2  -7    1.83    0.43
  -2  21  -7    1.56    0.46
  21   7   2    2.15    0.46
  21   7  -2    2.49    0.50
  -7  21  -2    2.73    0.45
   2  21  -7    2.90    0.59
  21   3  -7   18.78    0.95
  21   7   3   15.79    0.91
  -3  21  -7   16.56    0.97
   7  21  -3   19.88    1.20
   3   7 -21   17.97    1.17
  -7  21  -3   15.24    0.85
  21   7  -3   13.31    0.88
   3  21  -7   16.18    1.06
  -4  21  -7   20.97    1.05
   7  21  -4   22.30    1.29
   4   7 -21   21.65    1.28
  21   4  -7   21.31    1.05
  21   7   4   22.20    1.03
   7   4 -21   27.13    1.42
  -7  21  -4   25.03    1.06
  21   7  -4   25.46    1.17
   4  21  -7   23.59    1.28
  -5  21  -7   12.63    0.83
  21   5  -7   12.89    0.88
   7  21  -5   12.79    1.05
  21   7   5   12.20    0.81
   5   7 -21   11.43    1.02
  -7  21  -5   11.15    0.77
  21   7  -5   11.98    0.88
   5  21  -7   15.26    1.08
   7   5 -21   11.16    1.00
   6   7 -21   19.68    1.26
   7  21  -6   20.50    1.24
  -6  21  -7   20.93    0.98
  21   6  -7   20.35    1.08
   6  21  -7   22.45    1.29
   7   6 -21   22.37    1.32
  21   7  -6   21.98    1.13
  21   7  -7   13.24    0.91
   7   7 -21   12.16    1.03
   7  21  -7   12.68    1.05
  21   8   0   11.88    0.85
   0  21  -8   13.12    0.96
   0   8 -21   10.46    0.94
  21   0  -8   12.35    0.79
   1   8 -21    2.26    0.59
  21   1  -8    1.60    0.41
  21   8   1    1.70    0.45
  -1  21  -8    1.41    0.49
  21  -1  -8    1.16    0.39
   1  21  -8    0.91    0.47
  21   8  -1    1.08    0.44
  -8  21  -1    1.24    0.38
   8  21  -2   14.32    1.10
  -2  21  -8   13.53    0.92
   2   8 -21   11.48    0.98
  21   8   2   13.60    0.90
  21   2  -8   11.66    0.81
  21   8  -2   13.97    0.92
   2  21  -8   16.06    1.07
   3   8 -21   15.94    1.13
  21   8   3   14.99    0.92
  21   3  -8   14.54    0.90
  -3  21  -8   16.13    0.95
   8  21  -3   15.83    1.13
   3  21  -8   12.24    0.97
  21   8  -3   10.11    0.81
   4   8 -21    2.87    0.64
  21   8   4    4.54    0.59
   8  21  -4    2.29    0.62
  21   4  -8    3.32    0.56
  -4  21  -8    4.62    0.60
   8   4 -21    3.19    0.68
  21   8  -4    3.43    0.57
   4  21  -8    3.50    0.64
  -5  21  -8    3.96    0.55
  21   8   5    3.56    0.55
   8  21  -5    3.62    0.67
   5   8 -21    3.72    0.70
  21   5  -8    3.16    0.56
  21   8  -5    4.49    0.64
   8   5 -21    3.81    0.69
   5  21  -8    3.67    0.67
   8  21  -6    4.86    0.73
  21   6  -8    5.65    0.68
   6   8 -21    6.42    0.86
  -6  21  -8    7.71    0.68
   8   6 -21    6.24    0.80
  21   8  -6    5.53    0.68
   6  21  -8    4.96    0.75
   7   8 -21    9.09    0.97
  21   7  -8    9.07    0.82
   8  21  -7    8.09    0.89
   8   7 -21    5.68    0.81
  21   8  -7    6.72    0.74
   7  21  -8    6.83    0.85
  21   8  -8   26.10    1.30
   8  21  -8   26.03    1.42
   8   8 -21   25.32    1.44
   0  21  -9    0.24    0.45
  21   0  -9    0.20    0.37
  21   9   0    0.74    0.42
   0   9 -21    0.30    0.46
   1   9 -21   18.56    1.17
  -1  21  -9   18.57    1.07
  21   9   1   18.93    1.04
  21   1  -9   18.37    0.98
  21  -1  -9   20.44    1.00
  21   9  -1   21.57    1.10
  -1   9 -21   19.46    1.17
   1  21  -9   21.66    1.19
   2   9 -21    0.47    0.50
   9  21  -2    0.00    0.51
  21   2  -9   -0.13    0.37
  -2  21  -9    0.64    0.42
  21   9   2    0.15    0.41
  21   9  -2    0.10    0.41
   2  21  -9   -0.08    0.44
   9  21  -3   13.14    1.07
  21   3  -9   13.74    0.89
  -3  21  -9   13.49    0.90
   3   9 -21   10.86    0.98
  21   9   3   13.21    0.94
  21   9  -3    8.49    0.78
   3  21  -9    9.04    0.87
  21   9   4    8.64    0.77
  -4  21  -9    7.75    0.72
   4   9 -21    9.62    0.97
   9  21  -4    8.47    0.91
  21   4  -9    8.56    0.77
  21   9  -4    6.92    0.74
   4  21  -9    9.00    0.87
   9   4 -21    7.33    0.85
   9  21  -5    4.74    0.76
   5   9 -21    6.81    0.86
  -5  21  -9    7.67    0.70
  21   5  -9    6.33    0.69
  21   9  -5    5.92    0.72
   9   5 -21    5.58    0.82
   5  21  -9    7.31    0.83
   9  21  -6   16.97    1.21
  -6  21  -9   18.78    0.97
   6   9 -21   19.03    1.27
  21   6  -9   19.35    1.07
  21   9  -6   17.82    1.10
   9   6 -21   19.26    1.29
   6  21  -9   17.30    1.18
  21   7  -9   27.20    1.31
   9  21  -7   28.34    1.49
   7   9 -21   29.91    1.53
  21   9  -7   27.25    1.30
   9   7 -21   27.18    1.50
   7  21  -9   27.71    1.44
   9  21  -8    1.99    0.62
   8   9 -21    2.42    0.69
  21   8  -9    0.51    0.49
   8  21  -9    1.53    0.59
   9   8 -21    1.82    0.65
  21   9  -8    1.90    0.55
  21   9  -9    7.07    0.81
   9  21  -9    5.80    0.82
   9   9 -21    4.65    0.78
   0  10 -21    3.20    0.64
  21   0 -10    2.94    0.52
   0  21 -10    2.65    0.59
  21  10   0    3.32    0.59
  -1  21 -10   37.80    1.49
   1  10 -21   35.97    1.58
  21  10   1   33.42    1.43
  21   1 -10   34.07    1.37
   1  21 -10   39.38    1.56
  -1  10 -21   36.67    1.61
  21  10  -1   38.67    1.51
  21  -1 -10   37.25    1.40
  10  21  -2    2.36    0.61
  -2  21 -10    2.38    0.52
  21  10   2    3.92    0.61
   2  10 -21    2.34    0.61
  21   2 -10    3.42    0.56
  -2  10 -21    2.62    0.60
  21  10  -2    2.49    0.57
   2  21 -10    1.56    0.54
   3  10 -21    5.82    0.78
  21  10   3    4.64    0.63
  -3  21 -10    3.66    0.57
  21   3 -10    3.32    0.58
  10  21  -3    4.02    0.74
  21  10  -3    4.38    0.65
   3  21 -10    3.99    0.66
  -4  21 -10    8.30    0.75
   4  10 -21    9.02    0.96
  21   4 -10    8.87    0.79
  21  10   4    9.07    0.81
  10  21  -4    7.51    0.89
   4  21 -10    8.08    0.85
  21  10  -4    8.13    0.80
  10   4 -21    7.51    0.91
  -5  21 -10   32.34    1.30
   5  10 -21   33.39    1.59
  10  21  -5   29.58    1.54
  21   5 -10   31.32    1.38
  10   5 -21   27.58    1.51
   5  21 -10   29.20    1.48
  21  10  -5   31.44    1.39
  21   6 -10    2.37    0.57
  10  21  -6    1.73    0.62
   6  10 -21    3.74    0.72
  10   6 -21    1.74    0.63
   6  21 -10    2.35    0.64
  21  10  -6    3.08    0.62
  21   7 -10    8.91    0.86
   7  10 -21    6.65    0.88
  10  21  -7    8.82    0.97
   7  21 -10    7.23    0.90
  10   7 -21    5.92    0.88
  21  10  -7    8.04    0.83
  10  21  -8   12.46    1.10
   8  10 -21   12.38    1.11
  21   8 -10   11.57    0.98
  10   8 -21   13.03    1.11
  21  10  -8   11.86    0.99
   8  21 -10   12.54    1.08
  21   9 -10   17.32    1.13
   9  10 -21   18.49    1.32
  10  21  -9   17.90    1.27
   9  21 -10   20.04    1.31
  21  10  -9   17.39    1.16
  10   9 -21   16.33    1.25
  10  21 -10    6.65    0.91
  21  10 -10    9.06    0.91
  10  10 -21    7.40    0.95
   0  21 -11   22.94    1.21
  21   0 -11   20.48    1.09
   0  11 -21   21.43    1.28
  21  11   0   21.25    1.15
   1  11 -21    3.36    0.67
  11  21  -1    2.68    0.68
  21  11   1    2.80    0.61
  -1  21 -11    3.24    0.60
  21   1 -11    2.33    0.54
  21  11  -1    5.55    0.69
  21  -1 -11    4.90    0.61
  -1  11 -21    3.58    0.67
   1  21 -11    3.60    0.65
   2  11 -21   15.69    1.13
  21  11   2   13.93    0.97
  11  21  -2   13.36    1.13
  -2  21 -11   14.23    0.97
  21   2 -11   13.24    0.93
   2  21 -11   16.85    1.08
  21  11  -2   15.78    1.05
  -2  11 -21   14.43    1.04
  -3  21 -11   25.12    1.18
  11  21  -3   24.20    1.40
  21  11   3   23.89    1.24
  21   3 -11   22.44    1.18
   3  11 -21   20.88    1.29
  -3  11 -21   22.62    1.21
  21  11  -3   22.99    1.23
  11   3 -21   22.69    1.37
   3  21 -11   21.01    1.23
  21   4 -11    8.81    0.82
  21  11   4    7.78    0.79
   4  11 -21    8.61    0.92
  -4  21 -11   10.09    0.82
  11  21  -4   10.80    1.02
  21  11  -4    7.35    0.78
   4  21 -11    8.06    0.86
  11   4 -21    7.14    0.90
   5  11 -21    2.10    0.62
  21   5 -11    1.87    0.55
  11  21  -5    2.12    0.67
  -5  21 -11    1.80    0.48
   5  21 -11    3.06    0.68
  11   5 -21    3.56    0.75
  21  11  -5    1.99    0.57
   6  11 -21    6.81    0.87
  11  21  -6    6.03    0.84
  21   6 -11    7.59    0.80
  11   6 -21    6.87    0.89
   6  21 -11    5.53    0.78
  21  11  -6    6.44    0.75
  11  21  -7    8.07    0.96
   7  11 -21    8.22    0.93
  21   7 -11    8.07    0.85
  11   7 -21    8.74    1.00
   7  21 -11    8.25    0.95
  21  11  -7   11.00    0.96
  11  21  -8    3.22    0.72
   8  11 -21    2.79    0.71
  21   8 -11    3.69    0.67
  21  11  -8    2.88    0.63
  11   8 -21    5.04    0.83
   8  21 -11    2.54    0.69
  11  21  -9    9.97    1.02
   9  11 -21   10.19    1.05
  21   9 -11   10.14    0.96
  11   9 -21    8.33    0.98
  21  11  -9    7.87    0.89
   9  21 -11    9.61    0.99
  11  21 -10    6.07    0.91
  21  10 -11    5.30    0.78
  10  11 -21    4.54    0.80
  21  11 -10    3.38    0.71
  11  10 -21    3.60    0.77
  10  21 -11    3.51    0.76
  11  11 -21   27.37    1.58
  21  11 -11   25.06    1.42
  11  21 -11   27.19    1.55
   0  12 -21   17.30    1.15
  21  12   0   18.63    1.16
   0  21 -12   19.46    1.17
  21   0 -12   18.76    1.07
  21   1 -12   12.30    0.92
   1  12 -21    9.91    0.93
  21  12   1   10.86    0.94
  -1  21 -12   12.06    0.95
  12  21  -1   12.13    1.08
  21  -1 -12   11.49    0.87
  21  12  -1   11.64    0.96
  -1  12 -21   11.93    1.00
   1  21 -12    9.58    0.89
   2  12 -21    1.66    0.61
  -2  21 -12    2.71    0.56
  21   2 -12    2.15    0.56
  12  21  -2    1.56    0.64
  21  12   2    2.34    0.59
   2  21 -12    2.62    0.61
  -2  12 -21    1.70    0.57
  21  12  -2    2.67    0.60
  -3  21 -12    6.13    0.70
  21   3 -12    5.01    0.70
   3  12 -21    6.66    0.84
  21  12   3    5.46    0.72
  12  21  -3    5.97    0.88
  12   3 -21    8.96    0.99
   3  21 -12    7.81    0.86
  -3  12 -21    7.74    0.82
  21  12  -3    8.25    0.87
  12  21  -4   45.62    1.90
  -4  21 -12   44.63    1.63
  21   4 -12   45.50    1.70
   4  12 -21   44.81    1.86
  21  12   4   39.88    1.68
  21  12  -4   45.64    1.79
  12   4 -21   48.01    1.98
   4  21 -12   49.15    1.89
   5  12 -21    2.19    0.64
  21   5 -12    1.91    0.55
  12  21  -5    2.05    0.66
  -5  21 -12    1.58    0.47
  12   5 -21    1.31    0.65
   5  21 -12    1.75    0.62
  21  12  -5    1.90    0.58
  21   6 -12    6.70    0.78
   6  12 -21    5.88    0.87
  12  21  -6    4.79    0.80
  21  12  -6    7.01    0.81
   6  21 -12    6.06    0.82
  12   6 -21    7.73    0.95
  12  21  -7    9.91    1.05
  21   7 -12   10.32    0.95
   7  12 -21   10.25    1.05
  12   7 -21   11.12    1.07
  21  12  -7   12.68    1.07
   7  21 -12   11.81    1.08
  21   8 -12   25.74    1.35
  12  21  -8   23.80    1.48
   8  12 -21   24.41    1.46
  12   8 -21   25.78    1.53
   8  21 -12   27.68    1.51
  21  12  -8   26.61    1.41
   9  12 -21    4.15    0.79
  12  21  -9    2.66    0.73
  21   9 -12    4.04    0.74
  12   9 -21    3.36    0.78
  21  12  -9    1.87    0.62
   9  21 -12    3.13    0.76
  21  10 -12    3.26    0.73
  10  12 -21    3.42    0.77
  12  21 -10    4.26    0.82
  12  10 -21    4.74    0.85
  21  12 -10    4.05    0.78
  10  21 -12    4.26    0.80
  12  21 -11   11.27    1.13
  21  11 -12   14.00    1.16
  11  12 -21   11.99    1.19
  12  11 -21   12.07    1.16
  11  21 -12    9.59    1.05
  21  12 -11   13.29    1.14
  21  12 -12   29.67    1.59
  12  12 -21   31.81    1.71
  12  21 -12   30.42    1.68
  21  13   0   26.17    1.34
  13  21   0   26.13    1.48
  21   0 -13   26.24    1.30
   0  13 -21   24.98    1.39
   0  21 -13   25.49    1.33
  21   1 -13   27.06    1.32
  21  13   1   30.74    1.44
   1  13 -21   29.35    1.46
  -1  21 -13   28.65    1.38
  13  21  -1   29.50    1.55
  21  13  -1   26.87    1.38
  -1  13 -21   32.14    1.46
   1  21 -13   27.98    1.41
  -2  21 -13    9.85    0.86
   2  13 -21    9.68    0.96
  13  21  -2    9.97    1.03
  21   2 -13    9.67    0.89
  21  13   2   11.43    0.98
  21  13  -2    9.92    0.94
   2  21 -13   11.08    0.97
  -2  13 -21   10.43    0.95
  21  13   3   11.07    0.97
  -3  21 -13   11.65    0.92
  21   3 -13   12.04    0.99
   3  13 -21   10.84    1.02
  13  21  -3   10.38    1.08
  -3  13 -21   13.03    1.04
   3  21 -13   12.66    1.06
  13   3 -21   14.16    1.16
  21  13  -3   12.43    1.04
  -4  21 -13    2.00    0.53
  13  21  -4    4.52    0.81
  21   4 -13    2.17    0.61
  21  13   4    2.43    0.64
   4  13 -21    3.38    0.72
  -4  13 -21    1.99    0.57
  13   4 -21    2.41    0.70
  21  13  -4    2.22    0.60
   4  21 -13    2.32    0.64
  13  21  -5    4.33    0.81
   5  13 -21    3.41    0.74
  21   5 -13    3.89    0.70
   5  21 -13    4.43    0.77
  21  13  -5    4.17    0.70
  13   5 -21    3.41    0.76
  13  21  -6    5.92    0.89
   6  13 -21    4.56    0.81
  21   6 -13    3.76    0.70
  21  13  -6    4.38    0.72
  13   6 -21    4.11    0.82
   6  21 -13    5.32    0.83
  21   7 -13    8.45    0.92
  13  21  -7    8.84    1.02
   7  13 -21    8.24    0.96
  13   7 -21    8.80    1.02
   7  21 -13    9.04    0.98
  21  13  -7    9.84    0.97
  13  21  -8    2.08    0.72
  21   8 -13    3.03    0.66
   8  13 -21    3.38    0.76
   8  21 -13    4.01    0.78
  21  13  -8    3.81    0.72
  13   8 -21    4.32    0.86
   9  13 -21    2.40    0.72
  13  21  -9    1.95    0.71
  21   9 -13    2.38    0.67
  21  13  -9    1.81    0.67
  13   9 -21    1.02    0.66
   9  21 -13    1.08    0.64
  13  21 -10    0.00    0.62
  21  10 -13   -0.32    0.55
  10  13 -21    0.27    0.63
  13  10 -21    0.03    0.58
  10  21 -13    0.43    0.60
  21  13 -10    0.34    0.57
  11  13 -21   11.01    1.16
  21  11 -13   12.68    1.15
  13  21 -11   11.92    1.18
  13  11 -21    9.56    1.08
  21  13 -11   11.69    1.12
  11  21 -13   11.48    1.15
  21  12 -13    0.68    0.64
  12  13 -21    0.08    0.66
  13  21 -12   -0.29    0.60
  13  12 -21    1.82    0.72
  12  21 -13    1.32    0.71
  21  13 -12    1.11    0.62
  13  13 -21    5.26    0.96
  13  21 -13    4.38    0.91
  21  13 -13    5.17    0.87
  21   0 -14    9.08    0.85
   0  21 -14    7.96    0.86
  14  21   0    9.69    1.01
   0  14 -21    9.04    0.93
  21  14   0    8.63    0.90
  21   1 -14    6.04    0.75
   1  14 -21    5.74    0.79
  21  14   1    5.95    0.79
  -1  21 -14    5.18    0.71
  14  21  -1    5.19    0.84
   1  21 -14    3.42    0.67
  -1  14 -21    3.36    0.69
  21  14  -1    3.75    0.71
  14  21  -2    5.99    0.88
   2  14 -21    5.63    0.82
  21  14   2    7.84    0.89
  -2  21 -14    9.19    0.85
  21   2 -14    7.84    0.86
  -2  14 -21    9.03    0.91
  21  14  -2    8.60    0.92
   2  21 -14    7.71    0.88
   3  14 -21    1.12    0.61
  14  21  -3    0.80    0.63
  21  14   3    0.98    0.55
  -3  21 -14    1.07    0.50
  21   3 -14    1.97    0.60
  14   3 -21    2.22    0.69
   3  21 -14    1.34    0.58
  21  14  -3    2.51    0.63
  -3  14 -21    1.49    0.58
  14  21  -4   12.24    1.15
  21  14   4   12.74    1.06
  21   4 -14   12.75    1.02
   4  14 -21   10.95    1.05
  -4  21 -14   11.43    0.91
  21  14  -4   11.74    1.03
  -4  14 -21   12.57    1.01
   4  21 -14   12.25    1.07
  14   4 -21   12.00    1.13
  21   5 -14   23.95    1.35
  14  21  -5   21.07    1.42
   5  14 -21   22.66    1.39
   5  21 -14   22.39    1.35
  -5  14 -21   19.34    1.19
  14   5 -21   21.25    1.41
  21  14  -5   19.18    1.26
  21   6 -14    8.11    0.91
   6  14 -21    8.39    0.96
  14  21  -6    9.58    1.04
  21  14  -6    6.36    0.87
   6  21 -14    6.08    0.87
  14   6 -21    7.63    0.99
   7  14 -21   12.58    1.15
  21   7 -14   12.15    1.07
  14  21  -7    8.88    1.03
  21  14  -7    8.52    0.94
  14   7 -21    9.23    1.03
   7  21 -14    8.65    0.99
  14  21  -8   13.54    1.22
   8  14 -21   12.03    1.16
  21   8 -14   11.82    1.07
  21  14  -8   14.67    1.19
   8  21 -14   14.89    1.24
  14   8 -21   15.13    1.27
  21   9 -14   13.68    1.15
  14  21  -9   16.55    1.34
   9  14 -21   13.85    1.23
  21  14  -9   15.69    1.25
  14   9 -21   15.45    1.31
   9  21 -14   14.97    1.24
  14  21 -10    6.94    0.99
  21  10 -14    6.81    0.92
  10  14 -21    6.67    0.96
  21  14 -10    8.08    0.98
  14  10 -21    8.77    1.06
  10  21 -14    7.78    1.03
  21  11 -14    5.97    0.91
  11  14 -21    8.87    1.07
  14  21 -11    7.24    1.01
  11  21 -14    7.58    1.00
  14  11 -21    7.40    1.03
  21  14 -11    6.54    0.92
  14  21 -12    1.20    0.71
  12  14 -21    1.71    0.75
  21  12 -14    1.69    0.70
  12  21 -14    0.21    0.66
  14  12 -21   -0.07    0.64
  21  14 -12    1.07    0.69
  14  21 -13   13.23    1.26
  21  13 -14   12.85    1.22
  13  14 -21   10.14    1.17
  21  14 -13   12.43    1.19
  14  13 -21   11.50    1.23
  13  21 -14   14.75    1.33
  14  21 -14    1.70    0.78
  14  14 -21    2.48    0.83
  21  14 -14    1.87    0.74
  15  21   0   25.70    1.52
   0  21 -15   26.09    1.37
  21   0 -15   24.84    1.32
   0  15 -21   23.09    1.34
  21  15   0   25.37    1.39
  21   1 -15    1.67    0.60
  -1  21 -15    1.54    0.59
  15  21  -1    1.31    0.66
  21  15   1    2.50    0.67
   1  15 -21    1.18    0.59
  -1  15 -21    3.01    0.66
  15  21   1    3.18    0.78
   1  21 -15    3.18    0.67
  21  15  -1    3.21    0.70
  15  21  -2    3.91    0.81
   2  15 -21    3.40    0.73
  21  15   2    3.00    0.68
  21   2 -15    3.38    0.69
  -2  21 -15    2.25    0.60
  21  15  -2    1.71    0.64
   2  21 -15    2.46    0.66
  -2  15 -21    2.16    0.62
  21   3 -15    2.87    0.68
  21  15   3    3.38    0.72
   3  15 -21    3.17    0.70
  -3  21 -15    3.66    0.65
  15  21  -3    1.33    0.66
  15   3 -21    3.39    0.74
  -3  15 -21    3.17    0.65
   3  21 -15    4.42    0.77
  21  15  -3    4.67    0.78
  21   4 -15   26.61    1.42
  -4  21 -15   24.41    1.25
   4  15 -21   25.35    1.46
  15  21  -4   24.31    1.51
  21  15   4   26.37    1.46
  15   4 -21   27.38    1.55
  21  15  -4   23.42    1.41
   4  21 -15   27.56    1.46
  -4  15 -21   26.91    1.38
  15  21  -5    1.33    0.68
   5  15 -21    1.94    0.69
  21   5 -15    0.92    0.60
  -5  15 -21    2.27    0.59
   5  21 -15    0.88    0.61
  21  15  -5    0.68    0.59
  15   5 -21    2.07    0.74
  15  21  -6    4.85    0.87
  21   6 -15    4.17    0.73
   6  15 -21    5.75    0.88
  15   6 -21    4.84    0.84
  21  15  -6    4.33    0.81
   6  21 -15    5.19    0.83
  15  21  -7    2.97    0.78
   7  15 -21    2.72    0.75
  21   7 -15    2.40    0.69
  15   7 -21    1.71    0.72
   7  21 -15    1.61    0.67
  21  15  -7    0.93    0.62
  15  21  -8    6.97    0.94
   8  15 -21    4.37    0.84
  21   8 -15    5.34    0.82
   8  21 -15    3.57    0.79
  15   8 -21    5.63    0.89
  21  15  -8    4.78    0.84
  15  21  -9    4.44    0.86
  21   9 -15    5.58    0.88
   9  15 -21    3.69    0.81
   9  21 -15    5.02    0.88
  15   9 -21    5.70    0.93
  21  15  -9    5.11    0.85
  21  10 -15    9.37    1.04
  10  15 -21   11.57    1.15
  15  21 -10   10.74    1.15
  10  21 -15    9.43    1.11
  15  10 -21    8.97    1.10
  21  15 -10    8.73    1.03
  15  21 -11    0.49    0.64
  11  15 -21    0.24    0.67
  21  11 -15    0.85    0.67
  15  11 -21    1.47    0.71
  21  15 -11   -0.12    0.59
  11  21 -15    0.31    0.66
  15  21 -12   11.92    1.25
  21  12 -15   12.68    1.21
  12  15 -21   13.73    1.30
  21  15 -12    9.54    1.11
  15  12 -21    8.66    1.09
  12  21 -15    9.74    1.13
  15  21 -13    8.52    1.12
  13  15 -21    7.87    1.10
  21  13 -15    7.43    1.02
  15  13 -21    7.29    1.06
  13  21 -15    6.84    1.02
  21  15 -13    7.09    1.01
  14  15 -21   12.13    1.29
  21  14 -15   10.61    1.15
  15  21 -14    9.62    1.17
  14  21 -15    8.64    1.14
  15  14 -21    6.41    1.06
  21  15 -14    8.43    1.08
  15  15 -21    4.02    0.93
  21  15 -15    2.91    0.85
  15  21 -15    5.14    0.99
   0  16 -21    9.49    0.97
  16  21   0   10.84    1.11
  21  16   0   10.62    1.04
   0  21 -16    8.84    0.92
  -1  21 -16    1.27    0.57
  21   1 -16    0.07    0.48
  16  21  -1    0.27    0.62
  21  16   1    0.64    0.59
   1  16 -21    0.30    0.57
  -1  16 -21    0.71    0.55
   1  21 -16    0.50    0.55
  16  21   1   -0.17    0.59
  21  16  -1    1.37    0.62
  16  21  -2    0.36    0.59
  21   2 -16    0.00    0.51
  -2  21 -16    0.06    0.49
   2  16 -21    0.55    0.55
  21  16   2   -0.11    0.53
  21  16  -2    0.30    0.56
  -2  16 -21    0.86    0.56
   2  21 -16    0.17    0.55
   3  16 -21    1.88    0.65
  21   3 -16    3.11    0.68
  -3  21 -16    1.65    0.57
  16  21  -3    2.31    0.73
  21  16   3    2.49    0.69
  21  16  -3    3.06    0.74
   3  21 -16    3.56    0.73
  16   3 -21    3.08    0.76
  -3  16 -21    3.91    0.70
  16  21  -4    6.19    0.94
   4  16 -21    5.04    0.84
  21   4 -16    6.28    0.85
  21  16   4    6.20    0.88
  16   4 -21    6.63    0.91
  -4  16 -21    6.35    0.81
  21  16  -4    5.85    0.89
   4  21 -16    5.82    0.85
  16  21  -5    5.78    0.91
   5  16 -21    5.24    0.87
  21   5 -16    3.99    0.76
  16   5 -21    5.22    0.86
  21  16  -5    4.69    0.84
   5  21 -16    4.86    0.80
  -5  16 -21    3.90    0.70
  16  21  -6    1.05    0.67
   6  16 -21   -0.07    0.61
  21   6 -16   -0.93    0.49
  21  16  -6    0.37    0.58
  16   6 -21    0.29    0.62
   6  21 -16   -0.51    0.55
   7  16 -21    6.99    0.97
  21   7 -16    6.71    0.91
  16  21  -7    7.62    0.99
  16   7 -21    7.89    1.05
  21  16  -7    8.33    0.98
   7  21 -16    6.68    0.96
  16  21  -8   22.80    1.53
  21   8 -16   23.63    1.49
   8  16 -21   21.23    1.47
  21  16  -8   22.62    1.49
   8  21 -16   22.27    1.47
  16   8 -21   21.83    1.52
   9  16 -21    2.57    0.79
  16  21  -9    3.92    0.85
  21   9 -16    3.44    0.81
   9  21 -16    4.92    0.91
  21  16  -9    4.42    0.84
  16   9 -21    2.71    0.79
  16  21 -10    0.54    0.70
  21  10 -16    0.37    0.65
  10  16 -21    0.43    0.69
  10  21 -16    0.32    0.69
  16  10 -21    1.17    0.74
  21  16 -10    1.35    0.68
  16  21 -11   10.48    1.17
  11  16 -21    7.53    1.06
  21  11 -16    8.94    1.08
  21  16 -11    6.95    1.01
  11  21 -16    9.20    1.11
  16  11 -21    6.09    1.00
  12  16 -21    7.60    1.07
  16  21 -12    5.49    0.99
  21  12 -16    5.77    0.97
  12  21 -16    5.08    0.95
  16  12 -21    5.61    0.96
  21  16 -12    4.40    0.91
  21  13 -16    2.33    0.77
  16  21 -13    2.36    0.84
  13  16 -21    3.32    0.90
  21  16 -13    3.58    0.88
  16  13 -21    3.74    0.92
  13  21 -16    3.48    0.87
  21  14 -16    2.02    0.79
  16  21 -14    3.22    0.86
  14  16 -21    3.37    0.90
  21  16 -14    3.09    0.89
  14  21 -16    3.48    0.89
  16  14 -21    1.50    0.81
  15  16 -21    6.72    1.10
  16  21 -15    5.19    0.99
  21  15 -16    3.98    0.92
  21  16 -15    4.58    0.98
  15  21 -16    3.51    0.92
  16  15 -21    4.35    0.97
  16  16 -21    3.40    0.94
  16  21 -16    1.61    0.85
  21  16 -16    0.66    0.79
   0  17 -21    2.64    0.71
   0  21 -17    3.76    0.74
  17  21   0    3.20    0.77
  21  17   0    3.46    0.75
  21  17   1    7.96    0.96
  -1  21 -17    7.68    0.89
  17  21  -1    6.43    0.94
   1  17 -21    7.79    0.94
  21  17  -1    9.41    1.02
   1  21 -17    9.19    0.99
  17  21   1    8.27    1.04
  -1  17 -21    7.80    0.90
  21  17   2   19.49    1.34
  21   2 -17   19.92    1.32
   2  17 -21   19.72    1.32
  17  21  -2   20.06    1.43
  -2  21 -17   23.33    1.30
  21  17  -2   23.01    1.48
  -2  17 -21   22.67    1.35
  17  21   2   23.26    1.51
   2  21 -17   23.42    1.42
  17  21  -3   -0.19    0.63
  -3  21 -17    0.48    0.53
   3  17 -21    0.37    0.59
  21  17   3    0.01    0.59
  21   3 -17    0.71    0.61
  21  17  -3    1.50    0.64
  -3  17 -21    1.13    0.60
  17   3 -21    1.53    0.67
   3  21 -17    1.00    0.64
  21  17   4   17.28    1.32
   4  17 -21   15.72    1.28
  21   4 -17   16.90    1.27
  17  21  -4   16.09    1.32
  17   4 -21   10.59    1.13
   4  21 -17   12.29    1.13
  21  17  -4   12.15    1.14
  -4  17 -21   14.56    1.10
  17  21  -5    2.29    0.77
   5  17 -21    2.24    0.73
  21   5 -17    1.83    0.70
  17   5 -21    1.51    0.74
   5  21 -17    2.09    0.71
  21  17  -5    2.28    0.69
  21   6 -17    9.40    1.02
  17  21  -6    6.52    0.96
   6  17 -21    8.51    1.04
  21  17  -6    7.30    0.98
  17   6 -21    7.99    1.01
   6  21 -17    9.34    1.06
  21   7 -17   16.94    1.33
  17  21  -7   13.74    1.25
   7  17 -21   13.47    1.24
  17   7 -21   17.11    1.40
  21  17  -7   12.11    1.17
   7  21 -17   14.41    1.26
  17  21  -8    1.26    0.76
  21   8 -17    2.18    0.73
   8  17 -21    3.16    0.82
  17   8 -21    0.76    0.70
  21  17  -8    1.66    0.70
   8  21 -17    2.12    0.80
  21   9 -17    5.77    0.93
   9  17 -21    7.57    1.03
  17  21  -9    7.35    1.03
   9  21 -17    7.03    1.02
  21  17  -9    7.26    0.98
  17   9 -21    6.96    0.99
  10  17 -21    0.45    0.76
  21  10 -17    1.77    0.73
  17  21 -10    1.85    0.77
  10  21 -17    2.03    0.79
  21  17 -10    2.46    0.79
  17  10 -21    1.36    0.75
  17  21 -11    0.74    0.71
  11  17 -21    1.53    0.80
  21  11 -17    1.10    0.72
  11  21 -17    0.37    0.71
  21  17 -11    0.59    0.74
  17  11 -21   -0.03    0.69
  21  12 -17   14.12    1.31
  12  17 -21   12.55    1.31
  17  21 -12   11.30    1.26
  21  17 -12   11.51    1.22
  17  12 -21    9.73    1.20
  12  21 -17   13.36    1.29
  17  21 -13   13.89    1.36
  13  17 -21   14.68    1.38
  21  13 -17   13.05    1.31
  17  13 -21   11.18    1.27
  13  21 -17   12.96    1.32
  21  17 -13   12.38    1.30
  17  21 -14    2.95    0.92
  14  17 -21    2.01    0.81
  21  14 -17    3.65    0.92
  14  21 -17    3.63    0.92
  21  17 -14    3.47    0.92
  17  14 -21    4.69    1.00
  15  17 -21    8.77    1.17
  21  15 -17    9.50    1.20
  17  21 -15    8.94    1.21
  17  15 -21   10.52    1.26
  15  21 -17    9.41    1.21
  21  17 -15   12.30    1.32
  21  16 -17   11.52    1.29
  21  17 -16   13.74    1.38
  18  21   0   20.02    1.45
   0  18 -21   19.61    1.30
   0  21 -18   20.92    1.34
  21  18   0   22.19    1.48
  21  18   1    8.07    0.99
  18  21  -1    8.41    1.06
   1  18 -21    7.47    0.93
  -1  21 -18    7.09    0.86
  21  18  -1    5.58    0.88
  18  21   1    4.38    0.88
  -1  18 -21    5.53    0.84
   1  21 -18    6.66    0.88
  21   2 -18    2.55    0.71
  21  18   2    2.82    0.76
   2  18 -21    1.97    0.68
  18  21  -2    3.15    0.80
  -2  21 -18    3.59    0.71
  21  18  -2    3.19    0.76
  18  21   2    2.52    0.79
  -2  18 -21    4.56    0.77
   2  21 -18    3.86    0.76
  -3  21 -18    3.13    0.79
  18  21  -3    2.09    0.75
  21  18   3    2.42    0.76
  21   3 -18    1.53    0.65
   3  18 -21    2.06    0.72
   3  21 -18    2.43    0.71
  -3  18 -21    2.24    0.66
  18  21   3    3.41    0.85
  21  18  -3    1.98    0.71
  18  21  -4    5.03    0.92
  21  18   4    4.95    0.86
   4  18 -21    4.31    0.85
  21   4 -18    4.49    0.82
   4  21 -18    6.62    0.93
  21  18  -4    9.72    1.08
  18   4 -21    6.87    0.94
  18  21  -5   13.24    1.24
  21  18   5   10.70    1.10
  21   5 -18   10.91    1.11
   5  18 -21   10.24    1.08
  21  18  -5   11.01    1.15
  18   5 -21   11.86    1.18
   5  21 -18   11.24    1.13
  18  21  -6    4.53    0.89
   6  18 -21    4.16    0.86
  21   6 -18    4.37    0.86
  18   6 -21    5.52    0.95
  21  18  -6    5.79    0.94
   6  21 -18    5.29    0.89
  21   7 -18   15.58    1.25
  18  21  -7   10.69    1.18
   7  18 -21   12.71    1.23
  18   7 -21    9.06    1.12
   7  21 -18   15.11    1.29
  21  18  -7   10.61    1.13
   8  18 -21   26.51    1.65
  21   8 -18   28.37    1.67
  18  21  -8   24.71    1.66
  21  18  -8   23.55    1.54
  18   8 -21   25.33    1.69
   8  21 -18   22.90    1.55
   9  18 -21    1.19    0.74
  18  21  -9    2.00    0.79
  21   9 -18    1.39    0.72
  21  18  -9    1.74    0.75
  18   9 -21    1.79    0.78
   9  21 -18    1.47    0.76
  18  21 -10   11.82    1.25
  10  18 -21   12.02    1.25
  21  10 -18   10.54    1.17
  18  10 -21   13.80    1.34
  21  18 -10   13.62    1.31
  10  21 -18   12.69    1.28
  11  18 -21   10.87    1.24
  18  21 -11   14.56    1.38
  21  11 -18   14.92    1.34
  21  18 -11   14.70    1.35
  11  21 -18   14.02    1.36
  18  11 -21   13.15    1.33
  12  18 -21   12.27    1.32
  21  12 -18   14.90    1.35
  18  21 -12   15.92    1.44
  21  18 -12   13.43    1.32
  18  12 -21   12.40    1.28
  12  21 -18   10.26    1.20
  13  18 -21    0.94    0.79
  18  21 -13    2.05    0.85
  21  13 -18    2.88    0.87
  13  21 -18    1.24    0.79
  21  18 -13    1.48    0.81
  18  13 -21    1.77    0.85
  18  21 -14    0.77    0.79
  21  14 -18    0.60    0.76
  14  18 -21    1.72    0.84
  21  18 -14    0.36    0.72
  18  14 -21    0.08    0.72
  14  21 -18    1.19    0.84
  21  15 -18    2.73    0.98
  21  18 -15    1.16    0.93
  21  19   0    6.37    0.93
   0  19 -21    7.74    0.95
   0  21 -19    6.79    0.89
  19  21   0    6.59    1.00
  19  21  -1    9.03    1.07
  -1  21 -19    8.53    0.96
  21  19   1    9.47    1.07
   1  19 -21   10.98    1.05
  -1  19 -21   10.68    1.06
  19  21   1   12.06    1.22
   1  21 -19   12.15    1.12
  21  19  -1   11.23    1.16
  19  21  -2   12.79    1.25
   2  19 -21   15.64    1.25
  21  19   2   14.49    1.24
  -2  21 -19   14.43    1.14
  -2  19 -21   14.13    1.14
   2  21 -19   10.04    1.07
  19  21   2   14.79    1.31
  21  19  -2   10.91    1.14
  19  21  -3    1.91    0.75
  21  19   3    0.87    0.70
  21   3 -19    2.70    0.74
   3  19 -21    1.15    0.68
  19  21   3    4.43    0.89
  -3  19 -21    2.44    0.71
  21  19  -3    2.63    0.77
   3  21 -19    3.82    0.81
   4  19 -21    5.72    0.90
  19  21  -4    5.69    0.96
  21   4 -19    4.82    0.84
  21  19   4    6.12    0.94
  19  21   4    4.33    0.91
   4  21 -19    4.37    0.85
  19   4 -21    4.57    0.88
  21  19  -4    4.23    0.86
  21  19   5    0.42    0.64
  21   5 -19    0.25    0.65
   5  19 -21    0.02    0.61
  19  21  -5   -0.05    0.65
  19   5 -21   -0.17    0.59
  21  19  -5    0.36    0.66
   5  21 -19    0.31    0.65
  21   6 -19    3.05    0.82
   6  19 -21    2.41    0.78
  19  21  -6    1.85    0.76
  19   6 -21    2.30    0.80
   6  21 -19    2.53    0.81
  21  19  -6    1.89    0.77
  19  21  -7    7.78    1.07
  21   7 -19   10.05    1.13
   7  19 -21    9.98    1.16
  19   7 -21    8.01    1.07
  21  19  -7   10.28    1.16
   7  21 -19    9.52    1.12
   8  19 -21    5.25    0.95
  21   8 -19    4.12    0.91
  19  21  -8    5.23    0.96
  21  19  -8    8.07    1.07
   8  21 -19    6.00    0.98
  19   8 -21    7.01    1.04
  21   9 -19    6.24    1.00
  19  21  -9    5.54    0.99
   9  19 -21    5.97    1.01
   9  21 -19    4.97    0.98
  19   9 -21    6.07    1.02
  21  19  -9    6.05    1.00
  21  10 -19    0.73    0.71
  10  19 -21    1.03    0.73
  19  21 -10    0.20    0.72
  10  21 -19    1.03    0.79
  21  19 -10   -0.34    0.66
  19  10 -21    1.00    0.75
  21  11 -19   13.56    1.32
  19  21 -11   14.96    1.41
  11  19 -21   13.43    1.35
  19  11 -21   16.02    1.45
  21  19 -11   12.97    1.32
  11  21 -19   14.76    1.41
  19  21 -12   22.29    1.70
  12  19 -21   23.27    1.71
  21  12 -19   20.43    1.61
  12  21 -19   20.41    1.62
  19  12 -21   24.77    1.75
  21  19 -12   19.36    1.53
  19  21 -13   13.85    1.41
  13  19 -21   14.64    1.52
  21  13 -19   12.74    1.32
  21  19 -13   14.38    1.43
  19  13 -21   13.86    1.39
  13  21 -19   12.74    1.49
  21  14 -19    0.03    1.03
   0  21 -20   -0.34    0.56
  21  20   0   -0.23    0.63
   0  20 -21    0.15    0.61
  20  21   0   -0.44    0.58
   1  20 -21    0.01    0.61
  -1  21 -20    0.51    0.62
  20  21  -1    0.75    0.68
  21  20   1   -0.48    0.64
  20  21   1    1.98    0.73
   1  21 -20    0.49    0.62
  21  20  -1    0.27    0.67
  -1  20 -21   -0.17    0.58
   2  20 -21   -0.04    0.60
  20  21  -2   -0.33    0.65
  -2  21 -20   -0.06    0.59
  21  20   2    0.54    0.67
  20  21   2    1.47    0.74
  21  20  -2    0.52    0.67
   2  21 -20    0.40    0.64
  -2  20 -21   -0.01    0.58
   3  20 -21    7.66    1.00
  21  20   3    7.77    1.06
  20  21  -3    8.41    1.10
   3  21 -20    7.02    0.98
  21  20  -3    4.87    0.92
  20  21   3    5.67    0.96
   4  20 -21   13.89    1.27
  21  20   4   16.42    1.40
  21   4 -20   16.14    1.33
  20  21  -4   18.19    1.45
  20  21   4   17.84    1.45
  20   4 -21   17.33    1.40
  21  20  -4   20.94    1.49
   4  21 -20   20.61    1.44
  21  20   5    2.07    0.75
  21   5 -20    2.47    0.75
  20  21  -5    2.01    0.82
   5  20 -21    2.16    0.77
  20   5 -21    1.23    0.73
   5  21 -20    2.25    0.78
  21  20  -5    2.21    0.78
   6  20 -21    3.81    0.91
  20  21  -6    2.98    0.85
  21   6 -20    3.27    0.86
  20   6 -21    3.69    0.89
  21  20  -6    2.57    0.81
   6  21 -20    1.93    0.77
  20  21  -7    2.67    0.83
  21   7 -20    1.91    0.77
   7  20 -21    2.68    0.83
  20   7 -21    3.03    0.83
   7  21 -20    2.67    0.83
  21  20  -7    2.97    0.88
   8  20 -21   39.42    1.99
  20  21  -8   37.85    2.04
  21   8 -20   36.97    1.93
  20   8 -21   39.25    2.00
   8  21 -20   40.20    2.01
  21  20  -8   40.05    2.07
  21   9 -20    3.73    0.89
  20  21  -9    4.17    0.96
   9  20 -21    3.15    0.89
  21  20  -9    3.30    0.90
  20   9 -21    4.61    0.94
   9  21 -20    4.25    0.93
  21  10 -20    0.20    0.75
  10  20 -21   -0.20    0.70
  20  21 -10    1.31    0.80
  20  10 -21    1.04    0.75
  10  21 -20   -0.25    0.69
  21  20 -10    1.57    0.79
  11  20 -21   11.48    1.28
  21  11 -20    9.46    1.22
  20  21 -11   10.04    1.26
  21  20 -11    8.23    1.13
  20  11 -21    5.67    1.05
  11  21 -20    9.03    1.16
  20  21 -12    5.23    1.47
  21  12 -20    6.28    1.05
  20  12 -21   10.59    1.26
  21  20 -12    9.13    1.25
   0  21 -21    3.06    0.76
  21  21   0    2.94    0.85
  -1  21 -21    1.64    0.69
   1  21 -21    0.14    0.64
  21  21  -1    0.96    0.73
  21  21   1   -0.45    0.64
   2  21 -21   12.22    1.17
  21  21  -2    8.85    1.12
  21  21   2   11.78    1.22
   3  21 -21   11.19    1.14
  21  21  -3   11.36    1.21
  21  21   3   13.16    1.26
   4  21 -21    0.29    0.63
  21   4 -21   -0.19    0.60
  21  21  -4   -0.09    0.71
  21  21   4    0.08    0.69
   5  21 -21   -0.12    0.66
  21   5 -21    0.09    0.65
  21  21  -5   -0.40    0.66
  21  21   5    0.83    0.70
   6  21 -21    2.68    0.82
  21   6 -21    2.82    0.85
  21  21  -6    2.46    0.82
   7  21 -21    4.11    0.88
  21   7 -21    6.32    0.99
  21  21  -7    3.80    0.95
   8  21 -21    0.49    0.80
  21   8 -21    0.66    0.75
  21  21  -8    2.04    0.83
   9  21 -21   13.13    1.33
  21   9 -21   14.41    1.39
  21  21  -9   11.70    1.27
  10  21 -21    0.97    0.86
  21  10 -21    1.79    0.81
  21  21 -10    0.71    0.87
  21  11 -21   -0.50    1.07
   0  22  -3    8.15    0.80
  -1  22  -3   29.67    1.34
   1  22  -3   33.68    1.45
  -2  22  -3   23.94    1.18
  -3  22  -2   25.41    1.20
   2  22  -3   24.39    1.26
  22   3  -3    3.69    0.63
   3  22  -3    4.57    0.71
  -3  22  -3    3.96    0.59
   0  22  -4   25.43    1.24
  -1  22  -4   12.33    0.93
  22   4  -1   11.23    0.85
   1  22  -4   11.17    0.92
  -2  22  -4   17.27    0.99
  22   4  -2   20.41    0.93
   2  22  -4   18.02    1.11
  -4  22  -2   16.93    1.00
  22   3  -4   11.12    0.75
   4  22  -3   11.54    0.98
  -3  22  -4   11.30    0.85
  -4  22  -3   12.04    0.86
  22   4  -3   10.57    0.74
   3  22  -4   10.91    0.94
   4  22  -4   10.11    0.94
  22   4  -4   10.21    0.74
  -4  22  -4    8.64    0.76
   0  22  -5   -0.25    0.42
  22   5   0   -0.23    0.32
  -1  22  -5   30.19    1.33
  22   5   1   28.44    1.20
  22   5  -1   27.81    1.13
   1  22  -5   28.01    1.35
   5  22  -2    2.51    0.61
  -2  22  -5    1.92    0.49
   2  22  -5    0.78    0.49
  22   5  -2    2.17    0.44
  -5  22  -2    1.82    0.47
   5  22  -3    4.07    0.69
  -3  22  -5    5.32    0.63
  22   3  -5    4.76    0.55
  -5  22  -3    6.12    0.63
   3  22  -5    5.12    0.73
  22   5  -3    6.77    0.65
  22   4  -5   17.26    0.93
  -4  22  -5   18.72    1.01
   5  22  -4   17.95    1.17
  22   5  -4   17.29    0.94
   4  22  -5   16.65    1.12
  -5  22  -4   16.00    0.96
  22   5  -5   -0.26    0.35
   5  22  -5    0.33    0.52
  -5  22  -5    0.29    0.39
   0  22  -6    0.21    0.44
  22   6   0    0.76    0.38
  22   6   1   15.18    0.87
  -1  22  -6   16.03    1.01
  22   6  -1   15.91    0.91
   1  22  -6   16.22    1.04
  22   2  -6    4.24    0.54
  -2  22  -6    4.18    0.61
  22   6   2    4.94    0.55
   6  22  -2    3.19    0.65
  -6  22  -2    3.06    0.52
  22   6  -2    4.07    0.55
   2  22  -6    2.67    0.59
   6  22  -3    9.22    0.90
  22   3  -6    9.10    0.73
  22   6   3   10.41    0.76
  -3  22  -6    9.65    0.82
  -6  22  -3    9.93    0.76
   3  22  -6    8.60    0.86
  22   6  -3    9.54    0.75
   6  22  -4   20.36    1.25
  22   4  -6   18.35    0.97
  -4  22  -6   19.95    1.04
  22   6  -4   18.28    0.98
  -6  22  -4   16.40    0.91
   4  22  -6   15.77    1.10
   5   6 -22    4.30    0.75
   6  22  -5    2.96    0.66
  -5  22  -6    3.91    0.56
  22   5  -6    3.87    0.56
  22   6  -5    3.81    0.58
   5  22  -6    3.99    0.70
  -6  22  -5    3.90    0.55
   6  22  -6   14.27    1.13
   6   6 -22   15.60    1.19
  -6  22  -6   13.27    0.87
  22   6  -6   14.48    0.95
  22   7   0   16.55    0.96
   0  22  -7   18.38    1.07
  22   7   1    5.04    0.57
  -1  22  -7    4.48    0.64
   1  22  -7    2.77    0.62
  -7  22  -1    2.88    0.50
  22   7  -1    2.37    0.49
  -2  22  -7   19.87    1.06
  22   7   2   18.86    0.99
   7  22  -2   19.74    1.26
  22   2  -7   20.10    0.97
  22   7  -2   17.48    0.97
  -7  22  -2   15.35    0.91
   2  22  -7   17.26    1.10
   3   7 -22   18.42    1.23
  22   3  -7   19.43    0.98
  22   7   3   18.95    0.97
  -3  22  -7   18.15    1.04
   7  22  -3   18.46    1.24
  22   7  -3   14.70    0.92
   3  22  -7   15.23    1.11
  -7  22  -3   15.13    0.99
  -4  22  -7   12.22    0.88
   7  22  -4   11.98    1.06
   4   7 -22   11.93    1.06
  22   4  -7   12.07    0.85
  22   7   4   12.34    0.85
   4  22  -7   12.66    1.03
  22   7  -4   13.46    0.91
  -5  22  -7   17.51    0.99
  22   5  -7   18.16    1.01
  22   7   5   17.06    0.98
   5   7 -22   19.12    1.27
   7  22  -5   16.67    1.19
   7   5 -22   16.87    1.22
  22   7  -5   18.18    1.03
   5  22  -7   15.26    1.16
  22   6  -7    1.51    0.48
  -6  22  -7    1.80    0.54
   7  22  -6    2.16    0.62
   6   7 -22    2.58    0.67
   7   6 -22    2.91    0.69
  22   7  -6    3.02    0.56
   6  22  -7    3.59    0.71
  22   7  -7    0.40    0.47
   7   7 -22    0.29    0.58
   7  22  -7    1.16    0.57
   0  22  -8    1.18    0.50
  22   8   0    1.79    0.48
   1   8 -22   10.34    0.95
  -1  22  -8    9.36    0.84
  22   1  -8   10.56    0.80
  22   8   1   10.38    0.82
   1  22  -8   10.12    0.90
  22   8  -1   12.25    0.86
   8  22  -2   26.00    1.43
  -2  22  -8   25.21    1.23
  22   8   2   26.66    1.21
  22   2  -8   26.36    1.17
   2   8 -22   28.46    1.43
   2  22  -8   25.29    1.29
  22   8  -2   25.52    1.19
   8  22  -3   12.02    1.05
  22   3  -8   10.71    0.81
   3   8 -22    9.60    0.95
  22   8   3   11.45    0.86
  -3  22  -8   10.85    0.86
  22   8  -3    8.35    0.77
   3  22  -8    7.95    0.83
  22   8   4   11.92    0.86
   8  22  -4   11.11    1.04
   4   8 -22   13.35    1.10
  -4  22  -8   12.91    0.92
  22   4  -8   11.67    0.87
  22   8  -4   11.32    0.88
   4  22  -8   10.80    0.98
   5   8 -22    7.18    0.87
   8  22  -5    8.78    0.96
  -5  22  -8    8.00    0.74
  22   5  -8    8.81    0.79
  22   8   5    7.88    0.73
   8   5 -22    8.54    0.95
   5  22  -8    7.31    0.84
  22   8  -5    7.66    0.76
  22   6  -8    3.85    0.62
  22   8   6    4.73    0.62
   6   8 -22    4.17    0.77
   8  22  -6    4.09    0.75
  22   8  -6    4.31    0.64
   8   6 -22    4.95    0.80
   6  22  -8    3.62    0.70
   7   8 -22    1.46    0.62
   8  22  -7    2.36    0.66
  22   7  -8    2.31    0.58
   7  22  -8    1.01    0.57
  22   8  -7    2.07    0.55
   8   7 -22    1.61    0.65
   8   8 -22   14.38    1.20
   8  22  -8   13.19    1.11
  22   8  -8   13.15    1.01
  22   9   0    0.67    0.45
   0  22  -9    1.24    0.50
   0   9 -22    2.06    0.60
   1   9 -22    1.47    0.58
  -1  22  -9    1.64    0.53
  22   9   1    3.16    0.58
  22   1  -9    2.60    0.50
  22   9  -1    2.52    0.55
   1  22  -9    3.09    0.62
   9  22  -2    3.53    0.72
   2   9 -22    3.65    0.71
  22   9   2    4.21    0.61
  -2  22  -9    3.43    0.59
  22   2  -9    3.36    0.54
   2  22  -9    3.06    0.61
  22   9  -2    2.99    0.57
  22   3  -9    3.55    0.58
   3   9 -22    4.11    0.72
  22   9   3    2.23    0.52
   9  22  -3    4.08    0.73
  -3  22  -9    4.21    0.63
  22   9  -3    4.51    0.65
   3  22  -9    4.63    0.72
   9  22  -4    1.93    0.65
  -4  22  -9    2.87    0.54
  22   9   4    2.27    0.53
  22   4  -9    2.08    0.51
   4   9 -22    2.17    0.66
  22   9  -4    3.82    0.63
   4  22  -9    4.64    0.73
   9  22  -5   -0.09    0.50
   5   9 -22    0.61    0.54
  22   9   5   -0.49    0.40
  22   5  -9    0.54    0.46
  -5  22  -9    0.34    0.43
  22   9  -5    0.64    0.47
   9   5 -22    0.74    0.59
   5  22  -9   -0.21    0.52
   9  22  -6   15.03    1.20
  22   6  -9   17.70    1.08
   6   9 -22   14.74    1.19
  22   9   6   14.87    0.97
   9   6 -22   14.40    1.20
  22   9  -6   17.21    1.06
   6  22  -9   15.60    1.16
   9  22  -7   11.50    1.08
  22   7  -9   14.58    1.05
   7   9 -22   12.49    1.11
   9   7 -22   13.39    1.14
   7  22  -9   11.24    1.01
  22   9  -7   11.94    0.97
   9  22  -8    2.72    0.70
  22   8  -9    3.92    0.66
   8   9 -22    1.44    0.66
   9   8 -22    1.14    0.63
  22   9  -8    2.25    0.60
   8  22  -9    1.26    0.64
   9  22  -9   12.43    1.11
   9   9 -22   10.89    1.07
  22   9  -9   13.38    1.05
  22   0 -10    7.58    0.95
   0  10 -22    9.36    0.91
   0  22 -10    9.61    0.87
  22  10   0    7.75    0.78
  22  10   1    9.53    0.84
   1  10 -22    7.83    0.89
  22   1 -10    9.53    0.78
  -1  22 -10    8.86    0.84
  10  22  -1    8.81    0.94
   1  22 -10    9.65    0.91
  22  10  -1    9.64    0.85
  -1  10 -22    7.58    0.85
   2  10 -22    7.86    0.91
  10  22  -2    6.82    0.88
  22  10   2    7.85    0.80
  22   2 -10    9.75    0.80
  -2  22 -10    7.52    0.76
   2  22 -10    9.05    0.90
  22  10  -2    8.68    0.82
  10  22  -3    4.93    0.81
   3  10 -22    4.78    0.75
  22   3 -10    5.16    0.67
  22  10   3    5.26    0.69
  -3  22 -10    5.15    0.67
  22  10  -3    7.03    0.77
   3  22 -10    6.01    0.81
  22  10   4    0.63    0.46
  10  22  -4    0.40    0.57
  -4  22 -10    0.65    0.44
   4  10 -22    0.84    0.59
  22   4 -10    0.34    0.45
  22  10  -4    0.38    0.48
   4  22 -10    0.87    0.56
  10   4 -22    1.02    0.63
  10  22  -5    1.57    0.62
  22  10   5    2.11    0.55
  22   5 -10    2.85    0.59
   5  10 -22    1.03    0.60
  -5  22 -10    1.34    0.47
  10   5 -22    1.46    0.64
  22  10  -5    1.18    0.51
   5  22 -10   -0.21    0.51
   6  10 -22    0.97    0.63
  22   6 -10    0.98    0.51
  10  22  -6    1.78    0.65
  22  10  -6    1.64    0.54
  10   6 -22    3.02    0.74
   6  22 -10    0.84    0.61
  22   7 -10    3.30    0.65
  10  22  -7    2.38    0.71
   7  10 -22    2.96    0.76
  22  10  -7    4.29    0.69
  10   7 -22    3.07    0.71
   7  22 -10    2.07    0.66
  10  22  -8   14.90    1.20
  22   8 -10   16.01    1.14
   8  10 -22   15.62    1.27
  22  10  -8   19.02    1.20
  10   8 -22   14.75    1.23
   8  22 -10   15.42    1.19
  10  22  -9   21.83    1.40
   9  10 -22   19.00    1.40
  22   9 -10   20.29    1.28
   9  22 -10   14.37    1.21
  10   9 -22   16.21    1.28
  22  10  -9   17.96    1.21
  10  10 -22    0.04    0.60
  10  22 -10   -0.01    0.60
  22  10 -10    0.22    0.54
   0  11 -22    0.66    0.55
  22  11   0    0.43    0.48
   0  22 -11    0.79    0.50
  22   0 -11    0.19    0.44
   1  11 -22    7.97    0.92
  -1  22 -11    6.69    0.77
  22   1 -11    7.43    0.75
  22  11   1    6.73    0.77
  11  22  -1    7.62    0.92
  22  11  -1    8.46    0.83
   1  22 -11    7.17    0.81
  -1  11 -22    6.82    0.82
  11  22  -2   20.65    1.37
  -2  22 -11   21.23    1.18
  22   2 -11   23.01    1.17
   2  11 -22   20.35    1.30
  22  11   2   26.10    1.27
  -2  11 -22   24.41    1.35
  22  11  -2   26.23    1.32
   2  22 -11   25.09    1.32
  22   3 -11    7.41    0.77
   3  11 -22    6.04    0.83
  22  11   3    8.82    0.85
  11  22  -3    7.14    0.92
  -3  22 -11    9.00    0.82
   3  22 -11    7.83    0.88
  22  11  -3    7.54    0.82
   4  11 -22   22.87    1.39
  22   4 -11   23.48    1.23
  -4  22 -11   21.95    1.16
  11  22  -4   27.56    1.50
  22  11   4   24.19    1.26
  11   4 -22   22.36    1.43
   4  22 -11   21.67    1.29
  22  11  -4   23.23    1.28
   5  11 -22   12.42    1.10
  22   5 -11   11.43    0.96
  22  11   5   11.53    0.94
  11  22  -5   10.01    1.03
  22  11  -5   15.19    1.11
   5  22 -11   16.58    1.24
  11   5 -22   15.40    1.25
   6  11 -22    4.27    0.78
  11  22  -6    4.71    0.78
  22   6 -11    4.30    0.70
  22  11  -6    5.17    0.76
  11   6 -22    5.68    0.89
   6  22 -11    6.29    0.85
   7  11 -22   28.14    1.56
  22   7 -11   29.59    1.44
  11  22  -7   27.76    1.55
   7  22 -11   31.87    1.60
  22  11  -7   30.13    1.51
  11   7 -22   28.52    1.60
   8  11 -22   24.19    1.49
  11  22  -8   21.61    1.44
  22   8 -11   23.40    1.34
   8  22 -11   25.79    1.49
  22  11  -8   24.34    1.38
  11   8 -22   22.31    1.52
  22   9 -11    7.11    0.88
   9  11 -22    5.97    0.89
  11  22  -9    7.41    0.98
   9  22 -11    4.17    0.80
  11   9 -22    3.59    0.78
  22  11  -9    4.03    0.73
  10  11 -22    0.16    0.62
  11  22 -10    0.81    0.64
  22  10 -11    0.04    0.53
  10  22 -11    0.84    0.60
  11  10 -22    0.58    0.66
  22  11 -10    0.15    0.55
  11  11 -22   19.89    1.49
  22  11 -11   21.13    1.38
  11  22 -11   20.96    1.43
  22  12   0    5.43    0.74
   0  12 -22    4.84    0.78
  12  22   0    6.52    0.88
   0  22 -12    5.78    0.75
  22   0 -12    5.99    0.70
  22   1 -12    5.37    0.70
  22  12   1    2.17    0.61
  12  22  -1    3.44    0.75
  -1  22 -12    3.44    0.64
   1  12 -22    4.25    0.72
   1  22 -12    7.02    0.82
  22  12  -1    6.31    0.77
  -1  12 -22    6.05    0.79
  22   2 -12    8.41    0.82
   2  12 -22    7.73    0.90
  -2  22 -12    8.68    0.83
  22  12   2    6.88    0.81
  12  22  -2    9.50    1.05
   2  22 -12    8.00    0.85
  22  12  -2    8.07    0.85
  -2  12 -22    6.97    0.82
  -3  22 -12   25.07    1.28
  22   3 -12   26.47    1.33
  12  22  -3   29.03    1.57
   3  12 -22   26.42    1.47
  22  12   3   27.73    1.38
  22  12  -3   26.18    1.37
   3  22 -12   26.60    1.44
  22  12   4    3.70    0.68
  -4  22 -12    4.48    0.64
   4  12 -22    4.11    0.76
  12  22  -4    3.85    0.77
  22   4 -12    4.11    0.69
   4  22 -12    4.15    0.76
  12   4 -22    4.12    0.79
  22  12  -4    5.24    0.77
  22  12   5    0.70    0.52
  22   5 -12    0.46    0.50
  12  22  -5    0.34    0.58
   5  12 -22   -0.12    0.54
  12   5 -22    2.27    0.70
  22  12  -5    2.00    0.63
   5  22 -12    0.71    0.59
   6  12 -22    9.79    1.04
  22   6 -12   12.75    1.03
  12  22  -6   11.09    1.08
   6  22 -12    9.88    1.01
  12   6 -22    7.55    1.00
  22  12  -6    9.19    0.93
  12  22  -7   16.96    1.31
  22   7 -12   18.71    1.23
   7  12 -22   16.92    1.33
   7  22 -12   17.00    1.30
  22  12  -7   15.58    1.16
  12   7 -22   17.82    1.39
  12  22  -8    9.23    1.03
   8  12 -22    8.24    1.01
  22   8 -12    9.71    0.95
   8  22 -12    9.97    1.02
  22  12  -8    8.79    0.94
  12   8 -22    7.45    1.01
   9  12 -22   11.08    1.11
  12  22  -9   11.94    1.15
  22   9 -12   11.61    1.06
   9  22 -12    9.64    1.06
  22  12  -9   11.36    1.05
  12   9 -22    9.33    1.11
  10  12 -22    7.16    0.95
  22  10 -12    8.23    0.95
  12  22 -10    7.42    1.00
  10  22 -12    6.00    0.92
  22  12 -10    5.50    0.84
  12  10 -22    6.08    0.93
  12  22 -11    7.36    0.99
  22  11 -12    7.44    0.93
  11  12 -22    7.43    1.04
  22  12 -11    8.31    0.98
  11  22 -12    7.76    1.02
  12  11 -22    7.47    1.01
  22  12 -12   -0.01    0.57
  12  12 -22   -0.85    0.61
  12  22 -12    0.25    0.66
   0  13 -22   11.58    1.03
   0  22 -13   13.78    1.05
  13  22   0   11.88    1.14
  22  13   0   14.06    1.10
  22   0 -13   14.45    0.99
  13  22  -1    1.00    0.67
  22   1 -13    1.80    0.54
  22  13   1    1.94    0.61
   1  13 -22    1.04    0.61
  -1  22 -13    2.60    0.61
   1  22 -13    1.31    0.57
  22  13  -1    1.05    0.54
  -1  13 -22    0.68    0.58
  -2  22 -13    1.69    0.56
  22  13   2    0.40    0.52
  22   2 -13    1.80    0.58
   2  13 -22    0.58    0.56
  13  22  -2   -0.58    0.56
  22  13  -2    1.73    0.59
  -2  13 -22    0.65    0.56
   2  22 -13    1.86    0.61
  13  22  -3    1.13    0.63
   3  13 -22    0.75    0.60
  22   3 -13    0.49    0.50
  -3  22 -13    0.78    0.50
  22  13   3    1.02    0.55
   3  22 -13    0.68    0.59
  22  13  -3    0.84    0.55
  -3  13 -22    2.15    0.62
  22  13   4    7.80    0.87
  13  22  -4    8.98    1.02
  -4  22 -13    6.74    0.76
   4  13 -22   10.41    1.05
  22   4 -13    7.69    0.86
  22  13  -4   10.74    1.00
  13   4 -22    9.12    1.04
   4  22 -13   10.36    1.02
  22  13   5    5.46    0.78
   5  13 -22    5.32    0.84
  22   5 -13    4.83    0.74
  13  22  -5    5.47    0.89
  22  13  -5    5.25    0.78
   5  22 -13    3.69    0.74
  13   5 -22    4.17    0.82
  22   6 -13   10.71    0.98
  13  22  -6   11.26    1.14
   6  13 -22    9.95    1.04
   6  22 -13   12.94    1.13
  13   6 -22   10.88    1.12
  22  13  -6   10.22    0.99
   7  13 -22    0.33    0.61
  13  22  -7    1.86    0.71
  22   7 -13    1.49    0.62
  13   7 -22    3.56    0.80
  22  13  -7    1.66    0.65
   7  22 -13    1.82    0.66
   8  13 -22    4.71    0.87
  22   8 -13    5.00    0.80
  13  22  -8    4.65    0.85
  13   8 -22    6.10    0.96
   8  22 -13    6.42    0.93
  22  13  -8    6.26    0.87
  13  22  -9   10.26    1.11
   9  13 -22   10.69    1.16
  22   9 -13   10.18    1.01
  22  13  -9    7.90    0.96
  13   9 -22    9.02    1.10
   9  22 -13    7.61    1.00
  22  10 -13   46.81    1.99
  13  22 -10   49.01    2.12
  10  13 -22   45.77    2.10
  22  13 -10   46.16    1.98
  13  10 -22   50.28    2.16
  10  22 -13   48.93    2.16
  11  13 -22    2.63    0.77
  13  22 -11    3.75    0.86
  22  11 -13    3.43    0.76
  22  13 -11    1.79    0.68
  13  11 -22    2.48    0.82
  11  22 -13    0.81    0.69
  12  13 -22    7.20    1.03
  22  12 -13    9.55    1.03
  13  22 -12    7.58    1.04
  22  13 -12    8.61    1.01
  13  12 -22    5.93    0.96
  12  22 -13    8.85    1.10
  22  13 -13    7.52    1.00
  13  22 -13    6.42    1.02
  13  13 -22    8.10    1.09
  22   0 -14   12.93    1.01
   0  22 -14   11.78    1.02
   0  14 -22   12.51    1.09
  22  14   0   11.74    1.03
  14  22   0   11.71    1.12
  -1  22 -14    2.88    0.65
  22   1 -14    2.87    0.63
  22  14   1    2.49    0.64
  14  22  -1    2.18    0.70
   1  14 -22    1.43    0.62
   1  22 -14    2.84    0.68
  -1  14 -22    3.23    0.69
  14  22   1    2.22    0.71
  22  14  -1    3.54    0.71
  22  14   2    5.59    0.79
  22   2 -14    6.45    0.80
   2  14 -22    8.66    0.96
  -2  22 -14    8.18    0.84
  14  22  -2    5.70    0.93
  22  14  -2    7.82    0.89
  -2  14 -22    8.09    0.89
   2  22 -14    6.89    0.85
  22   3 -14    1.34    0.56
  22  14   3    1.26    0.61
   3  14 -22    2.10    0.66
  -3  22 -14    0.67    0.50
  14  22  -3    1.88    0.69
   3  22 -14    1.62    0.64
  -3  14 -22    1.20    0.57
  22  14  -3    1.00    0.60
  22   4 -14    8.96    0.92
   4  14 -22    6.43    0.91
  22  14   4    8.32    0.93
  14  22  -4    8.90    1.04
  22  14  -4    8.51    0.93
   4  22 -14    7.70    0.92
  14   4 -22    8.97    1.03
  -4  14 -22    6.87    0.84
  22  14   5    3.47    0.72
  22   5 -14    4.15    0.72
   5  14 -22    2.63    0.72
  14  22  -5    4.05    0.81
  14   5 -22    2.70    0.76
   5  22 -14    4.01    0.80
  22  14  -5    3.30    0.74
  14  22  -6    1.30    0.66
  22   6 -14    2.17    0.67
   6  14 -22    1.52    0.67
   6  22 -14    1.07    0.65
  22  14  -6    1.31    0.62
  14   6 -22   -0.19    0.61
  22   7 -14    9.40    0.99
  14  22  -7   11.05    1.15
   7  14 -22   10.58    1.12
   7  22 -14    9.12    1.03
  22  14  -7    9.25    0.97
  14   7 -22   10.19    1.11
  22   8 -14    2.91    0.74
   8  14 -22    3.59    0.83
  14  22  -8    3.12    0.77
  22  14  -8    4.62    0.80
   8  22 -14    4.52    0.88
  14   8 -22    4.96    0.88
  14  22  -9   14.15    1.27
  22   9 -14   13.08    1.17
   9  14 -22   14.19    1.25
  22  14  -9   14.60    1.23
   9  22 -14   14.15    1.26
  14   9 -22   15.60    1.35
  22  10 -14    5.14    0.85
  14  22 -10    5.08    0.93
  10  14 -22    5.98    0.97
  10  22 -14    4.61    0.92
  22  14 -10    4.83    0.82
  14  10 -22    4.58    0.88
  11  14 -22    0.60    0.69
  22  11 -14    0.18    0.60
  14  22 -11    0.55    0.70
  22  14 -11    0.39    0.64
  14  11 -22    0.47    0.69
  11  22 -14    0.79    0.72
  22  12 -14    1.72    0.71
  14  22 -12    1.69    0.79
  12  14 -22    3.42    0.87
  12  22 -14    1.85    0.77
  14  12 -22    1.06    0.77
  22  14 -12    1.51    0.72
  13  14 -22    9.28    1.16
  22  13 -14   10.31    1.13
  14  22 -13    8.75    1.13
  14  13 -22    8.74    1.15
  13  22 -14    9.73    1.15
  22  14 -13    9.17    1.10
  22  14 -14   40.95    1.97
  14  22 -14   36.61    2.00
  14  14 -22   43.11    2.09
   0  15 -22    4.15    0.76
  22  15   0    2.97    0.71
   0  22 -15    2.54    0.66
  15  22   0    3.43    0.80
  15  22  -1   20.37    1.42
   1  15 -22   17.59    1.30
  -1  22 -15   16.66    1.19
  22   1 -15   19.30    1.21
  22  15   1   18.94    1.30
  15  22   1   17.95    1.39
  -1  15 -22   17.34    1.21
   1  22 -15   19.58    1.28
  22  15  -1   18.36    1.24
  22  15   2    6.71    0.88
  15  22  -2    7.02    0.98
  22   2 -15    6.72    0.85
   2  15 -22    7.06    0.88
  -2  22 -15    6.87    0.81
  -2  15 -22    5.89    0.84
   2  22 -15    5.87    0.81
  22  15  -2    6.58    0.86
  22  15   3    5.76    0.84
  15  22  -3    7.56    0.98
  -3  22 -15    5.78    0.75
   3  15 -22    5.50    0.89
  22   3 -15    8.04    0.88
   3  22 -15    6.61    0.89
  -3  15 -22    6.92    0.87
  22  15  -3    5.79    0.84
   4  15 -22    9.33    1.04
  22   4 -15    8.79    0.94
  22  15   4    9.29    0.99
  15  22  -4   11.30    1.16
  22  15  -4    9.40    1.01
   4  22 -15    7.05    0.93
  15   4 -22    8.45    1.05
  -4  15 -22    8.69    0.90
   5  15 -22   16.01    1.32
  22  15   5   15.16    1.21
  15  22  -5   14.93    1.29
  22   5 -15   16.41    1.23
  22  15  -5   13.37    1.16
  15   5 -22   14.14    1.26
   5  22 -15   16.48    1.25
  22   6 -15    9.04    0.96
  15  22  -6    9.00    1.07
   6  15 -22    6.97    0.98
  22  15  -6    7.55    0.94
   6  22 -15    8.21    1.00
  15   6 -22    7.20    1.01
   7  15 -22    3.96    0.85
  22   7 -15    6.06    0.86
  15  22  -7    5.22    0.91
  22  15  -7    6.68    0.93
  15   7 -22    6.85    0.98
   7  22 -15    5.62    0.90
  22   8 -15    1.10    0.65
   8  15 -22    1.83    0.75
  15  22  -8    1.23    0.72
  22  15  -8    0.58    0.60
  15   8 -22    1.76    0.78
   8  22 -15    1.55    0.70
  22   9 -15   22.64    1.48
   9  15 -22   23.31    1.56
  15  22  -9   24.03    1.59
   9  22 -15   18.49    1.44
  15   9 -22   21.76    1.58
  22  15  -9   20.89    1.41
  22  10 -15    3.09    0.78
  15  22 -10    2.72    0.83
  10  15 -22    2.85    0.84
  15  10 -22    4.85    0.93
  22  15 -10    5.09    0.86
  10  22 -15    4.99    0.94
  15  22 -11    6.87    1.03
  22  11 -15    7.23    1.01
  11  15 -22    6.08    0.99
  22  15 -11    8.05    1.03
  15  11 -22    4.89    0.96
  11  22 -15    6.82    1.02
  12  15 -22    0.44    0.73
  15  22 -12   -0.12    0.68
  22  12 -15    0.53    0.70
  22  15 -12    0.82    0.70
  15  12 -22    2.27    0.80
  12  22 -15    1.17    0.77
  22  13 -15   -0.19    0.64
  13  15 -22    0.09    0.72
  15  22 -13   -0.33    0.71
  15  13 -22    0.78    0.75
  22  15 -13    0.18    0.67
  13  22 -15    0.05    0.70
  14  15 -22   15.79    1.44
  22  14 -15   14.76    1.32
  15  22 -14   16.04    1.46
  15  14 -22   13.78    1.37
  22  15 -14   14.45    1.34
  14  22 -15   13.10    1.34
  22  15 -15   -0.01    0.70
  15  15 -22   -0.76    0.69
  15  22 -15   -0.59    0.69
  22  16   0   27.30    1.50
  16  22   0   26.88    1.63
   0  16 -22   25.72    1.51
   0  22 -16   30.17    1.47
  -1  22 -16   25.94    1.41
  22   1 -16   25.81    1.43
   1  16 -22   22.82    1.46
  16  22  -1   29.81    1.67
  22  16   1   25.10    1.46
  16  22   1   24.69    1.55
  22  16  -1   22.56    1.39
   1  22 -16   25.65    1.45
  -1  16 -22   22.51    1.37
  16  22  -2    1.28    0.71
  22  16   2    1.02    0.65
   2  16 -22    1.87    0.70
  22   2 -16    0.05    0.55
  -2  22 -16    1.70    0.59
  22  16  -2    1.16    0.66
   2  22 -16    1.84    0.68
  16  22   2    1.10    0.70
  -2  16 -22    1.83    0.62
  16  22  -3   21.46    1.50
  -3  22 -16   23.16    1.35
   3  16 -22   22.03    1.47
  22   3 -16   24.43    1.36
  22  16   3   23.53    1.46
  22  16  -3   28.52    1.58
   3  22 -16   28.02    1.50
  -3  16 -22   23.60    1.42
   4  16 -22   14.72    1.24
  22   4 -16   19.75    1.34
  16  22  -4   18.89    1.43
  22  16   4   21.59    1.41
  -4  16 -22   16.72    1.20
  16   4 -22   15.96    1.35
   4  22 -16   19.20    1.32
  22  16  -4   19.42    1.32
  16  22  -5    9.01    1.11
  22   5 -16   10.05    1.02
   5  16 -22   10.91    1.11
  22  16   5   12.78    1.15
  22  16  -5    8.18    0.99
   5  22 -16    8.73    1.01
  16   5 -22    9.05    1.07
  16  22  -6    9.65    1.11
  22   6 -16    7.73    0.96
   6  16 -22    7.34    0.99
   6  22 -16    7.61    0.96
  16   6 -22    6.22    0.98
  22  16  -6    6.88    0.94
  22   7 -16    3.62    0.79
  16  22  -7    4.73    0.93
   7  16 -22    3.96    0.86
   7  22 -16    3.64    0.82
  16   7 -22    3.02    0.80
  22  16  -7    4.95    0.87
  22   8 -16   23.01    1.49
   8  16 -22   21.21    1.53
  16  22  -8   22.48    1.62
  22  16  -8   22.57    1.47
   8  22 -16   22.92    1.53
  16   8 -22   23.32    1.59
   9  16 -22    6.81    1.03
  16  22  -9    5.21    0.93
  22   9 -16    6.15    0.94
  16   9 -22    6.47    1.02
   9  22 -16    5.37    0.94
  22  16  -9    5.98    0.92
  16  22 -10    8.70    1.13
  22  10 -16    9.38    1.09
  10  16 -22    8.42    1.10
  22  16 -10    6.68    0.98
  16  10 -22    7.17    1.06
  10  22 -16    8.01    1.07
  22  11 -16    0.27    0.65
  11  16 -22    0.48    0.72
  16  22 -11    0.47    0.69
  22  16 -11    0.06    0.67
  16  11 -22   -0.33    0.69
  11  22 -16   -0.05    0.72
  12  16 -22    0.06    0.69
  22  12 -16   -0.28    0.67
  16  22 -12    1.10    0.76
  12  22 -16    0.37    0.73
  16  12 -22   -1.87    0.61
  22  16 -12    0.05    0.68
  13  16 -22    7.73    1.10
  22  13 -16    6.49    0.99
  16  22 -13    8.00    1.13
  13  22 -16    7.30    1.09
  22  16 -13    4.92    0.92
  16  13 -22    4.34    0.96
  14  16 -22    5.84    1.07
  22  14 -16    6.51    1.05
  16  22 -14    8.40    1.16
  22  16 -14    6.94    1.03
  14  22 -16    5.80    1.02
  16  14 -22    4.15    0.94
  16  22 -15    4.64    1.01
  22  15 -16    4.35    0.92
  15  16 -22    3.91    1.01
  15  22 -16    5.20    1.02
  16  15 -22    2.23    0.89
  22  16 -15    2.90    0.92
  22  16 -16    0.46    0.83
   0  17 -22   19.03    1.34
   0  22 -17   16.68    1.25
  22  17   0   18.38    1.31
  17  22   0   17.40    1.41
   1  17 -22    3.72    0.78
  22  17   1    3.05    0.74
  17  22  -1    3.89    0.86
  -1  22 -17    4.83    0.77
  22  17  -1    3.27    0.77
  -1  17 -22    2.32    0.68
   1  22 -17    2.57    0.71
  17  22   1    3.44    0.86
  -2  22 -17    0.57    0.55
  17  22  -2   -0.41    0.59
  22  17   2    0.18    0.60
   2  17 -22    0.63    0.62
  22   2 -17    0.04    0.51
  22  17  -2    0.12    0.61
   2  22 -17   -0.07    0.59
  -2  17 -22   -0.86    0.47
  17  22   2   -0.67    0.60
  17  22  -3    9.08    1.08
   3  17 -22   13.53    1.18
  22   3 -17   12.33    1.13
  22  17   3   10.73    1.10
  22  17  -3   12.21    1.16
  -3  17 -22   13.97    1.13
   3  22 -17   13.19    1.14
   4  17 -22    9.59    1.07
  22  17   4    9.87    1.05
  17  22  -4   11.02    1.15
  22   4 -17    8.70    1.00
  -4  17 -22    9.53    1.06
   4  22 -17    9.91    1.05
  17   4 -22    9.90    1.11
  22  17  -4    9.62    1.03
  22   5 -17   19.01    1.37
   5  17 -22   17.19    1.35
  22  17   5   15.33    1.25
  17  22  -5   18.29    1.43
  17   5 -22   16.21    1.36
   5  22 -17   17.25    1.34
  22  17  -5   17.27    1.34
   6  17 -22    4.99    0.90
  17  22  -6    8.58    1.09
  22   6 -17    7.72    0.95
  17   6 -22    5.02    0.94
   6  22 -17    5.86    0.94
  22  17  -6    5.92    0.92
  17  22  -7    4.33    0.90
   7  17 -22    3.76    0.85
  22   7 -17    4.08    0.84
  17   7 -22    3.65    0.87
  22  17  -7    2.44    0.76
   7  22 -17    4.52    0.91
  22   8 -17    3.55    0.78
   8  17 -22    2.70    0.79
  17  22  -8    3.36    0.87
  22  17  -8    2.56    0.79
  17   8 -22    3.88    0.89
   8  22 -17    4.14    0.88
   9  17 -22   14.53    1.32
  22   9 -17   14.77    1.28
  17  22  -9   17.83    1.45
  17   9 -22   18.13    1.49
  22  17  -9   15.72    1.35
   9  22 -17   15.36    1.36
  10  17 -22    3.93    0.92
  17  22 -10    5.82    1.01
  22  10 -17    4.94    0.94
  17  10 -22    5.17    0.97
  22  17 -10    4.61    0.94
  10  22 -17    5.16    0.98
  22  11 -17    0.70    0.68
  17  22 -11    0.99    0.75
  11  17 -22    0.82    0.77
  17  11 -22    0.61    0.72
  22  17 -11    0.00    0.64
  11  22 -17    1.06    0.78
  22  12 -17   -0.11    0.69
  17  22 -12    1.10    0.79
  12  17 -22    0.19    0.71
  17  12 -22   -0.31    0.71
  22  17 -12    0.14    0.69
  12  22 -17    0.03    0.76
  22  13 -17    4.46    0.96
  13  17 -22    4.65    1.03
  17  22 -13    5.48    1.03
  17  13 -22    4.80    0.99
  22  17 -13    4.34    0.92
  13  22 -17    4.32    0.97
  17  22 -14   10.31    1.41
  22  14 -17    9.79    1.20
  14  17 -22    8.14    1.29
  17  14 -22   10.24    1.23
  14  22 -17   11.79    1.51
  22  17 -14   11.58    1.29
  22  15 -17    0.70    0.92
  22  17 -15    3.23    1.16
   0  18 -22   -0.07    0.59
   0  22 -18    0.66    0.60
  18  22   0    0.24    0.64
  22  18   0   -0.27    0.56
  -1  22 -18    2.90    0.71
  22  18   1    1.71    0.71
  18  22  -1    2.81    0.81
   1  18 -22    1.77    0.68
  -1  18 -22   -0.18    0.61
  22  18  -1    1.73    0.75
  18  22   1    1.87    0.74
   1  22 -18    2.30    0.70
  18  22  -2    1.89    0.77
  22  18   2    3.17    0.80
  22   2 -18    2.02    0.67
   2  18 -22    2.04    0.72
  -2  22 -18    1.69    0.63
  18  22   2    2.07    0.80
  22  18  -2    1.86    0.72
  -2  18 -22    2.13    0.71
   2  22 -18    2.90    0.72
   3  18 -22    2.59    0.78
  18  22  -3    2.17    0.77
  22   3 -18    2.01    0.71
  22  18   3    2.23    0.74
  -3  18 -22    2.05    0.68
  18  22   3    1.84    0.76
   3  22 -18    3.09    0.77
  22  18  -3    1.47    0.70
  18  22  -4    2.42    0.81
  22  18   4    2.56    0.76
   4  18 -22    3.03    0.78
  22   4 -18    1.52    0.73
  22  18  -4    2.97    0.77
   4  22 -18    1.86    0.72
  18  22  -5    2.14    0.80
   5  18 -22    1.28    0.75
  22   5 -18    1.27    0.69
  22  18   5    1.90    0.72
  18   5 -22    1.76    0.81
   5  22 -18    3.20    0.81
  22  18  -5    3.92    0.84
  18  22  -6    0.21    0.72
  22  18   6    1.03    0.67
   6  18 -22    0.52    0.73
  22   6 -18    0.71    0.67
  18   6 -22    1.26    0.76
   6  22 -18    0.52    0.71
  22  18  -6    0.81    0.67
   7  18 -22    6.29    1.00
  18  22  -7    8.17    1.09
  22   7 -18    7.88    1.05
  22  18  -7    6.88    1.00
   7  22 -18    6.80    1.02
  18   7 -22    6.51    1.01
   8  18 -22    1.03    0.75
  18  22  -8    0.98    0.76
  22   8 -18   -0.53    0.62
  22  18  -8    0.62    0.68
   8  22 -18    0.90    0.76
  18   8 -22    0.43    0.71
   9  18 -22    5.14    0.94
  22   9 -18    6.61    0.99
  18  22  -9    6.46    1.07
   9  22 -18    7.73    1.09
  22  18  -9    8.20    1.04
  18   9 -22    7.29    1.07
  10  18 -22    5.72    1.02
  22  10 -18    8.51    1.08
  18  22 -10    8.08    1.12
  10  22 -18    6.17    0.99
  18  10 -22    6.92    1.10
  22  18 -10    5.14    0.97
  18  22 -11    2.79    0.88
  22  11 -18    1.77    0.81
  11  18 -22    3.30    0.92
  22  18 -11    1.52    0.83
  11  22 -18    1.71    0.79
  18  11 -22    2.39    0.87
  12  18 -22    1.43    0.80
  22  12 -18    1.59    0.82
  18  22 -12    1.38    0.83
  22  18 -12    2.43    0.85
  12  22 -18    3.74    0.94
  18  12 -22    2.90    0.92
  22  13 -18    4.72    0.96
  18  22 -13    4.41    1.47
  13  18 -22    3.97    1.47
  13  22 -18    5.48    1.34
  22  18 -13    3.95    0.95
  18  13 -22    5.02    1.15
  22  14 -18   17.22    2.11
   0  22 -19    3.90    0.79
  22  19   0    2.87    0.80
   0  19 -22    2.98    0.76
  19  22   0    4.70    0.92
   1  19 -22   12.32    1.16
  -1  22 -19   10.82    1.06
  19  22  -1   10.19    1.20
  22  19   1   10.13    1.13
  19  22   1    8.46    1.11
   1  22 -19    9.54    1.04
  22  19  -1    7.47    1.03
  -1  19 -22    7.14    0.93
   2  19 -22    4.45    0.86
  19  22  -2    4.37    0.93
  22  19   2    4.34    0.88
  -2  19 -22    6.89    0.92
  19  22   2    7.60    1.08
   2  22 -19    6.84    0.92
  22  19  -2    6.62    0.96
  22   3 -19    2.65    0.76
   3  19 -22    3.48    0.82
  22  19   3    4.43    0.88
  19  22  -3    2.57    0.80
  22  19  -3    2.72    0.77
   3  22 -19    3.75    0.81
  19  22   3    2.65    0.84
  22   4 -19    5.83    0.91
   4  19 -22    5.95    0.93
  19  22  -4    4.06    0.92
  22  19   4    3.38    0.84
   4  22 -19    5.62    0.91
  19  22   4    5.27    0.97
  22  19  -4    6.01    0.96
  19  22  -5   20.01    1.54
   5  19 -22   23.35    1.60
  22   5 -19   22.35    1.50
  22  19   5   20.37    1.47
   5  22 -19   22.91    1.51
  22  19  -5   20.63    1.53
  19   5 -22   18.75    1.47
  22  19   6    7.60    1.05
   6  19 -22    9.91    1.16
  22   6 -19    9.44    1.10
  19  22  -6    9.69    1.17
  22  19  -6   10.77    1.18
   6  22 -19    9.64    1.12
  19   6 -22    8.53    1.13
  22   7 -19    9.06    1.14
  19  22  -7    9.64    1.17
   7  19 -22    7.21    1.07
   7  22 -19    9.04    1.13
  19   7 -22    7.04    1.09
  22  19  -7    9.16    1.12
   8  19 -22    7.63    1.05
  22   8 -19    8.58    1.09
  19  22  -8    7.00    1.08
   8  22 -19    5.75    1.02
  19   8 -22    8.27    1.13
  22  19  -8    8.61    1.09
  22   9 -19   10.64    1.22
  19  22  -9   13.25    1.35
   9  19 -22   12.46    1.28
  19   9 -22   11.08    1.23
  22  19  -9    8.08    1.11
   9  22 -19    9.49    1.16
  19  22 -10    7.72    1.13
  22  10 -19   10.21    1.18
  10  19 -22   10.06    1.21
  22  19 -10   11.29    1.27
  10  22 -19   11.46    1.24
  19  10 -22   11.46    1.30
  22  11 -19   -0.09    0.74
  19  22 -11    0.47    0.79
  11  19 -22    0.86    0.75
  11  22 -19    1.81    0.81
  19  11 -22    0.60    0.81
  22  19 -11    0.87    0.77
  22  12 -19    2.73    0.89
  22  19 -12    2.75    0.91
  19  12 -22    4.21    1.39
   0  22 -20   25.68    1.51
  22  20   0   26.02    1.68
  20  22   0   24.99    1.65
   0  20 -22   22.82    1.50
  -1  22 -20    5.95    0.89
  22  20   1    4.47    0.92
  20  22  -1    6.85    1.06
   1  20 -22    7.30    0.98
  -1  20 -22    9.00    1.03
  20  22   1    9.80    1.16
   1  22 -20    8.98    1.03
  22  20  -1    9.23    1.14
  20  22  -2    9.47    1.15
   2  20 -22    7.60    1.00
  22  20   2    9.98    1.13
  20  22   2    6.64    1.02
  22  20  -2    5.55    1.00
   2  22 -20    7.55    1.01
  20  22  -3   12.21    1.26
  22  20   3   15.97    1.36
   3  20 -22   12.50    1.20
   3  22 -20   12.29    1.21
  22  20  -3   13.84    1.30
  20  22   3   12.79    1.30
  20  22  -4    8.42    1.13
   4  20 -22   10.17    1.15
  22   4 -20    8.21    1.05
  22  20   4    8.63    1.10
  22  20  -4    8.00    1.08
  20  22   4    6.57    1.05
   4  22 -20    7.03    1.00
   5  20 -22    4.12    0.88
  22   5 -20    5.81    0.96
  20  22  -5    6.80    1.07
  22  20   5    6.30    1.02
  22  20  -5    5.34    0.93
  20  22   5    4.30    0.95
   5  22 -20    4.91    0.92
  20   5 -22    2.79    0.88
   6  20 -22    1.07    0.74
  22   6 -20    1.21    0.75
  20  22  -6    0.51    0.74
  22  20   6    0.42    0.69
  22  20  -6    2.12    0.82
  20   6 -22    2.02    0.80
   6  22 -20    2.54    0.85
   7  20 -22    9.75    1.17
  20  22  -7    9.07    1.19
  22   7 -20   12.66    1.29
  20   7 -22    9.94    1.19
   7  22 -20   10.92    1.19
  22  20  -7   10.06    1.19
  20  22  -8    2.55    0.88
   8  20 -22    2.53    0.85
  22   8 -20    2.34    0.85
  20   8 -22    0.75    0.76
   8  22 -20    1.95    0.81
  22  20  -8    1.15    0.75
  20  22  -9    1.81    0.83
   9  20 -22    2.64    0.88
  22   9 -20    2.39    0.86
  20   9 -22    2.57    0.90
  22  20  -9    2.29    0.85
   9  22 -20    1.14    0.79
  20  22 -10    6.61    1.61
  10  20 -22    6.81    1.20
  22  10 -20    8.85    1.15
  10  22 -20    5.79    1.16
  20  10 -22    5.61    1.06
  22  20 -10    5.63    1.04
  22  11 -20   -0.70    0.78
  22  21   0    1.35    0.77
   0  21 -22    0.16    0.62
  21  22   0    0.99    0.73
   0  22 -21    2.12    0.73
   1  21 -22    7.04    0.98
  21  22  -1    6.10    1.03
  22  21   1    6.36    1.01
  21  22   1    9.27    1.15
  -1  21 -22    9.25    1.14
  22  21  -1    7.82    1.09
   1  22 -21    7.72    1.02
  21  22  -2    3.40    0.90
   2  21 -22    2.96    0.80
  22  21   2    3.44    0.90
  21  22   2    2.84    0.84
   2  22 -21    2.53    0.77
  22  21  -2    2.34    0.82
  22  21   3    9.61    1.20
  21  22  -3   13.17    1.33
   3  21 -22   11.02    1.18
  22  21  -3    5.91    1.02
   3  22 -21    9.22    1.10
  21  22   3    9.48    1.15
  21  22  -4    2.55    0.88
  22  21   4    5.11    0.96
   4  21 -22    4.31    0.89
   4  22 -21    6.89    1.03
  21  22   4    5.24    0.98
  22  21  -4    5.59    0.99
   5  21 -22    9.40    1.14
  21  22  -5    9.26    1.19
  22  21   5    8.60    1.15
  22   5 -21    8.87    1.10
  22  21  -5    7.97    1.11
  21  22   5    8.91    1.14
  21   5 -22    7.32    1.07
   5  22 -21    7.73    1.07
  22  21   6    0.65    0.73
   6  21 -22   -0.21    0.66
  22   6 -21    1.05    0.78
  21  22  -6   -0.76    0.68
  21  22   6    0.83    0.79
  22  21  -6   -0.02    0.68
  21   6 -22    1.56    0.77
   6  22 -21    0.05    0.69
  22  21   7    7.66    1.07
   7  21 -22    7.21    1.07
  22   7 -21    6.36    1.04
  21  22  -7    8.19    1.15
  21   7 -22    8.54    1.12
  22  21  -7    8.73    1.15
   7  22 -21    8.10    1.13
   8  21 -22    0.49    0.75
  22   8 -21    1.46    0.78
  21  22  -8    0.49    0.86
  21   8 -22    0.06    0.73
   8  22 -21    0.92    0.82
  22  21  -8    0.03    0.71
  22   9 -21    8.03    1.16
  21   9 -22    5.06    1.15
   0  22 -22   10.50    1.13
  22  22   0   10.56    1.25
   1  22 -22    4.60    0.90
  22  22  -1    4.77    1.00
  22  22   1    6.85    1.08
   2  22 -22    9.69    1.10
  22  22  -2    8.20    1.13
  22  22   2    8.47    1.12
   3  22 -22    1.87    0.77
  22  22  -3    0.71    0.76
  22  22   3    0.44    0.71
   4  22 -22    0.12    0.67
  22  22  -4    0.76    0.75
  22  22   4    1.22    0.81
   5  22 -22    2.62    0.82
  22  22  -5    2.89    1.03
  22  22   5    1.66    0.79
   6  22 -22    1.16    0.76
  22   6 -22    0.45    0.70
  22  22   6    1.09    0.78
  22   7 -22    0.20    0.76
  22  22   7    0.35    1.09
   0  23  -2   38.10    1.56
  -1  23  -2    7.02    0.76
   1  23  -2    5.62    0.75
  -2  23  -2    3.45    0.62
   2  23  -2    4.03    0.69
   0  23  -3   92.55    2.76
  -1  23  -3   15.33    1.05
   1  23  -3   14.28    1.02
  -2  23  -3    2.04    0.54
   3  23  -2    1.45    0.58
  -3  23  -2    1.41    0.49
   2  23  -3    1.75    0.57
  -3  23  -3    0.94    0.46
   3  23  -3    0.92    0.52
   0  23  -4   24.46    1.28
  -1  23  -4   30.30    1.35
   1  23  -4   24.01    1.26
   4  23  -2   12.53    1.04
  -2  23  -4   10.24    0.88
  -4  23  -2   11.27    0.88
   2  23  -4   11.32    0.95
  -3  23  -4   11.69    0.90
   4  23  -3   10.94    0.98
  -4  23  -3   13.89    0.93
   3  23  -4   12.95    1.04
  -4  23  -4   13.44    0.95
   4  23  -4   14.15    1.09
   0  23  -5   33.99    1.46
  -1  23  -5   11.06    0.91
   1  23  -5   15.07    1.04
  -2  23  -5   13.73    0.96
   5  23  -2   11.79    1.05
  -5  23  -2    8.89    0.78
   2  23  -5    8.55    0.88
   5  23  -3    8.06    0.89
  -3  23  -5    8.40    0.77
  23   5  -3    5.99    0.92
  -5  23  -3    6.42    0.68
   3  23  -5    5.13    0.72
   5  23  -4    4.91    0.77
  -4  23  -5    4.97    0.63
  -5  23  -4    3.62    0.57
   4  23  -5    3.03    0.64
  23   5  -4    3.73    0.55
   5  23  -5    0.37    0.53
  23   5  -5    0.28    0.41
  -5  23  -5   -0.09    0.39
   0  23  -6    5.75    0.73
  -1  23  -6    7.96    0.80
   1  23  -6    6.82    0.77
  23   6  -1    7.60    0.82
  -6  23  -1    6.35    0.67
   6  23  -2   21.06    1.31
  -2  23  -6   23.55    1.20
  -6  23  -2   21.36    1.08
  23   6  -2   22.74    1.08
   2  23  -6   20.60    1.21
  -3  23  -6   17.24    1.06
   6  23  -3   16.92    1.21
   3  23  -6   17.57    1.13
  23   6  -3   16.08    0.94
  -6  23  -3   16.62    0.96
   6  23  -4   23.92    1.36
  -4  23  -6   21.51    1.11
  23   4  -6   20.83    1.06
  -6  23  -4   20.73    1.06
   4  23  -6   22.10    1.28
  23   6  -4   21.94    1.11
  -5  23  -6    6.24    0.68
  23   5  -6    5.56    0.67
   6  23  -5    6.07    0.82
   5  23  -6    4.98    0.77
  23   6  -5    4.24    0.60
   6  23  -6   12.54    1.07
  23   6  -6   11.92    0.90
   0  23  -7   15.44    1.09
  23   7   0   15.50    0.94
  -1  23  -7   10.29    0.88
  23   7   1   11.64    0.94
   1  23  -7   11.21    0.96
  23   7  -1   11.79    0.86
  -7  23  -1   12.14    1.27
   7  23  -2    9.00    0.97
  -2  23  -7    7.98    0.80
   2  23  -7    7.94    0.87
  23   7  -2    8.66    0.77
   7  23  -3    3.97    0.73
  -3  23  -7    4.35    0.64
   3  23  -7    5.93    0.79
  23   7  -3    6.02    0.68
   7  23  -4   10.86    1.04
  23   4  -7   11.80    0.86
  -4  23  -7   11.31    0.86
  23   7  -4   12.24    0.90
   4  23  -7   11.80    1.02
  -5  23  -7   20.51    1.07
   7  23  -5   20.44    1.30
   5   7 -23   22.56    1.39
  23   5  -7   20.15    1.08
   5  23  -7   23.58    1.35
  23   7  -5   22.20    1.15
   7  23  -6    3.06    0.69
   6   7 -23    3.60    0.73
  23   6  -7    4.23    0.63
  23   7  -6    3.13    0.58
   7   6 -23    3.57    0.76
   6  23  -7    4.21    0.77
  23   7  -7    0.13    0.44
   7  23  -7   -0.36    0.54
   7   7 -23   -0.06    0.55
  23   8   0   20.18    1.09
   0  23  -8   21.17    1.22
  23   8   1   45.97    1.66
  -1  23  -8   49.33    1.80
   8  23  -1   51.86    2.02
  23   8  -1   49.40    1.72
   1  23  -8   49.98    1.86
  -2  23  -8    0.10    0.44
  23   8   2    0.04    0.40
   8  23  -2    0.73    0.59
  23   8  -2    0.47    0.41
   2  23  -8   -0.44    0.48
  23   8   3   26.83    1.40
   8  23  -3   26.67    1.48
  -3  23  -8   24.97    1.23
  23   3  -8   24.18    1.24
   3   8 -23   25.57    1.45
  23   8  -3   26.53    1.24
   3  23  -8   25.32    1.35
   8  23  -4    2.82    0.68
   4   8 -23    2.15    0.66
  23   4  -8    3.55    0.58
  -4  23  -8    2.74    0.55
  23   8  -4    2.84    0.57
   4  23  -8    2.30    0.62
  23   5  -8    7.57    0.76
   8  23  -5    6.11    0.85
   5   8 -23    6.14    0.89
  -5  23  -8    6.98    0.77
  23   8  -5    5.81    0.70
   5  23  -8    6.03    0.82
  23   6  -8    2.85    0.58
   6   8 -23    3.42    0.76
   8  23  -6    4.04    0.78
  23   8  -6    2.65    0.58
   6  23  -8    2.83    0.68
   8   6 -23    2.52    0.70
   8  23  -7   21.98    1.39
  23   7  -8   19.66    1.18
   7   8 -23   20.73    1.40
   7  23  -8   23.30    1.40
  23   8  -7   20.17    1.21
   8   7 -23   24.42    1.49
   8  23  -8    4.38    0.78
   8   8 -23    2.80    0.74
  23   8  -8    3.43    0.64
   0  23  -9    5.74    0.74
  23   9   0    5.26    0.68
  23   9   1    6.57    0.71
   9  23  -1    6.66    0.89
  -1  23  -9    6.15    0.76
  23   9  -1    8.64    0.81
   1  23  -9    8.95    0.88
   2   9 -23   30.19    1.58
  -2  23  -9   29.32    1.36
  23   9   2   30.78    1.35
   9  23  -2   28.66    1.56
   2  23  -9   32.64    1.51
  23   9  -2   34.32    1.46
   9  23  -3    7.09    0.95
  23   3  -9    8.41    0.78
  -3  23  -9    8.69    0.82
   3   9 -23    8.29    0.95
  23   9   3    6.86    0.72
   3  23  -9   10.01    0.94
  23   9  -3    9.23    0.84
  23   9   4    3.73    0.61
   9  23  -4    4.14    0.78
   4   9 -23    2.65    0.70
  23   4  -9    3.85    0.61
  -4  23  -9    2.42    0.56
   4  23  -9    2.23    0.65
  23   9  -4    2.16    0.57
   5   9 -23   25.09    1.47
   9  23  -5   20.66    1.36
  23   5  -9   21.15    1.16
  23   9  -5   27.10    1.34
   5  23  -9   26.65    1.49
   6   9 -23    3.68    0.77
  23   6  -9    5.31    0.70
   9  23  -6    4.20    0.79
   6  23  -9    4.57    0.77
  23   9  -6    3.52    0.65
   9   6 -23    4.40    0.79
   9  23  -7    1.33    0.65
  23   7  -9    0.95    0.53
   7   9 -23    0.08    0.60
   7  23  -9    0.90    0.60
  23   9  -7    1.67    0.55
   9   7 -23    1.09    0.68
   9  23  -8    8.27    0.98
   8   9 -23    8.58    0.99
  23   8  -9    8.66    0.88
   9   8 -23    5.82    0.93
  23   9  -8    7.68    0.86
   8  23  -9    8.84    0.97
   9  23  -9   20.14    1.43
  23   9  -9   18.69    1.23
   9   9 -23   19.48    1.40
  23  10   0    4.09    0.64
   0  23 -10    2.75    0.63
  23  10   1    0.22    0.47
  10  23  -1    1.61    0.66
   1  10 -23    1.06    0.57
  -1  23 -10    1.50    0.55
   1  23 -10    2.78    0.63
  23  10  -1    1.98    0.55
   2  10 -23    2.69    0.68
  -2  23 -10    2.91    0.62
  10  23  -2    2.39    0.72
  23  10   2    3.17    0.60
  23  10  -2    2.51    0.59
   2  23 -10    2.73    0.64
  10  23  -3    3.30    0.75
  23   3 -10    2.68    0.59
  -3  23 -10    2.59    0.58
   3  10 -23    2.08    0.66
  23  10   3    3.19    0.60
   3  23 -10    2.61    0.65
  23  10  -3    2.14    0.58
  10  23  -4    4.86    0.83
  23   4 -10    4.22    0.65
  -4  23 -10    4.47    0.64
  23  10   4    4.01    0.63
   4  10 -23    4.40    0.80
   4  23 -10    4.09    0.76
  23  10  -4    4.79    0.72
  23   5 -10   14.14    1.03
   5  10 -23   16.69    1.28
  23  10   5   15.53    1.03
  10  23  -5   16.28    1.29
  10   5 -23   14.50    1.25
  23  10  -5   17.15    1.14
   5  23 -10   17.13    1.24
  23  10   6   13.86    1.01
   6  10 -23   10.51    1.09
  10  23  -6   11.74    1.15
  23   6 -10   10.93    0.95
  23  10  -6    9.18    0.89
   6  23 -10    8.77    1.00
  10   6 -23    7.76    0.99
  10  23  -7    6.32    0.91
  23   7 -10    6.64    0.78
   7  10 -23    6.51    0.93
  23  10  -7    6.02    0.78
  10   7 -23    6.99    0.99
   7  23 -10    8.17    0.97
  23   8 -10    5.52    0.77
   8  10 -23    4.29    0.85
  10  23  -8    4.87    0.84
  10   8 -23    4.08    0.84
  23  10  -8    2.76    0.68
   8  23 -10    5.16    0.85
  23   9 -10    0.09    0.51
   9  10 -23    0.19    0.64
  10  23  -9    0.49    0.64
  23  10  -9    0.45    0.54
   9  23 -10    0.25    0.61
  10   9 -23    0.26    0.64
  10  10 -23   44.59    2.03
  10  23 -10   43.56    1.96
  23  10 -10   39.42    1.75
  23  11   0    0.55    0.49
   0  23 -11    0.52    0.51
   0  11 -23    0.45    0.56
  -1  23 -11   10.66    0.93
   1  11 -23   11.66    1.08
  23  11   1   10.89    0.94
  11  23  -1   10.74    1.09
  23  11  -1    9.93    0.90
   1  23 -11   10.71    0.96
  23  11   2    1.47    0.57
   2  11 -23    1.68    0.64
  11  23  -2    1.54    0.68
  -2  23 -11    1.47    0.56
  23   2 -11    2.32    0.55
   2  23 -11    2.34    0.64
  23  11  -2    2.04    0.59
  23   3 -11   18.21    1.13
  23  11   3   14.48    1.06
  -3  23 -11   16.31    1.08
  11  23  -3   16.84    1.32
   3  11 -23   16.90    1.26
  23  11  -3   15.54    1.13
   3  23 -11   16.80    1.21
  11  23  -4    2.46    0.73
   4  11 -23    2.60    0.68
  23   4 -11    2.64    0.60
  23  11   4    3.16    0.63
  -4  23 -11    3.25    0.60
  23  11  -4    1.20    0.56
   4  23 -11    1.50    0.60
  23   5 -11   15.00    1.08
  11  23  -5   12.03    1.15
   5  11 -23   16.21    1.29
  23  11   5   14.43    1.06
   5  23 -11   14.47    1.17
  11   5 -23   15.73    1.32
  23  11  -5   14.39    1.10
  23   6 -11    3.27    0.65
   6  11 -23    2.00    0.70
  23  11   6    3.59    0.64
  11  23  -6    2.70    0.75
   6  23 -11    3.93    0.76
  23  11  -6    2.88    0.66
  11   6 -23    2.81    0.76
  23   7 -11   21.56    1.28
  11  23  -7   22.12    1.44
   7  11 -23   19.81    1.41
   7  23 -11   17.93    1.34
  23  11  -7   20.81    1.31
  11   7 -23   21.86    1.49
  23   8 -11   12.76    1.06
   8  11 -23   11.67    1.19
  11  23  -8   11.70    1.13
  11   8 -23    7.54    1.06
  23  11  -8   11.01    1.00
   8  23 -11   11.16    1.08
  11  23  -9   -0.23    0.60
   9  11 -23    0.71    0.68
  23   9 -11    0.45    0.55
  23  11  -9    2.34    0.68
   9  23 -11    1.69    0.71
  11   9 -23    1.05    0.70
  23  10 -11    3.02    0.71
  10  11 -23    2.82    0.79
  11  23 -10    2.95    0.78
  10  23 -11    3.53    0.83
  11  10 -23    4.32    0.89
  23  11 -10    4.18    0.78
  23  11 -11    6.74    0.92
  11  11 -23    8.18    1.07
  11  23 -11   10.08    1.12
  12  23   0    4.38    0.82
   0  23 -12    3.67    0.68
  23  12   0    2.85    0.64
   0  12 -23    4.08    0.74
  -1  23 -12   16.24    1.14
   1  12 -23   16.73    1.26
  23  12   1   19.07    1.19
  12  23  -1   16.29    1.30
   1  23 -12   17.20    1.21
  23  12  -1   18.75    1.19
  -1  12 -23   17.07    1.21
   2  12 -23   21.84    1.38
  -2  23 -12   21.59    1.23
  23   2 -12   20.51    1.20
  23  12   2   19.29    1.21
  12  23  -2   20.94    1.42
   2  23 -12   17.07    1.22
  23  12  -2   17.17    1.17
   3  12 -23    2.85    0.73
  23   3 -12    2.85    0.63
  -3  23 -12    1.90    0.56
  23  12   3    2.70    0.64
  12  23  -3    2.45    0.72
   3  23 -12    2.19    0.67
  23  12  -3    2.66    0.65
  23  12   4    8.83    0.89
   4  12 -23    8.61    1.01
  23   4 -12    8.97    0.88
  12  23  -4    9.24    1.05
  23  12  -4    9.55    0.94
   4  23 -12    9.33    0.98
  12  23  -5   12.95    1.22
   5  12 -23   13.51    1.19
  23   5 -12   12.19    1.02
  23  12   5   13.86    1.07
   5  23 -12   10.31    1.05
  23  12  -5   11.63    1.03
  12   5 -23    9.68    1.10
   6  12 -23   17.55    1.34
  23   6 -12   18.28    1.20
  23  12   6   17.09    1.16
  12  23  -6   17.33    1.36
  12   6 -23   12.20    1.19
  23  12  -6   14.92    1.14
   6  23 -12   14.41    1.18
   7  12 -23   16.69    1.31
  12  23  -7   12.55    1.19
  23   7 -12   16.01    1.18
  23  12  -7   13.98    1.16
   7  23 -12   14.37    1.25
  12   7 -23   13.87    1.26
  12  23  -8    3.03    0.78
  23   8 -12    4.37    0.77
   8  12 -23    3.46    0.84
  12   8 -23    3.57    0.85
  23  12  -8    2.36    0.68
   8  23 -12    3.94    0.83
  23   9 -12   16.56    1.19
   9  12 -23   14.53    1.29
  12  23  -9   15.16    1.31
  23  12  -9   11.68    1.08
   9  23 -12   13.77    1.23
  12   9 -23   14.25    1.29
  12  23 -10    9.89    1.14
  23  10 -12   10.88    1.07
  10  12 -23    9.72    1.11
  10  23 -12    8.67    1.05
  12  10 -23   13.30    1.28
  23  12 -10   10.71    1.07
  12  23 -11    2.99    0.81
  11  12 -23    2.27    0.83
  23  11 -12    1.78    0.71
  11  23 -12    1.73    0.73
  23  12 -11    2.10    0.73
  12  11 -23    2.39    0.79
  12  12 -23    1.29    0.74
  23  12 -12    2.06    0.72
  12  23 -12    1.27    0.74
   0  13 -23    0.90    0.61
   0  23 -13    2.38    0.66
  13  23   0    2.50    0.72
  23  13   0    1.02    0.59
  -1  23 -13   11.40    0.99
  23  13   1   12.75    1.07
   1  13 -23   13.17    1.14
  13  23  -1   14.16    1.26
  23  13  -1   11.86    1.02
   1  23 -13   12.96    1.08
  -1  13 -23   11.26    1.05
  -2  23 -13   15.16    1.10
  23  13   2   15.17    1.14
  13  23  -2   15.07    1.31
  23   2 -13   15.04    1.09
   2  13 -23   13.81    1.17
   2  23 -13   12.01    1.06
  23  13  -2    9.22    0.94
  -2  13 -23   12.04    1.06
   3  13 -23    3.39    0.75
  23   3 -13    6.55    0.79
  -3  23 -13    5.02    0.71
  23  13   3    6.26    0.81
  13  23  -3    4.90    0.86
   3  23 -13    4.66    0.80
  23  13  -3    7.94    0.88
  13  23  -4    3.75    0.80
   4  13 -23    3.53    0.77
  23  13   4    4.99    0.76
  23   4 -13    3.02    0.65
  23  13  -4    2.57    0.67
   4  23 -13    2.00    0.68
  13  23  -5    4.15    0.84
  23  13   5    5.82    0.79
  23   5 -13    4.33    0.73
   5  13 -23    5.22    0.89
   5  23 -13    7.10    0.90
  23  13  -5    8.37    0.93
  13   5 -23    5.40    0.92
  23  13   6    3.15    0.70
  13  23  -6    2.66    0.81
  23   6 -13    3.17    0.69
   6  13 -23    2.48    0.76
  23  13  -6    4.68    0.78
   6  23 -13    5.79    0.89
  13   6 -23    3.24    0.81
  13  23  -7    3.35    0.80
   7  13 -23    2.60    0.79
  23   7 -13    1.71    0.64
  23  13  -7    1.68    0.65
   7  23 -13    1.16    0.66
  13   7 -23    2.12    0.76
  13  23  -8    5.67    0.95
  23   8 -13    6.19    0.87
   8  13 -23    6.68    0.98
   8  23 -13    5.19    0.89
  23  13  -8    4.15    0.81
  13   8 -23    6.60    0.99
   9  13 -23   25.60    1.61
  13  23  -9   23.71    1.58
  23   9 -13   23.45    1.41
  23  13  -9   21.92    1.38
   9  23 -13   21.70    1.48
  13   9 -23   18.15    1.44
  23  10 -13    8.47    0.99
  13  23 -10    7.75    1.07
  10  13 -23    8.09    1.10
  10  23 -13    8.13    1.06
  23  13 -10    6.88    0.93
  13  10 -23    8.00    1.07
  13  23 -11    7.90    1.06
  11  13 -23    6.80    1.01
  23  11 -13    9.22    1.03
  23  13 -11   10.13    1.08
  11  23 -13    9.01    1.12
  13  11 -23    8.58    1.11
  12  13 -23    7.24    1.06
  23  12 -13    8.93    1.06
  13  23 -12    6.31    0.99
  23  13 -12    7.53    1.00
  12  23 -13    8.87    1.15
  13  12 -23    8.51    1.14
  13  23 -13    3.89    0.92
  13  13 -23    3.18    0.89
  23  13 -13    2.62    0.77
  23  14   0    3.33    0.69
   0  14 -23    2.88    0.74
   0  23 -14    4.19    0.75
  14  23   0    2.29    0.77
   1  14 -23    1.43    0.65
  14  23  -1    0.17    0.65
  -1  23 -14   -0.34    0.52
  23  14   1    0.26    0.55
  23   1 -14    0.73    0.63
  23  14  -1    0.08    0.54
  -1  14 -23    0.31    0.57
  14  23   1   -0.06    0.61
   1  23 -14    0.72    0.55
   2  14 -23    5.16    0.83
  -2  23 -14    3.44    0.67
  23  14   2    3.05    0.71
  23   2 -14    3.36    0.68
  14  23  -2    5.72    0.93
  23  14  -2    4.16    0.76
   2  23 -14    4.51    0.79
  -2  14 -23    4.05    0.73
   3  14 -23    4.94    0.85
  -3  23 -14    4.52    0.73
  23   3 -14    5.79    0.80
  14  23  -3    6.64    0.94
  23  14   3    8.36    0.93
  23  14  -3    6.31    0.84
   3  23 -14    6.92    0.91
  -3  14 -23    4.62    0.77
  14  23  -4    6.79    0.96
  23  14   4    7.17    0.88
  23   4 -14    7.65    0.90
   4  14 -23    6.92    0.96
  23  14  -4    7.14    0.91
   4  23 -14    6.20    0.86
  23  14   5    2.50    0.67
   5  14 -23    1.68    0.69
  14  23  -5    2.08    0.76
  23   5 -14    2.32    0.67
   5  23 -14    1.53    0.70
  23  14  -5    2.61    0.69
  14   5 -23    1.26    0.70
  23  14   6   13.31    1.11
   6  14 -23   13.66    1.24
  23   6 -14   16.67    1.23
  14  23  -6   12.66    1.25
  14   6 -23   18.52    1.43
   6  23 -14   15.39    1.28
  23  14  -6   16.32    1.26
  23   7 -14    7.11    0.91
  14  23  -7    6.36    0.98
   7  14 -23    6.90    0.97
   7  23 -14    7.87    1.00
  14   7 -23    7.84    1.07
  23  14  -7    7.29    0.94
  23   8 -14    0.63    0.57
   8  14 -23   -0.19    0.63
  14  23  -8    0.93    0.70
  14   8 -23    0.24    0.66
  23  14  -8    0.19    0.61
   8  23 -14    0.43    0.65
  23   9 -14    2.36    0.75
  14  23  -9    2.75    0.82
   9  14 -23    4.21    0.89
   9  23 -14    5.89    0.95
  23  14  -9    4.19    0.80
  14   9 -23    3.83    0.89
  23  10 -14   10.98    1.13
  14  23 -10    9.96    1.17
  10  14 -23    9.73    1.17
  14  10 -23   13.69    1.31
  23  14 -10   12.58    1.18
  10  23 -14   10.82    1.21
  23  11 -14    0.45    0.64
  14  23 -11    0.56    0.70
  11  14 -23   -0.09    0.70
  23  14 -11    1.72    0.71
  14  11 -23    1.43    0.77
  11  23 -14    2.06    0.83
  12  14 -23    2.64    0.88
  23  12 -14    2.79    0.78
  14  23 -12    1.41    0.80
  12  23 -14    3.47    0.85
  14  12 -23    0.53    0.73
  23  14 -12    3.42    0.81
  23  13 -14   13.03    1.26
  13  14 -23   11.20    1.27
  14  23 -13   12.75    1.34
  23  14 -13   13.03    1.26
  14  13 -23   16.27    1.46
  13  23 -14   14.17    1.36
  14  14 -23   14.33    1.39
  23  14 -14   13.80    1.31
  14  23 -14   13.26    1.34
   0  15 -23   21.27    1.36
  23  15   0   19.98    1.34
  15  23   0   17.95    1.44
   0  23 -15   20.74    1.31
  -1  23 -15    9.66    0.96
  23  15   1    8.84    0.97
  23   1 -15    8.71    0.95
   1  15 -23   10.11    1.03
  15  23  -1    8.72    1.09
  23  15  -1    7.30    0.91
   1  23 -15   10.11    0.99
  -1  15 -23    9.47    1.03
  15  23   1    8.46    1.05
  -2  23 -15    9.15    0.92
  23  15   2    8.35    0.95
  23   2 -15    9.18    0.94
  15  23  -2    8.25    1.05
   2  15 -23    8.42    0.99
   2  23 -15    6.40    0.89
  23  15  -2    7.92    0.93
  -2  15 -23    6.18    0.88
  23   3 -15   19.32    1.27
  23  15   3   18.36    1.26
   3  15 -23   19.14    1.42
  15  23  -3   17.36    1.40
  -3  15 -23   21.33    1.34
   3  23 -15   20.17    1.35
  23  15  -3   22.15    1.41
   4  15 -23    3.26    0.80
  23   4 -15    3.21    0.71
  23  15   4    3.26    0.73
  15  23  -4    2.07    0.79
   4  23 -15    1.67    0.70
  23  15  -4    1.74    0.69
  23  15   5    7.64    0.92
  23   5 -15    5.95    0.86
  15  23  -5    6.64    0.98
   5  15 -23    6.85    0.97
  23  15  -5    6.08    0.91
   5  23 -15    6.44    0.92
  15   5 -23    5.76    0.99
  15  23  -6    5.57    0.93
  23   6 -15    4.59    0.81
   6  15 -23    5.43    0.94
  23  15   6    4.73    0.82
  15   6 -23    7.04    1.02
  23  15  -6    6.29    0.89
   6  23 -15    6.05    0.92
  23   7 -15    0.49    0.58
  15  23  -7    1.73    0.78
   7  15 -23    1.56    0.71
  15   7 -23    1.37    0.77
   7  23 -15    1.38    0.72
  23  15  -7    1.96    0.71
   8  15 -23    5.13    0.94
  23   8 -15    4.97    0.86
  15  23  -8    5.88    0.97
  15   8 -23    5.76    0.99
   8  23 -15    5.56    0.97
  23  15  -8    5.01    0.87
  23   9 -15    0.03    0.59
   9  15 -23   -0.04    0.68
  15  23  -9    0.05    0.68
  23  15  -9    0.92    0.64
  15   9 -23    0.20    0.72
   9  23 -15    0.06    0.66
  15  23 -10    7.01    1.08
  23  10 -15    4.92    0.89
  10  15 -23    6.61    1.03
  10  23 -15    6.54    1.01
  15  10 -23    6.89    1.06
  23  15 -10    4.53    0.86
  11  15 -23   17.96    1.49
  15  23 -11   17.65    1.48
  23  11 -15   17.87    1.39
  23  15 -11   18.76    1.44
  11  23 -15   18.99    1.49
  15  11 -23   18.96    1.54
  12  15 -23    0.28    0.70
  23  12 -15    1.08    0.70
  15  23 -12    1.51    0.81
  23  15 -12    0.24    0.68
  15  12 -23    0.00    0.72
  12  23 -15    0.83    0.73
  15  23 -13   10.87    1.25
  23  13 -15    9.79    1.15
  13  15 -23    7.88    1.15
  13  23 -15    8.33    1.15
  23  15 -13   10.47    1.16
  15  13 -23    8.48    1.17
  14  15 -23    5.61    1.05
  15  23 -14    7.18    1.12
  23  14 -15    7.71    1.08
  15  14 -23    6.79    1.06
  14  23 -15    7.63    1.13
  23  15 -14    5.33    1.00
  23  15 -15    3.15    0.88
  23  16   0    0.05    0.59
   0  23 -16    0.14    0.57
   0  16 -23    0.95    0.60
  16  23   0   -0.65    0.65
  -1  23 -16    3.88    0.73
  23  16   1    3.55    0.77
  16  23  -1    4.05    0.89
   1  16 -23    3.49    0.77
  -1  16 -23    2.26    0.71
  16  23   1    2.06    0.77
   1  23 -16    2.01    0.66
  23  16  -1    2.35    0.71
  16  23  -2   38.65    1.91
  23   2 -16   34.82    1.66
  -2  23 -16   37.68    1.66
   2  16 -23   33.59    1.74
  23  16   2   36.47    1.77
  16  23   2   27.88    1.72
  23  16  -2   31.88    1.63
  -2  16 -23   34.08    1.66
   2  23 -16   31.37    1.61
   3  16 -23    2.86    0.77
  23   3 -16    3.52    0.75
  23  16   3    3.37    0.77
  16  23  -3    2.83    0.79
   3  23 -16    3.65    0.77
  23  16  -3    1.29    0.65
  -3  16 -23    2.71    0.69
  23   4 -16    0.06    0.58
  16  23  -4   -0.20    0.63
   4  16 -23    0.48    0.63
  23  16   4    0.54    0.61
  23  16  -4   -0.55    0.56
   4  23 -16   -0.52    0.57
  -4  16 -23   -0.37    0.51
  16  23  -5    7.41    1.04
  23  16   5    7.11    0.94
  23   5 -16    6.65    0.90
   5  16 -23    6.27    0.95
  16   5 -23    9.67    1.14
  23  16  -5    9.08    1.03
   5  23 -16    8.73    1.02
  16  23  -6   23.52    1.58
  23   6 -16   20.31    1.40
   6  16 -23   23.38    1.54
  23  16   6   18.32    1.38
  23  16  -6   25.33    1.51
   6  23 -16   23.22    1.51
  16   6 -23   23.54    1.60
  23   7 -16    1.35    0.68
   7  16 -23    1.79    0.76
  16  23  -7    2.17    0.80
   7  23 -16    0.54    0.68
  23  16  -7    0.01    0.61
  16   7 -23    0.04    0.71
  23   8 -16    3.36    0.83
   8  16 -23    4.02    0.91
  16  23  -8    5.20    0.98
   8  23 -16    4.48    0.93
  23  16  -8    4.35    0.87
  16   8 -23    4.24    0.93
   9  16 -23   19.36    1.51
  16  23  -9   22.77    1.59
  23   9 -16   19.33    1.45
   9  23 -16   18.42    1.49
  23  16  -9   18.14    1.42
  16   9 -23   21.08    1.60
  16  23 -10    0.58    0.74
  10  16 -23    1.26    0.78
  23  10 -16    0.57    0.72
  10  23 -16    1.71    0.83
  16  10 -23    0.79    0.77
  23  16 -10    2.49    0.79
  11  16 -23    1.10    0.77
  23  11 -16    0.07    0.69
  16  23 -11    1.04    0.79
  23  16 -11    0.03    0.66
  11  23 -16    0.29    0.72
  16  11 -23    0.16    0.78
  12  16 -23    9.94    1.18
  23  12 -16   10.69    1.19
  16  23 -12    9.83    1.21
  16  12 -23    8.41    1.16
  12  23 -16    7.09    1.10
  23  16 -12   10.08    1.17
  16  23 -13    2.91    0.92
  13  16 -23    1.91    0.83
  23  13 -16    3.15    0.87
  13  23 -16    0.38    0.79
  16  13 -23    1.45    0.88
  23  16 -13    1.85    0.82
  23  14 -16    0.05    0.75
  16  14 -23   -0.08    1.19
  23  16 -14    1.00    0.77
  23  15 -16    1.44    1.14
  23  16 -15    2.28    1.33
   0  17 -23    3.20    0.77
  17  23   0    4.26    0.92
  23  17   0    2.63    0.78
   0  23 -17    2.80    0.71
  17  23  -1   26.83    1.74
  -1  23 -17   25.37    1.45
   1  17 -23   25.94    1.53
  23  17   1   30.29    1.61
   1  23 -17   25.11    1.49
  17  23   1   25.09    1.63
  23  17  -1   25.32    1.51
  -1  17 -23   22.95    1.47
  23   2 -17    7.76    0.93
   2  17 -23    7.66    0.99
  17  23  -2    7.62    1.06
  23  17   2    7.62    1.00
   2  23 -17    6.93    0.94
  23  17  -2    6.47    0.93
  17  23   2    9.33    1.12
  -2  17 -23    6.79    0.92
  23   3 -17    5.68    0.87
   3  17 -23    6.02    0.93
  17  23  -3    5.59    0.99
  23  17   3    6.14    0.91
  23  17  -3    5.13    0.88
  -3  17 -23    4.35    0.81
   3  23 -17    4.86    0.86
  17  23   3    5.51    0.97
  23   4 -17    7.94    0.98
  23  17   4    8.43    1.02
  17  23  -4    7.59    1.06
   4  17 -23    7.13    0.98
   4  23 -17    5.74    0.92
  23  17  -4    5.42    0.90
  17  23  -5    5.65    0.97
  23   5 -17    5.18    0.90
   5  17 -23    4.02    0.86
  23  17   5    5.36    0.92
  23  17  -5    7.32    0.99
   5  23 -17    8.13    1.02
  17   5 -23    6.62    1.03
  23  17   6    3.10    0.80
   6  17 -23    2.10    0.79
  17  23  -6    1.25    0.75
  23   6 -17    2.61    0.77
   6  23 -17    1.26    0.72
  23  17  -6    2.58    0.79
  17   6 -23    2.66    0.81
  23   7 -17    9.93    1.10
   7  17 -23    8.71    1.11
  17  23  -7   10.15    1.15
   7  23 -17    7.21    1.02
  23  17  -7    8.96    1.08
  17   7 -23    8.95    1.12
  23   8 -17    3.78    0.83
   8  17 -23    4.72    0.94
  17  23  -8    2.88    0.85
   8  23 -17    4.00    0.89
  17   8 -23    4.23    0.95
  23  17  -8    4.41    0.91
  17  23  -9    1.43    0.81
   9  17 -23    0.90    0.74
  23   9 -17    1.07    0.73
  17   9 -23    2.24    0.85
   9  23 -17    1.56    0.77
  23  17  -9    0.99    0.72
  23  10 -17    4.34    0.90
  17  23 -10    2.52    0.83
  10  17 -23    2.64    0.87
  10  23 -17    0.53    0.73
  23  17 -10    2.33    0.79
  17  10 -23    3.04    0.90
  17  23 -11    3.81    0.95
  11  17 -23    4.35    0.95
  23  11 -17    4.72    0.91
  11  23 -17    7.78    1.11
  23  17 -11    6.66    1.02
  17  11 -23    5.07    1.02
  17  23 -12    0.43    0.79
  12  17 -23    0.16    0.78
  23  12 -17    0.08    0.70
  12  23 -17    2.57    0.86
  23  17 -12    2.15    0.83
  17  12 -23    0.76    0.78
  23  13 -17   14.86    1.41
  23  17 -13    8.38    1.15
  23  14 -17    5.59    1.52
   0  23 -18   22.22    1.41
  23  18   0   20.13    1.48
  18  23   0   24.95    1.64
   0  18 -23   18.28    1.39
   1  18 -23    0.89    0.64
  23  18   1    1.24    0.69
  18  23  -1    1.14    0.77
  -1  23 -18   -0.24    0.56
  -1  18 -23    0.43    0.62
  23  18  -1    0.37    0.66
   1  23 -18    1.62    0.67
  18  23   1    1.08    0.74
   2  18 -23    8.10    1.03
  23  18   2    7.97    1.03
  18  23  -2    7.10    1.08
  18  23   2    7.00    1.03
   2  23 -18    8.43    1.02
  -2  18 -23    7.54    0.96
  23  18  -2    8.70    1.05
  23   3 -18    2.83    0.73
  18  23  -3    1.90    0.78
   3  18 -23    1.54    0.73
  23  18   3    2.00    0.77
  18  23   3    3.07    0.83
  23  18  -3    2.08    0.75
   3  23 -18    2.30    0.74
  18  23  -4    3.79    0.87
  23   4 -18    2.20    0.76
  23  18   4    4.52    0.88
   4  18 -23    2.67    0.81
   4  23 -18    2.38    0.79
  18  23   4    1.75    0.79
  23  18  -4    3.74    0.84
   5  18 -23    0.81    0.72
  18  23  -5    0.84    0.73
  23  18   5    0.02    0.67
  23   5 -18   -0.01    0.62
   5  23 -18    0.84    0.72
  18   5 -23    0.38    0.69
  23  18  -5   -0.42    0.66
  18  23  -6   23.77    1.64
  23   6 -18   18.81    1.42
  23  18   6   20.24    1.51
   6  18 -23   22.31    1.56
  23  18  -6   17.17    1.42
  18   6 -23   15.13    1.38
   6  23 -18   18.46    1.44
  18  23  -7    6.66    1.04
   7  18 -23    6.58    1.04
  23  18   7    5.42    0.91
  23   7 -18    4.17    0.91
  18   7 -23    4.44    0.94
   7  23 -18    6.33    0.99
  23  18  -7    6.74    0.99
   8  18 -23    8.88    1.16
  18  23  -8    8.82    1.17
  23   8 -18    9.98    1.14
   8  23 -18    8.25    1.13
  23  18  -8    8.86    1.12
  18   8 -23    7.48    1.13
  18  23  -9    0.61    0.81
   9  18 -23    1.88    0.80
  23   9 -18    1.30    0.74
  18   9 -23    1.76    0.83
  23  18  -9    0.93    0.76
   9  23 -18    0.71    0.77
  10  18 -23   10.02    1.20
  23  10 -18   10.38    1.19
  18  23 -10    8.92    1.18
  10  23 -18    7.51    1.08
  23  18 -10    6.52    1.05
  18  10 -23    6.54    1.09
  18  23 -11    1.85    0.93
  23  11 -18    2.16    0.79
  11  18 -23    1.10    0.86
  18  11 -23   -0.24    0.79
  11  23 -18    0.25    0.74
  23  18 -11    0.32    0.71
  23  12 -18    0.19    0.75
  23  18 -12    0.75    0.77
   0  23 -19    0.04    0.61
  19  23   0    0.11    0.69
  23  19   0   -0.35    0.65
   0  19 -23   -0.79    0.60
   1  19 -23   15.24    1.29
  -1  23 -19   18.74    1.72
  23  19   1   13.17    1.25
  19  23  -1   17.77    1.47
  19  23   1   21.29    1.60
   1  23 -19   21.41    1.46
  -1  19 -23   21.02    1.41
  23  19  -1   17.74    1.42
  23  19   2    3.91    0.85
  19  23  -2    4.15    0.93
   2  19 -23    5.16    0.94
  23  19  -2    3.98    0.89
   2  23 -19    1.70    0.74
  19  23   2    2.80    0.87
  -2  19 -23    2.16    0.75
  23  19   3    1.00    0.71
  19  23  -3    0.94    0.76
   3  19 -23    0.90    0.66
  23  19  -3    1.37    0.73
   3  23 -19    1.67    0.74
  19  23   3    2.44    0.86
  23  19   4    9.72    1.13
   4  19 -23    8.05    1.09
  19  23  -4    7.30    1.09
  23   4 -19    7.90    0.99
  23  19  -4    5.16    0.93
  19  23   4    5.79    1.03
   4  23 -19    7.91    1.03
  23  19   5    9.55    1.12
  19  23  -5    6.35    1.06
  23   5 -19    6.24    1.00
   5  19 -23    6.83    1.00
   5  23 -19    6.38    1.00
  23  19  -5    3.90    0.89
   6  19 -23   10.94    1.22
  19  23  -6    9.45    1.18
  23  19   6   11.71    1.21
  23   6 -19   10.13    1.16
  19   6 -23    6.80    1.05
  23  19  -6    8.42    1.10
   6  23 -19    8.20    1.07
   7  19 -23    5.61    1.00
  19  23  -7    3.66    0.96
  23  19   7    4.72    0.92
  23   7 -19    4.54    0.93
  19   7 -23    3.11    0.87
   7  23 -19    2.97    0.85
  23  19  -7    3.33    0.84
  19  23  -8    3.33    0.93
   8  19 -23    2.85    0.88
  23   8 -19    2.18    0.79
  23  19  -8    2.78    0.85
  19   8 -23    4.42    0.97
   8  23 -19    5.04    0.97
  23   9 -19    2.74    0.85
   9  19 -23    1.42    0.80
  19  23  -9    2.45    0.93
  23  19  -9    1.90    0.85
  19   9 -23    1.29    0.81
   9  23 -19    1.79    0.81
  23  10 -19    2.48    0.89
  23  19 -10    1.55    0.81
  10  23 -19    2.75    1.24
  19  10 -23    1.51    0.92
  23  11 -19    4.91    1.00
  20  23   0    1.33    0.79
   0  20 -23    1.18    0.66
  23  20   0    1.19    0.74
   0  23 -20    0.23    0.61
   1  20 -23    1.33    0.71
  23  20   1    1.48    0.74
  20  23  -1   -0.34    0.67
  23  20  -1    1.39    0.79
  20  23   1    1.35    0.82
  -1  20 -23    1.40    0.72
   1  23 -20    0.92    0.70
   2  20 -23   20.38    1.51
  23  20   2   23.90    1.64
  20  23  -2   24.05    1.67
  20  23   2   21.48    1.60
  23  20  -2   20.67    1.57
   2  23 -20   17.79    1.39
  23  20   3    7.21    1.05
   3  20 -23    5.91    0.99
  20  23  -3    7.33    1.09
  20  23   3    9.39    1.20
  23  20  -3    9.57    1.14
   3  23 -20    8.55    1.07
  23  20   4    3.94    0.91
  20  23  -4    3.49    0.90
  23   4 -20    2.85    0.85
   4  20 -23    2.80    0.82
  20  23   4    5.29    1.01
  23  20  -4    4.31    0.92
   4  23 -20    2.51    0.81
  23  20   5    1.80    0.81
  23   5 -20    2.43    0.79
   5  20 -23    2.62    0.84
  20  23  -5    2.76    0.88
  23  20  -5    5.51    0.98
  20  23   5    1.95    0.85
   5  23 -20    2.89    0.87
  23   6 -20   15.28    1.37
  23  20   6   13.29    1.32
  20  23  -6   10.99    1.26
   6  20 -23   16.73    1.44
   6  23 -20   14.66    1.31
  20   6 -23   12.33    1.29
  23  20  -6   13.02    1.30
  23   7 -20   22.62    1.58
   7  20 -23   20.76    1.61
  20  23  -7   23.43    1.92
  23  20   7   23.07    1.61
  20   7 -23   25.75    1.78
  23  20  -7   24.31    1.73
   7  23 -20   25.63    1.75
   8  20 -23    3.23    1.01
  23   8 -20    4.44    0.93
  20   8 -23    4.08    0.99
   8  23 -20    3.93    1.04
  23  20  -8    4.21    0.93
  23   9 -20    3.06    0.88
  21  23   0   -1.33    0.65
   0  21 -23    0.82    0.71
  23  21   0    0.11    0.73
   1  21 -23   29.01    1.73
  21  23  -1   26.07    1.77
  23  21   1   29.68    1.82
   1  23 -21   30.59    1.73
  23  21  -1   31.12    1.88
  21  23   1   31.72    1.85
  23  21   2    5.64    0.97
  21  23  -2    5.56    1.03
   2  21 -23    6.14    0.97
  23  21  -2    6.26    1.02
   2  23 -21    5.59    0.95
  21  23   2    7.04    1.09
  23  21   3    5.62    1.00
  21  23  -3    7.10    1.12
   3  21 -23    6.60    0.99
  23  21  -3    7.84    1.12
   3  23 -21    7.51    1.02
  21  23   3    7.23    1.12
   4  21 -23    3.42    0.86
  21  23  -4    0.79    0.85
  23  21   4    3.01    0.89
  21  23   4    0.95    0.81
  23  21  -4    1.30    0.79
   4  23 -21    2.63    0.83
  23   5 -21    5.52    0.99
  23  21   5    6.46    1.05
   5  21 -23    5.03    0.96
   5  23 -21    7.01    1.06
  23  21  -5    6.09    1.08
  21  23   5    6.46    1.09
  23  21   6   -0.44    0.69
   6  21 -23    1.66    0.90
  23   6 -21    0.65    0.72
   6  23 -21    0.41    0.78
  23  21  -6    0.38    1.11
  21  23   6    0.57    1.11
  21   6 -23    0.97    0.80
  23  21   7    7.18    1.11
  23   7 -21    5.33    1.02
  23  22   1    0.12    1.13
   1  22 -23   -0.15    0.68
   1  23 -22   -0.03    0.65
  23  22  -1    0.28    1.16
   2  22 -23    4.43    0.93
  23  22   2    4.27    1.39
   2  23 -22    2.15    0.81
   3  22 -23    0.59    0.72
   3  23 -22   -0.34    0.66
   4  22 -23    0.56    0.90
   4  23 -22    0.61    0.77
   0  24  -2   12.46    1.00
  -1  24  -2   18.81    1.16
   1  24  -2   16.84    1.18
  -2  24  -2   14.40    1.05
   2  24  -2   14.39    1.11
   0  24  -3    0.15    0.49
  -1  24  -3   10.41    0.92
   1  24  -3    8.56    0.88
   3  24  -2   -0.23    0.48
  -2  24  -3    0.09    0.42
   2  24  -3   -0.27    0.48
  -3  24  -2   -0.26    0.45
  -3  24  -3    1.64    0.53
   3  24  -3    0.47    0.52
   0  24  -4    0.04    0.48
  -1  24  -4   16.89    1.11
   1  24  -4   13.86    1.05
  -4  24  -1   12.71    0.96
   4  24  -2   22.23    1.32
  -2  24  -4   21.66    1.21
  -4  24  -2   17.28    1.07
   2  24  -4   18.13    1.17
  -3  24  -4   15.79    1.04
   4  24  -3   16.46    1.18
   3  24  -4   17.80    1.18
  -4  24  -3   17.32    1.06
  -4  24  -4    1.64    0.52
   4  24  -4    1.81    0.62
   0  24  -5   29.87    1.43
  -1  24  -5    6.36    0.76
  -5  24  -1    8.03    0.78
   1  24  -5    5.16    0.75
  -2  24  -5   10.30    0.89
   5  24  -2    9.71    1.00
  -5  24  -2   12.09    0.92
   2  24  -5   12.25    1.04
  -3  24  -5   17.19    1.07
   5  24  -3   15.05    1.17
   3  24  -5   18.83    1.19
  -5  24  -3   16.24    1.04
  -4  24  -5   17.87    1.08
   5  24  -4   15.62    1.19
  -5  24  -4   17.67    1.03
   4  24  -5   17.64    1.21
  -5  24  -5    4.22    0.64
   5  24  -5    3.15    0.71
   0  24  -6   24.77    1.32
  -1  24  -6    7.08    0.79
   1  24  -6    9.36    0.91
  -6  24  -1   10.65    0.84
   6  24  -2    1.57    0.62
  -2  24  -6    1.18    0.53
  -6  24  -2   -0.11    0.45
   2  24  -6    0.69    0.53
   6  24  -3    0.83    0.57
  -3  24  -6    0.89    0.49
   3  24  -6    1.63    0.59
   6  24  -4   12.49    1.12
  -4  24  -6   13.93    1.00
   4  24  -6   15.75    1.20
  -5  24  -6    9.21    1.02
   6  24  -5   10.35    1.01
   5  24  -6    8.69    0.97
  24   6  -6    9.92    1.07
   6  24  -6    7.04    0.89
   0  24  -7    0.89    0.52
  -1  24  -7   -0.18    0.47
   7  24  -1    0.66    0.58
   1  24  -7    1.00    0.54
  -2  24  -7    0.51    0.48
   7  24  -2    1.80    0.64
   2  24  -7    0.30    0.52
   7  24  -3    8.91    1.00
  -3  24  -7   10.07    0.88
   3  24  -7    8.91    0.93
   7  24  -4    1.68    0.64
  -4  24  -7    3.23    0.62
  24   7  -4    1.69    0.57
   4  24  -7    2.66    0.70
   7  24  -5    5.94    0.84
   5  24  -7    7.92    0.93
  24   7  -5    7.21    0.75
  24   6  -7   16.75    1.08
   7  24  -6   18.20    1.35
   6  24  -7   15.41    1.22
  24   7  -6   16.67    1.05
  24   7  -7   14.53    1.04
   7   7 -24   12.98    1.21
   7  24  -7   17.62    1.30
   0  24  -8    0.61    0.51
   8  24  -1    1.77    0.66
  -1  24  -8    0.95    0.52
   1  24  -8    2.34    0.60
   8  24  -2    7.11    0.95
  -2  24  -8    8.55    0.85
  24   8  -2    7.28    0.77
   2  24  -8    6.40    0.80
   8  24  -3   10.96    1.09
  -3  24  -8   10.19    0.89
   3  24  -8    7.65    0.87
  24   8  -3   10.12    0.85
  -4  24  -8    3.56    0.62
   8  24  -4    3.46    0.74
  24   8  -4    4.68    0.67
   4  24  -8    3.88    0.75
   8  24  -5   19.37    1.35
   5   8 -24   19.34    1.36
  24   8  -5   19.43    1.16
   5  24  -8   19.48    1.29
   8  24  -6    0.14    0.60
   6   8 -24    0.81    0.65
  24   6  -8    1.56    0.56
   6  24  -8   -0.28    0.53
  24   8  -6    0.65    0.49
  24   7  -8    2.41    0.58
   7   8 -24    1.28    0.68
   8  24  -7    1.42    0.66
  24   8  -7    1.81    0.55
   7  24  -8    0.97    0.64
   8   7 -24    2.35    0.75
  24   8  -8    3.57    0.67
   8  24  -8    3.16    0.77
   8   8 -24    3.15    0.82
   0  24  -9    4.07    0.70
  24   9   0    4.42    0.65
   9  24  -1    9.98    1.05
  -1  24  -9   11.12    0.96
  24   9  -1   10.19    0.88
   1  24  -9   11.40    0.99
  -2  24  -9   18.08    1.15
   9  24  -2   16.93    1.31
   2  24  -9   20.18    1.24
  24   9  -2   20.46    1.15
  -3  24  -9   25.60    1.28
   9  24  -3   24.24    1.50
  24   9  -3   26.09    1.30
   3  24  -9   28.21    1.45
   9  24  -4   16.92    1.33
  -4  24  -9   18.54    1.11
   4   9 -24   17.41    1.33
  24   9  -4   17.98    1.12
   4  24  -9   16.16    1.23
   9  24  -5    2.09    0.71
  24   5  -9    4.02    0.68
   5   9 -24    3.44    0.75
   5  24  -9    5.41    0.84
  24   9  -5    5.04    0.71
   6   9 -24    2.89    0.76
   9  24  -6    2.37    0.72
  24   6  -9    2.23    0.58
   6  24  -9    1.74    0.65
  24   9  -6    1.72    0.58
   7   9 -24   13.59    1.26
   9  24  -7   14.75    1.24
  24   7  -9   14.11    1.06
  24   9  -7   18.92    1.21
   7  24  -9   17.09    1.31
   9   7 -24   15.85    1.32
   8   9 -24    3.47    0.82
  24   8  -9    3.44    0.69
   9  24  -8    4.23    0.82
  24   9  -8    4.10    0.74
   8  24  -9    3.28    0.78
   9   8 -24    4.53    0.89
   9  24  -9    1.67    0.71
   9   9 -24    0.23    0.67
  24   9  -9    0.70    0.55
   0  24 -10   27.63    1.43
  24  10   0   27.09    1.33
  10  24   0   27.85    1.59
  10  24  -1   13.02    1.21
  24  10   1   12.70    0.97
  -1  24 -10   13.50    1.05
  24  10  -1   14.17    1.04
   1  24 -10   15.65    1.16
   2  10 -24    3.02    0.75
  -2  24 -10    3.04    0.63
  10  24  -2    2.76    0.74
  24  10   2    1.83    0.64
  24  10  -2    2.03    0.56
   2  24 -10    1.82    0.63
   3  10 -24   10.17    1.06
  -3  24 -10   10.89    0.92
  10  24  -3    8.85    1.01
   3  24 -10   10.21    1.01
  24  10  -3    9.55    0.90
  10  24  -4   11.84    1.16
   4  10 -24    9.34    1.03
   4  24 -10   10.50    1.02
  24  10  -4   10.83    0.96
   5  10 -24    5.46    0.88
  24   5 -10    3.82    0.65
  10  24  -5    4.92    0.86
   5  24 -10    5.01    0.81
  24  10  -5    3.11    0.68
  10  24  -6    6.72    0.95
  24   6 -10    7.59    0.85
   6  10 -24    8.62    1.02
   6  24 -10    3.53    0.77
  10   6 -24    5.08    0.89
  24  10  -6    5.39    0.78
  24   7 -10   10.17    0.97
   7  10 -24   11.98    1.17
  10  24  -7   12.14    1.14
  10   7 -24   12.50    1.24
  24  10  -7   12.49    1.06
   7  24 -10   11.48    1.13
  10  24  -8   10.12    1.13
  24   8 -10   12.08    1.05
   8  10 -24   12.89    1.24
  10   8 -24   12.94    1.24
  24  10  -8   10.81    1.02
   8  24 -10   11.89    1.17
  24   9 -10    9.46    0.97
   9  10 -24   10.43    1.14
  10  24  -9    9.43    1.08
  10   9 -24   11.38    1.18
  24  10  -9   11.65    1.06
   9  24 -10   12.56    1.19
  10  24 -10   22.94    1.52
  10  10 -24   19.92    1.51
  24  10 -10   23.14    1.39
   0  24 -11   13.46    1.08
  24  11   0   14.66    1.06
  11  24   0   15.39    1.28
  11  24  -1    6.35    0.93
  -1  24 -11    6.19    0.79
  24  11   1    6.56    0.78
   1  11 -24    6.68    0.89
  24  11  -1    5.97    0.78
   1  24 -11    3.92    0.71
   2  11 -24    8.32    0.95
  24  11   2    7.12    0.79
  11  24  -2    7.50    1.01
  -2  24 -11    6.34    0.79
   2  24 -11    8.76    0.94
  24  11  -2    9.55    0.92
   3  11 -24    0.64    0.64
  -3  24 -11    0.63    0.50
  11  24  -3   -0.05    0.59
  24  11   3    0.50    0.51
  24  11  -3    1.01    0.56
   3  24 -11    0.53    0.58
   4  11 -24    6.04    0.90
  24  11   4    4.17    1.02
  11  24  -4    5.94    0.92
   4  24 -11    5.72    0.85
  24  11  -4    4.39    0.73
  24   5 -11    5.38    0.75
   5  11 -24    5.79    0.91
  11  24  -5    3.60    0.82
  24  11  -5    3.92    0.71
   5  24 -11    3.84    0.77
   6  11 -24    6.19    0.97
  11  24  -6    8.29    1.03
  24   6 -11    6.87    0.82
  24  11  -6    8.05    0.88
   6  24 -11    6.71    0.94
  11   6 -24    7.48    1.01
  11  24  -7    3.20    0.82
  24   7 -11    1.98    0.64
   7  11 -24    2.06    0.76
  24  11  -7    2.11    0.67
   7  24 -11    2.14    0.73
  11   7 -24    2.63    0.77
   8  11 -24   15.43    1.32
  24   8 -11   12.39    1.08
  11  24  -8   13.05    1.25
  11   8 -24   11.91    1.20
   8  24 -11   11.86    1.16
  24  11  -8   14.18    1.15
   9  11 -24    3.91    0.90
  24   9 -11    3.26    0.73
  11  24  -9    4.19    0.85
   9  24 -11    3.05    0.78
  24  11  -9    2.01    0.67
  11   9 -24    2.61    0.83
  24  10 -11    2.59    0.74
  11  24 -10    2.62    0.80
  10  11 -24    2.96    0.83
  24  11 -10    1.14    0.63
  10  24 -11    0.64    0.68
  11  10 -24    1.76    0.76
  11  24 -11    1.34    0.75
  24  11 -11    0.83    0.66
  11  11 -24    2.29    0.81
  12  24   0    3.97    0.84
   0  12 -24    3.03    0.74
   0  24 -12    3.10    0.69
  24  12   0    3.16    0.67
  24  12   1    5.91    0.79
   1  12 -24    4.88    0.79
  -1  24 -12    5.95    0.80
  12  24  -1    6.03    0.94
   1  24 -12    3.98    0.72
  24  12  -1    2.13    0.63
  12  24  -2    6.22    0.94
   2  12 -24    7.79    0.99
  -2  24 -12    6.27    0.80
  24  12   2    6.53    0.81
   2  24 -12    6.14    0.83
  24  12  -2    5.45    0.79
  12  24  -3    4.78    0.87
  24  12   3    4.60    0.73
  -3  24 -12    5.83    0.80
   3  12 -24    4.88    0.89
   3  24 -12    5.84    0.85
  24  12  -3    5.98    0.81
   4  12 -24    2.20    0.73
  12  24  -4    1.21    0.70
  24  12   4    2.52    0.63
  24   4 -12    2.18    0.69
  24  12  -4    2.72    0.67
   4  24 -12    2.18    0.70
   5  12 -24    6.39    0.94
  24  12   5    5.12    0.83
  24   5 -12    5.05    0.76
  12  24  -5    5.85    0.92
  24  12  -5    5.09    0.80
   5  24 -12    5.09    0.87
   6  12 -24    6.56    0.93
  24   6 -12    4.47    0.75
  12  24  -6    4.79    0.91
   6  24 -12    4.15    0.80
  24  12  -6    3.35    0.72
  12   6 -24    4.12    0.86
  24   7 -12    2.32    0.68
   7  12 -24    2.38    0.76
  12  24  -7    1.62    0.74
   7  24 -12    1.06    0.69
  12   7 -24    1.39    0.73
  24  12  -7    0.78    0.61
  24   8 -12    4.82    0.81
  12  24  -8    4.19    0.85
   8  12 -24    4.21    0.94
   8  24 -12    5.15    0.89
  12   8 -24    3.20    0.86
  24  12  -8    4.95    0.81
   9  12 -24    7.18    1.02
  24   9 -12    7.98    0.94
  12  24  -9    7.86    1.07
   9  24 -12    5.66    0.96
  12   9 -24    6.17    1.00
  24  12  -9    6.77    0.91
  10  12 -24   17.21    1.43
  24  10 -12   20.62    1.39
  12  24 -10   18.48    1.45
  12  10 -24   18.74    1.54
  10  24 -12   18.95    1.50
  24  12 -10   17.27    1.30
  24  11 -12   38.18    1.86
  12  24 -11   38.61    1.97
  11  12 -24   39.41    2.03
  12  11 -24   38.03    1.99
  11  24 -12   38.59    1.95
  24  12 -11   34.28    1.79
  12  24 -12    3.11    0.84
  24  12 -12    3.08    0.79
  12  12 -24    4.12    0.94
   0  24 -13    0.21    0.52
  13  24   0   -0.60    0.59
  24  13   0    0.72    0.56
   0  13 -24    0.33    0.58
  13  24  -1   11.08    1.16
   1  13 -24   11.03    1.09
  -1  24 -13   10.61    0.98
  24  13   1   12.13    1.05
  -1  13 -24   11.18    1.08
  13  24   1   12.88    1.22
  24  13  -1   11.25    1.03
   1  24 -13   11.84    1.07
  24  13   2    2.19    0.66
   2  13 -24    2.32    0.71
  -2  24 -13    1.49    0.60
  13  24  -2    1.83    0.74
  24  13  -2    2.49    0.65
   2  24 -13    3.20    0.70
  24  13   3   17.73    1.23
   3  13 -24   19.44    1.38
  13  24  -3   15.97    1.34
   3  24 -13   14.80    1.21
  24  13  -3   18.58    1.27
   4  13 -24    1.91    0.72
  13  24  -4    3.15    0.78
  24   4 -13    3.09    0.68
  24  13   4    3.35    0.70
  24  13  -4    4.79    0.80
   4  24 -13    3.03    0.75
  24   5 -13    5.80    0.80
   5  13 -24    5.48    0.89
  24  13   5    4.81    0.78
  13  24  -5    6.56    1.00
   5  24 -13    7.35    0.96
  24  13  -5    5.76    0.83
  24  13   6    4.96    0.78
  24   6 -13    5.30    0.82
  13  24  -6    3.93    0.87
   6  13 -24    5.26    0.90
  13   6 -24    3.94    0.87
   6  24 -13    3.71    0.80
  24  13  -6    4.05    0.77
  24   7 -13    8.11    0.94
   7  13 -24   10.09    1.15
  13  24  -7    8.73    1.10
   7  24 -13    8.94    1.05
  24  13  -7    7.53    0.94
  13   7 -24   10.62    1.17
  24   8 -13    2.25    0.71
  13  24  -8    1.78    0.77
   8  13 -24    2.31    0.82
  13   8 -24    2.48    0.84
   8  24 -13    1.64    0.76
  24  13  -8    3.23    0.78
  13  24  -9    6.19    0.98
  24   9 -13    6.54    0.93
   9  13 -24    4.77    0.95
  24  13  -9    5.60    0.90
  13   9 -24    6.88    1.04
   9  24 -13    5.94    1.01
  13  24 -10   11.94    1.26
  10  13 -24   12.36    1.29
  24  10 -13   12.19    1.14
  24  13 -10   12.32    1.17
  10  24 -13   11.00    1.22
  13  10 -24   12.26    1.29
  11  13 -24   12.72    1.30
  13  24 -11   11.49    1.23
  24  11 -13   14.33    1.25
  13  11 -24   11.28    1.26
  11  24 -13   11.64    1.24
  24  13 -11   10.31    1.09
  13  24 -12    1.40    0.79
  12  13 -24    2.00    0.81
  24  12 -13    0.88    0.67
  12  24 -13    1.16    0.76
  24  13 -12    1.32    0.71
  13  12 -24   -0.65    0.69
  24  13 -13    1.82    0.78
  13  24 -13    2.99    0.93
  13  13 -24    1.88    0.86
  24  14   0    7.43    0.90
   0  14 -24    9.03    1.01
  14  24   0    6.22    0.96
   0  24 -14    8.26    0.94
  14  24  -1    4.73    0.91
  24  14   1    4.51    0.78
   1  14 -24    3.88    0.83
  -1  24 -14    5.38    0.80
   1  24 -14    5.32    0.83
  24  14  -1    6.83    0.89
  -1  14 -24    6.41    0.89
  14  24   1    6.02    0.97
  14  24  -2   18.04    1.45
  -2  24 -14   18.89    1.22
  24  14   2   18.09    1.27
   2  14 -24   20.10    1.39
  24  14  -2   16.91    1.26
   2  24 -14   18.13    1.31
   3  14 -24    9.09    1.05
  14  24  -3   10.78    1.18
  24  14   3   10.03    1.01
   3  24 -14    6.93    0.94
  24  14  -3    5.22    0.83
  24  14   4    5.62    0.83
  24   4 -14    7.19    0.88
  14  24  -4    3.88    0.87
   4  14 -24    4.94    0.91
   4  24 -14    5.56    0.89
  24  14  -4    3.92    0.78
   5  14 -24    8.39    1.04
  24  14   5    8.36    0.94
  24   5 -14    8.67    0.95
  14  24  -5    8.21    1.06
  24  14  -5    5.98    0.87
   5  24 -14    8.44    1.02
   6  14 -24    6.02    0.95
  24   6 -14    8.69    0.95
  24  14   6    9.31    0.98
  14  24  -6    7.41    1.01
   6  24 -14    8.10    1.05
  14   6 -24    8.89    1.13
  24  14  -6    9.34    1.03
  24   7 -14    1.52    0.64
  24  14   7   -0.04    0.59
   7  14 -24    1.50    0.74
  14  24  -7    1.09    0.75
  24  14  -7   -0.15    0.62
   7  24 -14    1.69    0.74
  14   7 -24    1.32    0.75
   8  14 -24    1.72    0.76
  14  24  -8    2.34    0.80
  24   8 -14    1.75    0.71
   8  24 -14    3.76    0.89
  24  14  -8    2.57    0.76
  14   8 -24    1.83    0.82
   9  14 -24    5.27    0.98
  14  24  -9    4.28    0.95
  24   9 -14    4.06    0.84
  24  14  -9    4.35    0.87
  14   9 -24    5.11    0.98
   9  24 -14    3.90    0.91
  14  24 -10    1.88    0.82
  24  10 -14    3.48    0.81
  10  14 -24    2.72    0.88
  14  10 -24    1.51    0.77
  10  24 -14    2.40    0.82
  24  14 -10    1.64    0.71
  24  11 -14    0.77    0.67
  14  24 -11    0.71    0.74
  11  14 -24    1.96    0.85
  24  14 -11   -0.75    0.61
  11  24 -14   -0.08    0.71
  14  11 -24   -0.31    0.73
  14  24 -12    3.90    0.96
  12  14 -24    4.95    1.03
  24  12 -14    5.67    0.91
  24  14 -12    6.35    0.99
  14  12 -24    5.22    1.00
  12  24 -14    3.85    0.93
  14  24 -13    1.32    0.79
  24  13 -14    1.12    0.74
  13  14 -24    0.23    0.79
  14  13 -24    1.14    0.83
  13  24 -14   -0.01    0.74
  24  14 -13    0.08    0.72
  14  14 -24   -0.37    0.85
  14  24 -14    0.26    0.78
  24  14 -14   -0.93    0.63
   0  24 -15    1.11    0.62
   0  15 -24    0.49    0.65
  15  24   0    0.03    0.66
  24  15   0    0.52    0.58
  -1  24 -15    4.17    0.76
   1  15 -24    4.12    0.84
  24  15   1    4.46    0.80
  15  24  -1    4.96    0.94
  24  15  -1    4.62    0.80
  -1  15 -24    5.34    0.86
   1  24 -15    4.71    0.80
  15  24   1    5.93    0.97
  -2  24 -15    1.61    0.79
   2  15 -24    0.96    0.67
  15  24  -2    0.91    0.71
  24  15   2    1.47    0.62
  15  24   2    0.44    0.71
  -2  15 -24    1.94    0.71
   2  24 -15    1.43    0.69
  24  15  -2    1.96    0.66
   3  15 -24    7.80    1.02
  15  24  -3    8.66    1.10
  24  15   3    8.10    0.95
  24  15  -3    7.07    0.92
   3  24 -15    5.55    0.87
  24  15   4    1.93    0.68
  15  24  -4    2.41    0.82
  24   4 -15    1.42    0.65
   4  15 -24    2.80    0.81
   4  24 -15    2.23    0.75
  24  15  -4    1.91    0.68
   5  15 -24    2.47    0.78
  15  24  -5    1.23    0.76
  24  15   5    1.49    0.69
  24   5 -15    1.65    0.66
  24  15  -5    0.68    0.63
   5  24 -15    1.57    0.70
  24  15   6    3.24    0.77
   6  15 -24    2.78    0.80
  24   6 -15    1.03    0.67
  15  24  -6    2.15    0.81
   6  24 -15    3.95    0.82
  15   6 -24    2.96    0.88
  24  15  -6    2.56    0.72
  24  15   7    5.87    0.90
   7  15 -24    6.69    1.01
  24   7 -15    5.38    0.88
  15  24  -7    6.52    1.05
  24  15  -7    4.56    0.82
   7  24 -15    4.84    0.90
  15   7 -24    5.15    1.00
  24   8 -15    8.14    0.98
  15  24  -8    9.07    1.14
   8  15 -24    7.62    1.07
   8  24 -15    6.73    1.04
  24  15  -8    6.74    0.98
  15   8 -24    7.41    1.06
  15  24  -9   -0.27    0.67
  24   9 -15   -0.30    0.60
   9  15 -24    0.58    0.71
   9  24 -15    0.36    0.67
  24  15  -9   -0.05    0.66
  15   9 -24   -0.16    0.70
  24  10 -15    7.70    1.02
  15  24 -10    8.09    1.12
  10  15 -24    9.65    1.19
  15  10 -24    8.36    1.14
  10  24 -15    7.91    1.11
  24  15 -10    9.40    1.12
  15  24 -11    7.04    1.09
  11  15 -24    6.04    1.05
  24  11 -15    8.14    1.06
  24  15 -11    5.02    0.91
  11  24 -15    6.24    1.01
  15  11 -24    5.32    1.04
  12  15 -24    7.57    1.14
  15  24 -12    8.02    1.16
  24  12 -15    8.44    1.10
  24  15 -12    7.92    1.04
  15  12 -24    7.10    1.12
  12  24 -15    6.36    1.05
  24  13 -15    0.71    0.76
  15  24 -13    0.68    0.86
  13  15 -24    0.31    0.89
  15  13 -24   -0.46    0.83
  13  24 -15    0.81    0.81
  24  15 -13    0.87    0.74
  24  14 -15    4.88    0.96
  24  15 -14    4.59    0.94
   0  16 -24   10.72    1.14
  16  24   0    9.04    1.13
   0  24 -16   10.04    1.01
  24  16   0    8.40    0.99
  24  16   1    0.16    0.61
  -1  24 -16    1.09    0.64
   1  16 -24    0.10    0.63
  16  24  -1   -0.60    0.66
   1  24 -16    0.79    0.64
  24  16  -1    0.85    0.64
  16  24   1    0.58    0.72
  -1  16 -24   -0.23    0.62
   2  16 -24    1.39    0.70
  24  16   2    0.74    0.65
  16  24  -2   -0.49    0.66
  24  16  -2   -0.31    0.61
  16  24   2    1.05    0.73
  -2  16 -24    0.58    0.60
   2  24 -16    1.82    0.67
  24  16   3    1.28    0.67
   3  16 -24    1.93    0.78
  16  24  -3    0.52    0.72
  24  16  -3    0.53    0.65
   3  24 -16    1.83    0.71
  16  24   3    0.21    0.70
  16  24  -4    0.51    0.72
   4  16 -24    1.58    0.76
  24  16   4    1.21    0.65
  24   4 -16    1.75    0.68
  24  16  -4    1.63    0.68
   4  24 -16    1.37    0.70
   5  16 -24    3.86    0.88
  24   5 -16    4.72    0.83
  24  16   5    5.09    0.87
  16  24  -5    5.09    0.98
   5  24 -16    4.28    0.85
  24  16  -5    4.68    0.84
  24   6 -16    2.78    0.78
  24  16   6    2.02    0.74
   6  16 -24    3.22    0.86
  16  24  -6    2.21    0.84
   6  24 -16    5.04    0.90
  16   6 -24    3.78    0.90
  24  16  -6    5.48    0.89
  24   7 -16   10.70    1.12
  16  24  -7    9.85    1.18
  24  16   7    9.91    1.08
   7  16 -24   10.25    1.18
   7  24 -16   10.78    1.19
  24  16  -7   12.96    1.23
  16   7 -24   11.15    1.23
  24  16   8    1.18    0.70
   8  16 -24    1.95    0.77
  16  24  -8    2.00    0.82
  24   8 -16    2.32    0.75
  16   8 -24    1.63    0.80
   8  24 -16    2.11    0.81
  24  16  -8    1.56    0.75
  24   9 -16    3.91    0.82
  16  24  -9    4.65    0.96
   9  16 -24    5.19    1.00
  24  16  -9    5.30    0.95
   9  24 -16    4.06    0.95
  16   9 -24    2.43    0.90
  16  24 -10    1.70    0.85
  10  16 -24    3.14    0.87
  24  10 -16    3.92    0.86
  16  10 -24    4.44    0.96
  24  16 -10    4.87    0.91
  10  24 -16    2.86    0.89
  24  11 -16    1.02    0.76
  11  16 -24    3.75    0.94
  16  24 -11    2.14    0.88
  16  11 -24    2.29    0.89
  24  16 -11    1.06    0.72
  11  24 -16    2.19    0.85
  16  24 -12    6.75    1.58
  24  12 -16    6.04    1.00
  12  16 -24    7.49    1.58
  24  16 -12    9.18    1.16
  16  12 -24    9.03    1.36
  12  24 -16    7.70    1.21
  24  13 -16   -0.45    0.71
  24  16 -13    1.42    0.79
  17  24   0    0.50    0.76
   0  17 -24    0.47    0.66
   0  24 -17    0.12    0.61
  24  17   0    0.12    0.64
  -1  24 -17   14.32    1.22
  24  17   1   13.69    1.21
  17  24  -1   13.62    1.35
   1  17 -24   13.94    1.25
  24  17  -1   16.01    1.30
  -1  17 -24   13.47    1.20
   1  24 -17   14.94    1.24
  17  24   1   13.86    1.35
   2  17 -24    0.57    0.68
  24  17   2    0.45    0.66
  17  24  -2    0.17    0.71
  24  17  -2    0.86    0.69
   2  24 -17   -0.18    0.62
  17  24   2    0.95    0.74
  -2  17 -24    1.33    0.64
   3  17 -24   26.56    1.63
  24  17   3   27.94    1.63
  17  24  -3   28.23    1.81
  24   3 -17   27.32    2.35
   3  24 -17   26.25    1.55
  24  17  -3   24.67    1.53
  17  24   3   26.02    1.71
  -3  17 -24   25.59    1.69
  17  24  -4    0.15    0.70
  24  17   4    0.64    0.66
  24   4 -17    0.95    0.66
   4  17 -24    0.88    0.70
   4  24 -17    0.05    0.64
  24  17  -4    0.54    0.65
  24   5 -17    0.61    0.67
   5  17 -24    0.76    0.71
  17  24  -5    1.10    0.79
  24  17   5    0.99    0.66
  24  17  -5    0.21    0.67
   5  24 -17   -0.11    0.63
  24   6 -17   12.80    1.21
  24  17   6   10.91    1.15
  17  24  -6   11.02    1.25
   6  17 -24   11.85    1.25
  24  17  -6   15.06    1.31
   6  24 -17   13.54    1.29
  17   6 -24   14.27    1.36
  24   7 -17   20.72    1.49
  24  17   7   18.59    1.42
  17  24  -7   18.27    1.51
   7  17 -24   19.34    1.53
  24  17  -7   17.49    1.41
  17   7 -24   14.19    1.35
   7  24 -17   19.40    1.50
   8  17 -24   13.90    1.35
  17  24  -8   11.44    1.31
  24   8 -17   12.22    1.21
  24  17   8   10.73    1.16
  24  17  -8   16.09    1.38
  17   8 -24   19.12    1.57
   8  24 -17   15.36    1.39
  17  24  -9    0.43    0.76
   9  17 -24    0.06    0.73
  24   9 -17    1.74    0.73
   9  24 -17    1.01    0.75
  24  17  -9    1.69    0.76
  17   9 -24    1.33    0.80
  24  10 -17    0.86    0.75
  17  24 -10    0.73    0.79
  10  17 -24    1.62    0.83
  17  10 -24    0.23    0.80
  24  17 -10   -0.02    0.67
  10  24 -17   -0.74    0.71
  24  11 -17    9.50    1.17
  11  24 -17    8.09    1.41
  24  17 -11    7.51    1.08
  24  12 -17    4.34    0.93
  24  17 -12    4.75    0.98
   0  24 -18    0.90    0.65
  24  18   0    0.25    0.68
   0  18 -24   -0.15    0.64
  18  24   0    0.21    0.74
  18  24  -1   15.10    1.40
   1  18 -24   17.25    1.39
  24  18   1   15.59    1.34
  -1  18 -24   13.87    1.24
   1  24 -18   13.98    1.22
  24  18  -1   16.24    1.35
  18  24   1   18.40    1.52
  18  24  -2   29.36    1.79
   2  18 -24   26.98    1.63
  24  18   2   30.95    1.74
  18  24   2   28.82    1.84
  24  18  -2   33.07    1.77
   2  24 -18   36.54    1.80
  -2  18 -24   33.34    1.74
  18  24  -3    0.23    0.73
   3  18 -24    1.48    0.75
  24  18   3   -0.27    0.63
  24   3 -18   -0.19    0.94
   3  24 -18   -0.48    0.65
  18  24   3    1.13    0.78
  24  18  -3    0.56    0.68
  24   4 -18    3.61    0.82
   4  18 -24    3.29    0.83
  24  18   4    2.57    0.79
  18  24  -4    2.62    0.91
   4  24 -18    1.99    0.76
  24  18  -4    5.04    0.92
  18  24   4    4.34    0.97
  24  18   5    7.59    1.03
   5  18 -24    5.86    1.02
  18  24  -5    5.20    1.00
  24   5 -18    5.42    0.93
   5  24 -18    5.66    0.97
  24  18  -5    5.57    0.97
  24   6 -18   20.19    1.48
  18  24  -6   20.73    1.61
   6  18 -24   19.77    1.57
  24  18   6   17.59    1.41
   6  24 -18   21.08    1.56
  24  18  -6   21.16    1.52
  24   7 -18   -0.17    0.71
  24  18   7    2.13    0.81
   7  18 -24    0.17    0.72
  18  24  -7   -0.18    0.77
  24  18  -7    0.76    0.72
  18   7 -24    1.58    0.79
   7  24 -18    1.47    0.76
   8  18 -24    5.40    1.04
  18  24  -8    4.85    1.00
  24   8 -18    4.49    0.91
  24  18   8    4.78    0.91
   8  24 -18    7.52    1.09
  24  18  -8    5.09    0.97
  18   8 -24    3.47    0.95
   9  18 -24    1.56    0.82
  24   9 -18    0.74    0.72
   9  24 -18   -0.01    0.73
  24  18  -9    1.70    0.78
  18   9 -24   -0.06    0.74
  24  10 -18    9.68    1.19
  24  18 -10    8.38    1.15
  24  11 -18    1.12    0.79
   0  19 -24    6.20    0.96
  24  19   0    5.17    0.95
  19  24   0    7.16    1.10
   0  24 -19    6.11    0.97
  19  24  -1    7.15    1.07
  24  19   1    4.72    0.90
   1  19 -24    7.28    1.04
  -1  19 -24    7.83    1.00
   1  24 -19    8.23    1.02
  19  24   1    7.96    1.15
  24  19  -1    7.67    1.06
  19  24  -2    1.68    0.83
  24  19   2    2.01    0.74
   2  19 -24   -0.21    0.67
  19  24   2    1.74    0.80
  24  19  -2    0.54    0.77
   2  24 -19    2.42    0.76
  19  24  -3   25.41    1.74
   3  19 -24   24.59    1.59
  24  19   3   24.61    1.58
  24  19  -3   24.44    1.63
   3  24 -19   30.03    1.73
  19  24   3   26.91    1.83
  19  24  -4   -0.41    0.70
   4  19 -24   -0.11    0.68
  24  19   4    0.08    0.66
  24   4 -19    0.89    0.68
   4  24 -19    0.06    0.64
  19  24   4    0.42    0.75
  24  19  -4    0.01    0.70
  24  19   5   28.38    1.77
   5  19 -24   32.53    1.87
  19  24  -5   30.35    1.93
  24   5 -19   29.68    1.75
  19  24   5   32.43    1.97
  24  19  -5   29.84    1.82
   5  24 -19   32.04    1.83
   6  19 -24    1.80    0.82
  24   6 -19    0.75    0.73
  19  24  -6    0.92    0.83
  24  19   6    0.51    0.71
  24  19  -6    1.59    0.77
   6  24 -19    1.65    0.80
  24  19   7   15.08    1.35
  24   7 -19   14.07    1.33
   7  19 -24   14.21    1.41
  19   7 -24   18.84    1.58
  24  19  -7   19.92    1.54
   7  24 -19   18.37    1.53
  24   8 -19    7.84    1.09
  24  19   8    7.53    1.08
  19   8 -24    7.80    1.70
   8  24 -19   10.39    1.55
  24  19  -8    7.63    1.08
  24   9 -19    0.98    0.76
  24  20   0   -0.23    0.70
   0  20 -24   -0.99    0.63
  20  24   0    0.40    0.74
  20  24  -1    5.49    1.04
   1  20 -24    5.69    0.97
  24  20   1    5.78    1.03
  20  24   1    4.47    1.01
   1  24 -20    6.04    0.96
  24  20  -1    5.70    1.00
  20  24  -2    7.18    1.22
  24  20   2    5.42    1.00
   2  20 -24    8.15    1.08
  20  24   2    8.72    1.20
   2  24 -20   10.02    1.11
  24  20  -2    9.74    1.18
  20  24  -3    0.77    0.97
  24  20   3    0.58    0.72
   3  20 -24    0.59    0.68
   3  24 -20    0.43    0.69
  20  24   3    1.29    0.81
  24  20  -3    0.18    0.72
   4  20 -24    4.16    0.93
  24  20   4    2.32    0.80
  20  24   4    4.51    1.10
   4  24 -20    4.72    0.92
  24  20  -4    3.52    0.89
  24   5 -20    1.55    0.74
   5  20 -24    0.48    0.72
  24  20   5    0.52    0.78
  24  20  -5    2.42    0.86
   5  24 -20    1.97    0.78
   6  20 -24    9.30    1.67
  24   6 -20   10.05    1.20
  24  20   6    9.94    1.17
   6  24 -20    6.36    1.19
  24  20  -6    8.09    1.29
  24   7 -20    4.85    0.99
  24  20   7    5.14    1.00
  24   8 -20    7.07    1.22
  24  20   8    5.33    1.14
  24  21   0    3.46    0.99
  24  21   1    1.58    0.81
   1  21 -24    1.07    0.74
   1  24 -21    1.28    0.88
  24  21  -1    0.85    0.86
   2  21 -24    6.94    0.99
  24  21   2    6.83    1.16
   2  24 -21    7.36    1.02
  24  21  -2    7.58    1.68
   3  21 -24    6.41    1.02
  24  21   3    2.08    0.97
   3  24 -21    4.16    0.87
  24  21   4    4.42    1.44
   4  24 -21    2.81    0.94
   1  22 -24    0.17    0.88
  -1  25  -1    7.77    0.85
   0  25  -2    2.04    0.62
  -1  25  -2   38.41    1.65
  -2  25  -1   38.21    1.61
   1  25  -2   41.23    1.72
  -2  25  -2    5.10    0.73
   2  25  -2    3.65    0.71
   0  25  -3   30.45    1.46
  -1  25  -3    3.47    0.66
   1  25  -3    4.93    0.76
  -3  25  -1    3.79    0.68
   3  25  -2   10.16    1.01
  -2  25  -3    5.94    0.78
  -3  25  -2    5.56    0.75
   2  25  -3    6.03    0.80
  -3  25  -3    0.00    0.45
   3  25  -3    0.26    0.50
   0  25  -4    8.27    0.89
   4  25  -1    1.09    0.61
  -1  25  -4    1.61    0.57
   1  25  -4    1.18    0.59
  -4  25  -1    1.49    0.54
  -2  25  -4    6.58    0.79
   4  25  -2    7.32    0.92
  -4  25  -2    6.83    0.76
   2  25  -4    6.54    0.82
   4  25  -3   18.03    1.26
  -3  25  -4   19.00    1.15
  -4  25  -3   17.60    1.09
   3  25  -4   14.18    1.15
  -4  25  -4   -0.36    0.43
   4  25  -4   -0.10    0.55
   0  25  -5    5.07    0.74
   5  25  -1    7.91    0.94
  -1  25  -5    6.78    0.81
   1  25  -5    8.31    0.91
  -5  25  -1    9.09    0.86
   5  25  -2   21.52    1.37
  -2  25  -5   21.01    1.22
  -5  25  -2   19.99    1.14
   2  25  -5   22.05    1.29
   5  25  -3   20.10    1.33
  -3  25  -5   20.67    1.19
   3  25  -5   22.27    1.37
  -5  25  -3   23.39    1.22
  -4  25  -5    5.77    0.72
   5  25  -4    5.55    0.86
   4  25  -5    3.21    0.69
   5  25  -5    0.48    0.60
   0  25  -6    2.05    0.61
   6  25  -1   29.12    1.64
  -1  25  -6   31.87    1.49
   1  25  -6   24.98    1.36
   6  25  -2   14.75    1.22
  -2  25  -6   15.01    1.09
   2  25  -6   15.16    1.19
   6  25  -3   17.29    1.31
  -3  25  -6   16.33    1.09
   3  25  -6   21.55    1.37
   6  25  -4    0.72    0.59
  -4  25  -6    1.41    0.53
   4  25  -6    1.93    0.68
   6  25  -5    3.53    0.75
   5  25  -6    6.80    0.91
   6  25  -6    6.99    0.94
   0  25  -7   38.47    1.64
  -1  25  -7    2.54    0.61
   7  25  -1    3.17    0.76
   1  25  -7    1.34    0.60
   7  25  -2    2.46    0.72
  -2  25  -7    1.19    0.55
   2  25  -7    1.66    0.61
   7  25  -3    9.03    1.02
  -3  25  -7   10.76    0.92
   3  25  -7    8.80    0.96
   7  25  -4    9.80    1.04
  -4  25  -7   10.21    1.17
   4  25  -7   10.18    1.01
   7  25  -5    0.10    0.58
   5  25  -7    0.13    0.55
   7  25  -6    2.80    0.75
   6  25  -7    3.13    0.76
   7  25  -7    5.20    0.85
   0  25  -8    3.05    0.68
  -1  25  -8    4.20    0.70
   8  25  -1    4.40    0.81
   1  25  -8    4.42    0.74
  -2  25  -8    7.30    0.80
   8  25  -2    8.36    1.01
   2  25  -8    7.58    0.92
  -3  25  -8    4.65    0.70
   8  25  -3    5.16    0.88
   3  25  -8    3.40    0.75
   8  25  -4    8.88    1.02
   4  25  -8    6.43    0.88
   8  25  -5    1.17    0.68
   5  25  -8    1.24    0.62
   8  25  -6    2.86    0.78
   6  25  -8    2.51    0.71
   8  25  -7    2.23    0.74
   7  25  -8    2.20    0.74
   8  25  -8   21.10    1.45
  25   8  -8   19.91    1.31
   8   8 -25   21.82    1.53
   0  25  -9    2.36    0.65
   9  25   0    2.62    0.75
  -1  25  -9    7.17    0.85
   9  25  -1    7.20    0.96
   1  25  -9    7.05    0.88
  -2  25  -9    3.14    0.66
   9  25  -2    1.94    0.74
   2  25  -9    1.36    0.63
   9  25  -3    5.66    0.89
  -3  25  -9    5.04    0.72
   3  25  -9    6.09    0.85
   9  25  -4    1.15    0.65
   4  25  -9    0.89    0.63
   9  25  -5   10.72    1.12
  25   9  -5   11.86    1.26
   5  25  -9    8.04    0.97
   9  25  -6    2.48    0.79
   6   9 -25    3.79    0.82
  25   9  -6    5.61    0.77
   6  25  -9    3.88    0.79
   7   9 -25    1.80    0.77
   9  25  -7    1.32    0.70
   7  25  -9    2.51    0.74
  25   9  -7    1.17    0.57
   8   9 -25   14.68    1.31
  25   8  -9   16.08    1.15
   9  25  -8   15.15    1.30
  25   9  -8   16.41    1.18
   8  25  -9   15.19    1.31
   9   8 -25   14.38    1.34
   9  25  -9    0.78    0.68
   9   9 -25    0.68    0.69
  25   9  -9    1.11    0.62
   0  25 -10   11.95    1.05
  10  25   0   13.20    1.22
  10  25  -1   16.93    1.38
  -1  25 -10   18.72    1.22
   1  25 -10   17.11    1.25
  -2  25 -10   22.35    1.27
  10  25  -2   20.97    1.46
   2  25 -10   22.19    1.39
  -3  25 -10    3.25    0.71
  10  25  -3    1.69    0.71
   3  25 -10    2.26    0.67
  25  10  -3    3.01    0.75
   4  10 -25   15.90    1.32
  10  25  -4   17.68    1.38
  25  10  -4   15.71    1.13
   4  25 -10   15.08    1.22
  10  25  -5   15.59    1.32
   5  10 -25   17.63    1.36
   5  25 -10   19.24    1.39
  25  10  -5   17.58    1.19
   6  10 -25   13.13    1.24
  10  25  -6   13.06    1.24
   6  25 -10   11.98    1.15
  25  10  -6   10.93    0.99
  10  25  -7    7.20    1.00
  25   7 -10    6.11    1.29
   7  10 -25    6.21    0.98
   7  25 -10    8.60    1.04
  25  10  -7    7.44    0.89
  25   8 -10    6.53    0.85
   8  10 -25    7.75    1.05
  10  25  -8    8.28    1.07
   8  25 -10    8.32    1.05
  25  10  -8    8.32    0.94
  10   8 -25    8.60    1.08
   9  10 -25   18.49    1.52
  25   9 -10   18.54    1.30
  10  25  -9   20.63    1.49
  25  10  -9   25.99    1.45
   9  25 -10   21.24    1.52
  10   9 -25   24.12    1.64
  10  25 -10    0.59    0.68
  25  10 -10    1.19    0.65
  10  10 -25    0.26    0.71
  11  25   0   36.56    1.82
   0  25 -11   29.92    1.51
  11  25  -1    6.82    0.99
  -1  25 -11    6.72    0.83
   1  25 -11    7.52    0.90
  25  11  -1    7.38    1.03
  -2  25 -11    0.95    0.57
  11  25  -2   -0.33    0.62
   2  25 -11    1.29    0.63
  25  11  -2    1.53    0.59
   3  11 -25   17.69    1.38
  11  25  -3   18.54    1.41
   3  25 -11   17.93    1.28
  25  11  -3   18.81    1.21
  11  25  -4    3.98    0.85
   4  11 -25    2.91    0.77
   4  25 -11    3.73    0.78
  25  11  -4    2.78    0.67
  11  25  -5    3.73    0.87
   5  11 -25    6.63    0.97
  25  11  -5    3.43    0.72
   5  25 -11    4.58    0.83
   6  11 -25    4.30    0.89
  11  25  -6    4.97    0.93
   6  25 -11    4.18    0.81
  25  11  -6    4.31    0.76
  25   7 -11   17.44    1.30
  11  25  -7   15.26    1.32
   7  11 -25   17.28    1.43
   7  25 -11   11.59    1.18
  25  11  -7   13.48    1.12
  11   7 -25   13.61    1.32
   8  11 -25    6.66    1.02
  25   8 -11    4.18    0.78
  11  25  -8    6.44    1.00
   8  25 -11    6.14    0.97
  11   8 -25    7.43    1.01
  25  11  -8    6.93    0.91
  11  25  -9   -0.01    0.67
   9  11 -25    0.07    0.69
  25   9 -11    1.01    0.60
  11   9 -25    1.19    0.75
  25  11  -9    0.05    0.56
   9  25 -11    0.77    0.74
  10  11 -25    2.82    0.89
  25  10 -11    1.79    0.66
  11  25 -10    1.28    0.76
  11  10 -25    2.12    0.82
  25  11 -10    1.98    0.69
  10  25 -11    1.31    0.77
  11  11 -25   10.20    1.21
  25  11 -11   12.12    1.16
  11  25 -11   11.21    1.21
  12  25   0    1.10    0.72
  25  12   0    1.53    0.59
   0  25 -12    0.41    0.58
  12  25  -1    2.29    0.80
  -1  25 -12    4.05    0.73
   1  25 -12    1.87    0.67
  12  25   1    3.29    0.81
  25  12  -1    1.39    0.62
   2  12 -25    9.76    1.05
  12  25  -2    9.52    1.11
  -2  25 -12    8.32    0.90
   2  25 -12   11.37    1.08
  25  12  -2    9.64    0.96
   3  12 -25    1.70    0.74
  12  25  -3    3.42    0.84
   3  25 -12    2.87    0.76
  25  12  -3    2.57    0.67
   4  12 -25    6.88    0.99
  12  25  -4    5.32    0.95
   4  25 -12    8.99    1.04
  25  12  -4    9.12    0.96
   5  12 -25    5.28    0.93
  12  25  -5    5.51    0.96
   5  25 -12    6.34    0.94
  25  12  -5    6.82    0.87
   6  12 -25    0.08    0.69
  12  25  -6    0.58    0.69
  25  12  -6   -0.28    0.56
   6  25 -12   -0.33    0.63
  12  25  -7    2.50    0.82
  25   7 -12    2.85    0.69
   7  12 -25    3.86    0.89
  25  12  -7    3.62    0.78
  12   7 -25    3.58    0.89
   7  25 -12    4.59    0.88
  12  25  -8   15.42    1.34
   8  12 -25   14.84    1.37
  25   8 -12   12.51    1.11
  12   8 -25   11.13    1.24
  25  12  -8   14.47    1.20
   8  25 -12   14.58    1.31
   9  12 -25   27.84    1.80
  12  25  -9   29.40    1.75
  25   9 -12   26.72    1.55
   9  25 -12   22.44    1.57
  25  12  -9   25.43    1.51
  12   9 -25   25.37    1.70
  25  10 -12    6.31    0.91
  10  12 -25    6.78    1.06
  12  25 -10    5.39    0.98
  25  12 -10    7.41    0.98
  12  10 -25    6.39    1.04
  10  25 -12    7.19    1.04
  11  12 -25    2.07    0.82
  25  11 -12    0.91    0.63
  12  25 -11    2.02    0.81
  25  12 -11    2.25    0.74
  11  25 -12    1.76    0.82
  12  11 -25    1.73    0.80
  12  12 -25   -0.22    0.74
  12  25 -12   -0.23    0.74
  25  12 -12    0.55    0.69
  13  25   0    1.75    0.77
   0  25 -13    2.41    0.70
  25  13   0    0.98    0.62
  25  13   1   17.21    1.23
  13  25  -1   16.83    1.38
  -1  25 -13   14.42    1.15
   1  13 -25   16.38    1.31
  13  25   1   17.91    1.45
  25  13  -1   17.23    1.24
   1  25 -13   18.44    1.32
  25  13   2    0.05    0.56
  -2  25 -13    0.27    0.77
  13  25  -2    0.29    0.70
   2  13 -25    0.31    0.62
   2  25 -13   -0.21    0.60
  25  13  -2    0.02    0.56
  13  25  -3   10.74    1.16
   3  13 -25   10.01    1.10
   3  25 -13   10.51    1.09
  25  13  -3   11.21    1.05
   4  13 -25   15.26    1.33
  13  25  -4   14.44    1.32
   4  25 -13   11.88    1.14
  25  13  -4   12.44    1.10
  13  25  -5    1.08    0.71
   5  13 -25    1.28    0.73
  25  13  -5    2.31    0.71
   5  25 -13    2.81    0.78
  13  25  -6    0.96    0.72
   6  13 -25   -0.36    0.63
   6  25 -13    0.04    0.65
  25  13  -6    0.41    0.62
   7  13 -25   12.70    1.27
  25   7 -13   10.90    1.06
  13  25  -7    9.70    1.17
  25  13  -7    8.86    1.00
   7  25 -13    8.58    1.06
  13   7 -25    9.06    1.14
  25   8 -13    2.70    0.71
  13  25  -8    3.19    0.87
   8  13 -25    2.77    0.87
  13   8 -25    3.99    0.90
  25  13  -8    3.88    0.81
   8  25 -13    2.66    0.83
  13  25  -9    6.63    1.01
  25   9 -13    6.64    0.92
   9  13 -25    8.35    1.13
  25  13  -9    9.21    1.05
   9  25 -13    8.64    1.10
  13   9 -25    7.02    1.06
  10  13 -25    1.52    0.85
  13  25 -10    3.01    0.89
  25  10 -13    1.61    0.69
  10  25 -13    1.91    0.83
  25  13 -10    2.58    0.77
  13  10 -25    2.11    0.84
  11  13 -25    6.61    1.10
  13  25 -11    8.97    1.16
  25  11 -13    7.37    1.02
  13  11 -25    8.78    1.21
  25  13 -11    7.45    1.05
  11  25 -13    9.15    1.18
  13  25 -12   21.44    1.63
  12  13 -25   25.00    1.77
  25  12 -13   24.25    1.60
  25  13 -12   23.41    1.53
  13  12 -25   22.28    1.74
  12  25 -13   22.40    1.68
  25  13 -13   10.39    1.16
  13  25 -13   11.86    1.32
  13  13 -25   13.90    1.39
   0  14 -25   38.67    1.89
  14  25   0   41.85    2.03
  25  14   0   38.88    1.77
   0  25 -14   37.33    1.76
  14  25  -1    0.05    0.66
  -1  25 -14   -0.23    0.55
   1  14 -25    0.55    0.64
  25  14   1   -0.13    0.56
  25  14  -1    1.00    0.61
  14  25   1    0.29    0.67
   1  25 -14    0.18    0.59
  25  14   2    0.77    0.60
   2  14 -25    0.80    0.65
  14  25  -2    0.37    0.69
  25  14  -2    0.31    0.61
   2  25 -14    0.33    0.60
  14  25   2    0.99    0.76
   3  14 -25   19.53    1.49
  25  14   3   20.79    1.37
  14  25  -3   22.74    1.57
  25  14  -3   22.91    1.42
   3  25 -14   20.00    1.38
  14  25  -4   22.25    1.65
   4  14 -25   23.41    1.64
  25  14  -4   18.23    1.34
   4  25 -14   16.96    1.34
   5  14 -25    0.73    0.71
  14  25  -5   -0.56    0.68
   5  25 -14    0.03    0.64
  25  14  -5    0.84    0.64
  25   6 -14   18.36    2.00
   6  14 -25   12.84    1.26
  14  25  -6   15.96    1.41
   6  25 -14   16.15    1.36
  25  14  -6   14.24    1.23
   7  14 -25    6.93    1.03
  25   7 -14    9.28    1.02
  14  25  -7    9.86    1.19
  25  14  -7    8.29    1.03
  14   7 -25    6.34    1.05
   7  25 -14    8.70    1.08
   8  14 -25    2.71    0.85
  14  25  -8    2.63    0.84
  25   8 -14    5.08    0.88
  25  14  -8    5.87    0.91
   8  25 -14    3.83    0.90
  14   8 -25    5.27    0.98
  25   9 -14    1.26    0.69
   9  14 -25    1.57    0.83
  14  25  -9    1.21    0.82
   9  25 -14    3.02    0.85
  14   9 -25    1.11    0.77
  25  14  -9    1.20    0.71
  25  10 -14    2.45    0.80
  14  25 -10    0.23    0.73
  10  14 -25    2.40    0.89
  10  25 -14    1.56    0.82
  25  14 -10    0.80    0.69
  14  10 -25    2.18    0.86
  14  25 -11    7.30    1.08
  25  11 -14    8.37    1.05
  11  14 -25    7.78    1.15
  25  14 -11    7.20    1.01
  11  25 -14    7.03    1.12
  14  11 -25    7.70    1.17
  14  25 -12    1.06    0.83
  12  14 -25    0.54    0.81
  25  12 -14    0.60    0.75
  25  14 -12    0.64    0.69
  14  12 -25    1.41    0.88
  12  25 -14    2.46    0.85
  25  13 -14    1.12    0.71
  25  14 -13    0.74    0.74
  25  14 -14    0.46    0.71
  25  15   0    0.63    0.63
  15  25   0    0.29    0.70
   0  25 -15   -0.49    0.56
   0  15 -25    0.92    0.64
  15  25  -1   14.28    1.34
  25  15   1   17.05    1.29
  -1  25 -15   14.89    1.19
   1  15 -25   17.08    1.36
  -1  15 -25   13.19    1.20
   1  25 -15   14.48    1.21
  15  25   1   14.17    1.37
  25  15  -1   14.39    1.21
  25  15   2   11.05    1.08
  15  25  -2    7.40    1.06
   2  15 -25   11.65    1.20
  25  15  -2    9.65    1.04
  15  25   2    8.42    1.13
   2  25 -15    9.42    1.05
  25  15   3   20.83    1.39
  15  25  -3   18.74    1.54
   3  15 -25   22.05    1.58
   3  25 -15   20.67    1.49
  25  15  -3   23.23    1.48
  25  15   4   -0.06    0.60
   4  15 -25    0.29    0.68
  15  25  -4    0.58    0.75
   4  25 -15   -0.07    0.65
  25  15  -4    0.21    0.63
  15  25  -5   28.65    1.78
   5  15 -25   27.17    1.71
   5  25 -15   28.08    1.65
  25  15  -5   31.86    1.69
  25   6 -15    1.39    0.86
   6  15 -25    0.19    0.69
  15  25  -6    0.54    0.72
   6  25 -15    2.45    0.80
  25  15  -6    1.73    0.70
   7  15 -25    8.42    1.14
  25   7 -15    8.80    1.04
  15  25  -7    8.82    1.14
  15   7 -25    7.97    1.17
  25  15  -7    6.67    0.98
   7  25 -15    8.23    1.06
  25   8 -15   -0.17    0.63
  15  25  -8    1.22    0.82
   8  15 -25    0.75    0.77
   8  25 -15    0.80    0.71
  25  15  -8    0.78    0.69
  15   8 -25    0.33    0.75
   9  15 -25   11.70    1.31
  25   9 -15   11.02    1.17
  15  25  -9   10.03    1.23
   9  25 -15   11.71    1.27
  15   9 -25   10.22    1.27
  25  15  -9   12.18    1.20
  25  10 -15    4.26    0.92
  10  15 -25    7.52    1.13
  15  25 -10    4.71    1.03
  25  15 -10    5.44    0.94
  15  10 -25    7.54    1.17
  10  25 -15    7.37    1.07
  11  15 -25    4.58    1.11
  15  25 -11    6.93    1.20
  25  11 -15    3.81    0.90
  25  15 -11    9.39    1.12
  11  25 -15    8.34    1.15
  15  11 -25    6.07    1.22
  25  12 -15    7.31    1.07
  25  15 -12    8.08    1.08
  25  13 -15    8.70    1.17
  25  15 -13    9.69    1.20
   0  25 -16    1.25    0.63
  16  25   0    1.54    0.78
   0  16 -25    2.82    0.80
  25  16   0    1.92    0.72
  25  16   1    4.53    0.86
  16  25  -1    4.53    0.96
   1  16 -25    5.08    0.92
   1  25 -16    4.43    0.82
  16  25   1    3.70    0.94
  25  16  -1    3.52    0.79
  -1  16 -25    2.45    0.76
  16  25  -2    6.96    1.07
   2  16 -25    8.56    1.06
  25  16   2    7.04    0.97
  25  16  -2    7.19    0.99
   2  25 -16    6.77    0.97
  16  25   2    7.86    1.14
   3  16 -25    6.93    1.01
  25  16   3    6.12    0.93
  16  25  -3    6.70    1.06
  16  25   3    8.02    1.10
   3  25 -16    6.13    0.93
  25  16  -3    6.48    0.95
  25  16   4    0.26    0.65
   4  16 -25    0.34    0.66
  16  25  -4    0.09    0.70
   4  25 -16    0.94    0.68
  25  16  -4   -0.38    0.63
  25  16   5    0.56    0.67
  16  25  -5    0.57    0.75
   5  16 -25    1.13    0.77
  25  16  -5    0.14    0.64
   5  25 -16    0.05    0.69
   6  16 -25   12.10    1.28
  16  25  -6   15.41    1.42
  25   6 -16   12.81    1.35
   6  25 -16   11.58    1.22
  25  16  -6   12.52    1.21
   7  16 -25   -0.06    0.72
  16  25  -7    0.21    0.75
  25   7 -16   -0.10    0.64
  25  16  -7    0.98    0.74
   7  25 -16    0.86    0.74
  16   7 -25    0.71    0.77
  16  25  -8   17.32    1.50
  25   8 -16   17.03    1.38
   8  16 -25   16.66    1.47
   8  25 -16   14.15    1.39
  25  16  -8   17.55    1.42
  16   8 -25   15.80    1.46
  25   9 -16   -0.75    0.63
   9  16 -25   -0.05    0.73
  16  25  -9   -0.28    0.73
  16   9 -25    0.86    0.84
   9  25 -16    0.31    0.73
  25  16  -9    0.18    0.67
  10  16 -25    2.24    1.24
  25  10 -16    2.09    0.81
  10  25 -16    2.46    0.88
  16  10 -25    1.44    1.27
  25  16 -10    3.78    0.92
  25  11 -16    4.39    0.96
  25  16 -11    4.78    0.97
  25  12 -16   10.44    1.20
  25  16 -12   13.08    1.50
  25  17   0    7.13    0.99
   0  17 -25    5.44    0.92
  17  25   0    5.83    1.02
   0  25 -17    5.87    0.90
   1  17 -25   15.60    1.35
  17  25  -1   14.18    1.39
  25  17   1   15.67    1.29
   1  25 -17   17.48    1.32
  -1  17 -25   14.97    1.29
  17  25   1   15.93    1.44
  25  17  -1   14.26    1.27
  25  17   2    0.77    0.71
  17  25  -2    2.09    0.86
   2  17 -25    0.79    0.71
   2  25 -17    2.78    0.80
  25  17  -2    2.96    0.82
  17  25   2    1.60    0.83
  -2  17 -25    2.85    0.78
  25  17   3    0.93    0.70
  17  25  -3    1.31    0.78
   3  17 -25    0.93    0.72
  25  17  -3    1.64    0.75
   3  25 -17    1.53    0.70
  17  25   3    0.67    0.76
  25  17   4   13.34    1.23
   4  17 -25   13.25    1.28
  17  25  -4   11.30    1.27
  17  25   4   13.87    1.38
  25  17  -4   14.36    1.30
   4  25 -17   13.29    1.25
  25  17   5   13.57    1.23
   5  17 -25   12.25    1.28
  17  25  -5   15.25    1.44
   5  25 -17   11.79    1.22
  25  17  -5    9.21    1.10
  25   6 -17    1.14    0.84
  25  17   6    2.68    0.81
  17  25  -6    1.79    0.87
   6  17 -25    1.19    0.78
  25  17  -6    1.40    0.75
   6  25 -17    0.95    0.73
   7  17 -25    1.24    0.81
  25   7 -17    2.09    0.80
  17  25  -7    3.29    0.90
   7  25 -17    1.70    0.79
  25  17  -7    1.79    0.74
   8  17 -25    2.44    0.90
  17  25  -8    2.10    1.40
  25   8 -17    2.20    0.80
  17   8 -25    3.78    0.96
  25  17  -8    3.57    0.89
   8  25 -17    5.29    0.98
  25   9 -17    1.72    0.79
  25  17  -9    4.09    0.89
   9  25 -17    3.26    1.00
  25  10 -17    0.54    0.71
  25  17 -10    3.20    0.92
  25  11 -17   -0.36    0.77
   0  18 -25   46.07    2.14
  18  25   0   48.34    2.30
  25  18   0   51.78    2.16
  18  25  -1    1.95    0.85
   1  18 -25    2.64    0.82
  25  18   1    1.79    0.78
   1  25 -18    2.06    0.76
  25  18  -1    3.71    0.85
  -1  18 -25    1.80    0.77
  18  25   1    3.60    0.95
  18  25  -2    3.44    0.96
  25  18   2    4.00    0.90
   2  18 -25    2.73    0.85
  18  25   2    1.96    0.89
  25  18  -2    3.12    0.82
   2  25 -18    3.83    0.85
  25  18   3    6.89    1.00
  18  25  -3    9.39    1.19
   3  18 -25    8.15    1.09
  25  18  -3    9.08    1.11
   3  25 -18   10.61    1.16
  18  25   3    7.47    1.11
   4  18 -25   16.39    1.44
  18  25  -4   15.32    1.47
  25  18   4   13.72    1.28
   4  25 -18   13.23    1.25
  18  25   4   12.46    1.33
  25  18  -4   12.17    1.20
  18  25  -5    6.29    1.25
  25  18   5    6.10    0.98
   5  18 -25    6.07    1.00
   5  25 -18    5.98    0.98
  18  25   5    8.00    1.17
  25  18  -5    8.42    1.11
  25  18   6    1.64    0.78
  25   6 -18   -0.55    0.78
   6  18 -25   -0.47    0.68
   6  25 -18    0.64    0.72
  25  18  -6   -0.30    0.65
   7  18 -25    2.73    1.31
  25   7 -18    1.94    0.80
  25  18   7    2.41    0.84
   7  25 -18    3.10    0.90
  25  18  -7    4.49    0.95
  25   8 -18   11.72    1.24
  25  18  -8    9.72    1.16
  25   9 -18    4.19    0.94
  25  18  -9    3.43    1.36
  25  19   0   13.74    1.31
   0  19 -25   16.79    1.38
  19  25   0   16.67    2.22
   1  19 -25    7.54    1.05
  25  19   1    6.77    1.02
   1  25 -19    6.41    0.96
  25  19  -1    5.38    0.97
  19  25   1    5.72    1.59
  25  19   2    2.99    0.85
   2  19 -25    5.71    0.95
   2  25 -19    2.42    0.75
  25  19  -2    1.74    0.77
  25  19   3    4.36    0.93
   3  19 -25    4.37    0.96
   3  25 -19    5.49    0.96
  25  19  -3    4.46    0.92
  25  19   4    3.30    0.87
   4  19 -25    2.99    0.88
  25  19  -4    4.33    0.94
   4  25 -19    3.76    0.87
   5  19 -25    0.81    0.88
  25  19   5    0.68    0.72
   5  25 -19    1.96    0.79
  25  19  -5    0.03    0.72
  25  19   6    2.68    0.85
  25   6 -19    1.10    0.96
  25  19  -6    1.94    0.89
  25   7 -19    2.36    0.85
  25  19   7    1.98    0.81
  25   8 -19    6.20    1.16
  25  19   8    7.87    1.30
  25  20   0    3.25    0.84
   0  20 -25    2.88    0.88
   1  20 -25    3.01    0.83
  25  20   1    2.85    0.87
  25  20  -1    2.90    0.88
   2  20 -25    8.85    1.12
  25  20   2    7.09    1.08
   2  25 -20   10.53    1.14
  25  20  -2    7.97    1.26
  25  20   3    0.51    0.74
   3  20 -25    0.74    1.13
   3  25 -20   -0.54    0.66
  25  20   4    3.25    1.00
  25  20   5    1.65    1.15
  25   6 -20    1.35    1.27
   0  26  -1    1.89    0.65
   1  26  -1    0.15    0.53
  -1  26  -1    0.24    0.51
   0  26  -2    2.70    0.66
  -1  26  -2   12.27    1.05
   2  26  -1   16.15    1.22
  -2  26  -1   13.07    1.06
   1  26  -2   12.54    1.10
   2  26  -2    4.22    0.77
  -2  26  -2    3.00    0.67
   0  26  -3    0.70    0.57
   3  26  -1    3.28    0.73
  -1  26  -3    5.37    0.78
   1  26  -3    3.15    0.71
  -3  26  -1    3.85    0.70
  -2  26  -3   17.07    1.13
   3  26  -2   15.07    1.22
  -3  26  -2   14.40    1.07
   2  26  -3   13.66    1.16
  -3  26  -3    2.70    0.64
   3  26  -3    3.03    0.74
   0  26  -4   -0.37    0.51
   4  26  -1    6.29    0.90
  -1  26  -4    8.01    0.87
   1  26  -4    7.59    0.89
  -4  26  -1    9.69    0.91
  -2  26  -4    9.00    0.91
   4  26  -2   11.62    1.11
  -4  26  -2    6.93    0.80
   2  26  -4    8.06    0.92
   4  26  -3   14.43    1.21
  -3  26  -4   12.94    1.03
  -4  26  -3   14.59    1.06
   3  26  -4   12.99    1.14
   4  26  -4    1.12    0.65
  -4  26  -4    0.31    0.51
  -5  26   0    0.71    0.53
   0  26  -5    0.33    0.54
  -1  26  -5    7.35    0.86
   5  26  -1    5.82    0.89
   1  26  -5    8.89    0.96
   5  26  -2    2.59    0.72
  -2  26  -5    2.96    0.67
   2  26  -5    3.07    0.70
  -3  26  -5    0.35    0.50
   5  26  -3    0.07    0.58
   3  26  -5    0.47    0.58
   5  26  -4    7.85    0.96
   4  26  -5    4.43    0.82
   5  26  -5    0.35    0.59
   0  26  -6    6.75    0.87
   6  26  -1    3.65    0.81
  -1  26  -6    2.06    0.62
   1  26  -6    3.67    0.75
  -2  26  -6   18.41    1.20
   6  26  -2   16.83    1.32
   2  26  -6   16.80    1.24
  -3  26  -6   35.15    1.55
   6  26  -3   34.59    1.79
   3  26  -6   35.77    1.69
   6  26  -4    8.64    1.01
   4  26  -6   10.47    1.05
   6  26  -5    7.70    0.99
   5  26  -6    4.21    0.82
   6  26  -6   -0.47    0.56
   7  26   0    2.38    0.75
   0  26  -7    2.19    0.66
  -1  26  -7   23.26    1.34
   7  26  -1   24.09    1.51
   1  26  -7   25.97    1.46
  -2  26  -7   25.13    1.37
   7  26  -2   27.59    1.59
   2  26  -7   25.98    1.49
   7  26  -3    9.57    1.08
  -3  26  -7    9.66    0.92
   3  26  -7    9.33    0.99
   7  26  -4    6.94    0.95
   4  26  -7    8.18    0.96
   7  26  -5   21.06    1.44
   5  26  -7   23.41    1.45
   7  26  -6   11.44    1.16
   6  26  -7    7.85    0.97
   7  26  -7    0.12    0.63
   0  26  -8    0.54    0.57
   8  26   0    0.24    0.64
   8  26  -1   18.46    1.43
  -1  26  -8   12.21    1.04
   1  26  -8   11.62    1.06
   8  26  -2    4.82    0.87
  -2  26  -8    4.19    0.72
   2  26  -8    4.31    0.79
   8  26  -3   14.01    1.27
   3  26  -8   15.94    1.25
   8  26  -4    1.74    0.75
   4  26  -8    4.10    0.82
   8  26  -5    9.71    1.08
   5  26  -8   11.31    1.15
   8  26  -6    3.66    0.85
   6  26  -8    7.68    0.98
   8  26  -7    6.08    0.95
   7  26  -8    9.66    1.09
   8  26  -8   11.08    1.17
   0  26  -9    3.91    0.73
   9  26   0    3.03    0.82
   9  26  -1    1.79    0.75
  -1  26  -9    0.93    0.58
   1  26  -9   -0.58    0.51
  -2  26  -9    6.24    0.80
   9  26  -2    6.72    0.99
   2  26  -9    5.71    0.85
   9  26  -3    1.63    0.73
   3  26  -9    1.29    0.67
   9  26  -4    3.92    0.85
   4  26  -9    5.00    0.87
   9  26  -5    4.52    0.90
   5  26  -9    5.69    0.92
   9  26  -6   10.51    1.18
   6  26  -9    9.79    1.08
   9  26  -7    0.52    0.68
   7  26  -9    2.11    0.74
   9  26  -8    1.47    0.79
   8  26  -9    1.60    0.76
   9  26  -9    1.76    0.79
   9   9 -26    1.65    0.76
   0  26 -10    5.14    0.82
  10  26   0    5.26    0.96
  10  26  -1    5.33    0.97
  -1  26 -10    6.88    0.86
   1  26 -10    7.50    0.93
  10  26  -2    6.39    1.03
  -2  26 -10    6.00    0.80
   2  26 -10    6.74    0.93
  10  26  -3   10.68    1.18
   3  26 -10   11.06    1.10
  10  26  -4   13.58    1.29
   4  26 -10   17.30    1.33
  10  26  -5    5.96    0.99
   5  26 -10    2.76    0.75
  10  26  -6    2.38    0.80
   6  26 -10    1.83    0.75
  10  26  -7    1.34    0.75
   7  10 -26   -0.02    0.69
   7  26 -10    1.50    0.70
  10  26  -8   22.43    1.63
   8  10 -26   23.33    1.64
   8  26 -10   23.22    1.63
  10  26  -9    7.74    1.08
   9  10 -26    6.78    1.04
  10   9 -26    9.71    1.19
   9  26 -10    9.87    1.15
  10  26 -10    5.11    0.96
  26  10 -10    4.56    1.17
  10  10 -26    5.06    0.98
   0  26 -11   -0.58    0.55
  11  26   0   -0.46    0.62
  11  26  -1   10.82    1.18
  -1  26 -11   12.60    1.08
  11  26   1   10.79    1.18
   1  26 -11    9.26    1.00
  11  26  -2   24.39    1.61
   2  26 -11   20.53    1.34
  11  26  -3   15.33    1.37
   3  26 -11   16.78    1.31
  11  26  -4    1.73    0.77
   4  26 -11    3.64    0.81
  11  26  -5   21.94    1.56
   5  11 -26   17.98    1.47
   5  26 -11   23.96    1.51
   6  11 -26    2.65    0.82
  11  26  -6    1.37    0.78
   6  26 -11    1.67    0.76
  11  26  -7    0.87    0.74
   7  11 -26    2.35    0.81
   7  26 -11    3.03    0.79
   8  11 -26    1.76    0.80
  11  26  -8    2.03    0.78
   8  26 -11    6.04    0.97
  26  11  -8    5.08    0.88
   9  11 -26    1.83    0.83
  11  26  -9    1.45    0.79
  11   9 -26   -0.47    0.67
  26  11  -9    0.38    0.60
   9  26 -11    0.15    0.71
  11  26 -10    0.97    0.78
  10  11 -26   -0.23    0.70
  26  10 -11    0.47    0.69
  10  26 -11    1.69    0.77
  11  10 -26    1.65    0.81
  26  11 -10    0.90    0.67
  26  11 -11    0.29    0.62
  11  11 -26   -0.58    0.74
  11  26 -11   -0.16    0.70
  12  26   0   14.38    1.37
   0  26 -12   14.59    1.19
  -1  26 -12    0.22    0.58
  12  26  -1   -0.26    0.66
   1  26 -12    0.68    0.60
  12  26   1   -0.51    0.69
  12  26  -2    8.91    1.13
   2  26 -12    6.22    0.91
  12  26  -3    2.25    0.80
   3  26 -12    0.26    0.63
  12  26  -4   21.12    1.56
   4  12 -26   20.03    1.53
   4  26 -12   18.29    1.39
   5  12 -26    0.19    0.67
  12  26  -5    0.29    0.72
  26  12  -5    0.47    0.85
   5  26 -12   -0.34    0.64
  12  26  -6    1.25    0.73
   6  12 -26    0.89    0.72
  26  12  -6    2.36    0.71
   6  26 -12    2.66    0.81
  12  26  -7    1.62    0.79
   7  12 -26    0.89    0.73
  26  12  -7    2.61    0.73
   7  26 -12    1.85    0.75
   8  12 -26   11.21    1.26
  12  26  -8   10.24    1.20
   8  26 -12    8.71    1.12
  26  12  -8    8.95    1.01
   9  12 -26    0.02    0.72
  12  26  -9    0.72    0.76
   9  26 -12    0.10    0.70
  26  12  -9   -0.03    0.63
  12   9 -26    1.79    0.82
  26  10 -12   13.15    1.26
  12  26 -10   16.19    1.44
  10  12 -26   10.44    1.27
  26  12 -10   11.69    1.15
  12  10 -26    8.49    1.19
  10  26 -12   11.42    1.24
  26  11 -12   -0.18    0.64
  11  12 -26   -0.08    0.73
  12  26 -11   -0.49    0.70
  26  12 -11    0.17    0.65
  11  26 -12    0.72    0.79
  12  11 -26    0.67    0.77
  12  12 -26    1.69    0.87
  12  26 -12    2.81    0.86
  26  12 -12    3.29    0.81
   0  26 -13   21.50    1.41
  13  26   0   24.96    1.66
  -1  26 -13    2.87    0.71
  13  26  -1    1.70    0.78
  13  26   1    1.14    0.78
   1  26 -13    1.15    0.66
  13  26  -2    6.94    1.06
  13  26   2    7.30    1.07
   2  26 -13    7.22    0.99
  13  26  -3    3.57    0.86
   3  13 -26    4.94    0.93
   3  26 -13    4.05    0.85
  26  13  -3    4.28    1.16
  13  26  -4    7.31    1.05
   4  13 -26    6.08    0.96
   4  26 -13    5.90    0.93
  26  13  -4    4.17    0.80
   5  13 -26    4.34    0.93
  13  26  -5    4.67    0.95
  26  13  -5    5.20    0.84
   5  26 -13    5.57    0.94
  13  26  -6    1.38    0.74
   6  13 -26    1.44    0.78
  26  13  -6    0.34    0.61
   6  26 -13    1.80    0.77
  13  26  -7    1.01    0.74
   7  13 -26    0.25    0.71
  26  13  -7   -0.49    0.60
   7  26 -13    1.25    0.73
  13  26  -8    4.78    0.98
   8  13 -26    6.80    1.06
   8  26 -13    4.36    0.93
  26  13  -8    3.52    0.83
   9  13 -26    7.94    1.14
  13  26  -9    9.02    1.16
  13   9 -26    5.69    1.03
  26  13  -9    7.66    1.00
   9  26 -13    9.07    1.16
  13  26 -10   18.65    1.56
  26  10 -13   20.97    1.49
  10  13 -26   19.78    1.61
  26  13 -10   23.10    1.55
  10  26 -13   26.20    1.72
  13  10 -26   23.72    1.73
  13  26 -11    1.10    0.79
  11  13 -26    1.82    0.87
  26  11 -13    1.39    0.75
  26  13 -11   -0.03    0.66
  13  11 -26    2.11    0.90
  11  26 -13    1.62    0.84
  26  12 -13    4.85    0.92
  26  13 -12    4.32    0.90
  26  13 -13    8.57    1.09
  14  26   0    8.07    1.10
   0  26 -14    8.45    0.99
  14  26  -1    9.02    1.15
  14  26   1    7.38    1.10
   1  26 -14    7.36    0.95
  14  26  -2    3.88    0.87
   2  14 -26    3.87    0.88
  26  14  -2    4.65    0.84
  14  26   2    5.42    1.01
   2  26 -14    3.72    0.83
  14  26  -3    7.25    1.05
   3  14 -26    5.85    0.98
   3  26 -14    8.51    1.03
  26  14  -3    7.35    0.95
  14  26  -4    4.23    0.93
   4  14 -26    3.72    0.92
  26  14  -4    4.64    0.84
   4  26 -14    4.12    0.86
  14  26  -5   -0.37    0.71
   5  14 -26    1.40    0.77
   5  26 -14    1.79    0.75
  26  14  -5    1.77    0.71
  14  26  -6    0.66    0.74
   6  14 -26    1.23    0.75
  26  14  -6    0.00    0.59
   6  26 -14    0.18    0.67
  14  26  -7   11.60    1.28
   7  14 -26    9.85    1.19
   7  26 -14    9.57    1.15
  26  14  -7    9.17    1.07
  14  26  -8    3.40    0.91
   8  14 -26    2.08    0.86
   8  26 -14    3.08    0.84
  26  14  -8    1.96    0.75
   9  14 -26   15.31    1.41
  14  26  -9   13.59    1.37
   9  26 -14   15.53    1.42
  26  14  -9   15.31    1.33
  14   9 -26   13.20    1.40
  26  10 -14   -0.03    0.68
  14  26 -10    1.47    0.91
  10  14 -26    1.04    0.87
  14  10 -26    0.46    0.89
  10  26 -14    0.89    0.76
  26  14 -10    1.50    0.73
  26  11 -14   -0.13    0.63
  26  14 -11   -0.23    0.69
  26  12 -14    3.18    0.84
  26  14 -12    3.48    0.89
  26  13 -14    7.11    1.07
  26  14 -13    7.84    1.21
   0  26 -15    4.75    0.84
  26  15   0    4.98    1.16
  15  26   0    3.57    0.95
   1  15 -26   31.08    1.76
  15  26  -1   27.17    1.79
  15  26   1   24.17    1.70
   1  26 -15   23.69    1.50
  26  15  -1   24.97    1.51
  15  26  -2    2.60    0.86
   2  15 -26    3.43    0.85
   2  26 -15    2.86    0.79
  26  15  -2    3.75    0.79
  15  26   2    4.69    0.99
   3  15 -26   18.31    1.48
  15  26  -3   12.06    1.31
  26  15  -3   15.09    1.25
  15  26   3   11.82    1.33
   3  26 -15   14.03    1.27
   4  15 -26    0.83    0.76
  15  26  -4    2.04    0.82
  26  15  -4    0.31    0.64
   4  26 -15   -0.58    0.66
  15  26  -5   18.18    1.54
   5  15 -26   17.34    1.48
   5  26 -15   16.36    1.34
  26  15  -5   15.02    1.27
  15  26  -6   11.84    1.30
   6  15 -26   10.93    1.25
  26  15  -6   13.07    1.22
   6  26 -15    9.99    1.17
  15  26  -7    0.11    0.74
   7  15 -26   -0.30    0.70
  26  15  -7    0.48    0.66
   7  26 -15    0.52    0.69
   8  15 -26   12.13    1.33
  15  26  -8   12.31    1.34
  26  15  -8   11.48    1.20
   8  26 -15   12.04    1.31
   9  15 -26   11.48    1.49
  26  15  -9   16.61    1.40
   9  26 -15   16.05    1.43
  26  10 -15    2.66    0.82
  26  15 -10    2.91    0.86
  26  11 -15    3.18    0.87
  26  15 -11    1.49    0.78
  26  12 -15    0.61    0.76
  26  15 -12    3.00    1.26
  16  26   0   19.90    1.62
   0  16 -26   19.65    1.47
  26  16   0   20.52    1.46
  26  16   1    4.88    0.95
   1  16 -26    3.31    0.83
  16  26  -1    3.82    0.95
  26  16  -1    3.07    0.78
   1  26 -16    2.91    0.79
  16  26   1    5.28    1.02
   2  16 -26    1.41    0.73
  16  26  -2    1.45    0.79
  16  26   2    0.24    0.80
   2  26 -16    1.97    0.75
  26  16  -2    0.51    0.68
   3  16 -26    4.82    0.94
  16  26  -3    7.43    1.14
  26  16  -3    6.55    0.96
   3  26 -16    6.75    0.98
  16  26   3    5.26    1.04
   4  16 -26   10.98    1.23
  16  26  -4   10.60    1.29
  16  26   4    9.84    1.26
   4  26 -16    8.61    1.09
  26  16  -4   14.23    1.24
   5  16 -26    1.41    0.82
  16  26  -5    1.13    0.80
   5  26 -16    0.91    0.69
  26  16  -5    0.06    0.66
  16  26  -6    9.74    1.37
   6  16 -26   10.03    1.21
  26  16  -6   13.88    1.27
   6  26 -16   14.35    1.33
   7  16 -26    5.06    1.04
  26  16  -7    2.56    0.84
   7  26 -16    1.28    0.82
   8  26 -16   10.19    1.24
  26  16  -8    9.37    1.13
  26  16  -9    3.58    0.89
  26  10 -16    7.89    1.07
  26  16 -10    9.55    1.14
  26  11 -16    0.09    0.77
   0  17 -26    0.41    0.74
  17  26   0    0.76    0.78
  26  17   0    0.40    0.70
  17  26  -1    1.85    0.86
   1  17 -26    2.13    0.78
  26  17   1    2.54    0.79
   1  26 -17    3.27    0.81
  26  17  -1    3.33    0.82
  17  26   1    1.90    0.86
  17  26  -2    0.23    0.82
   2  17 -26   -0.80    0.66
  26  17   2    0.51    0.74
  17  26   2    1.26    0.83
  26  17  -2   -0.20    0.65
   2  26 -17   -0.10    0.62
   3  17 -26    5.58    1.00
  17  26  -3    6.88    1.26
  26  17  -3    7.64    1.04
  17  26   3    5.76    1.21
   3  26 -17    6.22    0.99
   4  17 -26    7.31    1.09
  26  17  -4    5.34    0.96
  17  26   4    4.89    1.54
   4  26 -17    4.59    0.91
   5  17 -26   12.61    1.30
  26  17  -5   15.12    1.32
   5  26 -17   13.67    1.31
   6  17 -26   12.45    1.52
  26  17  -6    9.21    1.13
   6  26 -17    9.15    1.16
  26  17  -7    8.45    1.10
   7  26 -17   11.35    1.86
  26  17  -8    3.58    0.90
  26  18   0   -0.53    0.62
   0  18 -26    0.33    0.66
   1  18 -26    4.33    0.89
  26  18   1    5.55    0.92
  26  18  -1    3.91    0.87
  -1  18 -26    3.73    0.90
  26  18   2    2.67    0.81
   2  18 -26    3.39    0.90
  26  18  -2    2.21    0.80
   2  26 -18    4.23    0.87
   3  18 -26    0.48    0.74
  26  18   3   -0.47    0.71
   3  26 -18    0.53    0.74
  26  18  -3    0.17    0.70
   4  18 -26    7.16    1.22
   4  26 -18   10.35    1.16
  26  18  -4    9.35    1.13
   5  26 -18    6.51    1.18
  26  18  -5    7.46    1.07
  26  18  -6    6.40    1.13
  26  19   0    3.72    0.87
   0  19 -26    2.25    0.80
   1  19 -26    2.02    0.79
  26  19   1    1.34    0.75
  26  19  -1    1.75    0.77
   2  19 -26    5.11    1.52
  26  19   2    4.61    0.96
  26  19  -2    3.62    0.99
   2  26 -19    5.77    0.95
  26  19   3    0.34    0.74
   3  26 -19    0.08    0.75
  26  19   4    5.68    1.23
   0  27  -1    0.96    0.62
  -1  27  -1    0.88    0.61
   1  27  -1    1.39    0.64
   0  27  -2    0.74    0.58
  -2  27   0   -0.28    0.53
  -1  27  -2    7.57    0.90
   2  27  -1    9.47    1.02
  -2  27  -1    5.31    0.81
   1  27  -2    6.12    0.88
  -2  27  -2    0.06    0.55
   2  27  -2    1.37    0.65
   0  27  -3   37.17    1.72
  -3  27   0   36.44    1.66
   3  27  -1   11.82    1.12
  -1  27  -3   11.26    1.04
  -3  27  -1   12.03    1.05
   1  27  -3    8.94    0.99
   3  27  -2    2.82    0.73
  -2  27  -3    3.95    0.71
   2  27  -3    2.21    0.71
  -3  27  -2    2.80    0.66
   3  27  -3    5.43    0.88
  -3  27  -3    5.18    0.76
   0  27  -4   11.86    1.07
  -4  27   0   12.33    1.05
   4  27   0   13.59    1.20
  -1  27  -4   10.93    1.04
   4  27  -1    9.57    1.04
  -4  27  -1    7.18    0.86
   1  27  -4    7.02    0.91
  -2  27  -4    1.47    0.59
   4  27  -2    2.22    0.74
   2  27  -4    1.19    0.64
  -3  27  -4   22.10    1.29
   4  27  -3   21.82    1.48
   3  27  -4   24.09    1.49
   4  27  -4   24.74    1.53
   5  27   0   19.41    1.42
   0  27  -5   19.07    1.32
  -1  27  -5    0.50    0.57
   5  27  -1    0.56    0.66
   1  27  -5    0.50    0.59
  -2  27  -5    9.90    0.98
   5  27  -2    9.71    1.07
   2  27  -5    8.63    0.99
   5  27  -3    4.90    0.88
  -3  27  -5    5.52    0.84
   3  27  -5    7.63    0.95
   5  27  -4    1.56    0.69
   4  27  -5    0.57    0.60
   5  27  -5    0.35    0.61
   0  27  -6    1.18    0.64
   6  27   0    1.95    0.74
  -1  27  -6   15.77    1.17
   6  27  -1   15.29    1.30
   1  27  -6   16.20    1.26
   6  27  -2    3.65    0.83
  -2  27  -6    1.46    0.62
   2  27  -6    3.29    0.74
   6  27  -3   -0.11    0.64
   3  27  -6    0.41    0.63
   6  27  -4    6.58    0.94
   4  27  -6    6.43    0.95
   6  27  -5   16.69    1.34
   5  27  -6   15.42    1.30
   6  27  -6    1.41    0.72
   0  27  -7    3.82    0.78
   7  27   0    5.05    0.88
  -1  27  -7    3.64    0.75
   7  27  -1    4.93    0.89
   1  27  -7    4.55    0.80
   7  27  -2   20.45    1.47
  -2  27  -7   19.69    1.27
   2  27  -7   19.62    1.38
   7  27  -3    1.95    0.76
   3  27  -7    1.30    0.65
   7  27  -4    2.89    0.80
   4  27  -7    1.92    0.71
   7  27  -5    5.99    0.94
   5  27  -7    5.51    0.93
   7  27  -6    6.24    0.98
   6  27  -7    6.34    0.95
   7  27  -7    2.91    0.84
   8  27   0   14.85    1.31
   0  27  -8   12.73    1.11
   8  27  -1   10.32    1.15
  -1  27  -8    9.09    0.96
   1  27  -8   10.21    1.04
   8  27  -2   11.42    1.21
  -2  27  -8   12.44    1.06
   2  27  -8   16.10    1.26
   8  27  -3    7.63    1.02
   3  27  -8    5.18    0.86
   8  27  -4   33.83    1.81
   4  27  -8   24.74    1.56
   8  27  -5    4.57    0.91
   5  27  -8    8.54    1.03
   8  27  -6   11.68    1.22
   6  27  -8   10.82    1.13
   8  27  -7   12.77    1.26
   7  27  -8   12.95    1.25
   8  27  -8    2.52    0.83
   0  27  -9    0.18    0.58
   9  27   0   -0.22    0.66
  -1  27  -9    7.06    0.89
   9  27  -1    7.14    1.06
   9  27   1    6.15    1.01
   1  27  -9    5.18    0.85
   9  27  -2   16.22    1.41
   2  27  -9   12.58    1.14
   9  27  -3    6.03    0.97
   3  27  -9    4.67    0.82
   9  27  -4    2.15    0.83
   4  27  -9    2.72    0.77
   9  27  -5   15.14    1.36
   5  27  -9   15.14    1.29
   9  27  -6    2.68    0.82
   6  27  -9    2.18    0.78
   9  27  -7    0.74    0.72
   7  27  -9    0.11    0.66
   9  27  -8    0.83    0.69
   8  27  -9    0.96    0.71
   9  27  -9    9.02    1.13
  10  27   0    1.21    0.74
   0  27 -10    0.13    0.59
  -1  27 -10    5.03    0.80
  10  27  -1    3.70    0.89
   1  27 -10    4.02    0.79
  10  27   1    4.94    0.95
  10  27  -2    4.52    0.94
   2  27 -10    4.89    0.85
  10  27  -3    3.08    0.86
   3  27 -10    2.30    0.74
  10  27  -4    1.57    0.79
   4  27 -10    2.15    0.73
  10  27  -5    4.48    0.91
   5  27 -10    5.63    0.95
  10  27  -6    0.43    0.74
   6  27 -10    0.21    0.66
  10  27  -7   14.65    1.36
   7  27 -10   15.43    1.35
  10  27  -8    6.23    1.00
   8  27 -10    6.87    1.03
  10  27  -9    0.59    0.72
   9  27 -10    1.93    0.84
  10  27 -10    4.65    0.97
   0  27 -11    5.18    0.83
  11  27   0    5.44    0.98
  -1  27 -11    3.31    0.81
  11  27  -1    4.40    0.96
  11  27   1    1.14    0.77
   1  27 -11    1.42    0.67
  11  27  -2    0.03    0.69
   2  27 -11   -0.35    0.60
  11  27  -3    3.66    0.88
   3  27 -11    5.88    0.91
  11  27  -4    7.13    1.07
   4  27 -11    7.04    1.00
  11  27  -5    1.88    0.80
   5  27 -11    2.38    0.79
  11  27  -6   12.12    1.29
   6  27 -11   10.16    1.15
  11  27  -7   10.84    1.19
   7  27 -11   12.46    1.25
  11  27  -8    0.99    0.79
   8  11 -27    0.34    0.73
   8  27 -11    0.34    0.69
  11  27  -9    5.71    1.02
   9  11 -27    7.03    1.10
   9  27 -11    8.00    1.11
  10  11 -27   11.75    1.35
  11  27 -10   10.44    1.28
  10  27 -11   11.32    1.27
  11  10 -27   11.00    1.31
  11  27 -11    2.82    0.88
  11  11 -27    4.35    1.11
   0  27 -12   19.39    1.35
  12  27   0   18.87    1.53
  12  27  -1    4.28    0.92
  12  27   1    7.36    1.06
   1  27 -12    6.24    0.91
  12  27  -2    3.72    0.93
  12  27   2    4.39    0.92
   2  27 -12    5.46    0.89
  12  27  -3    2.96    0.86
   3  27 -12    1.65    0.70
  12  27  -4   10.03    1.19
   4  27 -12    8.01    1.02
  12  27  -5   11.51    1.26
   5  27 -12   11.36    1.17
   6  12 -27   17.03    1.44
  12  27  -6   14.57    1.37
   6  27 -12   11.50    1.22
  12  27  -7    4.80    0.96
   7  12 -27    3.93    0.96
   7  27 -12    6.11    1.00
  12  27  -8    2.45    0.85
   8  12 -27    3.03    0.88
   8  27 -12    2.27    0.85
  12  27  -9    1.20    0.79
   9  12 -27    3.02    0.85
   9  27 -12    5.09    1.01
  10  12 -27    1.25    0.88
  12  27 -10    1.35    0.81
  12  10 -27    2.12    0.99
  10  27 -12    0.76    0.78
  13  27   0    1.25    0.79
   0  27 -13    1.42    0.69
  13  27  -1   22.73    1.69
  13  27   1   19.16    1.54
   1  27 -13   23.24    1.48
  13  27  -2    5.96    1.01
  13  27   2    4.45    0.93
   2  27 -13    4.11    0.86
  13  27  -3   10.97    1.24
   3  27 -13    7.79    1.05
  13  27  -4   -1.09    0.67
   4  27 -13    0.20    0.63
   5  13 -27   12.33    1.27
  13  27  -5   10.61    1.24
   5  27 -13   14.30    1.31
   6  13 -27    0.95    0.77
  13  27  -6    0.02    0.73
   6  27 -13   -0.50    0.64
   7  13 -27    3.59    0.93
  13  27  -7    3.34    0.96
   7  27 -13    4.90    0.94
  13  27  -8    5.24    1.07
   8  13 -27    5.47    1.03
   8  27 -13    6.07    1.05
  13  27  -9   12.56    2.05
   9  13 -27   10.90    1.47
   9  27 -13   13.85    1.37
  14  27   0    0.15    0.74
  14  27  -1    9.54    1.21
  14  27   1    6.40    1.06
   1  27 -14    8.28    1.01
  14  27  -2    2.70    0.85
  14  27   2    3.05    0.88
   2  27 -14    1.72    0.72
  14  27  -3    5.06    0.98
  14  27   3    3.73    0.98
   3  27 -14    4.47    0.88
   4  14 -27    2.53    0.87
  14  27  -4    3.93    0.92
   4  27 -14    5.35    0.94
  14  27  -5    5.45    1.02
   5  14 -27    4.17    0.89
   5  27 -14    4.30    0.92
   6  14 -27    7.51    1.13
  14  27  -6    7.39    1.12
   6  27 -14    5.76    1.03
  14  27  -7    1.34    1.05
   7  14 -27    2.80    0.89
   7  27 -14    2.56    0.87
   8  27 -14   12.81    1.33
  27  14 -10    2.83    1.08
  27  14 -11    1.88    0.91
  15  27   0    0.65    0.78
  15  27  -1    3.08    0.91
   1  27 -15    2.08    0.75
  15  27   1    1.72    0.83
  15  27  -2    1.35    0.84
   2  27 -15    2.78    0.76
  15  27   2    1.55    0.86
   3  15 -27    4.94    0.97
  15  27  -3    5.48    1.09
  15  27   3    6.63    1.09
   3  27 -15    6.17    0.96
  15  27  -4    1.43    0.96
   4  15 -27    3.36    0.89
  15  27   4    0.51    0.90
   4  27 -15    2.79    0.80
   5  15 -27    0.66    0.73
  15  27  -5    2.39    1.38
   5  27 -15    0.70    0.75
   6  15 -27    8.48    1.30
   6  27 -15   11.94    1.26
   7  27 -15    5.53    1.00
  27  15  -7    8.44    1.45
  27  15  -8    1.02    0.77
  27  15  -9    1.39    0.76
  27  15 -10   26.37    1.85
   2  16 -27   15.78    1.41
   2  27 -16   16.52    1.36
   3  16 -27    3.92    0.87
   3  27 -16    3.39    0.82
   4  16 -27    2.01    0.81
   4  27 -16    1.39    0.74
   5  27 -16    4.74    0.96
  27  16  -5    5.02    1.26
  27  16  -6    3.89    0.90
   6  27 -16    5.47    1.27
  27  16  -7    2.87    0.85
  27  16  -8    2.82    0.85
   2  17 -27    0.53    0.73
   2  27 -17    0.84    0.73
   3  27 -17    4.50    0.91
   4  27 -17    4.70    0.92
  27  17  -4    2.66    0.90
  27  17  -5    1.91    0.80
  27  17  -6    1.70    0.87
  27  18  -3    0.30    1.04
   0  28   0    9.41    1.04
  -1  28   0   48.84    2.02
   1  28   0   46.89    2.05
   0  28  -1   49.54    2.04
   1  28  -1    0.98    0.67
  -1  28  -1    1.12    0.65
  -2  28   0    1.45    0.65
   0  28  -2    0.57    0.60
   2  28   0    1.44    0.70
   2  28  -1    2.27    0.73
  -1  28  -2    3.78    0.78
  -2  28  -1    2.28    0.70
   1  28  -2    2.05    0.73
  -2  28  -2    0.26    0.56
   2  28  -2    0.17    0.59
   0  28  -3    7.05    0.91
   3  28   0    9.52    1.08
  -3  28   0    6.83    0.88
  -1  28  -3    1.28    0.62
   3  28  -1    2.59    0.75
  -3  28  -1    3.84    0.72
   1  28  -3    1.90    0.70
   3  28  -2    1.71    0.71
  -2  28  -3    2.13    0.67
   2  28  -3    3.89    0.79
  -3  28  -2    4.27    0.78
   3  28  -3    7.93    0.99
   4  28   0    9.28    1.09
   0  28  -4    9.70    1.03
  -1  28  -4   34.22    1.64
   4  28  -1   30.73    1.75
   1  28  -4   28.39    1.54
  -2  28  -4   -0.23    0.55
   4  28  -2   -0.05    0.62
   2  28  -4   -0.50    0.57
   4  28  -3    4.44    0.86
   3  28  -4    3.79    0.79
   4  28  -4    7.92    1.00
   0  28  -5   18.17    1.32
   5  28   0   18.63    1.44
  -1  28  -5    7.50    0.91
   5  28  -1    8.98    1.06
   1  28  -5    6.19    0.91
   5  28  -2    6.66    0.96
  -2  28  -5    4.87    0.81
   2  28  -5    3.62    0.82
   5  28  -3    5.01    0.89
   3  28  -5    8.17    1.01
   5  28  -4   13.26    1.23
   4  28  -5   15.48    1.32
   5  28  -5    2.37    0.80
   6  28   0    1.36    0.73
   0  28  -6    0.90    0.63
  -1  28  -6    7.45    0.94
   6  28  -1    7.99    1.06
   1  28  -6    8.27    0.96
   6  28  -2    7.41    1.04
   2  28  -6    3.77    0.80
   6  28  -3   12.21    1.21
   3  28  -6   12.94    1.19
   6  28  -4    1.22    0.74
   4  28  -6    0.03    0.66
   6  28  -5    8.71    1.11
   5  28  -6    9.27    1.11
   6  28  -6   -0.02    0.65
   0  28  -7    2.62    0.74
   7  28   0    2.48    0.83
   7  28  -1    1.03    0.75
  -1  28  -7    1.57    0.67
   1  28  -7    0.91    0.65
   7  28   1    1.19    0.72
   7  28  -2    4.70    0.92
   2  28  -7    8.14    1.00
   7  28  -3    2.24    0.78
   3  28  -7    3.49    0.81
   7  28  -4    0.26    0.69
   4  28  -7    0.09    0.61
   7  28  -5    2.01    0.80
   5  28  -7    0.68    0.71
   7  28  -6    6.91    1.04
   6  28  -7    6.11    0.99
   7  28  -7   39.77    1.97
   0  28  -8    4.90    0.82
   8  28   0    3.79    0.90
   8  28  -1   21.83    1.55
  -1  28  -8   19.66    1.34
   1  28  -8   17.05    1.30
   8  28   1   21.06    1.56
   8  28  -2    1.95    0.77
   2  28  -8    4.08    0.83
   8  28  -3    1.99    0.78
   3  28  -8    2.82    0.80
   8  28  -4    3.48    0.88
   4  28  -8    4.13    0.84
   8  28  -5   25.81    1.73
   5  28  -8   21.52    1.55
   8  28  -6    9.38    1.15
   6  28  -8    7.83    1.04
   8  28  -7   10.11    1.18
   7  28  -8    9.67    1.16
   8  28  -8    4.23    0.90
   0  28  -9   27.71    1.50
   9  28   0   25.72    1.70
   9  28  -1    4.61    0.95
   1  28  -9    5.25    0.86
   9  28   1    6.32    1.04
   9  28  -2    1.92    0.81
   2  28  -9    2.76    0.77
   9  28  -3   35.90    1.91
   3  28  -9   33.24    1.72
   9  28  -4   15.91    1.40
   4  28  -9   12.16    1.20
   9  28  -5    8.05    1.12
   5  28  -9    9.34    1.12
   9  28  -6    3.67    0.88
   6  28  -9    2.93    0.82
   9  28  -7   17.02    1.46
   7  28  -9   16.95    1.43
   9  28  -8   11.57    1.27
   8  28  -9   11.69    1.26
   9  28  -9   -0.64    0.66
   0  28 -10    0.05    0.61
  10  28   0    0.47    0.73
  10  28  -1   -0.72    0.66
  10  28   1   -0.26    0.74
   1  28 -10    0.04    0.62
  10  28  -2   16.09    1.47
  10  28   2   13.96    1.37
   2  28 -10   14.70    1.26
  10  28  -3    0.80    0.72
   3  28 -10    1.32    0.70
  10  28  -4    1.87    0.80
   4  28 -10    4.46    0.88
  10  28  -5    9.43    1.17
   5  28 -10    6.93    1.02
  10  28  -6    8.34    1.14
   6  28 -10   12.52    1.26
  10  28  -7    2.80    0.88
   7  28 -10    3.07    0.87
  10  28  -8    6.72    1.05
   8  28 -10    3.27    0.87
  10  28  -9    1.09    0.81
   9  28 -10    2.60    0.85
  10  28 -10    4.26    1.04
   0  28 -11   13.45    1.19
  11  28   0   16.68    1.49
  11  28  -1    3.19    0.91
  11  28   1    2.95    0.88
   1  28 -11    2.24    0.70
  11  28  -2    2.32    0.86
   2  28 -11    2.27    0.74
  11  28   2    2.82    0.86
  11  28  -3    6.37    1.03
   3  28 -11    4.71    0.88
  11  28  -4   -0.93    0.70
   4  28 -11    1.24    0.70
  11  28  -5    2.80    0.88
   5  28 -11    2.04    0.77
  11  28  -6    5.63    1.00
   6  28 -11    6.94    1.03
  11  28  -7    8.07    1.13
   7  28 -11    7.02    1.07
  11  28  -8   13.81    1.39
   8  28 -11   14.65    1.37
  11  28  -9    0.62    0.98
   9  28 -11    1.75    0.85
  12  28   0    2.78    0.86
  12  28  -1   12.54    1.31
   1  28 -12   14.07    1.23
  12  28   1   15.89    1.46
  12  28  -2    3.74    0.92
   2  28 -12    5.78    0.94
  12  28   2    7.10    1.12
  12  28  -3   -0.14    0.68
   3  28 -12   -1.11    0.60
  12  28  -4    0.85    0.75
   4  28 -12    0.26    0.69
  12  28  -5   -0.13    0.72
   5  28 -12   -0.24    0.62
  12  28  -6   10.14    1.25
   6  28 -12    9.77    1.18
  12  28  -7    5.02    1.12
   7  28 -12    7.83    1.10
   8  28 -12    1.77    0.81
  13  28   0   -0.28    0.75
  13  28  -1    5.46    1.05
   1  28 -13   10.55    1.11
  13  28   1    8.70    1.22
  13  28  -2   10.94    1.29
   2  28 -13    7.59    1.00
  13  28   2    9.54    1.25
  13  28  -3   25.10    1.75
  13  28   3   22.77    1.75
   3  28 -13   24.93    1.63
  13  28  -4    3.67    1.04
   4  28 -13    4.57    0.92
  13  28  -5    2.83    1.32
   5  28 -13    1.46    0.77
   6  28 -13    7.48    1.06
   7  28 -13    8.64    1.17
   2  28 -14   16.84    1.35
   3  28 -14    5.22    0.90
   4  28 -14    4.77    0.94
   5  28 -14    9.75    1.15
   6  28 -14   18.82    1.70
   2  28 -15    1.62    0.76
   3  28 -15    3.23    0.84
   4  28 -15    2.04    0.82
   5  28 -15    1.57    1.26
   2  28 -16    5.18    1.51
   3  28 -16    7.77    1.19
   0  29   0    0.85    0.65
  -1  29   0    0.70    0.63
   1  29   0    0.65    0.65
   0  29  -1    1.53    0.67
   0  29   1    0.92    0.65
   1  29  -1    2.58    0.74
   1  29   1    2.15    0.75
  -1  29   1    3.11    0.76
  -1  29  -1    2.09    0.70
   2  29   0    0.43    0.68
  -2  29   0    0.80    0.64
   0  29  -2    0.74    0.64
   2  29  -1    2.39    0.73
  -1  29  -2    2.30    0.69
  -2  29   1    2.07    0.72
   2  29   1    0.51    0.69
  -2  29  -1    1.06    0.65
   1  29  -2    0.00    0.64
   2  29  -2    0.65    0.64
  -2  29  -2    1.50    0.65
   0  29  -3    1.38    0.69
   3  29   0    2.24    0.76
  -3  29   1    2.84    0.96
  -1  29  -3    2.03    0.69
   3  29  -1    1.57    0.71
   1  29  -3    2.82    0.75
   3  29   1    1.97    0.80
   3  29  -2   17.83    1.43
  -2  29  -3   24.21    2.10
   2  29  -3   17.45    1.36
   3  29  -3    4.92    0.91
   0  29  -4    0.03    0.61
   4  29   0    0.45    0.69
  -1  29  -4    7.81    0.97
   4  29  -1    6.85    1.01
   1  29  -4    7.14    0.98
   4  29   1    6.44    1.01
   4  29  -2    0.48    0.71
   2  29  -4    1.10    0.68
   4  29  -3   13.31    1.27
   3  29  -4    9.16    1.06
   4  29  -4    3.51    0.83
   5  29   0    7.04    1.04
   0  29  -5    6.63    0.92
  -1  29  -5    7.61    0.92
   5  29  -1    6.54    1.00
   5  29   1    5.48    0.99
   1  29  -5    4.90    0.89
   5  29  -2   10.48    1.18
   2  29  -5   10.18    1.10
   5  29  -3    9.02    1.11
   3  29  -5   11.53    1.17
   5  29  -4    5.60    0.93
   4  29  -5    6.81    0.99
   5  29  -5    3.14    0.82
   6  29   0    1.89    0.81
   0  29  -6    1.36    0.67
  -1  29  -6    2.56    0.78
   6  29  -1    2.02    0.81
   6  29   1    5.11    0.99
   1  29  -6    3.59    0.81
   6  29  -2   20.69    1.57
   2  29  -6   29.89    1.63
   6  29  -3   10.04    1.16
   3  29  -6    9.65    1.10
   6  29  -4    4.86    0.95
   4  29  -6    4.17    0.89
   6  29  -5    5.18    0.95
   5  29  -6    6.79    1.02
   6  29  -6   18.36    1.48
   0  29  -7   -0.42    0.59
   7  29   0    0.42    0.71
   7  29  -1    0.29    0.74
   7  29   1   -0.05    0.67
   1  29  -7    1.60    0.71
   7  29  -2    9.39    1.17
   2  29  -7    9.09    1.06
   7  29  -3    4.84    0.95
   3  29  -7    5.55    0.93
   7  29  -4   10.16    1.16
   4  29  -7   11.63    1.20
   7  29  -5   17.44    1.48
   5  29  -7   13.10    1.25
   7  29  -6    3.30    0.86
   6  29  -7    4.46    0.95
   7  29  -7    0.32    0.71
   8  29   0    5.42    0.97
   0  29  -8    6.73    0.94
   8  29  -1   -0.26    0.74
   1  29  -8   -0.22    0.63
   8  29   1    1.35    0.76
   8  29  -2    0.74    0.75
   8  29   2    0.78    0.76
   2  29  -8    0.26    0.67
   8  29  -3   12.70    1.33
   3  29  -8   11.17    1.13
   8  29  -4    4.77    0.97
   4  29  -8    4.72    0.91
   8  29  -5    6.05    1.03
   5  29  -8    7.17    1.02
   8  29  -6    3.29    0.90
   6  29  -8    2.18    0.84
   8  29  -7    4.83    0.97
   7  29  -8    7.99    1.11
   8  29  -8    4.78    0.96
   9  29   0    3.40    0.91
   0  29  -9    5.68    1.07
   9  29  -1    4.36    0.96
   1  29  -9    3.98    0.83
   9  29   1    4.36    0.96
   9  29  -2    0.99    0.80
   2  29  -9    0.88    0.69
   9  29   2    0.63    0.76
   9  29  -3    6.29    1.06
   3  29  -9    3.54    0.84
   9  29  -4    9.68    1.22
   4  29  -9    8.76    1.10
   9  29  -5    6.18    1.07
   5  29  -9   10.52    1.18
   9  29  -6    3.48    0.93
   6  29  -9    4.47    0.95
   9  29  -7    8.87    1.21
   7  29  -9   10.55    1.22
   9  29  -8   14.14    1.38
   8  29  -9   13.62    1.37
  10  29   0   14.35    1.40
  10  29  -1    3.00    0.91
   1  29 -10    3.64    0.82
  10  29   1    3.48    0.94
  10  29  -2    4.93    1.00
   2  29 -10    6.21    0.95
  10  29   2    6.22    1.07
  10  29  -3    4.83    1.01
   3  29 -10    1.94    0.77
  10  29  -4    7.73    1.11
   4  29 -10    8.32    1.04
  10  29  -5    6.61    1.12
   5  29 -10    7.00    1.04
  10  29  -6   18.31    1.57
   6  29 -10   16.71    1.44
  10  29  -7    0.59    0.99
   7  29 -10    0.83    0.77
   8  29 -10    1.31    1.17
  11  29   0    1.24    0.85
  11  29  -1    3.05    0.87
  11  29   1    1.43    0.81
   1  29 -11    1.38    0.70
  11  29  -2   11.24    1.28
  11  29   2   10.28    1.27
   2  29 -11   10.68    1.12
  11  29  -3    4.12    0.94
  11  29   3    4.19    1.02
   3  29 -11    5.08    0.94
  11  29  -4    4.30    1.06
   4  29 -11    6.35    0.98
  11  29  -5    0.34    1.16
   5  29 -11    0.43    0.69
   6  29 -11    2.67    0.85
   7  29 -11   10.91    1.44
   2  29 -12    1.17    0.72
   3  29 -12   14.28    1.31
   4  29 -12    0.78    0.72
   5  29 -12    4.80    0.96
   6  29 -12    2.78    0.94
   2  29 -13    5.53    0.95
   3  29 -13    4.05    0.91
   4  29 -13   11.95    1.22
   3  29 -14    1.09    0.75
   0  30   0   -0.17    0.61
  -1  30   0    1.22    0.68
   1  30   0    0.13    0.68
   0  30  -1    0.89    0.70
   0  30   1    1.00    0.70
  -1  30  -1    2.18    0.73
  -1  30   1    4.31    0.85
   1  30   1    4.99    0.89
   1  30  -1    2.23    0.76
   2  30   0    2.33    0.79
   0  30  -2    2.05    0.72
  -2  30   1    1.41    0.74
   2  30  -1    0.69    0.72
  -1  30  -2    1.42    0.69
   2  30   1    1.08    0.71
   1  30  -2    1.66    0.76
   2  30  -2    9.99    1.12
   0  30  -3    0.45    0.64
   3  30   0    2.33    0.83
   3  30  -1   10.03    1.17
  -1  30  -3    9.80    1.17
   1  30  -3    9.65    1.08
   3  30   1    9.53    1.14
   3  30  -2    4.87    0.91
   2  30  -3    3.27    0.82
   3  30  -3    4.57    0.88
   0  30  -4    1.35    0.71
   4  30   0    0.36    0.72
   4  30  -1   -0.43    0.69
   4  30   1    0.80    0.73
   1  30  -4    1.18    0.71
   4  30  -2    2.85    0.81
   2  30  -4    3.77    0.86
   4  30  -3    5.01    0.94
   3  30  -4    3.40    0.87
   4  30  -4    9.05    1.13
   0  30  -5    0.09    0.65
   5  30   0    0.45    0.75
   5  30  -1    7.65    1.09
   5  30   1    6.77    1.07
   1  30  -5    7.61    1.00
   5  30  -2   -0.59    0.65
   2  30  -5    0.83    0.71
   5  30   2    1.12    0.74
   5  30  -3    4.83    0.94
   3  30  -5    6.30    1.01
   5  30  -4    0.47    0.72
   4  30  -5    0.97    0.73
   5  30  -5   10.41    1.20
   6  30   0    2.66    0.87
   0  30  -6    1.92    0.72
   6  30  -1   25.25    1.70
   1  30  -6   25.68    1.58
   6  30   1   26.28    1.77
   6  30  -2    7.22    1.04
   6  30   2    6.81    1.07
   2  30  -6    7.08    0.99
   6  30  -3   28.17    1.73
   3  30  -6   32.73    1.80
   6  30  -4    5.07    0.96
   4  30  -6    3.44    0.86
   6  30  -5    0.13    0.73
   5  30  -6   -0.21    0.72
   6  30  -6   -0.02    0.74
   7  30   0   -0.48    0.68
   7  30  -1   10.77    1.25
   1  30  -7    6.34    0.97
   7  30   1    8.71    1.16
   7  30  -2   15.30    1.40
   7  30   2   14.74    1.43
   2  30  -7   15.49    1.30
   7  30  -3    8.24    1.14
   3  30  -7    4.52    0.85
   7  30  -4   -0.80    0.68
   4  30  -7    0.44    0.71
   7  30  -5    2.62    0.90
   5  30  -7    2.58    0.81
   7  30  -6   24.36    1.68
   6  30  -7   23.49    1.62
   7  30  -7    0.80    0.80
   8  30   0   16.23    1.44
   8  30  -1    7.79    1.13
   1  30  -8    9.99    1.09
   8  30   1    8.75    1.21
   8  30  -2    3.73    0.90
   2  30  -8    3.63    0.87
   8  30   2    2.11    0.86
   8  30  -3    0.68    0.80
   3  30  -8    2.40    0.78
   8  30  -4    2.82    0.92
   4  30  -8    4.00    0.86
   8  30  -5    5.08    1.02
   5  30  -8    4.45    0.94
   8  30  -6    4.79    1.11
   6  30  -8    4.19    0.91
   7  30  -8    5.48    1.53
   9  30   0    3.38    0.93
   9  30  -1    2.05    0.86
   1  30  -9    1.77    0.86
   9  30   1    0.83    0.92
   9  30  -2    0.71    0.83
   2  30  -9    2.87    0.82
   9  30   2    2.36    1.02
   9  30  -3    2.12    0.95
   3  30  -9    1.54    0.76
   9  30   3    1.15    1.22
   9  30  -4    0.39    1.27
   4  30  -9    0.79    0.74
   5  30  -9   13.90    1.32
   6  30  -9    1.38    0.92
   2  30 -10    3.80    0.85
   3  30 -10    7.36    1.06
   4  30 -10    4.24    0.92
   5  30 -10    3.81    1.03
   2  30 -11    5.37    0.95
   3  30 -11    3.48    0.88
   4  30 -11   10.65    1.35
   3  30 -12    1.12    0.83
   0  31   0   -0.61    0.61
   1  31   0    0.35    0.65
   0  31   1    0.54    0.69
   0  31  -1    0.04    0.65
   1  31  -1    3.66    0.85
  -1  31   1    3.29    0.85
   1  31   1    3.19    0.82
   0  31   2    1.17    0.73
   2  31   0   -0.67    0.64
   0  31  -2    0.27    0.66
   2  31  -1    0.45    0.65
   1  31   2    1.07    0.73
  -1  31   2    1.53    0.75
   2  31   1    1.86    0.74
   1  31  -2    0.97    0.71
   2  31   2    2.09    0.78
   2  31  -2    1.47    0.71
   0  31  -3    0.90    0.72
   3  31   0    0.17    0.69
   3  31  -1    3.48    0.86
   3  31   1    4.37    0.91
   1  31  -3    2.82    0.80
   3  31  -2    0.47    0.71
   3  31   2    0.30    0.74
   2  31  -3    0.42    0.70
   3  31  -3   20.76    1.49
   4  31   0    1.58    0.77
   4  31  -1    7.76    1.07
   1  31  -4    9.60    1.10
   4  31   1    9.44    1.17
   4  31  -2    5.29    0.95
   2  31  -4    5.77    0.95
   4  31   2    7.15    1.07
   4  31  -3    6.85    1.02
   3  31  -4    8.20    1.08
   4  31  -4    4.26    0.91
   5  31   0   11.90    1.31
   5  31  -1   -0.21    0.70
   1  31  -5    0.87    0.68
   5  31   1    0.39    0.76
   5  31  -2    7.98    1.10
   2  31  -5    6.56    0.98
   5  31   2    5.55    0.99
   5  31  -3    1.63    0.76
   3  31  -5    2.83    0.80
   5  31  -4   12.16    1.26
   4  31  -5   11.44    1.22
   5  31  -5    4.83    0.96
   6  31   0    1.43    0.85
   6  31  -1   -0.02    0.71
   1  31  -6    0.48    0.70
   6  31   1    0.95    0.80
   6  31  -2    3.42    0.91
   6  31   2    5.31    1.13
   2  31  -6    4.33    0.91
   6  31  -3    2.11    0.91
   3  31  -6    2.43    0.79
   6  31  -4    0.04    0.91
   4  31  -6    1.02    0.70
   5  31  -6    6.00    1.15
   2  31  -7    1.55    0.77
   3  31  -7    6.15    0.99
   4  31  -7   -0.26    0.69
   2  31  -8    5.26    0.94
   3  31  -8    1.24    0.74
   4  31  -8    9.60    1.73
   2  31  -9    2.74    1.00
   3  31  -9    2.29    0.92
   1  32   0    1.90    0.79
   0  32   1    1.70    0.78
   1  32  -1   14.41    1.32
   1  32   1   12.73    1.25
   0  32   2   -0.62    0.67
   2  32   0    0.26    0.70
   2  32  -1    5.60    0.99
   1  32   2    7.18    1.05
   2  32   1    6.70    1.04
   1  32  -2    7.06    1.03
   2  32  -2    2.88    0.83
   2  32   2    2.87    0.87
   3  32   0    2.13    0.94
   0  32   3    0.94    0.71
   3  32  -1   -0.51    0.72
   1  32   3   -0.15    0.70
   3  32   1    0.66    1.15
   1  32  -3   -0.72    0.74
   3  32  -2    2.06    0.86
   2  32   3    4.83    1.10
   2  32  -3    2.71    0.84
   3  32  -3    7.04    1.23
   2  32  -4    2.67    0.80
   3  32  -4    1.99    1.24
   2  32  -5    3.62    0.94
   2  32  -6    4.12    1.30
   0   0   0    0.00    0.00
;
_shelx_hkl_checksum              25809
loop_
_space_group_symop_operation_xyz
'x, y, z'
'-x+1/2, -y, z+1/2'
'-x, y+1/2, -z+1/2'
'x+1/2, -y+1/2, -z'
'z, x, y'
'z+1/2, -x+1/2, -y'
'-z+1/2, -x, y+1/2'
'-z, x+1/2, -y+1/2'
'y, z, x'
'-y, z+1/2, -x+1/2'
'y+1/2, -z+1/2, -x'
'-y+1/2, -z, x+1/2'
'y+1/4, x+3/4, -z+3/4'
'-y+1/4, -x+1/4, -z+1/4'
'y+3/4, -x+3/4, z+1/4'
'-y+3/4, x+1/4, z+3/4'
'x+1/4, z+3/4, -y+3/4'
'-x+3/4, z+1/4, y+3/4'
'-x+1/4, -z+1/4, -y+1/4'
'x+3/4, -z+3/4, y+1/4'
'z+1/4, y+3/4, -x+3/4'
'z+3/4, -y+3/4, x+1/4'
'-z+3/4, y+1/4, x+3/4'
'-z+1/4, -y+1/4, -x+1/4'
loop_
_atom_site_label
_atom_site_type_symbol
_atom_site_fract_x
_atom_site_fract_y
_atom_site_fract_z
_atom_site_U_iso_or_equiv
_atom_site_adp_type
_atom_site_occupancy
_atom_site_site_symmetry_order
_atom_site_calc_flag
_atom_site_refinement_flags_posn
_atom_site_refinement_flags_adp
_atom_site_refinement_flags_occupancy
_atom_site_disorder_assembly
_atom_site_disorder_group
Cu01 Cu 0.6250 0.09575(2) 0.15425(2) 0.00380(11) Uani 1 2 d S TU P . .
O1 O 0.39454(11) 0.18701(11) 0.28433(11) 0.0222(5) Uani 1 1 d . U . . .
O2 O 0.34588(12) 0.16843(11) 0.18687(12) 0.0295(5) Uani 1 1 d . U . . .
N1 N 0.43131(11) 0.31146(12) 0.25396(12) 0.0147(5) Uani 1 1 d . U . . .
N2 N 0.50848(12) 0.33749(11) 0.32510(12) 0.0147(5) Uani 1 1 d . U . . .
N3 N 0.46413(12) 0.39029(11) 0.32238(12) 0.0164(5) Uani 1 1 d . U . . .
N4 N 0.57359(12) 0.17774(12) 0.13742(12) 0.0174(5) Uani 1 1 d . U . . .
N5 N 0.54499(12) 0.28157(12) 0.12102(13) 0.0194(5) Uani 1 1 d . U . . .
H5 H 0.5483 0.3245 0.1132 0.023 Uiso 1 1 calc R U . . .
C1 C 0.39053(14) 0.27578(14) 0.20501(14) 0.0162(6) Uani 1 1 d . U . . .
H1 H 0.3466 0.2990 0.2031 0.019 Uiso 1 1 calc R U . . .
C2 C 0.48812(14) 0.29156(14) 0.28373(14) 0.0147(5) Uani 1 1 d . U . . .
H2 H 0.5100 0.2505 0.2758 0.018 Uiso 1 1 calc R U . . .
C3 C 0.41907(13) 0.37276(14) 0.27904(14) 0.0152(5) Uani 1 1 d . U . . .
H3 H 0.3823 0.3996 0.2666 0.018 Uiso 1 1 calc R U . . .
C4 C 0.42098(14) 0.28016(14) 0.13547(14) 0.0174(6) Uani 1 1 d . U . . .
H4A H 0.3905 0.2591 0.1031 0.021 Uiso 1 1 calc R U . . .
H4B H 0.4260 0.3275 0.1229 0.021 Uiso 1 1 calc R U . . .
C5 C 0.48703(14) 0.24697(14) 0.13202(14) 0.0180(6) Uani 1 1 d . U . . .
C6 C 0.50561(15) 0.18298(15) 0.14226(14) 0.0181(6) Uani 1 1 d . U . . .
H6 H 0.4762 0.1472 0.1514 0.022 Uiso 1 1 calc R U . . .
C7 C 0.59572(15) 0.23809(14) 0.12431(15) 0.0194(6) Uani 1 1 d . U . . .
H7 H 0.6412 0.2493 0.1181 0.023 Uiso 1 1 calc R U . . .
C8 C 0.37675(15) 0.20387(14) 0.22842(15) 0.0176(6) Uani 1 1 d . U . . .
O1W O 0.53541(12) 0.02788(12) 0.10650(12) 0.0268(5) Uani 1 1 d D U . . .
H1WA H 0.5097(14) 0.0385(14) 0.0752(12) 0.040 Uiso 1 1 d D U . . .
H1WB H 0.5307(19) -0.0142(7) 0.1110(17) 0.040 Uiso 1 1 d D U . . .
O2W O 0.4396(6) 0.0263(5) 0.0048(5) 0.055(2) Uani 0.3333 1 d D U P A -1
H2WA H 0.417(2) 0.0601(16) 0.017(2) 0.083 Uiso 0.3333 1 d D U P B -1
H2WB H 0.461(2) 0.039(3) -0.0295(15) 0.083 Uiso 0.3333 1 d D U P C -1
O3W O 0.3249(6) 0.1519(6) 0.0545(6) 0.064(3) Uani 0.3333 1 d D U P D 1
H3WA H 0.2970(18) 0.1837(14) 0.059(6) 0.096 Uiso 0.3333 1 d D U P E 1
H3WB H 0.301(2) 0.1181(13) 0.046(5) 0.096 Uiso 0.3333 1 d D U P F 1
O4W O 0.4474(6) 0.1016(5) 0.0163(5) 0.058(2) Uani 0.3333 1 d D U P G 2
H4WA H 0.4162(16) 0.117(2) 0.0405(19) 0.087 Uiso 0.3333 1 d D U P H 2
H4WB H 0.464(2) 0.1357(16) -0.002(2) 0.087 Uiso 0.3333 1 d D U P I 2
O5W O 0.7392(6) 0.2891(6) 0.0377(7) 0.078(3) Uani 0.3333 1 d D U P J 1
H5WA H 0.7797(12) 0.297(3) 0.027(3) 0.117 Uiso 0.3333 1 d D U P K 1
H5WB H 0.729(2) 0.3206(19) 0.064(2) 0.117 Uiso 0.3333 1 d D U P L 1
O6W O 0.2413(6) 0.2211(5) 0.1146(6) 0.078(3) Uani 0.3333 1 d D U P M -3
H6WA H 0.225(3) 0.195(2) 0.1435(17) 0.117 Uiso 0.3333 1 d D U P N -3
H6WB H 0.262(2) 0.197(2) 0.0874(17) 0.117 Uiso 0.3333 1 d D U P O -3
O7W O 0.6936(7) 0.2888(6) -0.0035(7) 0.058(3) Uani 0.25 1 d D U P P 2
H7WA H 0.7252(16) 0.307(2) 0.018(2) 0.086 Uiso 0.25 1 d D U P Q 2
H7WB H 0.674(2) 0.3202(18) -0.024(2) 0.086 Uiso 0.25 1 d D U P R 2
O8W O 0.3169(11) 0.2102(10) -0.0332(8) 0.113(10) Uani 0.1667 1 d D U P S -5
H8WA H 0.2901(14) 0.200(3) -0.0643(10) 0.169 Uiso 0.1667 1 d D U P T -5
H8WB H 0.310(4) 0.1810(13) -0.0034(10) 0.169 Uiso 0.1667 1 d D U P U -5
O9W O 0.6304(19) 0.3608(15) -0.0980(16) 0.063(7) Uani 0.0833 1 d D U P V -3
H9WA H 0.619(2) 0.3244(16) -0.080(3) 0.095 Uiso 0.0833 1 d D U P W -3
H9WB H 0.6646(18) 0.374(2) -0.077(3) 0.095 Uiso 0.0833 1 d D U P X -3
O10W O 0.6250 0.2870(6) -0.0370(6) 0.063(5) Uani 0.1667 2 d DS TU P Y 6
H10X H 0.6250 0.3327(6) -0.0827(6) 0.094 Uiso 0.1667 2 d DS U P Z 6
H10Y H 0.6250 0.3011(6) -0.0511(6) 0.094 Uiso 0.1667 2 d DS U P A 6
O11W O 0.2315(16) 0.1708(16) 0.1317(15) 0.064(7) Uani 0.0833 1 d D U P B -2
H11X H 0.210(2) 0.148(2) 0.103(2) 0.097 Uiso 0.0833 1 d D U P C -2
H11Y H 0.256(2) 0.1964(19) 0.109(3) 0.097 Uiso 0.0833 1 d D U P D -2
O12W O 0.3537(9) 0.1236(8) 0.0510(8) 0.045(4) Uani 0.1667 1 d D U P E 3
H12X H 0.3188(17) 0.1029(19) 0.039(4) 0.067 Uiso 0.1667 1 d D U P F 3
H12Y H 0.356(3) 0.1568(16) 0.025(2) 0.067 Uiso 0.1667 1 d D U P G 3
loop_
_atom_site_aniso_label
_atom_site_aniso_U_11
_atom_site_aniso_U_22
_atom_site_aniso_U_33
_atom_site_aniso_U_23
_atom_site_aniso_U_13
_atom_site_aniso_U_12
Cu01 0.0053(2) 0.00302(14) 0.00302(14) 0.00125(16) 0.00256(12) 0.00256(12)
O1 0.0227(11) 0.0212(11) 0.0227(11) 0.0016(9) 0.0031(8) -0.0019(9)
O2 0.0358(12) 0.0178(11) 0.0348(13) -0.0033(9) -0.0120(10) -0.0033(9)
N1 0.0138(11) 0.0135(11) 0.0166(11) -0.0012(9) -0.0008(9) 0.0016(9)
N2 0.0155(11) 0.0121(11) 0.0165(11) 0.0019(9) 0.0012(9) 0.0011(9)
N3 0.0167(11) 0.0155(12) 0.0170(11) 0.0019(9) 0.0000(9) 0.0020(9)
N4 0.0186(11) 0.0177(11) 0.0160(12) 0.0012(9) 0.0018(9) 0.0033(9)
N5 0.0225(12) 0.0135(11) 0.0222(12) 0.0016(9) 0.0025(10) 0.0031(9)
C1 0.0136(13) 0.0148(13) 0.0203(14) -0.0019(11) -0.0036(10) 0.0019(10)
C2 0.0143(13) 0.0138(12) 0.0159(13) 0.0017(10) 0.0000(10) 0.0002(10)
C3 0.0148(13) 0.0124(12) 0.0185(13) 0.0010(10) 0.0013(10) 0.0023(10)
C4 0.0205(14) 0.0147(12) 0.0170(13) -0.0009(10) -0.0047(10) 0.0045(10)
C5 0.0201(14) 0.0194(14) 0.0144(13) -0.0010(10) -0.0010(11) 0.0032(11)
C6 0.0193(13) 0.0167(13) 0.0182(14) 0.0003(11) 0.0000(11) 0.0036(11)
C7 0.0206(14) 0.0178(13) 0.0198(14) 0.0000(11) 0.0028(11) 0.0020(11)
C8 0.0145(12) 0.0145(13) 0.0237(14) -0.0027(10) 0.0003(11) 0.0029(11)
O1W 0.0282(12) 0.0254(11) 0.0267(12) -0.0002(9) -0.0049(9) -0.0054(9)
O2W 0.075(6) 0.045(5) 0.046(5) 0.018(4) 0.006(4) 0.017(4)
O3W 0.062(6) 0.076(6) 0.053(5) -0.024(5) -0.022(5) -0.001(5)
O4W 0.078(6) 0.045(5) 0.051(5) -0.010(4) -0.025(4) 0.026(4)
O5W 0.095(7) 0.061(6) 0.077(7) 0.005(5) 0.025(6) 0.001(6)
O6W 0.073(6) 0.053(5) 0.106(7) -0.022(5) -0.065(5) 0.012(5)
O7W 0.077(7) 0.041(5) 0.055(6) -0.010(5) 0.025(5) 0.001(5)
O8W 0.128(15) 0.108(14) 0.102(14) 0.008(11) 0.011(11) 0.027(11)
O9W 0.069(10) 0.059(10) 0.061(10) -0.006(9) 0.007(9) 0.005(9)
O10W 0.077(8) 0.056(6) 0.056(6) -0.011(7) 0.013(5) 0.013(5)
O11W 0.058(10) 0.054(10) 0.081(10) -0.011(9) -0.040(9) 0.006(9)
O12W 0.051(8) 0.046(7) 0.037(7) -0.016(6) -0.018(6) 0.010(6)
loop_
_atom_type_symbol
_atom_type_description
_atom_type_scat_dispersion_real
_atom_type_scat_dispersion_imag
_atom_type_scat_source
C C 0.0181 0.0091 'International Tables Vol C Tables 4.2.6.8 and 6.1.1.4'
H H 0.0000 0.0000 'International Tables Vol C Tables 4.2.6.8 and 6.1.1.4'
N N 0.0311 0.0180 'International Tables Vol C Tables 4.2.6.8 and 6.1.1.4'
O O 0.0492 0.0322 'International Tables Vol C Tables 4.2.6.8 and 6.1.1.4'
Cu Cu -1.9646 0.5888 'International Tables Vol C Tables 4.2.6.8 and 6.1.1.4'
loop_
_geom_angle_atom_site_label_1
_geom_angle_atom_site_label_2
_geom_angle_atom_site_label_3
_geom_angle
_geom_angle_site_symmetry_1
_geom_angle_site_symmetry_3
N4 Cu01 N4 89.31(14) 19_655 .
N4 Cu01 N2 87.57(10) 19_655 8_645
N4 Cu01 N2 174.34(10) . 8_645
N4 Cu01 N2 174.34(10) 19_655 21_545
N4 Cu01 N2 87.58(10) . 21_545
N2 Cu01 N2 95.91(13) 8_645 21_545
C2 N1 C3 105.0(2) . .
C2 N1 C1 128.7(2) . .
C3 N1 C1 126.4(2) . .
C2 N2 N3 108.3(2) . .
C2 N2 Cu01 130.0(2) . 11_556
N3 N2 Cu01 120.85(18) . 11_556
C3 N3 N2 105.4(2) . .
C7 N4 C6 106.2(2) . .
C7 N4 Cu01 128.7(2) . .
C6 N4 Cu01 124.9(2) . .
C7 N5 C5 107.8(2) . .
N1 C1 C4 111.2(2) . .
N1 C1 C8 110.7(2) . .
C4 C1 C8 113.8(2) . .
N2 C2 N1 109.7(2) . .
N3 C3 N1 111.6(2) . .
C5 C4 C1 112.0(2) . .
C6 C5 N5 105.7(3) . .
C6 C5 C4 131.7(3) . .
N5 C5 C4 122.5(3) . .
C5 C6 N4 109.6(3) . .
N4 C7 N5 110.6(3) . .
O1 C8 O2 126.4(3) . .
O1 C8 C1 119.0(2) . .
O2 C8 C1 114.5(3) . .
loop_
_geom_bond_atom_site_label_1
_geom_bond_atom_site_label_2
_geom_bond_distance
_geom_bond_site_symmetry_2
Cu01 N4 1.976(2) 19_655
Cu01 N4 1.976(2) .
Cu01 N2 2.029(2) 8_645
Cu01 N2 2.029(2) 21_545
O1 C8 1.228(4) .
O2 C8 1.262(4) .
N1 C2 1.351(4) .
N1 C3 1.355(4) .
N1 C1 1.469(4) .
N2 C2 1.309(4) .
N2 N3 1.389(3) .
N2 Cu01 2.029(2) 11_556
N3 C3 1.306(4) .
N4 C7 1.320(4) .
N4 C6 1.375(4) .
N5 C7 1.346(4) .
N5 C5 1.376(4) .
C1 C4 1.530(4) .
C1 C8 1.547(4) .
C4 C5 1.489(4) .
C5 C6 1.356(4) .
loop_
_geom_torsion_atom_site_label_1
_geom_torsion_atom_site_label_2
_geom_torsion_atom_site_label_3
_geom_torsion_atom_site_label_4
_geom_torsion
_geom_torsion_site_symmetry_1
C2 N2 N3 C3 0.1(3) .
Cu01 N2 N3 C3 170.59(18) 11_556
C2 N1 C1 C4 -78.8(3) .
C3 N1 C1 C4 101.3(3) .
C2 N1 C1 C8 48.8(4) .
C3 N1 C1 C8 -131.2(3) .
N3 N2 C2 N1 -0.7(3) .
Cu01 N2 C2 N1 -170.01(19) 11_556
C3 N1 C2 N2 1.0(3) .
C1 N1 C2 N2 -179.0(3) .
N2 N3 C3 N1 0.5(3) .
C2 N1 C3 N3 -0.9(3) .
C1 N1 C3 N3 179.1(2) .
N1 C1 C4 C5 63.7(3) .
C8 C1 C4 C5 -62.1(3) .
C7 N5 C5 C6 0.5(3) .
C7 N5 C5 C4 176.7(3) .
C1 C4 C5 C6 61.4(4) .
C1 C4 C5 N5 -113.7(3) .
N5 C5 C6 N4 -0.3(3) .
C4 C5 C6 N4 -176.0(3) .
C7 N4 C6 C5 0.0(3) .
Cu01 N4 C6 C5 175.8(2) .
C6 N4 C7 N5 0.4(3) .
Cu01 N4 C7 N5 -175.2(2) .
C5 N5 C7 N4 -0.6(4) .
N1 C1 C8 O1 6.5(4) .
C4 C1 C8 O1 132.5(3) .
N1 C1 C8 O2 -175.3(2) .
C4 C1 C8 O2 -49.2(3) .
