#------------------------------------------------------------------------------
#$Date: 2019-11-03 16:14:40 +0200 (Sun, 03 Nov 2019) $
#$Revision: 221837 $
#$URL: file:///home/coder/svn-repositories/cod/cif/4/12/87/4128773.cif $
#------------------------------------------------------------------------------
#
# This file is available in the Crystallography Open Database (COD),
# http://www.crystallography.net/
#
# All data on this site have been placed in the public domain by the
# contributors.
#
data_4128773
loop_
_publ_author_name
'Corella-Ochoa, M Nieves'
'Tapia, Jes\'us B'
'Rubin, Heather N.'
'Lillo, Vanesa'
'Gonz\'alez-Cobos, Jes\'us'
'N\'u\~nez-Rico, Jos\'e Luis'
'Balestra, Salvador R. G.'
'Almora-Barrios, Neyvis'
'Lled\'os, Marina'
'G\"uell-Bara, Arnau'
'Cabezas-Gim\'enez, Juanjo'
'Escudero-Ad\'an, Eduardo C'
'Vidal-Ferran, Anton'
'Calero, Sof\'ia'
'Reynolds, Melissa'
'Mart\'i-Gastaldo, Carlos'
'Gal\'an-Mascar\'os, Jos\'e Ram\'on'
_publ_section_title
;
 Homochiral Metal-Organic Frameworks for Enantioselective Separations in
 Liquid Chromatography.
;
_journal_issue                   36
_journal_name_full               'Journal of the American Chemical Society'
_journal_page_first              14306
_journal_page_last               14316
_journal_paper_doi               10.1021/jacs.9b06500
_journal_volume                  141
_journal_year                    2019
_chemical_absolute_configuration ad
_chemical_formula_sum            'C16 H25.33 Cu N10 O8.67'
_chemical_formula_weight         560.00
_space_group_IT_number           212
_space_group_name_Hall           'P 4acd 2ab 3'
_space_group_name_H-M_alt        'P 43 3 2'
_symmetry_cell_setting           cubic
_symmetry_space_group_name_H-M   'P 43 3 2'
_atom_sites_solution_hydrogens   mixed
_audit_creation_method           SHELXL-2014/6
_cell_angle_alpha                90
_cell_angle_beta                 90
_cell_angle_gamma                90
_cell_formula_units_Z            12
_cell_length_a                   20.172(2)
_cell_length_b                   20.172(2)
_cell_length_c                   20.172(2)
_cell_measurement_reflns_used    3448
_cell_measurement_temperature    100(2)
_cell_measurement_theta_max      29.22
_cell_measurement_theta_min      2.26
_cell_volume                     8208.2(14)
_computing_cell_refinement       'Bruker APEX2 v2014.9-0'
_computing_data_collection       'Bruker APEX2 v2014.9-0'
_computing_data_reduction        'Bruker SAINT V7.60A'
_computing_molecular_graphics    'Bruker SHELXTL'
_computing_publication_material  'Bruker SHELXTL'
_computing_structure_refinement  'SHELXL-2014 (Sheldrick, 2014)'
_computing_structure_solution    'SHELXS-2014 (Sheldrick, 2014)'
_diffrn_ambient_temperature      100(2)
_diffrn_detector_area_resol_mean 512
_diffrn_detector_type            '4K CCD area detector APEX II'
_diffrn_measured_fraction_theta_full 0.979
_diffrn_measured_fraction_theta_max 0.976
_diffrn_measurement_device_type  'APEX DUO Kappa 4-axis goniometer'
_diffrn_measurement_method
;
 Fullsphere data collection, phi and omega scans
;
_diffrn_measurement_specimen_support 'magnetic support with MicroMount'
_diffrn_radiation_monochromator  'Quazar MX Multilayer Optics'
_diffrn_radiation_type           MoK\a
_diffrn_radiation_wavelength     0.71073
_diffrn_reflns_Laue_measured_fraction_full 0.979
_diffrn_reflns_Laue_measured_fraction_max 0.976
_diffrn_reflns_limit_k_max       26
_diffrn_reflns_limit_k_min       -7
_diffrn_reflns_limit_l_max       30
_diffrn_reflns_limit_l_min       -6
_diffrn_reflns_point_group_measured_fraction_full 0.983
_diffrn_reflns_point_group_measured_fraction_max 0.976
_diffrn_reflns_theta_full        25.242
_diffrn_reflns_theta_max         32.062
_diffrn_reflns_theta_min         1.749
_diffrn_source                   'Microfocus source E025 IuS'
_diffrn_source_current           0.6
_diffrn_source_power             50
_diffrn_source_size              '0.2 mm x 0.2 mm fine focus'
_diffrn_source_type              'Bruker APEX DUO'
_exptl_absorpt_coefficient_mu    0.856
_exptl_absorpt_correction_T_max  0.975
_exptl_absorpt_correction_T_min  0.846
_exptl_absorpt_correction_type   empirical
_exptl_absorpt_process_details
; 
 SADABS Version 2008/1 Bruker-Nonius
 Blessing, Acta Cryst. (1995) A51 33-38
;
_exptl_crystal_colour            blue
_exptl_crystal_density_diffrn    1.359
_exptl_crystal_description       block
_exptl_crystal_F_000             3476
_exptl_crystal_size_max          0.20
_exptl_crystal_size_mid          0.20
_exptl_crystal_size_min          0.20
_refine_diff_density_max         0.541
_refine_diff_density_min         -0.275
_refine_diff_density_rms         0.082
_refine_ls_abs_structure_details
;
 Flack x determined using 1254 quotients [(I+)-(I-)]/[(I+)+(I-)]
 (Parsons, Flack and Wagner, Acta Cryst. B69 (2013) 249-259).
;
_refine_ls_abs_structure_Flack   0.009(15)
_refine_ls_extinction_method     none
_refine_ls_goodness_of_fit_ref   1.054
_refine_ls_hydrogen_treatment    noref
_refine_ls_matrix_type           full
_refine_ls_number_parameters     274
_refine_ls_number_reflns         4680
_refine_ls_number_restraints     207
_refine_ls_restrained_S_all      1.037
_refine_ls_R_factor_all          0.0642
_refine_ls_R_factor_gt           0.0456
_refine_ls_shift/su_max          0.001
_refine_ls_shift/su_mean         0.000
_refine_ls_structure_factor_coef Fsqd
_refine_ls_weighting_details
'w=1/[\s^2^(Fo^2^)+(0.0600P)^2^] where P=(Fo^2^+2Fc^2^)/3'
_refine_ls_weighting_scheme      calc
_refine_ls_wR_factor_gt          0.1189
_refine_ls_wR_factor_ref         0.1263
_reflns_Friedel_coverage         0.702
_reflns_Friedel_fraction_full    0.989
_reflns_Friedel_fraction_max     0.976
_reflns_number_gt                3621
_reflns_number_total             4680
_reflns_threshold_expression     'I > 2\s(I)'
_cod_data_source_file            ja9b06500_si_002.cif
_cod_data_source_block           TAMOF1_298K
_cod_depositor_comments
;
The following automatic conversions were performed:

data item '_symmetry_cell_setting' value 'Cubic' was changed to
'cubic' in accordance with the
/home/data/users/saulius/crontab/automatic-downloads/current/ACS/lib/dictionaries/cif_core.dic
dictionary named 'cif_core.dic' version 2.4.2 last updated on
2011-04-26.

Automatic conversion script
Id: cif_fix_values 6909 2019-04-08 15:41:33Z antanas 
;
_cod_original_cell_volume        8208(2)
_cod_original_sg_symbol_H-M      P4(3)32
_cod_database_code               4128773
_shelx_space_group_comment
;
The symmetry employed for this shelxl refinement is uniquely defined
by the following loop, which should always be used as a source of
symmetry information in preference to the above space-group names.
They are only intended as comments.
;
_shelx_estimated_absorpt_t_min   0.958
_shelx_estimated_absorpt_t_max   0.975
_shelxl_version_number           2014/6
_shelx_res_file
;
TITL mo_NCII143B2_298K_0m_a.res in P4(3)32
REM Old TITL mo_NCII143B2_298K_0m in P4(3)32
REM SHELXT solution in P4(3)32
REM R1 0.131,  Rweak 0.029,  Alpha 0.005,  Orientation as input
REM Flack x =  0.012 ( 0.011 ) from Parsons' quotients
REM Formula found by SHELXT:  C24 N6 O2 Cu
CELL  0.71073  20.1722  20.1722  20.1722   90.000   90.000   90.000
ZERR   12.000   0.0020   0.0020   0.0020    0.000    0.000    0.000
LATT -1
SYMM 1/2-X, -Y, 1/2+Z
SYMM -X, 1/2+Y, 1/2-Z
SYMM 1/2+X, 1/2-Y, -Z
SYMM Z, X, Y
SYMM 1/2+Z, 1/2-X, -Y
SYMM 1/2-Z, -X, 1/2+Y
SYMM -Z, 1/2+X, 1/2-Y
SYMM Y, Z, X
SYMM -Y, 1/2+Z, 1/2-X
SYMM 1/2+Y, 1/2-Z, -X
SYMM 1/2-Y, -Z, 1/2+X
SYMM 1/4+Y, 3/4+X, 3/4-Z
SYMM 1/4-Y, 1/4-X, 1/4-Z
SYMM 3/4+Y, 3/4-X, 1/4+Z
SYMM 3/4-Y, 1/4+X, 3/4+Z
SYMM 1/4+X, 3/4+Z, 3/4-Y
SYMM 3/4-X, 1/4+Z, 3/4+Y
SYMM 1/4-X, 1/4-Z, 1/4-Y
SYMM 3/4+X, 3/4-Z, 1/4+Y
SYMM 1/4+Z, 3/4+Y, 3/4-X
SYMM 3/4+Z, 3/4-Y, 1/4+X
SYMM 3/4-Z, 1/4+Y, 3/4+X
SYMM 1/4-Z, 1/4-Y, 1/4-X
SFAC C H N O CU
UNIT 192 304 120 104 12
TEMP -173.150
SIZE 0.03 0.05 0.05
damp 150
L.S. 150
ACTA
CONF
REM EQIV $1 1/2-Y,-Z, -1/2+X
REM DFIX -2.12 0.01 H1WA H3WA
REM DFIX -2.12 0.01 H1WA H3WB_$1
LIST 4
FMAP 2
PLAN 20
ISOR 0.01
WGHT    0.060000
FVAR       0.10016
CU01  5    0.625000    0.093407    0.156593    10.50000    0.03046    0.02418 =
         0.02418    0.00543    0.01025    0.01025
O1    4    0.392389    0.182564    0.286009    11.00000    0.04573    0.03616 =
         0.03694    0.00106    0.00238   -0.00540
O2    4    0.346812    0.161526    0.188127    11.00000    0.05975    0.03297 =
         0.05764   -0.00593   -0.01915   -0.00837
N1    3    0.429887    0.306449    0.253740    11.00000    0.01891    0.02049 =
         0.02867   -0.00205   -0.00372    0.00409
N2    3    0.506980    0.333925    0.324170    11.00000    0.02017    0.02112 =
         0.02431    0.00301   -0.00277    0.00251
N3    3    0.462810    0.386622    0.319772    11.00000    0.02696    0.02208 =
         0.03094   -0.00116   -0.00274    0.00390
N4    3    0.572197    0.174272    0.138462    11.00000    0.03168    0.02939 =
         0.03038    0.00509    0.00795    0.00930
N5    3    0.542092    0.276865    0.121204    11.00000    0.03825    0.02429 =
         0.03794    0.00469    0.00547    0.00586
AFIX  43
H5    2    0.544795    0.319704    0.113417    11.00000   -1.20000
AFIX   0
C1    1    0.389037    0.270062    0.205581    11.00000    0.02262    0.02451 =
         0.03194   -0.00672   -0.00708    0.00605
AFIX  13
H1    2    0.345123    0.292994    0.203798    11.00000   -1.20000
AFIX   0
C2    1    0.486239    0.286860    0.284327    11.00000    0.02278    0.02009 =
         0.02909    0.00081   -0.00340    0.00364
AFIX  43
H2    2    0.507560    0.245356    0.277945    11.00000   -1.20000
AFIX   0
C3    1    0.418026    0.368016    0.276840    11.00000    0.02302    0.02086 =
         0.03114    0.00130   -0.00054    0.00475
AFIX  43
H3    2    0.381537    0.394644    0.263523    11.00000   -1.20000
AFIX   0
C4    1    0.418780    0.274151    0.135904    11.00000    0.03537    0.02729 =
         0.03043   -0.00138   -0.01110    0.01171
AFIX  23
H4A   2    0.388467    0.252230    0.104136    11.00000   -1.20000
H4B   2    0.422779    0.321288    0.122836    11.00000   -1.20000
AFIX   0
C5    1    0.485284    0.242169    0.131986    11.00000    0.03515    0.02632 =
         0.02402   -0.00063   -0.00047    0.00959
C6    1    0.504608    0.178529    0.142937    11.00000    0.03420    0.02671 =
         0.03119    0.00239    0.00293    0.00983
AFIX  43
H6    2    0.475670    0.142562    0.152258    11.00000   -1.20000
AFIX   0
C7    1    0.593072    0.234725    0.124469    11.00000    0.03844    0.02767 =
         0.03808    0.00583    0.00970    0.00751
AFIX  43
H7    2    0.638132    0.246606    0.117663    11.00000   -1.20000
AFIX   0
C8    1    0.375739    0.198505    0.229814    11.00000    0.02008    0.02469 =
         0.04167   -0.00660    0.00236    0.00273
DFIX 0.85 0.01 O1W H1WA
DFIX 0.85 0.01 O1W H1WB
DFIX 1.35 0.01 H1WA H1WB
O1W   4    0.642643    0.272836    0.286237    11.00000    0.06133    0.05608 =
         0.05875   -0.01047    0.00877    0.00339
H1WA  2    0.653136    0.233518    0.274914    11.00000   -1.50000
H1WB  2    0.670254    0.297494    0.265672    11.00000   -1.50000
SIMU 0.01 O2W > O9W
DELU 0.01 O2W > O9W
ISOR 0.005 O2W > O8W
ISOR 0.002 O9W
DFIX 0.85 0.01 O2W H2WA
DFIX 0.85 0.01 O2W H2WB
DFIX 1.35 0.01 H2WA H2WB
DFIX 0.85 0.01 O3W H3WA
DFIX 0.85 0.01 O3W H3WB
DFIX 1.35 0.01 H3WA H3WB
DFIX 0.85 0.01 O4W H4WA
DFIX 0.85 0.01 O4W H4WB
DFIX 1.35 0.01 H4WA H4WB
DFIX 0.85 0.01 O5W H5WA
DFIX 0.85 0.01 O5W H5WB
DFIX 1.35 0.01 H5WA H5WB
DFIX 0.85 0.01 O6W H6WA
DFIX 0.85 0.01 O6W H6WB
DFIX 1.35 0.01 H6WA H6WB
DFIX 0.85 0.01 O7W H7WA
DFIX 0.85 0.01 O7W H7WB
DFIX 1.35 0.01 H7WA H7WB
DFIX 0.85 0.005 O8W H8WA
DFIX 0.85 0.005 O8W H8WB
DFIX 1.35 0.01 H8WA H8WB
DFIX 0.85 0.005 O9W H9WA
DFIX 0.85 0.005 O9W H9WB
DFIX 1.35 0.005 H9WA H9WB
PART 1
O2W   4    0.752875    0.280538    0.196117    10.25000    0.09843    0.09783 =
         0.10416    0.00180    0.01102   -0.01178
H2WA  2    0.766777    0.266777    0.233223    10.25000   -1.50000
H2WB  2    0.784598    0.303137    0.179941    10.25000   -1.50000
PART -2
O3W   4    0.789805    0.249882    0.151036    10.16666    0.10799    0.10759 =
         0.10848   -0.00265    0.00888   -0.01257
H3WA  2    0.815414    0.279626    0.166531    10.16666   -1.50000
H3WB  2    0.767347    0.269387    0.121141    10.16666   -1.50000
PART 0
PART 1
O4W   4    0.246786    0.220155    0.103547    10.25000    0.11007    0.10981 =
         0.11101   -0.00035   -0.01447    0.00431
H4WA  2    0.248867    0.224066    0.145496    10.25000   -1.50000
H4WB  2    0.206308    0.211447    0.095425    10.25000   -1.50000
PART 2
O5W   4    0.219368    0.205348    0.134456    10.25000    0.12272    0.12092 =
         0.12109   -0.00393   -0.00780    0.00655
H5WA  2    0.215109    0.205376    0.176452    10.25000   -1.50000
H5WB  2    0.188683    0.179880    0.120540    10.25000   -1.50000
PART 3
O6W   4    0.250831    0.166591    0.101901    10.08333    0.11675    0.11576 =
         0.11705   -0.00390   -0.01031    0.00368
H6WA  2    0.222275    0.149679    0.127889    10.08333   -1.50000
H6WB  2    0.281085    0.137483    0.098359    10.08333   -1.50000
PART 1
O7W   4    0.430108    0.083241    0.023720    10.08333    0.07210    0.07468 =
         0.07185    0.00165    0.00058    0.00111
H7WA  2    0.441839    0.043813    0.014482    10.08333   -1.50000
H7WB  2    0.413383    0.098261   -0.011965    10.08333   -1.50000
PART -3
O8W   4    0.751985    0.290998    0.045074    10.16666    0.12609    0.10305 =
         0.11692   -0.00853    0.00240   -0.00514
H8WA  2    0.792486    0.301205    0.050698    10.16666   -1.50000
H8WB  2    0.743423    0.263073    0.075451    10.16666   -1.50000
PART -4
O9W   4    0.353663    0.126071    0.048364    10.08333    0.07602    0.07492 =
         0.07302   -0.00361   -0.00308   -0.00055
H9WA  2    0.392722    0.110789    0.044218    10.08333   -1.50000
H9WB  2    0.352558    0.160236    0.023721    10.08333   -1.50000
REM H9WB 2 0.374668 0.163344 -0.018963 10.08333 -1.50000
HKLF 4
REM  mo_NCII143B2_298K_0m_a.res in P4(3)32
REM R1 =  0.0456 for    3621 Fo > 4sig(Fo)  and  0.0642 for all    4680 data
REM    274 parameters refined using    207 restraints
END
WGHT      0.0600      0.0000
REM Highest difference peak  0.541,  deepest hole -0.275,  1-sigma level  0.082
Q1    1   0.1250  0.1379  0.1121  10.50000  0.05    0.54
Q2    1   0.4878  0.3153  0.3069  11.00000  0.05    0.35
Q3    1   0.4512  0.3043  0.2740  11.00000  0.05    0.33
Q4    1   0.1250  0.1689  0.0811  10.50000  0.05    0.31
Q5    1   0.4399  0.2962  0.2660  11.00000  0.05    0.31
Q6    1   0.3173  0.1600  0.0418  11.00000  0.05    0.30
Q7    1   0.4194  0.3254  0.2789  11.00000  0.05    0.29
Q8    1   0.5050  0.3231  0.2965  11.00000  0.05    0.29
Q9    1   0.2822  0.1823  0.0730  11.00000  0.05    0.29
Q10   1   0.1553  0.1483  0.0909  11.00000  0.05    0.28
Q11   1   0.4749  0.3189  0.3179  11.00000  0.05    0.28
Q12   1   0.8750  0.3750  0.1250  10.16667  0.05    0.28
Q13   1   0.2910  0.1728  0.0642  11.00000  0.05    0.28
Q14   1   0.7202  0.2924  0.0390  11.00000  0.05    0.28
Q15   1   0.3753  0.3753  0.3753  10.33333  0.05    0.28
Q16   1   0.4741  0.4010  0.3568  11.00000  0.05    0.28
Q17   1   0.7962  0.2880  0.0520  11.00000  0.05    0.27
Q18   1   0.7205  0.3165  0.0097  11.00000  0.05    0.27
Q19   1   0.7462  0.3293  0.0638  11.00000  0.05    0.27
Q20   1   0.4104  0.1071  0.0455  11.00000  0.05    0.27
;
_shelx_res_checksum              83418
_shelx_hkl_file
;
   0  -1   0    0.00    0.01
   0   1   0    0.01    0.01
  -1   1   1   52.97    3.65
   1  -1  -1   56.16    3.66
   0  -2   0    0.00    0.03
   0   2   0    0.03    0.05
  -1  -2   0   55.32    3.60
   1   2   0   52.43    3.59
  -2  -1   0   55.29    3.59
   0  -2  -1   53.46    3.59
   0   2   1   53.64    3.59
   2   1   0   54.41    3.58
  -2  -1   1   81.15    5.02
  -1   2   1   77.59    5.02
   1  -2  -1   80.50    5.02
   2   1  -1   67.37    5.01
  -2  -2   0  116.99    7.83
   0   2   2  128.32    7.83
   2   2   0  112.90    7.82
  -2  -2  -1    8.93    0.69
  -2  -2   1   11.07    0.68
  -2   1   2    7.80    0.63
  -1   2   2    8.48    0.66
   1  -2  -2    8.80    0.66
   1   2   2    7.91    0.68
   2  -2  -1   10.73    0.65
   2   2  -1   10.96    0.67
   2   2   1    8.71    0.68
  -2   2   2  911.72   59.52
   2  -2  -2  899.92   59.50
   2   2   2  928.43   59.54
   0  -3   0    0.03    0.09
   0   3   0    0.06    0.09
   1   3   0   43.25    3.30
   3   0  -1   52.80    3.25
   3   1   0   54.24    3.29
   0   3   1   44.94    3.30
  -3  -1   0   52.40    3.29
   3   1  -1  386.29   26.02
   1   3   1  403.67   26.07
  -3  -1   1  414.90   26.03
  -1   3   1  382.38   26.05
   1  -3  -1  387.49   26.05
   3   1   1  422.39   26.06
   2   3   0   45.35    2.88
   0   2   3   42.18    2.87
   0   3   2   42.06    2.87
   3   2   0   43.56    2.86
  -3  -2   0   41.25    2.86
   1  -3  -2    4.41    0.41
   3   2   1    4.93    0.44
   1   3   2    4.40    0.44
  -1   2   3    3.93    0.41
  -3  -2   1    5.20    0.41
  -1   3   2    9.89    0.80
   2   3   1    9.36    0.82
  -3  -1   2   11.74    0.77
   3   2  -1   11.39    0.80
   2  -3  -1   11.06    0.79
  -3  -2   2  404.86   28.74
  -3   2   2  384.36   28.71
  -2   2   3  471.79   28.74
  -2   3   2  439.27   28.74
   2  -3  -2  458.30   28.74
   2   2   3  401.02   28.79
   2   3   2  468.94   28.79
   3  -2  -2  467.63   28.71
   3   2   2  476.50   28.79
   0   3   3   99.21    7.31
   3   3   0  123.24    7.33
  -1   3   3 1000.00   63.60
   1   3   3  979.25   63.60
   3   3  -1  972.51   63.55
   3   3   1  950.52   63.58
  -3   2   3  345.96   22.75
  -3   3   2  391.37   22.77
  -2   3   3  345.48   22.78
   2  -3  -3  317.39   22.77
   3  -3  -2  361.52   22.76
   3   3   2  334.36   22.82
  -3   3   3  567.27   36.62
   3  -3  -3  554.22   36.62
   3   3   3  566.03   36.70
   1   4   0   47.55    2.91
   4   0  -1   39.76    2.83
   4   1   0   39.32    2.87
   0   4   1   47.52    2.91
  -4  -1   0   41.26    2.87
  -4  -1   1   11.41    0.89
   4   1  -1   13.31    0.89
   1   4   1   14.03    0.95
  -4   0   2  296.22   18.62
   2   4   0  273.47   18.70
   4   2   0  296.38   18.68
   0   4   2  278.16   18.70
  -4  -2   1  366.29   23.10
   2   4  -1  351.19   23.11
   4   2   1  347.70   23.11
   1   4   2  349.23   23.13
  -4  -1   2  363.25   23.25
   2   4   1  348.50   23.31
   4   2  -1  355.50   23.28
  -1   4   2  358.72   23.30
  -4  -2   2   14.12    0.93
  -2   4   2   10.84    0.93
   4  -2  -2   13.08    0.87
   0   4   3    0.17    0.16
   0   3   4    0.88    0.22
   3   4   0    0.03    0.15
   4   3   0   -0.12    0.15
   4   3   1  125.84    8.25
  -1   3   4  122.60    8.23
   1   4   3  124.22    8.26
   3   4  -1  127.46    8.24
   4   3  -1  120.54    7.93
   1   3   4  121.88    7.97
  -1   4   3  117.49    7.94
   3   4   1  122.17    7.96
   4   3   2  127.20    7.99
   2   4   3  125.54    8.00
   4  -3  -2  108.69    7.90
  -4   2   3  111.59    7.88
  -2   3   4  133.04    7.95
   2   3   4  144.09    8.80
  -3   2   4  146.73    8.72
  -2   4   3  132.77    8.74
  -4  -2   3  118.22    8.72
   3  -4  -2  127.58    8.75
   3   4   2  129.17    8.78
  -4   3   3    1.20    0.16
  -3   3   4    0.85    0.18
  -3   4   3    0.37    0.17
   3   3   4    3.00    0.38
   3   4   3    1.33    0.30
   4  -3  -3    0.94    0.16
   4   3   3    2.18    0.34
   0   4   4   76.56    4.95
   4   4   0   71.46    4.93
  -1   4   4  161.48   10.59
   1   4   4  151.80   10.61
   4   4  -1  167.77   10.60
   4   4   1  163.87   10.61
  -4   2   4   62.55    4.22
  -2   4   4   63.33    4.28
   2   4   4   65.81    4.34
   4  -4  -2   65.46    4.25
   4   4   2   64.86    4.33
  -4   3   4  118.80    7.49
  -4   4   3  109.69    7.50
  -3   4   4  116.24    7.52
   3   4   4  106.16    7.59
   4  -4  -3  117.84    7.51
   4   3   4  113.56    7.60
   4   4   3  117.69    7.60
   4  -4  -4  174.54   11.17
   4   4   4  165.28   11.23
   1   5   0  261.03   16.25
   5   0  -1  233.92   16.17
   5   1   0  237.99   16.21
   0   5   1  260.30   16.25
   5   1   1    2.74    0.31
  -5  -1   1    2.14    0.24
   1   5   1    1.76    0.30
   5   1  -1    2.19    0.24
   5   0  -2   56.39    3.50
   5   2   0   47.64    3.55
   2   5   0   56.02    3.60
   0   5   2   52.96    3.59
   5   2   1  497.98   31.73
   1   5   2  474.93   31.74
   5   1  -2  485.50   31.67
  -5  -1   2  523.87   33.27
  -1   5   2  502.67   33.32
   5   2  -1  515.64   33.29
   2   5   1  500.38   33.34
  -2   5   2   19.23    1.53
   2   5   2   24.64    1.59
   5   2  -2   19.31    1.50
  -5  -2   2   25.70    1.55
   0   5   3    4.78    0.47
  -5   0   3    4.61    0.33
   3   5   0    6.45    0.51
   0   3   5    2.67    0.43
   5   3   0    4.57    0.44
   5   3   1  154.01    9.69
   3   5  -1  130.24    9.67
   1   5   3  142.65    9.69
  -1   3   5  161.48    9.68
  -5  -1   3  132.10    8.46
   1   3   5  134.35    8.56
   5   3  -1  125.75    8.50
   3   5   1  126.72    8.54
  -1   5   3  127.75    8.52
   5   3   2  341.69   22.59
   2   5   3  342.81   22.60
   5  -3  -2  371.68   22.50
  -2   3   5  324.86   22.55
  -2   5   3  366.64   22.88
   2   3   5  312.66   22.92
   5   3  -2  371.58   22.87
   5   2   3  345.08   22.93
  -5  -2   3  375.71   22.88
   3   5   2  329.03   22.91
  -3   5   3   63.34    4.97
   5  -3  -3   76.64    4.93
   5   3   3   81.39    5.06
   3   5   3   76.01    5.05
  -3   3   5   79.30    4.98
   4   5   0    0.57    0.23
   0   5   4    1.44    0.27
   5   4   0    1.27    0.27
   0   4   5    1.84    0.30
   5   4   1   90.66    6.37
   1   5   4   94.00    6.38
  -1   4   5  103.07    6.37
   4   5   1   91.07    5.81
  -1   5   4   90.16    5.79
   5   4  -1   80.08    5.77
   5  -4  -2   18.19    1.33
   2   5   4   19.03    1.45
  -2   4   5   20.63    1.40
   5   4   2   20.29    1.45
   2   4   5   20.53    1.52
  -4   2   5   20.67    1.40
   5   4  -2   17.47    1.44
  -2   5   4   21.27    1.46
   4   5   2   22.43    1.52
  -4   5   3   18.28    1.34
  -5   3   4   17.85    1.29
   4   3   5   20.67    1.50
   5  -4  -3   18.87    1.32
  -3   4   5   21.21    1.37
   3   5   4   20.20    1.46
  -3   5   4   19.70    1.43
  -4   3   5   20.29    1.40
   3   4   5   20.77    1.53
   4   5   3   20.46    1.52
  -5   4   4  530.79   37.15
  -4   4   5  576.10   37.18
  -4   5   4  565.54   37.19
   4   4   5  591.85   37.30
   4   5   4  576.37   37.29
   5  -4  -4  569.94   37.16
   5   4   4  585.88   37.29
   0   5   5  117.59    7.83
   5   5   0  118.36    7.83
  -1   5   5    0.40    0.22
   1   5   5    0.90    0.27
   5   5  -1    0.08    0.20
   5   5   1    0.22    0.22
  -5   2   5  170.66   11.20
  -2   5   5  177.48   11.29
   2   5   5  169.83   11.34
   5   5  -2  163.72   11.29
   5   5   2  176.21   11.33
  -5   3   5  447.43   28.97
  -3   5   5  447.30   29.03
   3   5   5  433.23   29.11
   5   3   5  448.24   29.14
   5   5   3  448.35   29.11
  -5   4   5    5.60    0.46
  -5   5   4    4.66    0.46
  -4   5   5    5.16    0.49
   4   5   5    4.54    0.61
   5   4   5    5.46    0.63
   5   5   4    6.89    0.68
  -5   5   5  514.76   33.05
   5   5   5  499.13   33.18
   6   0  -1   28.46    1.84
   0   6   1   22.64    1.90
   6   1   0   29.16    1.87
  -1   6   1  907.25   55.69
   6   1   1  788.47   55.67
   6   1  -1  868.82   55.63
   0   6   2   33.53    2.33
   6   2   0   29.70    2.29
   2   6   0   37.41    2.36
   6   0  -2   34.03    2.23
   1   6   2  123.16    8.04
   6   2   1  120.72    8.01
   6   1  -2  120.33    7.95
  -1   6   2  131.46    8.63
  -6  -1   2  130.08    8.56
   6   2  -1  132.17    8.58
   2   6   1  128.02    8.64
   6  -1  -2  131.36    8.52
   6   2   2  210.16   14.52
   6   2  -2  231.31   14.47
   2   6   2  219.52   14.54
  -2   6   2  223.95   14.51
   3   6   0    3.68    0.41
   6   3   0    1.77    0.32
   0   6   3    2.44    0.37
   1   6   3  238.40   15.29
   3   6  -1  260.12   15.29
  -1   3   6  205.75   15.26
   6   3   1  227.42   15.26
   3   6   1  246.33   16.22
   6   3  -1  246.41   16.16
  -1   6   3  250.59   16.20
  -6  -1   3  245.05   16.11
  -2   3   6   43.91    3.34
   6   3   2   54.56    3.40
   2   6   3   50.53    3.40
  -2   6   3   51.44    3.52
   6   3  -2   54.17    3.49
   3   6   2   49.57    3.56
   6   2   3   52.28    3.57
   3   6   3  122.07    8.13
   6   3   3  118.37    8.12
  -3   3   6  127.21    8.06
  -3   6   3  120.06    8.07
   6  -3  -3  122.54    7.98
  -6   0   4   52.02    3.23
   6   4   0   48.94    3.34
   0   4   6   48.35    3.36
   4   6   0   48.67    3.36
   0   6   4   46.61    3.35
   1   6   4   30.59    2.14
   6   4   1   30.51    2.12
   4   6  -1   28.17    2.11
  -1   4   6   30.76    2.12
   4   6   1   24.03    1.85
  -1   6   4   25.70    1.84
  -6  -1   4   27.46    1.74
   6   4  -1   24.55    1.81
   1   4   6   26.22    1.88
   2   6   4  209.65   14.16
  -2   4   6  212.19   14.11
   6   4   2  223.54   14.16
   2   4   6  213.57   14.06
   6   4  -2  214.93   13.99
  -2   6   4  216.35   14.00
   4   6   2  208.09   14.04
   6  -4  -3  165.67   10.05
   3   6   4  148.38   10.17
  -3   4   6  151.99   10.10
   6   4   3  146.88   10.17
   6   3   4  145.41   10.04
   4   6   3  154.84   10.05
   3   4   6  139.80   10.04
  -4   3   6  150.16    9.94
  -3   6   4  166.70    9.99
   4   6   4    0.31    0.29
   6  -4  -4    0.76    0.15
  -4   4   6    0.75    0.21
  -4   6   4    0.16    0.18
   4   4   6    0.90    0.32
   6   4   4    0.62    0.32
   0   6   5   63.77    4.34
   6   5   0   64.98    4.33
   0   5   6   60.41    4.33
   5   6   0   66.33    4.35
   1   6   5   85.58    5.87
  -1   5   6   86.17    5.85
   5   6  -1   92.87    5.86
   6   5   1   85.08    5.86
   6   5  -1   85.39    5.53
   1   5   6   80.08    5.56
  -1   6   5   81.33    5.53
   5   6   1   83.62    5.56
   2   6   5  181.07   12.65
   6   5   2  190.44   12.65
  -2   5   6  184.09   12.60
   5   6  -2  211.09   12.63
   5   6   2  179.04   11.92
   2   5   6  163.62   11.91
   6   5  -2  194.63   11.88
  -2   6   5  183.57   11.87
   6   5   3   82.91    5.30
  -6   3   5   68.89    5.11
  -3   5   6   79.64    5.21
   3   6   5   84.01    5.31
   5   6   3   82.34    5.95
   6   3   5  102.10    6.03
  -3   6   5   81.46    5.88
  -5   3   6   89.71    5.83
   3   5   6   88.37    5.98
  -4   5   6    4.30    0.47
   6   5   4    4.20    0.58
   4   6   5    4.55    0.62
   5   4   6    3.57    0.57
  -6   4   5    5.13    0.39
  -5   4   6    4.93    0.44
  -4   6   5    4.85    0.48
   5   6   4    3.78    0.58
   6   4   5    3.15    0.53
   4   5   6    5.10    0.65
  -6   5   5    2.91    0.35
  -5   5   6    4.15    0.41
  -5   6   5    3.73    0.41
   5   5   6    4.87    0.63
   5   6   5    4.38    0.58
   6   5   5    3.47    0.53
   0   6   6   61.03    4.35
   6   6   0   67.16    4.36
  -1   6   6  157.38   10.35
   1   6   6  161.41   10.38
   6   6  -1  146.37   10.33
   6   6   1  161.46   10.37
  -6   2   6   33.43    2.51
  -2   6   6   41.73    2.65
   2   6   6   36.32    2.68
   6   6   2   43.31    2.71
  -6   3   6  535.61   34.22
  -3   6   6  517.98   34.30
   3   6   6  524.31   34.39
   6   6   3  524.38   34.38
  -6   4   6    1.30    0.20
  -4   6   6    1.04    0.26
   4   6   6    0.31    0.32
   6   4   6    0.66    0.38
   6   6   4    0.57    0.36
  -5   6   6    0.39    0.22
   5   6   6    1.15    0.38
   6   5   6    1.72    0.41
   6   6   5    1.62    0.41
  -6   6   6   64.66    4.32
   1   7   1  166.69   10.61
   7   1   1  152.00   10.56
   7   1  -1  163.02   10.52
   7   2   0   29.29    2.30
   2   7   0   40.23    2.40
   7   0  -2   33.29    2.24
   7   1  -2  173.21   11.77
   1   7   2  165.82   11.86
   7   2   1  200.91   11.86
   7  -1  -2  216.47   13.15
   7   2  -1  201.66   13.21
   2   7   1  182.36   13.27
  -1   7   2  170.42   13.24
  -7  -1   2  233.62   13.19
   7   2  -2  148.82    9.88
   2   7   2  144.53    9.97
  -2   7   2  145.01    9.94
   7   2   2  165.13    9.97
   3   7   0   87.06    5.93
   0   7   3   92.54    5.93
   7   3   0   86.19    5.89
   1   7   3  166.15   11.19
   3   7  -1  189.71   11.20
   7   3   1  153.12   11.15
  -7  -1   3  147.36   10.08
   7   3  -1  154.79   10.14
  -1   7   3  159.18   10.18
   3   7   1  156.07   10.21
   7   3   2  317.62   21.12
   2   7   3  327.07   21.14
   7   3  -2  317.86   20.49
   3   7   2  308.78   20.56
   7   2   3  301.65   20.56
  -2   7   3  325.32   20.54
   7   3   3   16.72    1.41
  -3   3   7   14.91    1.34
   7  -3  -3   21.33    1.24
   0   4   7    3.68    0.52
   0   7   4    4.14    0.50
   4   7   0    4.34    0.53
   7   4   0    3.83    0.47
  -1   4   7  101.24    7.40
   7   4   1  108.56    7.40
   4   7  -1  125.04    7.44
   1   7   4  110.87    7.43
   1   4   7   98.64    7.70
  -1   7   4  120.81    7.70
   4   7   1  123.80    7.73
   7   4  -1  117.61    7.67
  -7  -1   4  117.56    7.59
   2   7   4  170.85   11.64
   7   4   2  181.12   11.64
  -2   4   7  176.54   11.60
   4   7   2  174.90   12.44
   7   4  -2  185.22   12.39
   2   4   7  205.49   12.50
  -2   7   4  189.52   12.42
   3   7   4   27.10    2.07
   7  -4  -3   30.68    1.91
   7   4   3   26.88    2.06
  -3   4   7   27.29    1.99
   4   7   3   21.67    1.61
  -4   3   7   20.06    1.51
   7   3   4   20.86    1.63
   3   4   7   19.51    1.64
  -3   7   4   23.89    1.56
   4   7   4    5.07    0.63
   4   4   7    6.16    0.68
   7  -4  -4    4.34    0.37
   7   4   4    4.50    0.58
  -4   4   7    4.11    0.47
   5   7   0   50.46    3.46
  -7   0   5   52.48    3.29
   0   5   7   47.07    3.45
   7   5   0   48.46    3.43
   0   7   5   50.83    3.45
   5   7  -1  200.35   12.42
  -1   5   7  185.99   12.40
   7   5   1  182.46   12.40
   1   7   5  183.36   12.42
  -1   7   5  196.88   13.19
   7   5  -1  197.86   13.17
  -7  -1   5  218.60   13.08
   5   7   1  197.14   13.21
   1   5   7  188.74   13.21
   7   5   2  109.29    7.26
  -2   5   7  108.19    7.22
   2   7   5  108.12    7.27
  -2   7   5  105.36    7.09
   5   7   2  105.73    7.14
   7   5  -2   96.82    7.06
   2   5   7  119.82    7.18
  -3   5   7   42.84    2.95
   7   5   3   43.22    3.03
   3   7   5   42.94    3.04
   7   3   5   35.58    2.46
  -5   3   7   33.32    2.28
   3   5   7   34.21    2.45
   5   7   3   32.99    2.42
  -3   7   5   32.09    2.34
   4   7   5    7.82    0.80
  -4   5   7    7.76    0.68
   5   4   7    7.52    0.88
   7  -5  -4    7.49    0.60
   7   5   4    8.25    0.88
   7   4   5    3.48    0.56
   5   7   4    4.92    0.62
  -5   4   7    4.21    0.44
   4   5   7    3.75    0.61
   7   5   5  117.68    7.71
  -5   7   5  120.92    7.58
   5   7   5  109.74    7.69
   7  -5  -5  108.22    7.52
  -5   5   7  120.87    7.57
   5   5   7  109.29    7.71
   0   7   6  132.04    8.73
   6   7   0  131.29    8.73
   0   6   7  130.07    8.74
   7   6   0  131.50    8.72
  -1   6   7   56.09    4.06
   7   6   1   60.03    4.09
   6   7  -1   63.57    4.09
   1   7   6   58.77    4.10
   7   6  -1   59.20    4.06
   1   6   7   57.91    4.10
  -1   7   6   61.43    4.08
   6   7   1   59.60    4.09
   7   6   2   95.02    6.23
   2   7   6   92.79    6.23
  -2   6   7   91.97    6.18
   6   7  -2   89.55    6.18
  -2   7   6   98.25    6.22
   6   7   2   99.84    6.28
  -6   2   7   78.21    6.10
   7   6  -2   95.57    6.20
   2   6   7   95.42    6.28
   7   6   3   49.49    3.38
  -3   6   7   48.13    3.30
   3   7   6   46.64    3.38
  -6   3   7   46.65    3.13
   3   6   7   45.01    3.31
   6   7   3   47.54    3.31
  -3   7   6   48.29    3.23
  -4   6   7   23.71    1.83
   6   4   7   32.77    2.07
   7   6   4   24.44    1.95
   4   7   6   25.04    1.97
   6   7   4   22.14    1.65
   4   6   7   25.11    1.71
  -6   4   7   20.87    1.44
  -4   7   6   17.01    1.50
  -7   5   6    9.99    0.71
   5   7   6    9.02    0.94
   6   5   7    9.20    1.00
   7   6   5    8.54    0.97
  -5   6   7    9.68    0.80
  -6   5   7   14.75    1.05
  -5   7   6   14.98    1.10
   5   6   7   13.58    1.27
   6   7   5   13.40    1.25
   7   5   6   12.99    1.27
  -6   6   7  452.36   29.20
  -6   7   6  441.24   29.20
   6   6   7  434.13   29.37
   6   7   6  451.13   29.37
   7   6   6  458.38   29.38
   0   7   7  458.92   29.10
   7   7   0  429.83   29.08
  -1   7   7    1.05    0.34
   1   7   7    1.49    0.41
   7   7  -1    1.32    0.35
   7   7   1    1.06    0.37
  -7   2   7    8.26    0.67
  -2   7   7    9.82    0.85
   2   7   7    8.74    0.92
   7   7  -2   11.60    0.87
   7   7   2   10.15    0.92
  -7   3   7   77.08    4.98
  -3   7   7   72.98    5.09
   3   7   7   78.10    5.20
   7   7   3   74.50    5.17
  -7   4   7  322.49   20.95
  -4   7   7  322.14   21.05
   4   7   7  321.94   21.16
   7   4   7  308.48   21.17
   7   7   4  331.30   21.16
   5   7   7    2.84    0.59
   7   5   7    3.35    0.64
   7   7   5    2.99    0.57
   6   7   7    1.87    0.56
   7   6   7    1.43    0.49
   7   7   6    3.08    0.58
  -7   7   7   40.59    2.77
   8   0   0  577.56   37.65
   8   0  -1    3.48    0.36
   8   1   0    3.83    0.41
   0   8   1    2.03    0.42
   8   1   1    1.18    0.30
   8   1  -1    2.61    0.31
   8   0  -2  231.46   14.76
   2   8   0  208.18   14.87
   8   2   0  235.74   14.83
   0   8   2  228.00   14.88
   1   8   2  140.18    9.09
   8   1  -2  138.46    8.97
   8   2   1  131.97    9.04
  -1   8   2  149.40    9.85
   2   8   1  148.47    9.88
   8  -1  -2  147.74    9.73
   8   2  -1  150.15    9.79
   8   2  -2    3.39    0.37
   2   8   2    2.95    0.46
   8   2   2    4.35    0.50
   0   8   3   83.88    5.40
   3   8   0   77.77    5.40
   8   0  -3   78.78    5.24
   8   1  -3   10.14    0.67
   1   8   3    8.80    0.83
   8   3   1    6.68    0.77
   3   8   1    9.65    0.88
  -8  -1   3    9.00    0.71
   8   3  -1    9.84    0.79
   2   8   3   96.13    6.33
   8   2  -3  101.34    6.21
   8   3   2   83.86    6.29
  -2   8   3  113.11    6.80
   8   2   3   84.99    6.77
   3   8   2   99.04    6.81
   8   3  -2  108.52    6.73
  -3   8   3    4.69    0.54
   3   8   3    6.80    0.69
   8   3  -3    4.22    0.46
   0   8   4    8.79    0.85
   8   4   0    9.44    0.82
   4   8   0    7.20    0.84
   0   4   8   12.19    0.94
   8   4   1   57.97    3.92
  -1   4   8   55.07    3.92
   4   8  -1   57.17    3.94
   1   8   4   59.25    3.95
  -1   8   4   62.80    4.12
  -8  -1   4   57.94    3.98
   4   8   1   60.11    4.13
   8   4  -1   61.40    4.07
   1   4   8   59.45    4.16
   2   8   4  384.58   24.37
   8   4   2  366.32   24.34
  -2   4   8  363.89   24.32
  -2   8   4  398.91   24.44
   4   8   2  387.95   24.48
   2   4   8  313.67   24.47
   8   4  -2  391.11   24.39
   8  -4  -3   51.69    3.27
   3   8   4   48.21    3.45
  -3   4   8   49.75    3.39
   8   4   3   47.20    3.44
   8   4  -3   52.85    3.26
   3   4   8   49.35    3.43
  -3   8   4   52.81    3.31
  -4   3   8   41.31    3.26
   4   8   3   46.73    3.37
   8   3   4   45.06    3.35
   4   8   4  134.82    9.01
  -4   8   4  153.88    8.94
   4   4   8  128.90    9.05
   8  -4  -4  130.09    8.80
  -4   4   8  132.56    8.90
   8   4   4  128.57    8.99
   0   5   8  354.67   24.91
   0   8   5  389.07   24.92
   8   5   0  386.08   24.90
   5   8   0  390.98   24.93
   8   5   1   44.42    3.24
  -1   5   8   46.31    3.26
   1   8   5   46.63    3.27
   5   8  -1   50.05    3.27
   8   5  -1   46.87    3.21
   1   5   8   47.12    3.28
   5   8   1   47.82    3.27
  -8  -1   5   47.57    3.10
  -1   8   5   43.56    3.22
  -2   5   8   58.03    3.57
   2   8   5   47.60    3.58
   8   5   2   49.32    3.57
  -2   8   5   38.40    2.66
   5   8   2   41.59    2.72
   8   5  -2   34.09    2.61
   8   5   3  103.33    6.85
   3   8   5  100.84    6.86
   8  -5  -3   99.11    6.70
  -3   5   8  103.75    6.78
  -5   3   8  106.13    6.76
  -3   8   5   98.60    6.80
   8   3   5  104.49    6.90
   8   5  -3   94.43    6.77
   5   8   3  103.96    6.89
   3   5   8  106.13    6.91
  -4   5   8  113.64    7.24
   4   8   5  105.79    7.34
   8  -5  -4  107.73    7.15
   8   5   4  110.25    7.34
   5   4   8  107.03    7.40
   5   8   4  103.72    6.98
  -4   8   5   91.96    6.87
   4   5   8  106.32    7.01
   8   4   5  110.52    7.00
  -5   4   8  105.68    6.85
   5   8   5   40.89    3.02
   8  -5  -5   37.70    2.78
  -5   8   5   50.34    2.91
  -5   5   8   42.43    2.87
   8   5   5   42.63    3.03
   5   5   8   37.99    3.02
   8   6   0  136.69    9.35
  -8   0   6  142.46    9.20
   6   8   0  137.97    9.38
   0   8   6  143.53    9.38
   0   6   8  143.28    9.39
   8   6   1    9.00    0.89
  -1   6   8    9.87    0.90
   1   8   6    9.58    0.93
   6   8  -1   10.46    0.91
   6   8   1    8.21    0.86
   1   6   8    7.94    0.89
  -1   8   6    8.89    0.83
  -8  -1   6    9.11    0.66
   8   6  -1    7.86    0.80
   2   8   6  129.05    8.50
  -2   6   8  127.09    8.44
   8   6   2  124.48    8.47
   6   8   2  125.60    8.41
   8   6  -2  128.37    8.35
   2   6   8  123.77    8.42
  -2   8   6  124.52    8.36
   3   8   6    5.18    0.71
   8   6   3    5.29    0.66
  -3   6   8    5.08    0.59
   3   6   8    1.70    0.46
  -3   8   6    3.14    0.43
   8   3   6    1.46    0.51
  -6   3   8    2.34    0.31
   6   8   3    2.71    0.51
   6   4   8  121.22    7.99
   8   6   4  114.90    7.91
   4   8   6  118.21    7.93
  -4   6   8  116.65    7.81
  -6   4   8  108.84    7.44
   4   6   8  113.99    7.64
  -4   8   6  116.19    7.51
   8   4   6  112.41    7.63
   6   8   4  113.55    7.62
   6   5   8   50.46    3.70
   8   6   5   52.36    3.67
  -5   6   8   51.03    3.52
   5   8   6   53.41    3.68
   5   6   8   54.09    3.67
  -6   5   8   48.85    3.44
  -5   8   6   49.49    3.49
   8   5   6   54.53    3.66
   6   8   5   50.58    3.63
   6   8   6   84.83    5.86
   8   6   6   85.92    5.87
  -6   8   6   85.46    5.70
  -6   6   8   92.52    5.70
   6   6   8   76.17    5.85
   7   8   0   39.60    2.55
   0   7   8   28.83    2.49
   8   7   0   38.59    2.52
   0   8   7   33.35    2.52
   8   7   1   14.46    1.24
   1   8   7   13.66    1.26
   7   8  -1   17.08    1.26
  -1   7   8   14.81    1.24
   7   8   1   13.55    1.12
  -1   8   7   12.66    1.08
   8   7  -1   13.26    1.07
   1   7   8   10.17    1.09
   2   8   7   16.52    1.40
   7   8  -2   17.89    1.35
   8   7   2   16.65    1.38
  -2   7   8   15.96    1.33
  -2   8   7   12.42    1.05
   2   7   8   10.26    1.07
   8   7  -2   13.16    1.03
  -7   2   8   11.41    0.88
   7   8   2   13.47    1.11
  -3   7   8   49.00    3.34
   8   7   3   47.20    3.41
   3   8   7   48.64    3.43
  -3   8   7   45.34    3.25
   7   8   3   46.57    3.33
  -7   3   8   47.57    3.13
   3   7   8   48.01    3.36
  -4   7   8   67.38    4.62
   7   4   8   69.65    4.81
   4   8   7   69.03    4.76
   8   7   4   67.70    4.74
   7   8   4   67.99    4.88
   8   4   7   70.43    4.93
   4   7   8   75.40    4.94
  -7   4   8   71.69    4.69
  -4   8   7   68.73    4.78
   5   8   7   41.67    3.08
   8   7   5   42.19    3.07
  -5   7   8   43.06    2.92
   7   5   8   41.50    3.09
   8   5   7   40.71    3.14
  -5   8   7   42.87    2.98
   5   7   8   42.97    3.16
   7   8   5   44.51    3.15
  -7   5   8   44.35    2.91
  -6   7   8  114.20    7.50
   7   6   8  113.59    7.71
   8   7   6  112.13    7.68
   6   8   7  112.60    7.69
  -7   6   8  116.04    7.68
  -6   8   7  115.30    7.72
   8   6   7  120.51    7.92
   6   7   8  116.55    7.91
   7   8   6  113.84    7.88
  -7   7   8   24.17    1.65
  -7   8   7   23.30    1.65
   7   7   8   20.77    1.89
   7   8   7   22.53    1.89
   8   7   7   21.93    1.88
   0   8   8   94.28    5.90
   8   8   0   79.38    5.85
  -1   8   8   72.20    4.88
   1   8   8   72.11    4.91
   8   8  -1   71.15    4.87
   8   8   1   69.58    4.88
  -8   2   8    2.53    0.26
  -2   8   8    2.68    0.48
   2   8   8    2.53    0.53
   8   8  -2    2.89    0.46
   8   8   2    1.98    0.48
  -8   3   8  109.62    7.09
  -3   8   8  108.18    7.24
   3   8   8  104.78    7.33
   8   8   3  110.04    7.33
  -8   4   8    0.46    0.15
  -4   8   8    0.02    0.27
   4   8   8   -0.07    0.39
   8   4   8    0.23    0.47
   8   8   4    0.38    0.40
  -8   5   8   96.99    6.26
  -5   8   8   95.61    6.37
   5   8   8   96.66    6.53
   8   5   8   92.37    6.54
   8   8   5   93.28    6.51
  -8   6   8   12.27    0.82
  -6   8   8    9.65    0.88
   6   8   8    8.46    1.08
   8   6   8    8.66    1.09
   8   8   6   11.14    1.14
   7   8   8    0.35    0.41
   8   7   8    0.39    0.48
   8   8   7    0.69    0.45
   8   8   8   78.47    5.51
   9   0   0    0.12    0.21
   9   0  -1  251.51   16.42
   9   1   0  253.22   16.45
   0   9   1  248.38   16.51
   9   0  -2   30.67    2.12
   9   2   0   32.29    2.20
   1   9   2  141.38    9.71
   9   1  -2  147.88    9.58
   9   2   1  148.59    9.66
   9   1   2  153.96    9.92
   9   2  -1  150.35    9.85
  -1   9   2  145.42    9.92
   2   9   1  141.54    9.93
   9  -1  -2  155.76    9.79
   9   2  -2    1.69    0.28
   2   9   2    0.87    0.36
   9   2   2    4.39    0.49
   0   9   3    3.61    0.51
   9   0  -3    3.40    0.31
   9   3   0    3.59    0.45
   3   9   0    2.30    0.47
   1   9   3    8.37    0.84
   9   1  -3    8.48    0.68
   9   3   1   11.15    0.85
   9   3  -1    6.00    0.56
  -1   9   3    5.06    0.62
   3   9   1    5.08    0.65
   9   2  -3   95.94    6.24
   9   3   2   95.66    6.35
   2   9   3   91.67    6.37
   9   2   3   88.81    6.09
   9   3  -2   90.34    6.00
  -2   9   3   92.99    6.07
   3   9   2   88.98    6.10
   9   3   3   20.30    1.53
   3   9   3   18.14    1.52
   9   3  -3   19.83    1.40
   4   9   0    0.47    0.30
   0   9   4    0.36    0.31
   9   4   0    0.42    0.26
   1   9   4   95.50    6.16
   4   9  -1  101.45    6.16
   9   4   1   89.17    6.11
  -1   4   9   78.65    6.13
   4   9   1  108.91    7.06
  -1   9   4  114.55    7.04
   9   4  -1  104.45    6.97
  -9  -1   4   94.00    6.88
   9   4   2   44.17    3.11
  -2   4   9   44.50    3.11
   9   4  -2   33.47    2.34
  -2   9   4   33.30    2.41
   4   9   2   34.36    2.45
  -3   4   9  125.54    9.01
   9   4   3  128.18    9.05
   3   9   4  141.18    9.09
   9  -4  -3  146.93    8.88
   4   9   3  141.68    9.98
   9   4  -3  161.44    9.88
  -3   9   4  159.55    9.94
   9   3   4  135.42    9.96
  -4   4   9  124.95    7.94
   4   9   4  126.76    8.06
  -4   9   4  106.39    7.93
   9   4   4  121.40    8.03
   9   5   0  309.70   20.26
   5   9   0  314.50   20.31
   0   9   5  309.34   20.29
   0   5   9  301.62   20.30
  -1   5   9   29.92    1.95
   1   9   5   25.05    1.93
   9   5   1   26.78    1.91
   5   9  -1   21.48    1.89
   1   5   9   28.66    1.89
  -1   9   5   22.68    1.78
  -9  -1   5   25.68    1.62
   5   9   1   20.09    1.78
   9   5  -1   21.92    1.74
  -2   5   9   77.41    5.22
   9   5   2   75.35    5.23
   2   9   5   78.29    5.27
  -2   9   5   94.21    6.19
   2   5   9   90.64    6.26
   9   5  -2   91.77    6.15
   5   9   2   91.32    6.24
   9   5   3   47.16    3.22
   9  -5  -3   43.28    3.03
   3   9   5   45.26    3.24
  -3   5   9   47.33    3.16
   9   3   5   45.28    3.15
  -3   9   5   44.48    3.06
   9   5  -3   40.75    3.00
   5   9   3   46.55    3.15
  -5   3   9   41.87    3.01
   3   5   9   45.99    3.17
   9   5   4  139.67    9.61
   4   9   5  144.77    9.62
  -4   5   9  142.51    9.52
   9  -5  -4  147.56    9.41
   5   9   4  150.42    9.98
   9   4   5  142.44    9.97
  -4   9   5  165.63    9.90
  -5   4   9  147.92    9.84
   4   5   9  138.27    9.99
   5   9   5   68.11    4.98
   5   5   9   77.92    5.07
   9   5   5   71.79    5.00
  -5   5   9   71.96    4.85
   0   9   6   69.24    4.71
   6   9   0   60.16    4.68
   9   6   0   68.41    4.67
   0   6   9   77.44    4.75
   1   9   6    9.13    0.91
   9   6   1    7.96    0.85
  -1   6   9    8.12    0.88
   6   9  -1   10.22    0.87
  -1   9   6    9.94    0.93
   6   9   1   12.37    0.99
  -9  -1   6    9.31    0.73
   1   6   9    9.13    0.98
   9   6  -1   10.83    0.92
   9   6   2   47.97    3.51
   2   9   6   50.09    3.55
  -2   6   9   52.62    3.51
   9   6  -2   43.26    3.24
   6   9   2   48.22    3.33
   2   6   9   52.05    3.39
  -2   9   6   46.09    3.28
  -3   6   9    1.28    0.35
   9   6   3    0.69    0.39
   3   9   6    0.92    0.41
  -3   9   6    0.65    0.31
   9   6  -3    0.61    0.28
   3   6   9    1.77    0.49
   9   3   6    1.29    0.50
   6   9   3    1.78    0.45
  -6   3   9    1.72    0.30
   9   6   4  119.52    7.93
  -4   6   9  116.89    7.83
   4   9   6  116.58    7.94
  -4   9   6  107.83    7.37
   9   4   6  108.83    7.49
   6   9   4  113.05    7.48
  -6   4   9  108.79    7.31
   4   6   9  115.04    7.52
   6   5   9   73.15    5.26
   9  -6  -5   76.29    5.00
  -5   6   9   74.47    5.08
   5   9   6   77.29    5.23
   9   6   5   76.51    5.23
  -5   9   6   78.03    4.91
   9   5   6   69.64    5.03
   5   6   9   69.28    5.05
  -6   5   9   73.70    4.86
   6   9   5   70.52    5.03
   9   6   6   91.93    6.13
  -6   6   9   85.76    5.92
   6   6   9   92.86    6.15
   6   9   6   86.26    6.11
   7   9   0    2.95    0.52
   0   9   7    1.73    0.43
  -9   0   7    2.40    0.24
   9   7   0    2.35    0.46
   0   7   9    1.28    0.44
   9   7   1  137.65    9.03
   7   9  -1  129.35    9.02
  -1   7   9  136.93    9.03
   1   9   7  136.66    9.05
  -9  -1   7  124.16    8.43
  -1   9   7  129.44    8.54
   9   7  -1  122.80    8.51
   1   7   9  137.74    8.59
   7   9   1  124.83    8.55
   2   9   7   63.86    4.53
  -2   7   9   61.24    4.47
   9   7   2   64.72    4.51
   7   9  -2   71.46    4.50
   2   7   9   61.96    4.76
  -2   9   7   70.66    4.72
   9   7  -2   72.21    4.71
   7   9   2   70.60    4.77
  -3   7   9   52.38    3.52
   3   9   7   48.47    3.59
   9   7   3   51.06    3.59
  -3   9   7   48.20    3.51
  -7   3   9   51.72    3.41
   3   7   9   52.95    3.64
   7   9   3   50.12    3.61
   4   9   7  194.82   12.51
   9   7   4  184.31   12.48
  -4   7   9  183.95   12.38
  -7   4   9  196.99   12.72
   7   9   4  187.74   12.91
   4   7   9  195.40   12.95
  -4   9   7  191.66   12.82
   9   4   7  198.95   12.96
  -5   7   9   33.02    2.40
   9   7   5   35.36    2.58
   7   5   9   33.56    2.60
   5   9   7   34.74    2.59
   5   7   9   32.41    2.50
  -7   5   9   32.53    2.24
   7   9   5   32.56    2.47
  -5   9   7   31.70    2.32
   9   5   7   33.61    2.51
   9   7   6   47.71    3.46
   7   6   9   50.80    3.52
   6   9   7   45.58    3.45
  -6   7   9   47.04    3.27
   9   6   7   44.21    3.04
  -7   6   9   40.27    2.76
   7   9   6   40.97    2.99
  -6   9   7   37.18    2.79
   6   7   9   40.72    3.02
   9   7   7    0.80    0.50
  -7   7   9    0.93    0.29
   7   7   9    0.72    0.52
   7   9   7    0.85    0.47
   0   8   9   71.00    5.35
   9   8   0   79.35    5.35
   0   9   8   73.46    5.35
  -9   0   8   87.27    5.16
   8   9   0   77.13    5.36
   8   9  -1   34.96    2.51
   1   9   8   33.99    2.54
   9   8   1   33.40    2.51
  -1   8   9   34.93    2.51
   1   8   9   41.01    2.98
   9   8  -1   40.57    2.93
   8   9   1   43.10    2.98
  -1   9   8   40.18    2.94
   9   8   2   14.27    1.23
  -2   8   9   13.82    1.17
   8   9  -2   11.14    1.13
   2   9   8   15.06    1.27
   2   8   9   15.63    1.29
   8   9   2   13.70    1.23
   9   8  -2   12.19    1.15
  -2   9   8   12.66    1.17
  -8   2   9   14.11    1.00
   9   8   3   37.76    2.81
  -3   8   9   38.57    2.73
   3   9   8   38.90    2.85
  -8   3   9   34.42    2.30
   3   8   9   35.68    2.58
  -3   9   8   32.30    2.45
   8   9   3   33.94    2.55
   9   8   4  102.06    6.71
  -4   8   9   95.05    6.58
   8   4   9   97.41    6.77
   4   9   8   98.15    6.70
  -4   9   8   92.58    6.06
   4   8   9   88.09    6.18
   9   4   8   89.44    6.22
   8   9   4   91.00    6.18
  -8   4   9   88.73    5.93
   9   8   5    2.22    0.55
  -5   8   9    2.71    0.46
   8   5   9    3.48    0.72
   5   9   8    3.44    0.68
   8   9   5    1.76    0.54
   9   5   8    2.21    0.62
   5   8   9    2.38    0.60
  -5   9   8    1.63    0.38
  -8   5   9    1.97    0.28
   8   6   9   22.89    2.16
   9   8   6   25.13    2.11
   6   9   8   29.20    2.19
  -6   8   9   28.98    1.95
   8   9   6   27.25    2.30
   6   8   9   25.35    2.30
   9   6   8   25.84    2.32
  -6   9   8   33.86    2.14
  -8   6   9   31.02    2.04
   7   9   8  226.65   14.89
   9   8   7  217.59   14.87
   8   7   9  231.48   14.91
  -7   8   9  218.09   14.66
  -8   7   9  235.28   15.73
  -7   9   8  224.49   15.76
   9   7   8  251.10   16.01
   7   8   9  248.82   16.01
   8   9   7  244.43   15.98
  -8   8   9   36.65    2.27
   8   8   9   28.08    2.53
   8   9   8   30.75    2.51
   9   8   8   29.55    2.49
   0   9   9   16.10    1.45
   9   9   0   17.86    1.44
  -1   9   9    0.86    0.39
   1   9   9    1.21    0.46
   9   9  -1    0.60    0.38
   9   9   1    0.75    0.41
  -9   2   9    2.77    0.26
  -2   9   9    2.75    0.52
   2   9   9    2.43    0.54
   9   9  -2    1.71    0.46
   9   9   2    2.09    0.55
  -4   9   9    0.30    0.32
   4   9   9    0.36    0.46
   9   4   9    0.09    0.53
   9   9   4   -0.14    0.36
  -9   5   9   33.75    2.28
  -5   9   9   33.63    2.44
   5   9   9   35.66    2.65
   9   5   9   33.83    2.67
   9   9   5   34.20    2.61
  -9   6   9    9.44    0.70
  -6   9   9    9.55    0.86
   6   9   9    7.58    1.01
   9   6   9    7.79    1.04
  -7   9   9   16.62    1.22
   7   9   9   13.09    1.41
   9   7   9   13.39    1.48
   9   9   7   14.91    1.42
  -8   9   9   54.07    4.11
   8   9   9   65.12    4.44
   9   8   9   62.03    4.42
   9   9   8   67.39    4.43
   9   9   9    2.53    0.70
  10   0   0    0.78    0.24
  10   0  -1    0.07    0.18
  10   1   0    0.22    0.22
  10   1   1   10.41    0.89
  10  -1  -1   11.92    0.83
  10   1  -1    8.80    0.82
  10   0  -2   98.29    6.32
   0  10   2   92.35    6.45
  10   2   0   96.34    6.39
  10   2   1  123.90    8.09
   1  10   2  121.78    8.15
  10   1  -2  119.49    8.00
  -1  10   2  122.84    8.51
  10   1   2  135.16    8.52
  10   2  -1  126.64    8.44
  10  -1  -2  135.38    8.39
   2  10   1  117.92    8.53
  10   2  -2    2.71    0.35
   3  10   0   84.49    6.02
  10   3   0   91.50    5.96
   0  10   3   86.82    6.02
  10   0  -3   91.73    5.84
  10   1  -3   72.27    4.84
  10   3   1   74.88    4.96
   1  10   3   73.00    5.02
  10   3  -1   74.49    4.80
  -1  10   3   66.44    4.85
   3  10   1   72.83    4.90
   2  10   3  168.65   11.14
  10   2  -3  172.36   10.99
  10   3   2  161.27   11.10
   3  10   2  176.46   11.20
  10   2   3  156.23   11.15
  10   3  -2  165.10   11.06
  -2  10   3  175.79   11.16
  10   3  -3   59.04    4.09
   3  10   3   63.67    4.25
   4  10   0   21.42    1.63
  10   4   0   21.60    1.56
   0  10   4   18.97    1.61
  10   4   1   29.54    1.92
   1  10   4   21.66    1.91
  -1  10   4   21.07    1.85
  10   4  -1   28.77    1.84
  -2   4  10  219.75   14.34
   2  10   4  209.56   14.34
  10   4   2  221.28   14.32
   4  10   2  208.13   13.91
  -2  10   4  201.99   13.86
  10   2   4  231.55   13.93
  10   4  -2  199.53   13.79
  -3   4  10   78.92    5.66
  10   4   3   84.05    5.70
   3  10   4   88.86    5.73
  -3  10   4   88.59    5.74
   4  10   3   85.03    5.79
  10   3   4   78.82    5.76
  10   4  -3   86.51    5.66
   4  10   4   32.07    2.31
  10   4   4   30.33    2.28
  -4   4  10   29.50    2.20
  10   5   0    3.69    0.53
   5  10   0    4.64    0.65
   0   5  10    4.39    0.63
   0  10   5    3.33    0.55
  -1   5  10  122.64    8.15
   5  10  -1  119.44    8.14
  10   5   1  119.29    8.11
   1  10   5  124.44    8.15
   1   5  10  134.99    8.85
  -1  10   5  130.15    8.79
   5  10   1  131.94    8.83
  10   5  -1  126.24    8.74
 -10  -1   5  134.84    8.63
  10   5   2    1.07    0.38
   2  10   5    0.76    0.40
  -2   5  10    1.68    0.41
   2   5  10    1.57    0.48
  10   5  -2    0.91    0.31
  -2  10   5    0.76    0.36
   5  10   2    0.59    0.35
   3  10   5   47.86    3.23
  -3   5  10   44.18    3.13
  10   5   3   42.41    3.17
  10  -5  -3   44.72    2.98
  10   5  -3   47.56    3.25
   5  10   3   46.49    3.38
  -3  10   5   50.97    3.33
  10   3   5   45.55    3.39
   3   5  10   46.06    3.42
  -4   5  10   69.00    4.38
  10   5   4   69.71    4.48
  10  -5  -4   61.17    4.21
   4  10   5   57.87    4.45
  10   4   5   70.70    4.75
   4   5  10   79.75    4.84
   5  10   4   54.15    4.69
  -5   4  10   70.50    4.62
  -5   5  10  264.82   17.43
  10   5   5  261.53   17.55
   5  10   5  269.67   17.57
   5   5  10  265.81   17.61
   0   6  10    8.99    0.89
   6  10   0    6.99    0.86
  10   6   0    7.36    0.80
   0  10   6    7.53    0.84
   1  10   6   53.55    3.80
  -1   6  10   57.89    3.81
  10   6   1   51.19    3.76
   6  10  -1   54.94    3.80
  10   6  -1   57.01    3.86
  -1  10   6   57.63    3.91
   6  10   1   55.34    3.93
 -10  -1   6   52.96    3.70
   1   6  10   59.18    3.96
  -2   6  10    1.36    0.40
  10   6   2    0.47    0.37
   2  10   6    0.91    0.37
   6  10   2    0.53    0.39
  -2  10   6    0.43    0.33
   2   6  10    1.52    0.51
  10   6  -2    0.92    0.33
   3  10   6   59.58    4.16
  10   6   3   59.56    4.14
  -3   6  10   58.69    4.08
  10   3   6   56.52    4.15
  -3  10   6   64.99    4.08
   6  10   3   59.20    4.13
  10   6  -3   58.11    4.01
   3   6  10   58.99    4.17
  -6   3  10   55.85    3.98
  10   6   4   34.59    2.57
  -4   6  10   36.69    2.48
  10  -6  -4   32.63    2.38
   4  10   6   34.61    2.59
  -6   4  10   32.11    2.29
  -4  10   6   32.25    2.36
   6  10   4   32.29    2.45
   4   6  10   33.58    2.52
  10   4   6   33.73    2.49
  -5   6  10    3.50    0.51
  10  -6  -5    3.98    0.37
   5  10   6    2.60    0.58
  10   6   5    3.82    0.68
   6   5  10    4.21    0.75
   5   6  10    4.89    0.77
  10   5   6    5.73    0.78
   6  10   5    3.12    0.64
  -6   5  10    4.79    0.54
  -6   6  10   12.62    1.02
   6  10   6   11.62    1.23
  10   6   6   12.43    1.25
   6   6  10   12.42    1.29
   0  10   7   47.07    3.33
   7  10   0   46.87    3.33
   0   7  10   43.27    3.33
  10   7   0   49.78    3.31
  -1   7  10   23.13    1.85
  10   7   1   23.51    1.85
   1  10   7   24.87    1.89
   7  10  -1   24.65    1.86
   7  10   1   19.64    1.62
  10   7  -1   20.45    1.54
 -10  -1   7   19.98    1.36
  -1  10   7   20.20    1.58
   1   7  10   17.61    1.61
   2  10   7   12.08    1.16
  10   7   2   12.37    1.14
  -2   7  10   11.58    1.10
  -2  10   7   11.53    1.03
   7  10   2   10.49    1.08
  10   7  -2   11.76    1.01
   2   7  10   10.48    1.13
   3  10   7   47.45    3.52
  -3   7  10   49.28    3.45
  10   7   3   51.22    3.52
  10   7  -3   50.58    3.87
   7  10   3   58.50    4.02
  10   3   7   59.47    4.08
  -3  10   7   58.23    3.93
   3   7  10   59.89    4.06
  -7   3  10   55.71    3.82
  10   7   4   22.63    1.75
   4  10   7   21.12    1.74
  -4   7  10   20.29    1.61
   7  10   4   16.53    1.38
  -4  10   7   18.01    1.26
  -7   4  10   13.44    1.11
  10   4   7   12.68    1.36
   4   7  10   12.86    1.37
  10   7   5   17.46    1.50
   7   5  10   17.69    1.54
  -5   7  10   15.92    1.31
   5  10   7   15.76    1.46
  -7   5  10   10.64    0.85
  -5  10   7    9.26    0.92
   7  10   5    9.53    1.10
  10   5   7   10.32    1.17
   5   7  10   11.23    1.19
  -6   7  10   59.79    3.90
   6  10   7   59.46    4.11
  10   7   6   55.94    4.08
   7   6  10   51.86    4.08
   7  10   6   50.06    3.58
  -6  10   7   52.21    3.39
  10   6   7   46.45    3.57
   6   7  10   46.53    3.59
  -7   6  10   48.49    3.34
  10   7   7   38.58    2.63
   7   7  10   39.93    2.69
   7  10   7   32.61    2.55
  -7   7  10   27.56    2.30
  10   8   0   34.62    2.60
   0   8  10   40.48    2.68
   0  10   8   34.90    2.63
   8  10   0   33.53    2.63
   1  10   8   28.10    2.17
  -1   8  10   29.10    2.16
   8  10  -1   28.12    2.14
  10   8   1   27.51    2.13
   1   8  10   28.20    2.16
  -1  10   8   26.90    2.10
   8  10   1   27.90    2.13
  10   8  -1   27.81    2.07
  10   8   2   21.78    1.76
  -2   8  10   21.63    1.72
   2  10   8   21.89    1.79
  -2  10   8   15.85    1.36
   8  10   2   17.49    1.46
   2   8  10   16.48    1.47
  10   8  -2   16.31    1.36
  10   8   3    7.28    0.92
  -3   8  10    8.43    0.85
   3  10   8    6.98    0.92
   3   8  10    7.84    0.95
  -8   3  10    7.82    0.66
   8  10   3    8.04    0.95
  -3  10   8    7.66    0.84
   4  10   8   38.80    2.95
  10   8   4   39.98    2.93
  -4   8  10   39.79    2.82
  10   4   8   49.52    3.35
  -8   4  10   44.46    3.01
  -4  10   8   41.72    3.13
   4   8  10   43.47    3.29
   8  10   4   45.25    3.26
   8   5  10   83.58    5.81
   5  10   8   84.52    5.75
  -5   8  10   80.51    5.58
  10   8   5   82.71    5.74
  10   5   8   80.37    5.64
  -5  10   8   81.75    5.47
   5   8  10   83.13    5.65
  -8   5  10   76.58    5.35
   8  10   5   83.20    5.61
   6  10   8    6.36    0.90
  -6   8  10    7.63    0.76
  10   8   6    7.76    1.00
   8   6  10    7.39    0.98
   8  10   6    3.48    0.71
  -6  10   8    3.54    0.54
  -8   6  10    4.51    0.48
   6   8  10    4.13    0.83
  10   6   8    4.28    0.75
  10   8   7   27.81    2.23
   7  10   8   25.71    2.21
  -7   8  10   26.42    1.95
   8   7  10   28.78    2.24
   7   8  10   24.89    1.98
  -7  10   8   18.38    1.63
  -8   7  10   22.23    1.60
  10   7   8   26.97    2.00
   8  10   7   22.52    1.92
   8  10   8   31.84    2.59
   8   8  10   30.47    2.60
  -8   8  10   36.09    2.30
  10   8   8   28.81    2.55
 -10   0   9    3.62    0.34
   0   9  10    3.13    0.62
   0  10   9    3.30    0.64
  10   9   0    3.27    0.57
   9  10   0    3.47    0.62
  10   9   1    8.59    0.94
  -1   9  10    7.24    0.86
   1  10   9    7.09    0.88
   9  10  -1    6.73    0.84
  10   9  -1    7.75    0.88
  -1  10   9    8.73    0.92
   9  10   1    6.82    0.86
   1   9  10    8.04    0.94
   2  10   9    0.50    0.45
   9  10  -2    0.11    0.34
  -2   9  10    0.12    0.36
  10   9   2    0.59    0.42
   2   9  10    0.08    0.39
   9  10   2    0.34    0.41
  10   9  -2   -0.02    0.31
  -9   2  10    1.36    0.22
  -2  10   9    0.24    0.37
   3  10   9    2.54    0.62
  -3   9  10    2.55    0.51
  10   9   3    1.52    0.52
  -3  10   9    2.21    0.49
   3   9  10    3.23    0.66
   9  10   3    2.82    0.61
  -9   3  10    2.39    0.29
  -4   9  10   21.31    1.69
  10   9   4   19.69    1.81
   4  10   9   22.16    1.87
   9   4  10   24.99    1.98
   4   9  10   22.36    1.77
  -9   4  10   19.08    1.35
   9  10   4   18.63    1.69
  -4  10   9   17.59    1.53
  10   4   9   22.44    1.84
  10   9   5   23.21    1.82
  -5   9  10   20.73    1.61
   9   5  10   17.32    1.83
   5  10   9   20.57    1.77
  -9   5  10   21.86    1.39
   5   9  10   15.88    1.71
   9  10   5   21.19    1.74
  10   5   9   14.67    1.72
  -5  10   9   20.33    1.55
   9   6  10   61.09    4.36
   6  10   9   58.52    4.29
  10   9   6   61.06    4.30
  -6   9  10   58.50    4.09
   6   9  10   66.48    4.52
   9  10   6   57.92    4.43
  10   6   9   67.51    4.54
  -9   6  10   60.94    4.15
  -6  10   9   61.25    4.27
  10   9   7   17.25    1.65
   7  10   9   18.84    1.69
  -7   9  10   18.90    1.45
   9   7  10   19.68    1.74
   7   9  10   14.46    1.58
  -9   7  10   16.16    1.19
  10   7   9   15.62    1.55
  -7  10   9   17.02    1.30
  10   9   8   26.35    2.24
   9   8  10   25.82    2.22
  -8   9  10   27.05    1.93
   8  10   9   26.57    2.24
  10   8   9   36.26    2.58
  -8  10   9   31.89    2.23
  -9   8  10   29.66    2.17
   8   9  10   32.25    2.56
   9  10   8   28.32    2.47
  -9   9  10   24.25    1.79
   9   9  10   27.33    2.23
   9  10   9   26.03    2.14
  10   9   9   23.74    2.16
   0  10  10  113.53    7.59
  10  10   0  109.67    7.56
  -1  10  10   23.34    1.85
   1  10  10   21.94    1.89
  10  10  -1   22.62    1.84
  10  10   1   24.12    1.88
  -2  10  10   47.42    3.23
   2  10  10   50.23    3.32
  10  10  -2   35.41    3.16
  10  10   2   47.60    3.27
  -3  10  10   38.07    2.80
   3  10  10   35.52    2.90
  10  10   3   42.26    2.92
  -4  10  10   82.97    5.80
   4  10  10   80.60    5.92
  10   4  10   92.63    6.05
  10  10   4   86.13    5.93
  -5  10  10   38.64    2.76
   5  10  10   37.24    2.95
  10   5  10   40.87    3.03
  10  10   5   37.46    2.93
  -6  10  10    8.92    0.94
   6  10  10   11.23    1.26
  10   6  10   12.25    1.34
  10  10   6   10.13    1.21
  -7  10  10   36.33    2.35
   7  10  10   30.22    2.59
  10   7  10   31.22    2.63
  10  10   7   28.99    2.52
  -8  10  10   20.34    1.67
   8  10  10   24.00    2.05
  10   8  10   24.27    2.02
  10  10   8   24.02    2.03
   9  10  10   28.90    2.35
  10   9  10   26.57    2.33
  10  10   9   25.54    2.29
  10  10  10   11.43    1.37
  11   0  -1    3.82    0.43
  11   0   1    3.43    0.50
  11   1   0    4.36    0.50
  11   1  -1   48.70    3.44
  11   1   1   53.16    3.51
  11  -1  -1   51.22    3.43
  11   0  -2  133.30    8.99
  11   2   0  135.81    9.06
   0  11   2  142.26    9.16
  11   2   1   25.74    2.07
   1  11   2   35.29    2.21
  11   1  -2   27.81    1.99
  11   1   2   25.92    1.99
  11  -1  -2   25.83    1.85
  11   2  -1   29.46    1.93
   2  11   2    2.83    0.48
  11   2   2    0.25    0.31
  11   2  -2    1.69    0.29
   0  11   3    0.01    0.29
  11   3   0    0.44    0.29
  11   0  -3    0.31    0.15
  11   1  -3  104.52    6.93
  11   3   1  104.20    7.05
   1  11   3  107.61    7.12
  11  -1  -3   99.81    6.64
  -1  11   3   99.57    6.84
   3  11   1   98.95    6.86
  11   1   3  111.16    6.87
  11   3  -1   98.85    6.75
  11   3   2  142.75    9.38
  11   2  -3  140.63    9.26
   2  11   3  139.02    9.43
  11   3  -2  144.36    9.65
  11   2   3  150.27    9.76
   3  11   2  144.39    9.79
   3  11   3   37.57    2.73
  11   3  -3   36.08    2.55
  11   3   3   38.21    2.69
   4  11   0   37.45    2.88
  11   4   0   40.98    2.82
   0  11   4   41.60    2.90
   1  11   4   34.53    2.63
  11   4   1   37.27    2.58
   4  11   1   31.76    2.48
  -1  11   4   32.44    2.46
  11   4  -1   36.32    2.40
  11   4   2    8.61    0.92
   2  11   4    9.60    0.94
   4  11   2    4.98    0.71
  11   2   4    4.25    0.66
  11   4  -2    5.51    0.57
  -2  11   4    4.81    0.64
   3  11   4   13.28    1.13
  11   4   3   11.24    1.09
  -3   4  11   10.40    1.07
  11   4  -3   11.48    0.92
   4  11   3   12.81    1.14
  -3  11   4   12.37    1.02
  11   3   4    8.63    1.04
  -4   4  11    0.70    0.35
   4  11   4    0.71    0.39
  11   4   4    0.67    0.41
   0  11   5   16.70    1.40
   0   5  11   18.28    1.46
  11   5   0   15.14    1.32
   5  11   0   17.52    1.41
   1  11   5   58.40    4.05
  -1   5  11   58.07    4.04
  11   5   1   56.76    3.99
  11   5  -1   56.27    3.74
   1   5  11   54.27    3.87
  -1  11   5   53.21    3.80
   5  11   1   53.44    3.83
   2  11   5   67.46    4.75
  11   5   2   71.56    4.72
  -2   5  11   66.56    4.72
  11   5  -2   78.64    5.26
   5  11   2   75.21    5.37
  -2  11   5   76.48    5.33
   2   5  11   76.14    5.41
  11   2   5   83.75    5.42
  -3   5  11   43.32    2.62
   3  11   5   36.83    2.66
  11   5   3   39.55    2.65
  11  -5  -3   29.32    2.37
   5  11   3   36.83    2.64
  11   5  -3   31.30    2.45
  -3  11   5   32.23    2.52
  11   3   5   44.26    2.69
  -4   5  11   33.06    2.33
  11   5   4   31.63    2.40
   4  11   5   30.90    2.40
  11   4   5   35.61    2.61
   5  11   4   33.39    2.59
  -5   4  11   35.78    2.48
  -4  11   5   33.73    2.50
   4   5  11   34.78    2.68
  -5   5  11    3.35    0.52
   5  11   5    5.64    0.71
  11   5   5    3.54    0.67
   5   5  11    2.76    0.72
   6  11   0   17.16    1.32
   0  11   6   14.54    1.30
  11   6   0   15.61    1.26
   0   6  11   12.08    1.29
   6  11  -1   52.60    3.99
  11   6   1   57.47    3.99
  -1   6  11   61.59    4.04
   1  11   6   57.80    4.03
   1   6  11   52.89    3.64
   6  11   1   50.70    3.62
  -1  11   6   49.32    3.57
  11   6  -1   50.17    3.52
  11   6   2    5.11    0.69
  -2   6  11    6.11    0.75
   2  11   6    5.12    0.74
  11   6  -2    7.43    0.74
  -2  11   6    6.80    0.80
   6  11   2    7.02    0.88
   2   6  11    5.88    0.86
  -3   6  11   73.95    4.99
   3  11   6   71.75    5.05
  11   6   3   72.47    5.03
  11   6  -3   72.53    5.14
   6  11   3   77.97    5.29
  -3  11   6   77.22    5.21
   3   6  11   76.24    5.32
  11   3   6   77.60    5.30
  -4   6  11   11.54    1.07
   4  11   6   12.02    1.20
  11   6   4   11.42    1.18
  11  -6  -4   11.93    0.86
  -4  11   6   10.72    0.89
  -6   4  11    8.03    0.82
   6  11   4    7.61    0.95
   4   6  11   10.26    1.14
  11   4   6    7.42    0.96
   5  11   6   88.58    6.49
  11   6   5   93.22    6.49
  -5   6  11   92.74    6.35
   6   5  11  105.88    6.62
  -6   5  11   89.59    5.72
  11   5   6   88.82    5.90
   5   6  11   90.71    5.95
   6  11   5   83.21    5.88
  -5  11   6   74.48    5.73
  11   6   6   85.61    6.07
  -6   6  11   87.94    5.89
   6   6  11   83.74    6.11
   6  11   6   93.70    6.10
   0  11   7   15.18    1.44
   7  11   0   21.66    1.51
  11   7   0   16.01    1.42
  -1   7  11   76.13    5.41
  11   7   1   80.20    5.41
   7  11  -1   77.25    5.41
   1  11   7   81.45    5.44
   7  11   1   87.84    5.84
   1   7  11   80.64    5.83
  11   7  -1   83.85    5.75
  -1  11   7   87.05    5.81
  11   7   2   12.28    1.19
   2  11   7   12.29    1.25
  -2   7  11   14.77    1.21
  -2  11   7   11.80    1.05
   7  11   2    9.62    1.05
  11   7  -2    9.18    0.96
   2   7  11   14.51    1.23
  -3   7  11   63.74    4.38
   3  11   7   63.46    4.47
  11   7   3   62.86    4.45
  11   7  -3   54.47    4.19
   7  11   3   62.10    4.34
   3   7  11   65.36    4.40
  -7   3  11   63.76    4.16
  -3  11   7   61.11    4.25
  11   3   7   63.37    4.40
  -4   7  11   52.37    3.60
  11   7   4   51.04    3.70
   4  11   7   50.98    3.72
  -4  11   7   56.91    3.59
   4   7  11   44.98    3.67
   7  11   4   54.24    3.69
  11   4   7   46.67    3.67
  -7   4  11   50.78    3.47
  -5   7  11   41.49    2.90
  11   7   5   39.88    3.04
   7   5  11   42.59    3.16
   5  11   7   40.27    3.06
  -5  11   7   37.84    2.75
   7  11   5   41.18    2.93
   5   7  11   38.19    2.96
  -7   5  11   37.87    2.67
  11   5   7   38.57    2.93
  11  -7  -6   10.59    0.77
  11   7   6    9.52    1.14
  -6   7  11    8.56    0.91
   6  11   7   10.87    1.14
   7   6  11   12.00    1.29
   6   7  11    8.94    1.08
   7  11   6    6.53    0.97
  11   6   7    8.53    1.05
  -7   6  11    7.83    0.76
   7   7  11   82.91    5.95
  11   7   7   84.72    5.92
   7  11   7   87.49    5.91
  -7   7  11   83.58    5.67
   8  11   0  181.24   11.72
  11   8   0  178.61   11.68
   0   8  11  169.94   11.71
   0  11   8  171.83   11.70
   1  11   8    4.49    0.70
  11   8   1    3.58    0.60
  -1   8  11    4.49    0.66
   8  11  -1    1.89    0.57
   1   8  11    5.78    0.80
  11   8  -1    2.85    0.57
  -1  11   8    4.03    0.65
 -11  -1   8    4.94    0.40
   8  11   1    3.25    0.67
  11   8   2   52.31    3.75
  -2   8  11   53.94    3.73
   2  11   8   51.58    3.77
  -2  11   8   49.53    3.48
   2   8  11   51.90    3.59
  11   8  -2   45.94    3.43
   8  11   2   49.38    3.54
  -3   8  11   43.82    3.08
  11   8   3   41.82    3.13
   3  11   8   43.04    3.16
  11   8  -3   56.48    3.40
   8  11   3   51.84    3.51
  -8   3  11   42.21    3.24
  -3  11   8   52.21    3.42
   3   8  11   44.50    3.51
  11   3   8   41.88    3.54
   4  11   8   33.92    2.71
  -4   8  11   36.30    2.59
  11   8   4   36.32    2.70
   8  11   4   41.81    3.11
  -8   4  11   41.94    2.88
  11   4   8   47.98    3.23
  -4  11   8   37.30    2.98
   4   8  11   44.52    3.19
   5  11   8   38.01    2.87
  11   8   5   36.62    2.83
  -5   8  11   37.66    2.68
   8   5  11   37.14    2.94
  -5  11   8   31.13    2.40
   5   8  11   34.12    2.63
  -8   5  11   32.80    2.29
  11   5   8   35.28    2.63
   8  11   5   32.91    2.57
   8   6  11   51.25    3.87
   6  11   8   57.08    3.86
  -6   8  11   52.93    3.62
  11   8   6   47.97    3.77
   6   8  11   49.53    3.73
  -8   6  11   52.54    3.45
   8  11   6   50.95    3.72
  11   6   8   50.91    3.73
  -6  11   8   48.94    3.52
  11   8   7   18.05    1.71
  -7   8  11   18.69    1.43
   8   7  11   17.14    1.71
   7  11   8   19.29    1.73
   8  11   7   17.82    1.67
  -8   7  11   18.17    1.34
   7   8  11   17.08    1.70
  11   7   8   16.88    1.67
  11   8   8  112.96    8.01
  -8   8  11  120.11    7.75
   8  11   8  116.57    8.02
   8   8  11  115.62    8.04
   9  11   0    1.94    0.55
   0  11   9    3.63    0.61
  11   9   0    2.89    0.59
   0   9  11    3.49    0.65
   9  11  -1  101.99    7.26
   1  11   9  109.10    7.31
  -1   9  11  110.42    7.29
  11   9   1  107.41    7.28
  -1  11   9  105.04    7.09
  11   9  -1  102.89    7.07
   9  11   1   98.17    7.09
   1   9  11  111.39    7.15
  -2   9  11   25.08    2.04
   2  11   9   26.82    2.11
  11   9   2   26.44    2.07
  11   9  -2   26.18    1.91
   2   9  11   23.98    2.00
   9  11   2   24.67    2.00
  -9   2  11   22.64    1.72
  -2  11   9   27.20    1.95
   3  11   9   64.49    4.49
  -3   9  11   61.59    4.37
  11   9   3   62.60    4.45
   3   9  11   68.51    4.75
  -9   3  11   65.36    4.43
   9  11   3   66.05    4.70
  -3  11   9   67.41    4.62
  -4   9  11   53.48    3.81
  11   9   4   54.85    3.93
   4  11   9   55.21    3.96
   4   9  11   55.29    4.04
  11   4   9   60.64    4.13
   9  11   4   53.91    4.02
  -4  11   9   54.61    3.90
  -9   4  11   55.54    3.73
   9   5  11   19.22    1.91
   5  11   9   20.43    1.84
  11   9   5   20.43    1.81
  -5   9  11   21.82    1.64
  -9   5  11   25.67    1.74
  -5  11   9   24.96    1.90
   9  11   5   22.98    2.02
  11   5   9   23.32    2.12
   5   9  11   25.27    2.12
   9   6  11   27.93    2.45
  11   9   6   30.35    2.44
  -6   9  11   31.25    2.23
   6  11   9   31.31    2.47
   9  11   6   31.40    2.50
  11   6   9   30.22    2.53
   6   9  11   30.17    2.53
  -6  11   9   33.45    2.30
  -9   6  11   30.11    2.15
   9   7  11   31.40    2.59
  11   9   7   34.86    2.59
   7  11   9   31.26    2.54
  -7   9  11   30.93    2.30
   9  11   7   37.37    2.80
  11   7   9   37.49    2.83
  -7  11   9   33.68    2.51
   7   9  11   33.38    2.80
  -9   7  11   35.22    2.43
  -8   9  11   15.67    1.18
   8  11   9   13.27    1.45
   9   8  11   12.87    1.53
  11   9   8   13.58    1.45
   9  11   8   11.30    1.40
  11   8   9   12.33    1.45
   8   9  11   10.49    1.41
  -9   8  11   15.10    1.07
  -9   9  11   18.49    1.40
   9  11   9   17.72    1.80
  11   9   9   18.30    1.81
   9   9  11   19.37    1.79
   0  10  11    4.95    0.77
  10  11   0    3.10    0.65
   0  11  10    4.32    0.71
  11  10   0    2.89    0.63
 -11   0  10    4.65    0.38
  11  10   1   43.64    3.28
   1  11  10   45.06    3.32
  -1  10  11   50.13    3.32
  10  11  -1   41.95    3.25
  11  10  -1   40.08    2.90
   1  10  11   39.36    2.96
  -1  11  10   36.85    2.89
  10  11   1   40.96    2.95
  11  10   2    7.64    0.91
  -2  10  11    5.79    0.81
   2  11  10    5.31    0.88
 -10   2  11    3.99    0.45
  10  11   2    7.81    0.93
   2  10  11    5.22    0.83
  -2  11  10    7.35    0.84
   3  11  10   38.50    2.99
  -3  10  11   38.40    2.88
  11  10   3   41.38    2.98
  10  11   3   38.27    2.87
 -10   3  11   37.36    2.52
  -3  11  10   37.26    2.77
   3  10  11   38.57    2.90
   4  11  10   34.65    2.68
  -4  10  11   34.55    2.53
  10   4  11   30.58    2.78
  11  10   4   35.48    2.67
 -10   4  11   36.74    2.44
   4  10  11   35.13    2.84
  -4  11  10   37.49    2.67
  10  11   4   40.26    2.84
  11   4  10   31.78    2.87
   5  11  10  144.62    9.61
  10   5  11  140.09    9.66
  11  10   5  134.83    9.56
  -5  10  11  144.48    9.43
 -10   5  11  147.11    9.66
  -5  11  10  142.05    9.84
  10  11   5  150.93   10.02
  11   5  10  147.38   10.06
   5  10  11  151.51   10.04
   6  11  10    6.22    1.01
  10   6  11    6.54    1.05
  11  10   6    6.14    0.95
  -6  10  11    7.09    0.78
  -6  11  10    5.42    0.68
   6  10  11    4.54    0.85
  10  11   6    4.20    0.82
  11   6  10    5.17    0.95
 -10   6  11    5.03    0.48
  10   7  11   14.80    1.68
   7  11  10   18.47    1.65
  -7  10  11   14.28    1.24
  11  10   7   13.36    1.54
 -10   7  11   13.40    1.01
  10  11   7   13.15    1.47
  -7  11  10   15.02    1.20
  11   7  10   12.28    1.49
   7  10  11   12.54    1.48
  10   8  11   50.52    3.71
  11  10   8   49.71    3.66
   8  11  10   48.92    3.67
  -8  10  11   45.48    3.34
  -8  11  10   47.59    3.49
  10  11   8   51.52    3.80
  11   8  10   51.80    3.83
   8  10  11   52.50    3.83
  11  10   9    3.83    0.87
  10   9  11    4.58    0.93
  -9  10  11    3.89    0.53
   9  11  10    3.46    0.86
  11   9  10    5.12    0.98
   9  10  11    4.81    0.94
  10  11   9    7.53    1.13
  10  10  11   13.59    1.57
  10  11  10   10.78    1.45
  11  10  10   13.59    1.57
   0  11  11    1.64    0.58
  11  11   0    3.64    0.66
  -1  11  11   49.80    3.85
   1  11  11   52.31    3.90
  11  11  -1   57.30    3.86
  11  11   1   55.83    3.89
  -2  11  11   58.14    3.89
   2  11  11   59.09    3.97
  11  11  -2   45.49    3.81
  11  11   2   55.41    3.92
  -3  11  11    0.95    0.46
   3  11  11    0.58    0.55
  11  11   3    1.13    0.57
  -4  11  11  128.78    8.75
   4  11  11  125.27    8.88
  11   4  11  139.75    9.03
  11  11   4  128.04    8.86
  -5  11  11    0.95    0.42
   5  11  11    0.55    0.54
  11   5  11    1.37    0.74
  11  11   5    0.78    0.56
  -6  11  11    1.22    0.45
   6  11  11    2.04    0.74
  11   6  11    1.57    0.67
  11  11   6    1.42    0.62
  -7  11  11   -0.13    0.35
   7  11  11    0.73    0.65
  11   7  11    0.92    0.70
  11  11   7    0.64    0.61
  -8  11  11   -0.45    0.29
   8  11  11    0.41    0.66
  11   8  11    1.00    0.73
  11  11   8    0.87    0.67
   9  11  11   15.21    1.68
  11   9  11   12.95    1.60
  11  11   9   16.51    1.66
  10  11  11    0.70    0.71
  11  10  11    1.58    0.76
  11  11  10    0.06    0.65
  11  11  11   17.87    1.80
  12   0  -1  122.31    8.00
  12   0   1  118.28    8.06
  12   1   0  126.81    8.05
  12  -1   0  116.72    8.02
  12   1   1   69.16    4.37
  12   1  -1   57.12    4.28
  12  -1  -1   65.89    4.28
  12   0  -2  168.82   11.20
  12   2   0  172.83   11.28
   1  12   2   34.08    2.62
  12   2   1   34.85    2.54
  12  -2  -1   38.94    2.48
  12   1  -2   34.38    2.44
   2  12   1   30.53    2.24
  12   1   2   28.88    2.18
  12  -1  -2   29.74    2.04
  12   2  -1   29.66    2.11
   2  12   2   75.60    5.24
  12   2   2   77.63    5.19
  12  -2  -2   74.92    5.04
  12   2  -2   76.68    5.09
   0  12   3   66.17    4.31
  12   0  -3   61.15    4.08
  12   3   0   58.33    4.19
  12   3   1  130.00    8.36
   1  12   3  119.57    8.41
  12   1  -3  125.35    8.22
   3  12   1  121.49    8.46
  -1  12   3  118.97    8.43
  12   3  -1  127.16    8.35
  12   1   3  135.05    8.45
  12  -1  -3  126.20    8.24
  12   3   2   24.21    1.88
  12   2  -3   24.74    1.74
   2  12   3   25.15    1.96
   3  12   2   21.74    1.75
  12   3  -2   21.66    1.57
  12   2   3   21.01    1.70
   3  12   3   47.91    3.40
  12   3  -3   46.66    3.21
   0  12   4  114.02    7.66
   4  12   0   93.40    7.61
  12   4   0  133.09    7.62
  12   4   1  103.77    7.50
   1  12   4  121.18    7.60
   4  12   1  116.14    7.80
  12   4  -1  107.09    7.68
  -1  12   4  124.29    7.80
  12   4   2   45.60    3.00
   2  12   4   37.59    3.01
  -2  12   4   31.31    2.48
   4  12   2   33.08    2.55
  12   4  -2   36.76    2.41
   3  12   4    2.59    0.57
  12   4   3    2.08    0.52
  12   3   4    1.95    0.50
   4  12   3    1.50    0.51
  12   4  -3    2.08    0.37
  12   4   4    0.12    0.39
   4  12   4    0.10    0.41
  -4   4  12    0.35    0.36
  12   5   0  132.38    9.13
   0   5  12  122.85    9.21
   0  12   5  140.61    9.21
   5  12   0  153.01    9.24
  12   5   1   32.97    2.39
   1  12   5   29.24    2.40
  -1   5  12   35.52    2.48
  -1  12   5   24.08    1.90
   5  12   1   22.04    1.89
  12   5  -1   26.26    1.83
  12   5   2   75.48    5.32
   2  12   5   83.41    5.40
  -2   5  12   74.65    5.34
  -2  12   5   90.08    6.10
  12   5  -2   96.02    6.04
   5  12   2   96.32    6.19
  12   2   5   83.82    6.14
   2   5  12   80.84    6.19
  12   5   3   18.67    1.60
  -3   5  12   20.45    1.59
   3  12   5   18.34    1.63
   5  12   3   19.69    1.65
  12   5  -3   18.95    1.49
  12   3   5   18.06    1.64
   3   5  12   22.17    1.81
  -3  12   5   20.92    1.59
  -4   5  12   47.86    3.54
   4  12   5   55.96    3.69
  12   5   4   49.16    3.62
   5  12   4   49.38    3.37
   4   5  12   46.67    3.47
  12   4   5   43.46    3.33
  -5   4  12   45.28    3.24
  12   5   5   44.82    3.25
   5  12   5   35.46    3.17
  -5   5  12   45.46    3.11
   5   5  12   53.73    3.44
  12   6   0  108.20    7.24
   0  12   6  109.23    7.30
   0   6  12  112.32    7.34
   6  12   0  100.64    7.29
  12   6   1    6.71    0.82
  -1   6  12    8.38    0.93
   1  12   6    6.91    0.90
  -1  12   6    5.72    0.75
   1   6  12    5.77    0.81
  12   6  -1    4.67    0.64
   6  12   1    4.84    0.77
  -2   6  12   10.03    1.08
  12   6   2   10.85    1.07
   2  12   6   11.43    1.13
  12   6  -2   14.81    1.20
   6  12   2   14.59    1.34
  12   2   6   13.32    1.38
   2   6  12   13.50    1.37
  -2  12   6   14.60    1.27
  -3   6  12    3.40    0.59
   3  12   6    3.60    0.67
  12   6   3    3.13    0.61
   3   6  12    5.78    0.82
   6  12   3    3.95    0.67
  -3  12   6    4.28    0.65
  12   3   6    6.37    0.82
  12   6  -3    3.84    0.54
  12   6   4  104.64    7.11
  -4   6  12  111.23    7.04
   4  12   6   98.81    7.11
  12  -6  -4  102.18    6.83
  12   4   6  117.32    7.54
  -4  12   6   95.71    7.39
   6  12   4  102.92    7.50
   4   6  12  126.28    7.63
  -6   4  12  112.39    7.37
  12   6   5   52.18    3.66
  -5   6  12   49.63    3.51
   5  12   6   50.77    3.67
   6   5  12   48.36    3.73
  12   5   6   50.87    3.78
   6  12   5   53.89    3.81
  -6   5  12   51.36    3.61
   5   6  12   53.50    3.87
   6   6  12  106.69    7.41
  12   6   6  104.04    7.33
   6  12   6  112.13    7.36
  -6   6  12  105.50    7.16
   0   7  12    3.97    0.69
   7  12   0    4.04    0.69
   0  12   7    3.82    0.65
  12   7   0    3.98    0.62
   1  12   7    2.71    0.59
   7  12  -1    2.75    0.58
  12   7   1    2.49    0.54
  -1   7  12    1.04    0.49
   7  12   1    3.72    0.65
  12   7  -1    4.15    0.60
   1   7  12    3.18    0.68
  -1  12   7    4.86    0.70
   2  12   7   51.60    3.63
  12   7   2   48.51    3.57
  -2   7  12   50.41    3.57
   7  12   2   55.98    4.10
  -2  12   7   59.77    4.06
   2   7  12   53.91    4.13
  12   7  -2   60.46    4.01
   3  12   7   10.20    1.14
  12   7   3    9.64    1.06
  -3   7  12    9.34    1.01
  12   3   7    6.77    1.02
  -3  12   7   12.75    1.02
   3   7  12    7.26    1.07
  -7   3  12    8.59    0.85
   4  12   7   28.90    2.41
  -4   7  12   31.22    2.29
  12   7   4   31.94    2.39
   4   7  12   29.97    2.32
   7  12   4   29.09    2.25
  12   4   7   27.56    2.26
  -7   4  12   29.05    2.03
  -4  12   7   24.79    2.09
  12   7   5   30.11    2.41
  -5   7  12   30.85    2.27
   5  12   7   31.26    2.43
  12  -7  -5   30.79    2.08
   7   5  12   31.20    2.56
  -7   5  12   30.68    2.24
  -5  12   7   33.79    2.32
   7  12   5   31.82    2.45
  12   5   7   30.55    2.48
   5   7  12   29.27    2.51
   7   6  12    6.32    0.98
  -6   7  12    5.40    0.64
   6  12   7    3.79    0.79
  12   7   6    3.71    0.75
   6   7  12    4.25    0.86
   7  12   6    2.83    0.73
  -7   6  12    3.77    0.51
  12   6   7    3.95    0.80
  -7   7  12    0.24    0.30
   7  12   7    0.71    0.54
   7   7  12   -0.24    0.55
  12   7   7    0.44    0.58
   0  12   8    6.08    0.83
  12   8   0    6.19    0.79
   8  12   0    4.48    0.76
   0   8  12    8.64    0.96
  -1   8  12   32.18    2.56
   8  12  -1   35.75    2.55
  12   8   1   32.94    2.54
   1  12   8   34.52    2.58
  12   8  -1   34.22    2.40
   1   8  12   30.26    2.48
  -1  12   8   31.20    2.42
   8  12   1   31.99    2.47
   2  12   8   62.86    4.45
  -2   8  12   65.31    4.39
  12   8   2   59.39    4.39
   2   8  12   61.99    3.95
   8  12   2   50.91    3.86
  -2  12   8   54.87    3.81
  12   8  -2   49.03    3.75
  12   8   3   15.44    1.41
  -3   8  12   15.13    1.34
   3  12   8   15.00    1.46
  12   8  -3   17.25    1.50
  -8   3  12   19.36    1.43
   3   8  12   18.99    1.73
  -3  12   8   18.46    1.55
  12   3   8   19.23    1.77
   8  12   3   19.99    1.69
   4  12   8   30.12    2.19
  12   8   4   24.66    2.10
  -4   8  12   24.60    1.99
  -8   4  12   28.31    2.09
   8  12   4   32.03    2.38
  -4  12   8   33.03    2.24
  12   4   8   26.61    2.37
   4   8  12   27.48    2.39
  12   8   5   10.60    1.18
   8   5  12    8.18    1.17
   5  12   8   10.99    1.24
  -5   8  12    8.93    0.94
   8  12   5   14.45    1.35
  12   5   8   11.08    1.36
  -5  12   8   15.90    1.24
   5   8  12   11.80    1.46
  -8   5  12   12.77    1.06
  -6   8  12   24.61    1.85
  12   8   6   25.36    2.07
   8   6  12   22.47    2.14
   6  12   8   24.41    2.05
  -6  12   8   27.38    1.88
  12   6   8   21.20    2.05
  -8   6  12   23.57    1.76
   8  12   6   24.39    2.07
   6   8  12   23.31    2.07
  -7   8  12   37.32    2.64
   7  12   8   36.13    2.86
   8   7  12   38.56    2.99
  12   8   7   36.21    2.88
  12   7   8   35.39    2.93
   8  12   7   40.05    2.96
  -8   7  12   36.60    2.64
   7   8  12   40.02    2.99
  12   8   8    2.09    0.74
   8   8  12    3.13    0.84
  -8   8  12    3.77    0.51
   8  12   8    2.60    0.75
   0  12   9   13.37    1.38
   0   9  12   12.59    1.40
   9  12   0   18.65    1.47
  12   9   0   16.10    1.37
   9  12  -1  107.44    7.54
  -1   9  12  115.76    7.56
   1  12   9  110.06    7.57
  12   9   1  110.23    7.54
   9  12   1  115.72    7.72
  12   9  -1  112.44    7.65
  -1  12   9  112.10    7.67
   1   9  12  111.95    7.73
  12   9   2   50.84    3.78
   2  12   9   52.28    3.82
  -2   9  12   54.82    3.77
  -9   2  12   54.79    3.86
  12   9  -2   55.14    3.99
   2   9  12   62.17    4.15
   9  12   2   57.61    4.10
  -2  12   9   57.13    4.03
   3  12   9   38.95    3.06
  -3   9  12   43.47    3.00
  12   9   3   39.39    3.05
  -9   3  12   41.47    2.75
   9  12   3   36.85    3.01
  12   3   9   48.52    3.23
   3   9  12   42.56    3.10
  -3  12   9   34.01    2.90
  12   9   4    7.59    0.97
   4  12   9    6.92    0.99
  -4   9  12    5.41    0.77
  12   4   9    4.61    0.87
  -4  12   9    4.41    0.67
  -9   4  12    5.22    0.53
   9  12   4    5.72    0.89
   4   9  12    4.35    0.88
  -5   9  12   47.09    3.33
   5  12   9   46.48    3.51
  12   9   5   44.81    3.47
   9   5  12   49.22    3.59
  12   5   9   49.66    3.75
   5   9  12   48.44    3.72
  -9   5  12   49.93    3.39
  -5  12   9   49.74    3.54
   9  12   5   52.40    3.72
  -6   9  12   20.09    1.62
  12   9   6   19.87    1.83
   9   6  12   23.24    1.94
   6  12   9   18.76    1.84
   6   9  12   22.84    1.91
  -6  12   9   17.26    1.54
   9  12   6   18.12    1.78
  -9   6  12   19.48    1.44
  12   6   9   22.56    1.90
  -7   9  12   53.79    3.82
   7  12   9   55.53    4.09
   9   7  12   57.03    4.16
  12   9   7   55.72    4.08
   9  12   7   52.76    3.93
  -7  12   9   46.52    3.66
   7   9  12   60.64    4.03
  12   7   9   55.16    3.97
  -9   7  12   53.63    3.60
   9   8  12    5.79    1.17
  12   9   8    8.39    1.23
   8  12   9   10.76    1.33
  -8   9  12   12.40    0.96
  -9   8  12   10.21    0.82
  12   8   9    7.59    1.15
   8   9  12    6.51    1.14
   9  12   8    8.40    1.16
  -9   9  12  102.00    6.96
   9   9  12  106.96    7.34
   9  12   9  103.49    7.29
  12   9   9  106.32    7.31
   0  12  10  163.76   10.75
   0  10  12  164.36   10.75
  10  12   0  153.29   10.72
  12  10   0  157.16   10.70
  12  10   1    4.18    0.74
   1  12  10    4.36    0.80
  -1  10  12    5.61    0.82
   1  10  12    4.74    0.78
  12  10  -1    1.26    0.52
  -1  12  10    2.60    0.62
  10  12   1    1.70    0.61
  -2  10  12   67.35    4.61
  12  10   2   62.88    4.62
   2  12  10   66.37    4.67
  12  10  -2   60.85    4.59
  -2  12  10   64.36    4.63
   2  10  12   69.10    4.74
  10  12   2   65.24    4.69
 -10   2  12   69.70    4.41
   3  12  10    7.22    1.00
  12  10   3    8.75    1.08
  -3  10  12    8.51    0.98
   3  10  12    8.36    1.09
  -3  12  10    8.07    0.95
  10  12   3    6.69    0.97
 -10   3  12    9.17    0.70
   4  12  10   53.85    4.02
  -4  10  12   55.89    3.88
  12  10   4   54.73    4.00
 -10   4  12   63.79    4.15
   4  10  12   60.29    4.52
  -4  12  10   60.48    4.35
  12   4  10   61.09    4.57
  10  12   4   65.51    4.50
  -5  10  12    0.30    0.40
  10   5  12    1.87    0.77
  12  10   5    0.34    0.56
   5  12  10    0.12    0.58
  10  12   5   -0.13    0.52
  12   5  10    0.79    0.67
  -5  12  10    0.13    0.38
 -10   5  12   -0.05    0.20
   5  10  12    0.90    0.61
   6  12  10   70.11    5.02
  -6  10  12   68.71    4.78
  10   6  12   70.02    5.06
  12  10   6   69.61    4.99
  12   6  10   63.96    4.67
  10  12   6   65.30    4.64
   6  10  12   66.73    4.69
  -6  12  10   62.65    4.42
 -10   6  12   62.39    4.25
  -7  10  12    2.58    0.50
  10   7  12    1.79    0.78
  12  10   7    2.37    0.69
   7  12  10    0.96    0.67
  10  12   7    0.75    0.58
 -10   7  12    1.50    0.31
  -7  12  10    1.12    0.43
   7  10  12    1.37    0.64
  12   7  10    0.64    0.68
   8  12  10   27.22    2.31
  -8  10  12   27.14    1.95
  12  10   8   24.17    2.25
  10   8  12   24.13    2.32
  10  12   8   25.42    2.13
 -10   8  12   24.64    1.67
   8  10  12   20.47    2.11
  12   8  10   20.21    2.05
   9  12  10    3.07    0.88
  10   9  12    3.44    0.86
  12  10   9    4.13    0.91
  -9  10  12    5.32    0.61
 -10   9  12    5.75    0.58
   9  10  12    4.38    0.94
  12   9  10    4.35    0.98
  10  12   9    4.40    0.97
  10  10  12    0.50    0.71
  10  12  10   -0.31    0.55
  12  10  10   -0.27    0.64
  12  11   0    2.23    0.61
   0  11  12    2.38    0.65
   0  12  11    1.76    0.60
  11  12   0    3.10    0.65
   1  12  11   12.61    1.30
  -1  11  12   14.20    1.29
  11  12  -1    9.11    1.16
  12  11   1   11.93    1.25
  12  11  -1   11.42    1.30
  -1  12  11   13.10    1.33
 -11   1  12   14.79    1.00
  11  12   1   10.42    1.30
   1  11  12   15.68    1.44
  12  11   2   23.39    1.86
  -2  11  12   20.27    1.79
   2  12  11   19.98    1.87
   2  11  12   18.96    1.86
  -2  12  11   20.91    1.79
  11  12   2   19.46    1.83
  12  11  -2   25.67    1.81
  -3  11  12    4.10    0.72
   3  12  11    4.41    0.85
  12  11   3    5.83    0.87
   3  11  12    6.82    0.98
  11  12   3    4.12    0.81
  -3  12  11    4.77    0.74
  12  11   4    2.94    0.74
  11   4  12    6.03    1.13
  -4  11  12    4.46    0.70
   4  12  11    4.45    0.88
  12   4  11    3.18    0.88
  -4  12  11    2.26    0.59
   4  11  12    2.62    0.75
  11  12   4    3.44    0.76
  -5  11  12    0.82    0.44
  12  11   5    0.72    0.58
  11   5  12    2.22    0.78
   5  12  11    1.22    0.65
   5  11  12    2.02    0.72
  12   5  11    2.52    0.81
  11  12   5    0.64    0.54
  -5  12  11    0.82    0.44
  12  11   6   33.79    2.68
  11   6  12   33.68    2.78
  -6  11  12   34.10    2.49
   6  12  11   32.74    2.71
  -6  12  11   34.04    2.53
  12   6  11   32.42    2.82
  11  12   6   33.88    2.71
   6  11  12   35.48    2.81
  12  11   7   29.22    2.42
   7  12  11   30.02    2.46
  -7  11  12   28.53    2.12
  11   7  12   24.90    2.40
  -7  12  11   28.18    2.06
   7  11  12   25.82    2.35
  11  12   7   27.11    2.32
  12   7  11   25.47    2.39
  11   8  12   23.94    2.31
  -8  11  12   26.00    1.93
   8  12  11   27.31    2.31
  12  11   8   23.81    2.25
  -8  12  11   30.04    2.20
   8  11  12   29.79    2.57
  11  12   8   31.47    2.55
  12   8  11   27.24    2.50
   9  12  11    6.38    1.13
  11   9  12    6.41    1.16
  -9  11  12    7.47    0.78
  12  11   9    6.70    1.15
  12   9  11    4.69    1.01
  11  12   9    4.62    1.00
   9  11  12    3.78    0.95
  11  10  12    5.57    1.10
  12  11  10    4.93    1.07
  10  12  11    4.57    1.04
  12  10  11    3.11    0.92
  10  11  12    2.45    0.92
  11  12  10    3.62    0.95
  11  11  12   -0.06    0.70
  11  12  11    0.07    0.71
  12  11  11    0.09    0.62
   0  12  12    3.50    0.72
  12  12   0    0.85    0.53
  -1  12  12    1.81    0.61
   1  12  12    2.29    0.68
  12  12  -1    1.54    0.57
  12  12   1    1.72    0.63
  -2  12  12    2.03    0.62
   2  12  12    2.93    0.77
  12  12   2    3.25    0.72
  -3  12  12    3.46    0.67
   3  12  12    2.46    0.69
  12  12   3    2.63    0.70
  -4  12  12    2.43    0.59
   4  12  12    3.72    0.83
  12   4  12    2.31    0.88
  12  12   4    2.30    0.73
  -5  12  12    0.05    0.40
   5  12  12   -0.11    0.59
  12   5  12   -0.09    0.68
  12  12   5   -0.28    0.50
  -6  12  12    5.29    0.69
   6  12  12    2.07    0.82
  12   6  12    0.62    0.76
  12  12   6    3.21    0.81
  -7  12  12    9.54    1.00
   7  12  12    9.47    1.32
  12   7  12   10.27    1.41
  12  12   7    7.93    1.19
  -8  12  12    0.96    0.42
   8  12  12    0.63    0.75
  12   8  12    0.85    0.78
  12  12   8    0.36    0.67
  -9  12  12    0.28    0.34
   9  12  12    0.19    0.72
  12   9  12    0.65    0.76
  12  12   9    1.41    0.68
  10  12  12    0.57    0.78
  12  10  12    0.45    0.78
  12  12  10    1.01    0.75
  11  12  12    9.61    1.46
  12  11  12    9.02    1.34
  12  12  11   10.32    1.46
  12  12  12   16.46    1.92
  13   0  -1   34.69    2.49
  13   0   1   35.81    2.56
  13   1   0   36.18    2.53
  13  -1   0   36.96    2.52
  13  -1   1    6.48    0.68
  13   1  -1    3.49    0.51
  13  -1  -1    4.45    0.51
  13   1   1    5.39    0.63
  13   0   2   95.74    6.06
  13   2   0   87.58    6.00
  13   0  -2   85.68    5.92
  13   2   1   54.59    3.96
  13  -2  -1   55.16    3.88
  13   1  -2   55.61    3.87
   1  13   2   67.69    4.09
  13   2  -1   55.51    3.79
  13   1   2   54.39    3.86
  13  -1  -2   56.44    3.72
   2  13   2    1.37    0.51
  13   2  -2    3.19    0.43
  13   2   2    6.13    0.67
  13   3   0   93.96    6.82
  13   0  -3  101.34    6.70
   0  13   3  111.77    6.95
  13   1  -3   53.94    3.72
  13   3   1   61.59    3.88
   1  13   3   51.43    3.92
  13  -1  -3   48.24    3.25
   3  13   1   41.11    3.47
  13   3  -1   49.78    3.38
  13   1   3   57.81    3.52
   2  13   3    1.30    0.46
  13  -3  -2    1.47    0.27
  13   3   2    1.10    0.43
  13   2  -3    1.14    0.27
  13   3  -2    0.80    0.30
   3  13   2    0.72    0.45
  13  -2  -3    1.12    0.19
  13   2   3    1.22    0.44
  13   3  -3   29.86    2.15
  13   3   3   31.54    2.31
   3  13   3   30.76    2.37
  13   4   0   23.55    1.66
   0  13   4   18.44    1.70
  13   4   1   19.97    1.62
   1  13   4   21.30    1.72
   4  13   1   32.24    2.35
  13   4  -1   26.92    2.18
  -1  13   4   33.91    2.33
  13   1   4   29.80    2.31
   2  13   4   86.46    6.07
  13   4   2   90.05    6.02
   4  13   2   89.27    5.76
  13   2   4   79.60    5.68
  13   4  -2   80.72    5.57
  13  -4  -3   49.06    3.50
   3  13   4   60.10    3.84
  13   4   3   53.02    3.75
  13   4  -3   63.35    4.12
   4  13   3   64.36    4.32
  13   3   4   53.65    4.23
  13   4   4   42.98    3.28
   4  13   4   48.47    3.36
  -4   4  13   44.82    3.28
   0  13   5   10.14    1.13
  13   5   0   11.23    1.03
   0   5  13   10.50    1.19
  13   5   1   22.03    1.78
  -1   5  13   23.37    1.89
   1  13   5   23.22    1.87
  13   5  -1   26.63    2.00
   5  13   1   25.36    2.11
  -1  13   5   26.84    2.09
   1   5  13   29.63    2.24
   2  13   5   60.12    4.34
  -2   5  13   62.69    4.33
  13   5   2   60.95    4.28
  13   2   5   63.82    4.40
   2   5  13   60.76    4.48
  -2  13   5   60.58    4.33
   5  13   2   62.78    4.40
  13   5  -2   62.34    4.25
   3  13   5   55.19    3.80
  13   5   3   49.00    3.71
  -3   5  13   53.35    3.72
  -3  13   5   53.08    3.47
  13   3   5   46.02    3.50
   5  13   3   48.95    3.53
  13   5  -3   52.36    3.37
   3   5  13   40.57    3.56
   4  13   5    0.37    0.45
  13   5   4    0.56    0.45
  -4   5  13    0.51    0.43
   5  13   4    0.83    0.50
   4   5  13    0.07    0.53
  13   4   5    0.66    0.48
  -5   4  13    0.92    0.42
   5  13   5  115.07    8.19
  13   5   5  124.68    8.20
   5   5  13  113.31    8.30
  -5   5  13  127.14    8.09
   6  13   0   54.31    3.75
  13   6   0   51.12    3.65
   0  13   6   53.53    3.74
   0   6  13   49.53    3.75
   1  13   6   19.23    1.59
  13   6   1   17.32    1.50
  -1   6  13   18.00    1.61
   1   6  13   16.85    1.60
   6  13   1   17.83    1.57
  13   6  -1   18.91    1.46
  -1  13   6   17.03    1.53
  13   6   2   27.09    2.06
   2  13   6   23.59    2.06
  -2   6  13   28.03    2.10
   2   6  13   22.65    1.96
   6  13   2   22.84    1.87
  13   6  -2   23.62    1.74
  13   2   6   23.20    1.92
  -2  13   6   20.81    1.80
  13   6   3   14.56    1.31
   3  13   6   12.73    1.31
  -3   6  13   14.74    1.32
   6  13   3   16.00    1.49
   3   6  13   16.35    1.57
  -3  13   6   13.95    1.35
  13   6  -3   15.43    1.26
  13   3   6   16.42    1.48
  -4   6  13   67.69    4.41
  13   6   4   60.06    4.45
   4  13   6   61.18    4.49
  -4  13   6   65.47    4.64
   4   6  13   70.73    4.85
   6  13   4   67.52    4.76
  -6   4  13   65.46    4.60
  13   4   6   67.48    4.77
  13   6   5   31.42    2.38
   6   5  13   30.75    2.56
  -5   6  13   28.78    2.23
   5  13   6   29.01    2.38
   6  13   5   32.98    2.53
  13   5   6   32.01    2.52
   5   6  13   31.86    2.62
  -6   5  13   31.64    2.35
  -6   6  13   23.97    1.86
   6   6  13   29.45    2.24
  13   6   6   25.76    2.07
   6  13   6   20.10    2.01
  13   7   0    1.10    0.44
   0   7  13    2.56    0.68
   0  13   7    1.09    0.48
   7  13   0    0.13    0.45
  13   7   1   43.24    3.13
   1  13   7   44.21    3.18
  -1   7  13   41.43    3.17
   1   7  13   44.25    3.29
  -1  13   7   44.26    3.22
  13   7  -1   44.02    3.15
   7  13   1   44.07    3.26
   2  13   7    5.24    0.79
  13   7   2    5.15    0.76
  -2   7  13    5.25    0.78
   2   7  13    4.73    0.83
  13   7  -2    4.92    0.66
   7  13   2    4.26    0.79
  13   2   7    4.97    0.87
  -2  13   7    4.76    0.73
  13   7   3   13.70    1.32
   3  13   7   10.88    1.30
  -3   7  13   14.43    1.28
  -7   3  13   18.10    1.33
   7  13   3   15.59    1.48
   3   7  13   18.49    1.60
  13   3   7   18.02    1.56
  13   7  -3   12.49    1.25
  -3  13   7   12.48    1.32
   4  13   7   43.62    3.26
  13   7   4   42.64    3.22
  -4   7  13   44.24    3.15
  -4  13   7   51.73    3.46
  -7   4  13   44.02    3.36
  13   4   7   44.96    3.57
   7  13   4   56.29    3.63
   4   7  13   47.70    3.63
  13   7   5   30.80    2.42
   7   5  13   32.15    2.60
   5  13   7   28.37    2.38
  -5   7  13   29.96    2.25
   7  13   5   31.34    2.52
  -5  13   7   30.89    2.35
  13   5   7   30.44    2.51
   5   7  13   31.74    2.60
  -7   5  13   33.12    2.30
   7   6  13    7.33    1.16
  13   7   6    9.64    1.16
  -6   7  13    9.86    0.96
   6  13   7   10.18    1.21
   7  13   6   11.26    1.22
   6   7  13    8.59    1.20
  13   6   7    9.46    1.16
  -7   6  13    8.76    0.91
   7   7  13    0.12    0.62
  -7   7  13   -0.17    0.32
  13   7   7   -0.64    0.51
   7  13   7    0.11    0.48
  13   8   0    4.54    0.72
   0  13   8    4.72    0.74
   0   8  13    4.62    0.79
   8  13   0    4.26    0.75
  13   8   1   23.60    1.86
  -1   8  13   23.14    1.92
   1  13   8   21.52    1.88
   8  13   1   17.37    1.51
  -1  13   8   15.30    1.42
   1   8  13   15.20    1.51
  13   8  -1   15.25    1.38
  13   8   2   20.60    1.77
  -2   8  13   23.92    1.80
   2  13   8   19.07    1.80
  -2  13   8   16.93    1.50
  13   8  -2   16.84    1.44
   2   8  13   20.92    1.70
   8  13   2   15.52    1.53
  13   8   3   88.06    6.17
  -3   8  13   88.76    6.13
   3  13   8   91.44    6.22
   3   8  13   88.22    6.25
  13   3   8   86.79    6.25
  -3  13   8   88.99    6.11
  13   8  -3   96.45    6.08
  -8   3  13   81.59    5.98
   8  13   3   95.04    6.23
  13   8   4    2.77    0.68
  -4   8  13    3.41    0.62
   4  13   8    2.65    0.71
  13   4   8    3.06    0.74
  -4  13   8    1.07    0.46
   8  13   4    1.61    0.58
  -8   4  13    3.38    0.49
   4   8  13    2.25    0.73
   5  13   8    5.16    0.90
  13   8   5    4.10    0.80
  -5   8  13    4.72    0.69
   8   5  13    6.25    1.05
   5   8  13    6.87    1.06
  -5  13   8    4.02    0.70
  13   5   8    6.66    1.00
   8  13   5    4.24    0.81
  -8   5  13    6.98    0.67
   6  13   8   14.20    1.50
  -6   8  13   15.62    1.33
   8   6  13   17.52    1.72
  13   8   6   15.07    1.53
   6   8  13   13.00    1.51
  -8   6  13   13.51    1.13
  13   6   8   15.64    1.51
   8  13   6   12.33    1.43
  -7   8  13   31.55    2.16
   8   7  13   27.10    2.42
   7  13   8   28.29    2.37
  13   8   7   26.66    2.38
   8  13   7   30.82    2.43
  -8   7  13   27.98    2.08
   7   8  13   28.44    2.43
  13   7   8   28.44    2.42
  13   8   8    7.82    1.10
   8   8  13   12.25    1.40
   8  13   8    5.17    1.01
  -8   8  13    5.65    0.72
   0   9  13    8.14    1.03
  13   9   0    8.47    0.97
   9  13   0    7.08    0.96
   0  13   9    7.99    0.98
   9  13  -1   47.40    3.35
  13   9   1   43.62    3.32
   1  13   9   46.62    3.38
  -1   9  13   44.90    3.35
  -1  13   9   47.67    3.49
   1   9  13   44.48    3.54
  13   9  -1   52.98    3.49
   9  13   1   46.73    3.53
  13   9   2   26.46    2.06
  -2   9  13   25.13    2.05
   2  13   9   23.90    2.09
  13   9  -2   27.08    1.92
   2   9  13   19.44    2.00
  -2  13   9   23.06    1.92
   9  13   2   25.31    2.03
   3  13   9   46.36    3.51
  -3   9  13   47.02    3.39
  13   9   3   47.67    3.47
  13   3   9   45.43    3.38
  -3  13   9   43.63    3.16
   3   9  13   42.90    3.31
   9  13   3   44.66    3.27
  -9   3  13   41.61    2.98
   4  13   9    7.52    1.11
  13   9   4    8.10    1.08
  -4   9  13    9.99    1.03
  -9   4  13    7.86    0.76
  13   4   9    9.84    1.21
   4   9  13    8.55    1.16
   9  13   4    7.20    1.03
  -4  13   9    6.54    0.87
   5  13   9   25.73    2.23
  -5   9  13   26.48    2.03
   9   5  13   23.79    2.33
  13   9   5   28.37    2.22
   5   9  13   28.33    2.45
   9  13   5   29.90    2.40
  -9   5  13   27.33    2.05
  13   5   9   28.22    2.44
  -5  13   9   32.20    2.24
  13   9   6   22.15    1.94
   9   6  13   16.96    1.99
  -6   9  13   23.11    1.71
   6  13   9   21.87    1.96
   9  13   6   19.29    1.78
  -9   6  13   17.62    1.40
   6   9  13   18.97    1.86
  13   6   9   18.97    1.77
  -6  13   9   18.93    1.54
   9   7  13   37.96    3.15
   7  13   9   40.94    3.09
  -7   9  13   39.18    2.81
  13   9   7   38.14    3.05
  13   7   9   36.87    2.92
   9  13   7   34.41    2.83
   7   9  13   35.32    2.94
  -9   7  13   36.74    2.53
  13   9   8   25.09    2.19
  -8   9  13   23.84    1.83
   9   8  13   25.05    2.30
   8  13   9   23.99    2.18
  13   8   9   19.93    1.99
   9  13   8   21.89    2.01
   8   9  13   22.58    2.10
  -9   8  13   21.52    1.61
   9  13   9    1.19    0.73
  -9   9  13    3.56    0.48
   9   9  13    0.61    0.67
  13   9   9    0.88    0.72
   0  13  10    6.43    0.93
   0  10  13    3.72    0.81
  13  10   0    7.18    0.92
  10  13   0    9.77    1.05
   1  13  10   34.65    2.54
  -1  10  13   36.00    2.51
  13  10   1   30.88    2.46
  10  13  -1   26.48    2.42
  10  13   1   31.99    2.58
  13  10  -1   30.56    2.48
   1  10  13   37.67    2.65
  -1  13  10   32.31    2.53
  -2  10  13   17.59    1.58
   2  13  10   16.99    1.66
  13  10   2   18.21    1.61
  10  13   2   20.57    1.74
  -2  13  10   20.51    1.69
  13  10  -2   21.36    1.64
 -10   2  13   17.13    1.43
   2  10  13   20.39    1.82
  -3  10  13    7.01    0.89
   3  13  10    6.39    0.98
  13  10   3    5.47    0.88
   3  10  13    8.07    1.13
  -3  13  10    8.90    1.01
  10  13   3    5.87    0.98
  13   3  10    9.71    1.35
 -10   3  13    7.50    0.70
  -4  10  13    0.75    0.46
  13  10   4    0.90    0.56
   4  13  10    0.46    0.60
  13   4  10    1.17    0.72
 -10   4  13    1.71    0.33
  -4  13  10    2.20    0.56
  10  13   4    1.64    0.63
   4  10  13    1.25    0.69
   5  13  10   14.75    1.64
  -5  10  13   16.89    1.44
  13  10   5   16.89    1.63
  10   5  13   17.35    1.82
 -10   5  13   17.65    1.31
   5  10  13   18.49    1.74
  -5  13  10   16.06    1.51
  10  13   5   17.90    1.73
  13   5  10   22.29    1.90
  13  10   6   30.54    2.50
  -6  10  13   26.46    2.25
   6  13  10   31.58    2.55
  10   6  13   35.70    2.69
  13   6  10   33.03    2.46
 -10   6  13   26.53    1.90
  10  13   6   24.71    2.28
  -6  13  10   24.08    2.05
   6  10  13   30.84    2.38
  -7  10  13   34.24    2.49
   7  13  10   35.08    2.79
  10   7  13   32.83    2.85
  13  10   7   33.09    2.76
  13   7  10   33.68    2.88
 -10   7  13   35.29    2.44
  -7  13  10   38.75    2.61
  10  13   7   35.41    2.85
   7  10  13   30.12    2.85
   8  13  10   14.63    1.64
  10   8  13   14.57    1.72
  13  10   8   14.08    1.59
  -8  10  13   13.73    1.22
  13   8  10   14.56    1.62
 -10   8  13   12.93    1.16
   8  10  13   15.67    1.72
  10  13   8   14.55    1.59
  13  10   9    1.93    0.74
  -9  10  13    3.06    0.50
   9  13  10    2.53    0.82
  10   9  13    3.04    0.90
  13   9  10    0.93    0.75
   9  10  13    2.51    0.89
  10  13   9    2.67    0.82
  10  13  10    7.48    1.20
  13  10  10    6.33    1.12
  10  10  13    5.87    1.09
   0  11  13   22.60    2.05
  13  11   0   27.01    2.05
   0  13  11   23.17    2.05
  11  13   0   25.23    2.06
  -1  11  13    4.06    0.78
   1  13  11    3.85    0.80
  11  13  -1    7.40    0.92
  13  11   1    4.67    0.79
  11  13   1    4.30    0.80
  -1  13  11    4.17    0.76
   1  11  13    2.87    0.75
  13  11  -1    4.39    0.74
  13  11   2   24.54    2.14
  -2  11  13   26.59    2.15
   2  13  11   27.59    2.23
  13  11  -2   27.33    2.26
 -11   2  13   29.92    2.13
   2  11  13   29.85    2.40
  -2  13  11   26.83    2.26
  11  13   2   29.90    2.37
   3  13  11   34.46    2.69
  13  11   3   31.87    2.61
  -3  11  13   33.31    2.56
   3  11  13   28.65    2.51
  13   3  11   33.71    2.73
  -3  13  11   32.37    2.41
  11  13   3   28.48    2.46
   4  13  11    1.44    0.67
  -4  11  13    0.99    0.49
  13  11   4    0.47    0.54
  11   4  13    0.56    0.73
   4  11  13    0.96    0.61
  -4  13  11    0.72    0.47
  13   4  11    0.42    0.72
  11  13   4    0.48    0.56
   5  13  11   18.73    1.80
  11   5  13   17.36    1.83
  13  11   5   19.51    1.78
  -5  11  13   16.64    1.55
  11  13   5   18.49    1.82
  -5  13  11   19.16    1.64
   5  11  13   20.45    1.93
  13   5  11   19.39    1.95
   6  13  11   11.82    1.45
  -6  11  13   12.26    1.16
  11   6  13    9.57    1.42
  13  11   6   11.65    1.40
   6  11  13   11.88    1.41
  11  13   6   10.76    1.31
  13   6  11   11.35    1.47
  -6  13  11   11.17    1.13
  13  11   7   10.41    1.31
  -7  11  13    9.35    0.99
   7  13  11    8.19    1.25
  11   7  13    7.71    1.33
  11  13   7    7.22    1.07
   7  11  13    5.94    1.09
  13   7  11    6.73    1.16
  -7  13  11    6.94    0.84
  -8  11  13    1.07    0.45
   8  13  11    1.81    0.78
  13  11   8    1.35    0.74
  11   8  13    1.71    0.77
  -8  13  11    1.66    0.46
  13   8  11    0.33    0.65
  11  13   8    1.72    0.76
   8  11  13    2.31    0.85
  11   9  13    9.87    1.37
  13  11   9   10.31    1.39
   9  13  11    8.00    1.25
  -9  11  13   10.00    0.96
  13   9  11    7.28    1.20
  11  13   9   10.29    1.32
   9  11  13    8.15    1.29
  13  11  10   16.95    1.87
  10  13  11   18.29    1.87
  11  10  13   13.77    1.74
  13  10  11   19.96    2.08
  11  13  10   21.15    2.08
  10  11  13   20.09    2.02
  11  13  11    4.54    1.05
  13  11  11    4.18    1.03
  11  11  13    5.45    1.16
   0  13  12   18.72    1.72
  12  13   0   16.04    1.62
   0  12  13   18.10    1.68
  13  12   0   18.27    1.64
  -1  12  13    7.02    1.01
  12  13  -1    8.97    1.07
   1  13  12    5.57    0.99
  13  12   1    8.18    1.05
  13  12  -1    8.28    1.02
  -1  13  12    7.10    1.04
  12  13   1    8.16    1.09
   1  12  13    7.58    1.10
  -2  12  13   55.80    3.99
   2  13  12   54.64    4.06
  13  12   2   54.37    4.02
  -2  13  12   50.27    3.60
  12  13   2   48.33    3.64
   2  12  13   49.62    3.68
  13  12  -2   47.00    3.53
   3  13  12   25.56    2.31
  -3  12  13   27.74    2.21
  13  12   3   27.26    2.26
   3  12  13   25.07    2.18
  -3  13  12   23.09    1.99
  12  13   3   24.51    2.11
  -4  12  13   -0.11    0.47
  13  12   4    0.52    0.60
   4  13  12   -0.03    0.62
  12   4  13   -0.15    0.74
   4  12  13    0.67    0.62
  12  13   4    1.53    0.66
  13   4  12    0.78    0.77
  -4  13  12    1.04    0.51
  13  12   5    8.60    1.19
   5  13  12    8.40    1.25
  -5  12  13   10.40    1.07
  12   5  13    6.86    1.27
  13   5  12    6.15    1.15
   5  12  13    5.49    1.02
  -5  13  12    7.78    0.91
  12  13   5    7.98    1.16
  13  12   6    7.75    1.19
  12   6  13    7.81    1.29
   6  13  12    9.42    1.32
  -6  12  13    9.01    1.00
  12  13   6    4.54    0.95
   6  12  13    7.47    1.16
  -6  13  12    6.71    0.85
  13   6  12    5.71    1.14
  13  12   7   60.00    4.60
   7  13  12   63.86    4.68
  -7  12  13   62.42    4.36
  12   7  13   64.11    4.75
   7  12  13   62.04    4.56
  12  13   7   61.23    4.49
  -7  13  12   59.15    4.23
  13   7  12   60.52    4.59
  13  12   8    2.08    0.81
  12   8  13    2.04    0.89
  -8  12  13    0.83    0.45
   8  13  12    1.67    0.83
  13   8  12    2.28    0.89
   8  12  13    1.76    0.86
  12  13   8    2.31    0.80
  -8  13  12    1.10    0.45
  -9  12  13   22.25    1.80
  13  12   9   22.49    2.22
   9  13  12   24.33    2.28
  12   9  13   26.46    2.36
  12  13   9   26.15    2.35
  13   9  12   29.88    2.54
   9  12  13   23.60    2.42
  12  10  13   16.47    1.91
  13  12  10   15.38    1.80
  10  13  12   16.12    1.88
  12  13  10   19.75    2.06
  10  12  13   19.78    2.10
  13  10  12   21.88    2.08
  12  11  13    0.13    0.80
  13  12  11   -0.45    0.73
  11  13  12   -0.04    0.79
  13  11  12    0.56    0.81
  11  12  13    0.03    0.70
  12  13  11   -0.06    0.77
  12  12  13   10.76    1.57
  12  13  12   10.96    1.58
  13  12  12   13.02    1.68
   0  13  13   29.49    2.33
  13  13   0   26.25    2.26
  -1  13  13    0.53    0.61
   1  13  13    1.54    0.68
  13  13  -1    0.10    0.49
  13  13   1   -0.03    0.52
  -2  13  13    0.52    0.58
   2  13  13    2.04    0.74
  13  13   2    1.57    0.65
  -3  13  13   11.07    1.25
   3  13  13   11.81    1.43
  13  13   3   10.90    1.36
  -4  13  13   14.19    1.38
   4  13  13   12.32    1.56
  13   4  13   19.09    1.95
  13  13   4   11.86    1.49
  -5  13  13   10.38    1.14
   5  13  13    9.08    1.33
  13   5  13    9.60    1.44
  13  13   5   11.07    1.34
  -6  13  13    6.63    0.83
   6  13  13    5.76    1.12
  13   6  13    3.06    0.94
  13  13   6    5.34    1.01
  -7  13  13    0.00    0.43
   7  13  13    0.18    0.73
  13   7  13   -0.11    0.69
  13  13   7    0.98    0.72
  -8  13  13   19.46    1.66
   8  13  13   22.12    2.14
  13   8  13   20.43    2.15
  13  13   8   20.91    2.04
  -9  13  13    0.57    0.41
   9  13  13   -0.29    0.65
  13   9  13    1.91    0.92
  13  13   9    0.05    0.72
  10  13  13    6.92    1.22
  13  10  13    9.54    1.40
  13  13  10    6.88    1.28
  11  13  13    5.80    1.19
  13  11  13    5.03    1.12
  13  13  11    5.47    1.18
  12  13  13    2.59    1.00
  13  12  13    2.20    0.96
  13  13  12    1.91    0.94
  13  13  13   48.62    3.98
  14   0   0    1.00    0.33
  14   0  -1   13.64    1.09
  14   0   1   13.54    1.16
  14   1   0   12.91    1.14
  14  -1   0   14.30    1.12
  14   1   1    3.66    0.54
  14  -1  -1    3.13    0.43
  14  -1   1    3.53    0.54
  14   1  -1    2.60    0.44
  14   0  -2   30.66    2.15
  14   2   0   28.82    2.23
  14  -2   0   33.72    2.25
  14   0   2   30.83    2.30
  14   1  -2   29.27    1.94
  14   2   1   26.88    2.04
  14  -2  -1   25.45    1.93
  14  -1  -2   27.74    1.92
  14   2  -1   28.06    2.00
  14   1   2   26.20    2.07
  14   2  -2   51.72    3.48
   2  14   2   46.20    3.62
  14  -2  -2   52.43    3.43
  14   2   2   52.60    3.61
  14   0  -3   46.40    3.16
  14   0   3   48.72    3.39
  14   3   0   46.67    3.30
   1  14   3  102.32    7.36
  14   1  -3  107.91    7.15
  14   3   1  114.14    7.30
  14   1   3  122.04    7.91
  14  -1  -3  113.17    7.68
  14   3  -1  117.37    7.81
  14   2  -3   13.96    1.04
  14   3   2    8.72    1.16
   2  14   3   18.73    1.35
  14   2   3    6.83    1.00
  14  -2  -3   10.69    0.78
  14   3  -2   13.72    0.97
   3  14   3   79.95    5.88
  14   3  -3   82.01    5.68
  14   3   3   93.89    5.86
   0  14   4   12.05    1.25
  14   4   0   13.87    1.16
  14   4   1    3.68    0.61
   1  14   4    4.40    0.74
   4  14   1    4.78    0.75
  14   1   4    2.59    0.64
  -1  14   4    4.61    0.67
  14   4  -1    3.51    0.53
   2  14   4  163.27   11.44
  14   4   2  177.82   11.39
   4  14   2  163.79   11.67
  14   4  -2  173.81   11.52
  14   2   4  185.46   11.67
  14   4   3   99.80    7.25
   3  14   4  115.48    7.37
  14   3   4   85.28    6.64
  14   4  -3  105.21    6.53
   4  14   3  101.48    6.74
  14   4   4    0.34    0.47
   4  14   4    0.53    0.49
  14   5   0    0.63    0.38
   0  14   5    0.79    0.47
   0   5  14   -0.34    0.54
  14   5   1   59.21    4.15
  -1   5  14   62.86    4.28
   1  14   5   56.63    4.22
   1   5  14   52.43    4.06
  -1  14   5   55.04    3.95
  14   5  -1   56.87    3.85
   5  14   1   50.34    3.97
  14   1   5   63.05    4.05
  14   5   2   27.46    2.05
  -2   5  14   25.89    2.11
   2  14   5   24.35    2.07
  14   2   5   25.35    2.10
  14   5  -2   26.39    1.97
   2   5  14   30.97    2.33
   5  14   2   24.59    2.11
  -2  14   5   25.88    2.06
  -3   5  14   19.07    1.68
  14   5   3   19.26    1.67
   3  14   5   20.68    1.72
  14   3   5   25.47    2.18
   5  14   3   29.09    2.26
  14   5  -3   28.35    2.03
   4  14   5   31.60    2.46
  14   5   4   29.95    2.39
  -4   5  14   31.06    2.36
   5  14   4   28.22    2.28
  -5   4  14   28.00    2.18
  14   4   5   27.98    2.24
  14   5   5   27.62    2.35
   5  14   5   33.59    2.44
  -5   5  14   28.73    2.26
   5   5  14   31.07    2.60
  14   6   0    7.02    0.84
   0  14   6    8.46    1.00
   0   6  14    6.02    0.95
   1  14   6   12.01    1.22
  14   6   1   12.12    1.14
  -1   6  14    9.59    1.19
  -1  14   6   12.88    1.24
  14   6  -1   12.66    1.13
   6  14   1   15.96    1.35
   1   6  14    8.13    1.25
  -2   6  14   43.29    2.93
   2  14   6   35.64    2.90
  14   6   2   37.13    2.85
  -2  14   6   29.49    2.48
   2   6  14   39.86    2.73
  14   2   6   36.97    2.62
   6  14   2   29.32    2.53
  14   6  -2   33.38    2.42
   3  14   6    5.65    0.85
  14   6   3    4.75    0.80
  -3   6  14    6.99    0.87
  -3  14   6    3.63    0.66
  14   3   6    4.70    0.81
  14   6  -3    3.84    0.56
   3   6  14    5.10    0.95
   6  14   3    3.53    0.70
   4  14   6   44.01    3.24
  14   6   4   45.52    3.20
  -4   6  14   39.90    3.12
   6  14   4   46.03    3.29
  -6   4  14   40.95    3.09
   4   6  14   40.14    3.29
  14   4   6   46.70    3.28
  -5   6  14   37.47    2.72
   6   5  14   37.54    3.04
   5  14   6   36.38    2.86
  14   6   5   36.03    2.84
  14   5   6   41.15    3.18
   6  14   5   42.83    3.21
   5   6  14   41.24    3.26
  -6   5  14   43.26    3.04
   6   6  14   19.38    1.86
  14   6   6   15.77    1.67
  -6   6  14   19.01    1.51
   6  14   6   17.71    1.70
   0   7  14  143.69    8.83
  14   7   0  128.85    8.67
   7  14   0  119.51    8.73
   0  14   7  125.38    8.74
  -1   7  14   51.55    3.65
   1  14   7   47.72    3.61
  14   7   1   49.72    3.57
  14   7  -1   46.58    3.33
  -1  14   7   45.21    3.40
   1   7  14   47.07    3.49
   7  14   1   48.35    3.46
   2  14   7    6.81    0.93
  14   7   2    5.71    0.81
  -2   7  14    4.36    0.81
  14   7  -2    5.86    0.71
   7  14   2    5.22    0.85
  14   2   7    3.10    0.78
  -2  14   7    5.46    0.78
   2   7  14    3.94    0.85
   3  14   7   18.21    1.75
  14   7   3   20.35    1.74
  -3   7  14   20.39    1.69
  14   3   7   21.72    1.76
   3   7  14   20.14    1.76
  14   7  -3   16.12    1.43
  -3  14   7   15.65    1.50
   7  14   3   17.36    1.64
  -4   7  14  103.55    7.07
  14   7   4  105.10    7.15
   4  14   7  103.34    7.19
   7  14   4  117.04    7.51
  14   4   7  109.99    7.49
  -7   4  14  103.11    7.28
  -4  14   7  112.48    7.38
   4   7  14  100.91    7.50
  -5   7  14    7.15    0.89
   7   5  14    7.74    1.25
  14   7   5    7.97    1.03
   5  14   7    7.72    1.06
  -7   5  14    8.70    0.90
   5   7  14    7.43    1.18
   7  14   5    8.74    1.11
  14   5   7    7.74    1.10
   7   6  14    1.46    0.79
  -6   7  14    1.55    0.48
   6  14   7    2.76    0.72
  14   7   6    1.28    0.62
  -7   6  14    1.66    0.45
   6   7  14    0.82    0.70
  14   6   7    0.94    0.61
   7  14   6    3.21    0.76
  14   7   7   50.31    3.58
   7  14   7   45.64    3.56
   7   7  14   47.26    3.63
  -7   7  14   46.14    3.32
  14   8   0    2.07    0.54
   0   8  14    2.44    0.68
   0  14   8    1.67    0.58
   8  14   0    1.42    0.58
  14   8   1    1.22    0.53
  -1   8  14    0.64    0.57
   1  14   8    1.62    0.61
   8  14   1    0.29    0.50
  14   8  -1    0.70    0.45
  -1  14   8    0.76    0.49
   1   8  14    0.52    0.57
  -2   8  14   78.27    5.07
  14   8   2   68.89    5.01
   2  14   8   67.80    5.05
  14   2   8   93.54    5.62
   2   8  14   82.79    5.52
   8  14   2   70.19    5.41
  14   8  -2   73.02    5.30
  -2  14   8   72.28    5.36
  14   8   3   22.86    1.92
  -3   8  14   23.54    1.91
   3  14   8   22.12    1.93
  -3  14   8   22.49    1.84
  14   8  -3   18.78    1.73
   3   8  14   24.17    2.05
  -8   3  14   24.94    1.74
   8  14   3   20.05    1.92
  14   3   8   24.79    2.07
   4  14   8   24.66    2.13
  -4   8  14   25.96    2.00
  14   8   4   23.72    2.09
  -8   4  14   28.98    2.06
   4   8  14   27.60    2.39
  14   4   8   30.44    2.36
   8  14   4   27.96    2.30
  -4  14   8   24.30    2.12
  14   8   5   23.12    2.00
   5  14   8   22.47    2.00
  -5   8  14   23.64    1.88
   8   5  14   24.15    2.18
   8  14   5   26.13    2.16
  -5  14   8   22.55    1.94
  -8   5  14   24.28    1.85
  14   5   8   28.02    2.20
   5   8  14   23.77    2.21
  14   8   6   24.34    2.01
   6  14   8   21.51    2.02
   8   6  14   22.78    2.16
  -6   8  14   21.53    1.79
  14   6   8   14.34    1.69
  -8   6  14   17.09    1.38
   6   8  14   18.63    1.84
   8  14   6   19.30    1.73
   8   7  14   10.99    1.48
  -7   8  14   13.87    1.23
  14   8   7   14.58    1.52
   7  14   8   14.33    1.57
   8  14   7   13.34    1.51
  14   7   8   13.63    1.51
   7   8  14   13.92    1.64
  -8   7  14   12.44    1.14
   8  14   8    6.52    1.10
  14   8   8    8.07    1.19
  -8   8  14    8.52    0.84
   8   8  14    5.71    1.10
   0  14   9   70.96    5.10
  14   9   0   70.67    5.05
   0   9  14   69.29    5.13
   9  14   0   79.59    5.16
   1  14   9    5.26    0.87
  14   9   1    6.07    0.87
  -1   9  14    6.87    0.94
  -1  14   9    4.67    0.78
   9  14   1    3.82    0.76
  14   9  -1    4.86    0.76
   1   9  14    6.30    0.94
  14   9   2    4.11    0.78
  -2   9  14    5.89    0.87
   2  14   9    4.88    0.87
   2   9  14    6.12    0.98
  14   9  -2    4.21    0.71
   9  14   2    4.44    0.83
  -2  14   9    5.59    0.82
  -3   9  14    4.23    0.74
  14   9   3    4.61    0.80
   3  14   9    5.01    0.84
  14   3   9    2.33    0.81
  -9   3  14    3.51    0.54
   3   9  14    3.25    0.84
  -3  14   9    5.88    0.79
   9  14   3    6.54    0.94
   4  14   9    7.70    1.09
  -4   9  14    7.05    0.90
  14   9   4    6.00    0.94
  -4  14   9    6.86    0.85
  14   4   9    4.59    0.96
   9  14   4    6.09    0.97
   4   9  14    6.61    1.08
  -9   4  14    5.39    0.65
   5  14   9    1.20    0.70
  -5   9  14    0.52    0.46
  14   9   5    0.74    0.56
   9   5  14   -0.43    0.59
  -5  14   9    2.17    0.54
   5   9  14    0.79    0.71
  14   5   9    0.73    0.65
   9  14   5    1.04    0.58
  -9   5  14    0.42    0.33
  14   9   6   25.79    2.29
   9   6  14   29.90    2.52
  -6   9  14   26.64    2.09
   6  14   9   28.12    2.33
   9  14   6   30.10    2.52
  -9   6  14   31.24    2.18
  -6  14   9   29.24    2.29
  14   6   9   29.39    2.54
   6   9  14   30.95    2.61
  14   9   7   32.22    2.56
   9   7  14   32.60    2.69
  -7   9  14   28.97    2.25
   7  14   9   28.97    2.51
  -9   7  14   27.19    2.01
  14   7   9   29.01    2.42
   7   9  14   28.67    2.48
   9  14   7   26.67    2.32
  -8   9  14    0.73    0.41
  14   9   8    1.20    0.72
   9   8  14    1.82    0.76
   8  14   9    1.30    0.72
  -9   8  14    1.98    0.43
   8   9  14    1.43    0.81
   9  14   8    1.58    0.76
  14   8   9    1.88    0.75
   9   9  14   42.57    3.17
   9  14   9   35.82    3.01
  -9   9  14   34.43    2.63
  14   9   9   38.74    3.05
  14  10   0    2.32    0.64
   0  10  14    2.03    0.69
  10  14   0    4.54    0.78
   0  14  10    2.19    0.66
  14  10   1   25.98    2.00
  -1  10  14   25.03    2.04
   1  14  10   20.15    1.98
  14  10  -1   21.31    1.91
  10  14   1   24.21    2.03
  -1  14  10   22.88    1.96
   1  10  14   25.99    2.08
  14  10   2   25.08    2.12
  -2  10  14   26.41    2.12
   2  14  10   26.04    2.19
 -10   2  14   25.68    1.96
   2  10  14   26.82    2.31
  -2  14  10   27.34    2.19
  14  10  -2   28.64    2.14
  10  14   2   28.77    2.30
  -3  10  14    1.47    0.58
  14  10   3    1.45    0.61
   3  14  10    1.81    0.68
  14   3  10    1.05    0.75
 -10   3  14    2.11    0.40
  -3  14  10    2.65    0.63
   3  10  14    1.63    0.72
  10  14   3    2.64    0.71
  14  10   4   10.76    1.28
   4  14  10   10.83    1.37
  -4  10  14   12.14    1.21
   4  10  14    9.19    1.27
  -4  14  10    9.30    1.07
  10  14   4    9.49    1.19
  14   4  10    9.55    1.28
 -10   4  14    9.27    0.83
  -5  10  14   20.58    1.67
  14  10   5   17.71    1.78
   5  14  10   19.72    1.88
  10   5  14   17.69    2.00
  14   5  10   18.81    2.02
  10  14   5   22.24    1.98
 -10   5  14   21.83    1.63
   5  10  14   23.03    2.08
  -5  14  10   21.69    1.80
  -6  10  14    0.90    0.45
   6  14  10    0.06    0.62
  10   6  14    0.49    0.66
  14  10   6    0.27    0.62
   6  10  14    0.03    0.59
  14   6  10    0.22    0.67
  10  14   6   -0.27    0.56
  -6  14  10    0.77    0.44
   7  14  10   14.53    1.63
  14  10   7   13.77    1.58
  -7  10  14   14.56    1.25
  10   7  14    9.87    1.55
  10  14   7   11.22    1.37
  14   7  10    9.57    1.40
   7  10  14   13.13    1.59
  -8  10  14   23.68    1.73
  10   8  14   21.88    2.10
  14  10   8   20.07    2.04
   8  14  10   19.24    1.97
  10  14   8   22.59    2.11
  14   8  10   20.82    2.13
   8  10  14   22.86    2.20
   9  14  10   31.24    2.66
  -9  10  14   30.26    2.25
  14  10   9   30.55    2.65
  10   9  14   30.99    2.75
  14   9  10   34.84    3.01
   9  10  14   37.76    3.10
  10  14   9   36.79    3.01
  10  10  14   19.23    2.06
  10  14  10   18.08    1.92
  14  10  10   16.40    1.89
   0  14  11   19.00    1.77
   0  11  14   19.75    1.78
  11  14   0   16.61    1.69
  14  11   0   21.01    1.75
  14  11   1    3.90    0.77
   1  14  11    3.60    0.78
  -1  11  14    3.03    0.76
  11  14   1    4.72    0.89
  14  11  -1    5.72    0.83
   1  11  14    4.33    0.88
  -1  14  11    5.80    0.87
   2  14  11    2.48    0.73
  14  11   2    1.97    0.65
  -2  11  14    1.21    0.62
  11  14   2    1.83    0.66
  14  11  -2    3.17    0.66
  -2  14  11    1.47    0.60
   2  11  14    0.90    0.68
   3  14  11   27.49    2.26
  -3  11  14   26.29    2.14
  14  11   3   24.07    2.16
  -3  14  11   20.60    1.86
  11  14   3   20.43    1.97
  14   3  11   25.34    2.25
   3  11  14   23.19    2.07
  -4  11  14   37.89    2.59
  11   4  14   29.40    2.83
  14  11   4   31.86    2.66
   4  14  11   32.17    2.72
  -4  14  11   36.24    2.70
  14   4  11   35.18    2.96
   4  11  14   34.53    2.89
  11  14   4   34.64    2.79
  14  11   5   21.48    2.04
   5  14  11   25.80    2.14
  11   5  14   23.54    2.26
  -5  11  14   21.25    1.86
  14   5  11   20.66    2.11
   5  11  14   21.00    2.07
  11  14   5   22.69    1.98
  -5  14  11   22.41    1.83
  14  11   6   15.83    1.62
   6  14  11   12.50    1.54
  -6  11  14   15.10    1.37
  11   6  14   15.24    1.75
  11  14   6   15.76    1.64
   6  11  14   18.51    1.79
  14   6  11   16.77    1.79
  -6  14  11   11.89    1.34
  -7  11  14   66.34    4.57
  11   7  14   68.25    4.97
  14  11   7   66.14    4.83
   7  14  11   62.17    4.84
  14   7  11   59.04    4.45
   7  11  14   55.26    4.38
  -7  14  11   59.16    4.12
  11  14   7   60.18    4.39
   8  14  11    7.05    1.22
  -8  11  14    9.50    0.98
  11   8  14    7.61    1.37
  14  11   8    9.44    1.32
   8  11  14    7.83    1.32
  14   8  11    9.26    1.38
  11  14   8    9.91    1.36
  -9  11  14   24.80    2.04
  11   9  14   30.05    2.61
  14  11   9   27.94    2.42
   9  14  11   29.28    2.51
  14   9  11   27.56    2.57
   9  11  14   28.29    2.62
  11  14   9   30.07    2.59
  10  14  11    1.46    0.84
  14  11  10    0.61    0.70
  11  10  14    2.02    0.94
  10  11  14    0.72    0.76
  11  14  10    0.53    0.78
  14  10  11    1.00    0.85
  14  11  11    0.77    0.79
  11  14  11    0.71    0.80
  11  11  14   -0.27    0.77
  14  12   0    4.06    0.79
   0  12  14    5.34    0.91
  12  14   0    2.47    0.72
   0  14  12    4.34    0.85
  14  12   1   70.76    4.93
  12  14  -1   71.44    4.91
  -1  12  14   68.34    4.93
   1  14  12   65.20    4.95
  14  12  -1   58.98    4.18
  -1  14  12   57.89    4.20
   1  12  14   51.92    4.22
  12  14   1   62.64    4.27
  -2  12  14   58.37    4.25
   2  14  12   60.65    4.35
  14  12   2   57.04    4.26
  12  14   2   56.76    4.11
  -2  14  12   53.33    4.03
   2  12  14   55.78    4.14
  14  12  -2   56.05    3.98
  -3  12  14   71.02    4.95
   3  14  12   69.55    5.07
  14  12   3   69.47    5.02
  12  14   3   67.45    5.06
  -3  14  12   71.19    4.98
  14   3  12   77.02    5.32
   3  12  14   66.91    5.10
   4  14  12    3.28    0.86
  -4  12  14    3.32    0.71
  14  12   4    3.40    0.82
  12   4  14    5.59    1.11
  14   4  12    4.78    1.08
  -4  14  12    3.75    0.73
   4  12  14    5.94    1.06
  12  14   4    4.76    0.96
  14  12   5   28.14    2.46
   5  14  12   28.28    2.49
  12   5  14   28.66    2.65
  -5  12  14   28.61    2.25
   5  12  14   28.93    2.51
  14   5  12   25.86    2.54
  -5  14  12   27.83    2.24
  12  14   5   30.63    2.47
  -6  12  14   39.01    2.86
  12   6  14   33.01    3.19
   6  14  12   38.61    3.14
  14  12   6   42.94    3.15
  14   6  12   35.46    3.17
  -6  14  12   41.09    2.89
  12  14   6   38.70    3.09
   6  12  14   36.72    3.09
  12   7  14    4.73    1.16
   7  14  12    4.67    1.00
  -7  12  14    4.36    0.71
  14  12   7    3.92    0.93
   7  12  14    3.92    0.98
  12  14   7    4.76    1.02
  14   7  12    4.35    1.06
  -7  14  12    3.26    0.64
  14  12   8   10.07    1.44
  -8  12  14   10.95    1.08
  12   8  14   10.37    1.58
   8  14  12   10.49    1.47
  12  14   8   13.25    1.62
  14   8  12   13.37    1.62
   8  12  14   12.00    1.64
  -8  14  12   12.39    1.18
  14  12   9    2.02    0.85
   9  14  12    2.40    0.86
  12   9  14    1.65    0.85
  -9  12  14    5.58    1.04
  12  14   9    4.42    1.05
  14   9  12    4.20    1.11
   9  12  14    3.95    1.08
  14  12  10    0.80    0.73
  10  14  12    1.51    0.87
  12  10  14    1.23    0.91
  14  10  12    1.98    0.91
  10  12  14    1.68    0.92
  12  14  10    1.03    0.84
  14  12  11    1.58    0.95
  12  11  14    2.02    0.94
  11  14  12    0.89    0.85
  14  11  12    2.80    0.96
  11  12  14    2.95    0.93
  12  14  11    1.44    0.81
  14  12  12    5.18    1.18
  12  12  14    4.67    1.14
  12  14  12    3.14    0.99
  13  14   0    0.66    0.58
  14  13   0   -0.14    0.52
   0  13  14    0.61    0.61
   0  14  13    0.15    0.60
  -1  13  14   14.12    1.51
  14  13   1   11.97    1.45
  13  14  -1   13.54    1.40
   1  14  13   15.28    1.56
   1  13  14   11.81    1.43
  -1  14  13   14.28    1.43
  13  14   1   12.61    1.45
  14  13  -1   11.74    1.36
  14  13   2    1.88    0.70
   2  14  13    0.50    0.64
  -2  13  14    1.06    0.63
  13  14   2    0.77    0.62
  -2  14  13    0.96    0.60
   2  13  14    0.31    0.66
  14  13   3    4.40    0.92
  -3  13  14    5.13    0.88
   3  14  13    5.93    1.06
   3  13  14    4.12    0.98
  14   3  13    5.89    1.18
  13  14   3    6.25    1.01
  -3  14  13    6.30    0.92
  13   4  14   17.10    1.90
  -4  13  14   13.48    1.39
  14  13   4   12.37    1.49
   4  14  13   12.96    1.61
   4  13  14   15.08    1.68
  -4  14  13   14.02    1.43
  13  14   4   15.27    1.65
  14   4  13   12.44    1.69
  14  13   5    4.26    0.94
  -5  13  14    5.73    0.85
   5  14  13    4.49    1.02
  13   5  14    7.78    1.31
  14   5  13    8.94    1.30
   5  13  14    8.76    1.30
  -5  14  13    5.86    0.90
  13  14   5    5.54    1.08
  13   6  14   68.76    5.02
   6  14  13   68.91    4.93
  14  13   6   61.70    4.82
  -6  13  14   65.01    4.64
  -6  14  13   65.66    4.66
  13  14   6   67.28    4.88
   6  13  14   63.36    4.89
  14   6  13   68.59    5.02
  -7  13  14    0.51    0.46
  14  13   7    1.24    0.78
   7  14  13    0.64    0.79
  13   7  14    1.27    0.91
  13  14   7    0.58    0.72
  14   7  13    2.41    1.00
  -7  14  13    0.46    0.47
   7  13  14    1.34    0.83
  13   8  14   15.57    1.86
  -8  13  14   13.54    1.29
  14  13   8   12.66    1.60
   8  14  13   13.60    1.70
   8  13  14   12.69    1.66
  13  14   8   12.39    1.62
  14   8  13   13.20    1.73
  -8  14  13   13.75    1.27
  13   9  14   13.63    1.78
   9  14  13   14.46    1.76
  14  13   9   13.47    1.70
   9  13  14   14.62    1.78
  14   9  13   13.14    1.79
  13  14   9   15.44    1.78
  10  14  13   13.05    1.69
  13  10  14   11.95    1.73
  14  13  10   17.31    1.87
  14  10  13   13.32    1.74
  13  14  10   11.81    1.61
  10  13  14   12.95    1.71
  11  14  13    5.10    1.10
  13  11  14    5.41    1.23
  14  13  11    4.54    1.17
  14  11  13    4.76    1.22
  11  13  14    4.70    1.10
  13  14  11    5.56    1.19
  13  12  14    8.04    1.33
  12  14  13    6.83    1.37
  14  13  12    3.97    1.23
  13  14  12    7.22    1.35
  14  12  13    7.31    1.39
  12  13  14    6.58    1.34
  13  13  14   14.58    1.96
  13  14  13   18.20    2.05
  14  13  13   14.37    1.92
   0  14  14   -0.26    0.59
  14  14   0    0.59    0.56
  -1  14  14    0.99    0.64
   1  14  14    1.24    0.70
  14  14  -1    0.53    0.56
  14  14   1    0.52    0.61
  -2  14  14    1.90    0.69
   2  14  14    3.09    0.87
  14  14   2    1.64    0.69
  -3  14  14   15.63    1.55
   3  14  14   16.45    1.74
  14   3  14   14.87    1.95
  14  14   3   13.38    1.61
  -4  14  14   13.65    1.44
   4  14  14   15.87    1.74
  14   4  14   16.07    1.87
  14  14   4   10.92    1.49
  -5  14  14    0.27    0.52
   5  14  14    0.48    0.77
  14   5  14    0.13    0.88
  14  14   5    0.90    0.71
  -6  14  14    1.08    0.57
   6  14  14    2.02    0.90
  14   6  14    0.99    0.84
  14  14   6    0.95    0.72
  -7  14  14    0.43    0.50
   7  14  14    0.76    0.85
  14   7  14    1.28    0.95
  14  14   7    0.95    0.80
  -8  14  14    0.54    0.47
   8  14  14   -0.20    0.79
  14   8  14    0.48    0.86
  14  14   8   -0.14    0.74
   9  14  14    8.94    1.40
  14   9  14    8.35    1.44
  14  14   9    7.68    1.31
  10  14  14   15.36    1.89
  14  10  14   14.81    1.85
  14  14  10   13.35    1.71
  11  14  14   -0.17    0.83
  14  11  14   -0.48    0.88
  14  14  11    0.82    0.89
  12  14  14    3.96    1.20
  14  12  14    7.17    1.38
  14  14  12    5.16    1.27
  13  14  14    1.38    0.94
  14  13  14    1.34    1.01
  14  14  13    1.71    1.00
  14  14  14   50.08    4.10
  15   0   0    0.21    0.31
  15   0  -1    0.91    0.33
  15   0   1    0.92    0.41
  15   1   0    0.77    0.36
  15  -1   0    0.68    0.35
  15   1   1   23.18    1.85
  15   1  -1   25.90    1.80
  15  -1  -1   24.12    1.77
  15  -1   1   23.98    1.85
  15   0  -2  270.21   17.92
  15   0   2  273.20   18.05
  15   2   0  276.90   18.01
  15  -2   0  275.12   17.99
  15   1  -2   16.76    1.15
  15  -1   2   11.61    1.26
  15  -2  -1   13.52    1.13
  15   2   1   14.96    1.27
  15   2  -1   19.16    1.44
  15  -1  -2   18.40    1.35
  15   1   2   17.40    1.51
  15   2   2    2.15    0.53
  15   2  -2    3.20    0.45
  15  -2  -2    2.77    0.38
  15   3   0    2.54    0.50
  15   0   3    1.06    0.49
  15   0  -3    3.21    0.35
  15  -3  -1   35.83    2.44
  15   1  -3   33.00    2.38
  15   3   1   35.68    2.55
  15   3  -1   33.40    2.38
  15   1   3   34.25    2.49
  15  -1  -3   32.07    2.23
  15   3   2   27.98    2.19
  15   2  -3   28.70    2.02
   2  15   3   30.77    2.31
  15  -3  -2   28.14    1.99
  15   3  -2   29.94    2.15
   3  15   2   30.59    2.35
  15   2   3   29.19    2.29
  15   3   3    4.55    0.77
   3  15   3    6.20    0.92
  15   3  -3    6.37    0.65
  15   4   0    0.26    0.35
  15   0   4    0.08    0.50
   0  15   4   -0.09    0.42
  15   4   1   30.57    2.11
   1  15   4   23.70    2.16
  15   4  -1   27.85    2.20
  15   1   4   33.48    2.37
  15   4   2   64.73    4.55
   2  15   4   64.70    4.62
  15  -4  -2   65.85    4.36
   4  15   2   57.52    3.95
  15   2   4   51.65    3.85
  15   4  -2   53.55    3.72
   3  15   4   37.81    3.01
  15   4   3   41.82    2.97
  15   3   4   45.72    3.07
   4  15   3   38.24    3.06
  15   4  -3   39.49    2.85
   4  15   4    9.17    1.14
  15   4   4    8.44    1.05
   0  15   5    1.69    0.58
   0   5  15    2.40    0.73
  15   5   0    1.89    0.51
   1  15   5    9.81    1.10
  -1   5  15    8.87    1.14
  15   5   1    7.10    0.91
  15   5  -1   10.14    1.02
  -1  15   5   10.41    1.19
   1   5  15    9.17    1.26
  15   1   5   12.63    1.20
  15   5   2   21.08    1.72
   2  15   5   20.61    1.81
  -2   5  15   19.88    1.79
   5  15   2   18.37    1.77
  15   2   5   22.25    1.79
  15   5  -2   20.14    1.59
   3  15   5   11.17    1.27
  15   5   3   11.23    1.17
  -3   5  15   12.06    1.22
  15   3   5    6.15    0.95
  15   5  -3    7.50    0.78
   5  15   3    8.97    1.08
  15   5   4    5.56    0.84
   4  15   5    4.74    0.87
  -4   5  15    5.18    0.80
  15   4   5    4.79    0.80
   5  15   4    4.41    0.84
  -5   4  15    3.97    0.74
   5  15   5    8.07    1.08
  -5   5  15    8.76    0.99
  15   5   5    7.38    1.01
   0  15   6   46.46    3.72
   0   6  15   59.94    3.86
  15   6   0   49.71    3.63
  -1   6  15   37.53    3.07
  15   6   1   40.27    2.99
   1  15   6   44.79    3.11
  15   6  -1   49.03    3.40
   1   6  15   39.67    3.53
  -1  15   6   50.67    3.50
  15   1   6   43.48    3.55
   6  15   1   56.52    3.59
   2  15   6   19.20    1.61
  -2   6  15   16.44    1.62
  15   6   2   16.86    1.51
   6  15   2   20.04    1.73
  -2  15   6   20.00    1.65
  15   2   6   16.80    1.70
   2   6  15   17.88    1.79
  15   6  -2   18.75    1.52
  -3   6  15   23.54    1.88
  15   6   3   21.72    1.86
   3  15   6   20.22    1.90
   6  15   3   17.89    1.73
  15   3   6   23.28    1.84
  15   6  -3   19.14    1.55
  15   6   4    4.00    0.75
   4  15   6    3.48    0.78
  -4   6  15    4.23    0.75
  -6   4  15    1.01    0.49
   4   6  15    1.73    0.73
  15   4   6    1.55    0.62
   6  15   4    1.93    0.60
   5  15   6   29.56    2.15
   6   5  15   22.40    2.27
  -5   6  15   20.82    1.91
  15   6   5   24.79    2.07
  -6   5  15   27.63    2.13
  15   5   6   28.06    2.30
   5   6  15   26.37    2.36
  -6   6  15    4.49    0.76
  15   6   6    6.06    0.94
   6   6  15    6.72    1.16
   6  15   6    6.69    1.02
   0  15   7   19.09    1.63
   0   7  15   15.68    1.64
  15   7   0   17.57    1.52
  -1   7  15   44.24    3.22
  15   7   1   41.03    3.08
   1  15   7   41.31    3.16
  15   7  -1   40.28    2.86
  -1  15   7   38.30    2.95
   7  15   1   37.15    2.98
   1   7  15   40.96    3.06
  15   7   2    0.15    0.45
   2  15   7    0.14    0.49
  -2   7  15    0.12    0.51
   2   7  15    0.10    0.60
  15   2   7    0.42    0.58
   7  15   2    0.57    0.57
  15   7  -2    0.63    0.39
  -2  15   7    0.56    0.46
  -3   7  15    9.20    1.13
   3  15   7   12.38    1.31
  15   7   3    9.50    1.15
   3   7  15    6.11    1.10
  -3  15   7   10.40    1.09
  15   7  -3   11.93    0.99
   7  15   3    9.73    1.15
  15   3   7    6.87    1.09
   4  15   7   33.28    2.89
  -4   7  15   39.62    2.82
  15   7   4   38.68    2.89
  15   4   7   43.72    3.21
   4   7  15   43.71    3.30
  -7   4  15   45.16    3.01
   7  15   4   33.48    3.12
   7   5  15   64.85    4.98
   5  15   7   63.81    4.79
  -5   7  15   67.02    4.67
  15   7   5   70.93    4.81
  15   5   7   59.61    4.38
  -7   5  15   59.12    4.18
   5   7  15   58.92    4.44
   7  15   5   62.74    4.40
   6  15   7    3.10    0.78
  15   7   6    1.70    0.69
   7   6  15    1.49    0.82
  -6   7  15    1.58    0.51
  -7   6  15    1.16    0.48
  15   6   7    2.95    0.75
   7  15   6    3.50    0.78
   6   7  15    0.66    0.68
  15   7   7    1.12    0.67
  -7   7  15    1.00    0.45
   7  15   7    0.85    0.63
   7   7  15    1.07    0.78
  15   8   0   -0.07    0.42
   0  15   8   -0.13    0.45
   0   8  15    0.51    0.58
   1  15   8    4.08    0.79
  15   8   1    3.97    0.73
  -1   8  15    4.07    0.80
   1   8  15    2.23    0.75
   8  15   1    1.37    0.62
  15   8  -1    1.71    0.52
  -1  15   8    1.83    0.62
   2  15   8   48.07    3.64
  15   8   2   49.17    3.59
  -2   8  15   49.79    3.61
   2   8  15   49.54    3.66
  -2  15   8   44.71    3.50
  15   2   8   52.77    3.72
   8  15   2   49.36    3.60
  15   8  -2   46.10    3.43
  -3   8  15    0.68    0.55
  15   8   3    1.61    0.60
   3  15   8    1.55    0.60
  -8   3  15    3.05    0.60
   3   8  15    4.07    0.92
  -3  15   8    7.15    0.85
   8  15   3    6.73    0.97
  15   3   8    2.43    0.79
   4  15   8   14.02    1.56
  15   8   4   14.58    1.48
  -4   8  15   13.60    1.36
  15   4   8   13.87    1.50
  -8   4  15   12.51    1.12
   4   8  15   13.83    1.56
   8  15   4    9.87    1.30
  -4  15   8   10.96    1.22
   5  15   8    0.21    0.54
  15   8   5    0.44    0.58
   8   5  15    0.09    0.80
  -5   8  15   -0.27    0.45
  15   5   8   -0.29    0.58
   5   8  15   -0.38    0.64
  -8   5  15   -0.20    0.35
   8  15   5    0.35    0.58
   8   6  15   21.50    2.13
  -6   8  15   19.90    1.70
  15   8   6   20.17    1.89
   6  15   8   21.23    1.95
  15   6   8   23.82    2.15
  -8   6  15   23.59    1.84
   8  15   6   23.96    2.10
   6   8  15   24.53    2.27
  -7   8  15   17.63    1.54
   8   7  15   21.06    2.02
  15   8   7   18.54    1.81
   7  15   8   17.89    1.82
   7   8  15   22.83    2.14
  -8   7  15   20.16    1.63
   8  15   7   19.06    1.87
  15   7   8   20.87    1.95
   8   8  15   16.57    1.86
   8  15   8   17.63    1.76
  -8   8  15   16.81    1.38
  15   8   8   13.37    1.66
   9  15   0   13.66    1.49
   0  15   9   16.31    1.52
  15   9   0   16.63    1.45
   1  15   9   33.35    2.61
  15   9   1   31.32    2.53
  -1   9  15   33.36    2.60
   1   9  15   31.10    2.56
   9  15   1   29.89    2.50
  15   9  -1   32.13    2.40
  -1  15   9   31.18    2.47
  15   9   2    2.35    0.65
   2  15   9    2.23    0.72
  -2   9  15    2.86    0.71
   9  15   2    3.92    0.83
  15   2   9    5.21    1.01
  15   9  -2    4.26    0.69
   2   9  15    3.51    0.87
  -2  15   9    3.62    0.74
   3  15   9   22.72    1.99
  -3   9  15   21.92    1.88
  15   9   3   20.95    1.90
   9  15   3   14.51    1.58
  -9   3  15   16.29    1.31
   3   9  15   17.86    1.72
  -3  15   9   13.63    1.42
  15   3   9   15.91    1.69
  15   9   4    1.22    0.61
  -4   9  15    1.34    0.54
   4  15   9    0.12    0.59
  -9   4  15    4.39    0.57
  -4  15   9    1.37    0.57
   9  15   4    1.25    0.62
   4   9  15    4.20    0.93
  15   4   9    3.14    0.83
  15   9   5   43.47    3.43
  -5   9  15   44.40    3.32
   5  15   9   46.99    3.51
   9   5  15   48.28    3.70
  -5  15   9   49.77    3.40
  15   5   9   45.04    3.60
  -9   5  15   45.69    3.25
   9  15   5   43.75    3.51
   5   9  15   49.09    3.67
  15   9   6    9.77    1.27
   6  15   9   11.70    1.35
   9   6  15    7.31    1.28
  -6   9  15   10.13    1.06
  15   6   9    7.69    1.20
  -9   6  15    7.94    0.85
   6   9  15    7.06    1.22
   9  15   6    9.07    1.23
  15   9   7   34.17    2.76
  -7   9  15   31.44    2.44
   9   7  15   32.85    2.86
   7  15   9   33.12    2.70
  -9   7  15   29.92    2.16
   9  15   7   29.63    2.52
  15   7   9   29.88    2.56
   7   9  15   27.73    2.61
  -8   9  15    9.73    1.00
   8  15   9   10.11    1.38
  15   9   8    8.34    1.26
   9   8  15   10.11    1.41
   9  15   8    7.58    1.20
  15   8   9    8.56    1.28
  -9   8  15    8.95    0.91
   8   9  15    8.65    1.36
   9   9  15    0.88    0.86
   9  15   9    0.44    0.72
  -9   9  15    1.09    0.71
  15   9   9    0.98    0.76
   0  10  15   16.92    1.71
   0  15  10   16.09    1.60
  15  10   0   16.22    1.54
  10  15   0   18.55    1.66
  15  10   1   42.71    2.99
  -1  10  15   36.77    3.00
   1  15  10   37.66    3.01
   1  10  15   39.67    3.14
  10  15   1   42.84    3.12
  15  10  -1   41.32    3.02
  -1  15  10   37.27    3.03
  -2  10  15    2.08    0.67
  15  10   2    1.36    0.59
   2  15  10    1.10    0.65
  15  10  -2    2.29    0.59
  -2  15  10    1.41    0.60
  15   2  10    2.67    0.91
 -10   2  15    2.83    0.47
   2  10  15    1.88    0.78
  10  15   2    0.68    0.56
  -3  10  15   14.82    1.51
   3  15  10   14.56    1.60
  15  10   3   17.20    1.60
  -3  15  10   20.03    1.70
  15   3  10   18.02    1.90
  10  15   3   17.96    1.73
   3  10  15   18.38    1.87
 -10   3  15   18.31    1.45
   4  15  10    3.87    0.88
  15  10   4    5.61    0.94
  -4  10  15    4.15    0.78
  15   4  10    6.52    1.10
   4  10  15    6.91    1.16
  10  15   4    4.84    0.99
  -4  15  10    4.69    0.80
   5  15  10   35.27    2.65
  10   5  15   26.13    2.72
  15  10   5   31.38    2.58
  -5  10  15   30.78    2.41
  -5  15  10   30.51    2.19
   5  10  15   23.60    2.40
  10  15   5   29.31    2.40
  15   5  10   24.21    2.40
  10   6  15   20.46    2.09
  15  10   6   19.08    1.87
  -6  10  15   19.04    1.67
   6  15  10   19.83    1.95
  15   6  10   19.14    1.94
   6  10  15   19.14    2.00
  10  15   6   18.67    1.87
  -6  15  10   18.64    1.63
  10   7  15   23.83    2.33
  15  10   7   24.36    2.17
   7  15  10   24.41    2.22
  -7  10  15   21.49    1.85
   7  10  15   18.35    2.01
  10  15   7   23.98    2.08
  15   7  10   20.64    2.06
  -8  10  15   17.35    1.45
  10   8  15   17.78    2.01
  15  10   8   16.97    1.81
   8  15  10   16.34    1.77
   8  10  15   18.15    1.90
  15   8  10   17.90    1.89
  10  15   8   17.10    1.86
  10   9  15   19.31    2.23
  15  10   9   22.24    2.16
   9  15  10   23.47    2.12
  15   9  10   19.67    2.09
  10  15   9   22.75    2.13
   9  10  15   20.16    2.24
  10  15  10   49.65    3.86
  15  10  10   51.50    3.86
  10  10  15   44.89    3.83
  15  11   0   35.42    2.64
  11  15   0   36.11    2.67
   0  11  15   28.56    2.68
   0  15  11   33.26    2.67
  -1  11  15   19.09    1.68
  15  11   1   14.17    1.58
   1  15  11   16.82    1.65
   1  11  15   16.90    1.54
  15  11  -1   11.61    1.29
  -1  15  11   13.06    1.37
  11  15   1    9.23    1.30
  15  11   2   27.51    2.45
   2  15  11   31.24    2.52
  -2  11  15   31.92    2.48
   2  11  15   37.08    2.93
  15  11  -2   35.61    2.74
  11  15   2   36.13    2.87
  -2  15  11   34.92    2.76
  -3  11  15   18.21    1.76
  15  11   3   19.20    1.80
   3  15  11   21.70    1.93
  11  15   3   24.01    1.99
  -3  15  11   23.12    1.88
   3  11  15   17.29    1.97
  15   3  11   17.91    2.09
  -4  11  15   11.02    1.22
  15  11   4   10.59    1.30
   4  15  11    9.61    1.33
  11  15   4   14.02    1.62
   4  11  15   14.59    1.69
  -4  15  11   15.31    1.45
  15   4  11   12.72    1.63
   5  15  11    3.06    0.93
  11   5  15    2.29    0.97
  -5  11  15    4.96    0.79
  15  11   5    4.76    0.91
  15   5  11    2.44    0.93
  -5  15  11    5.42    0.82
   5  11  15    2.94    0.87
  11  15   5    5.23    0.97
  11   6  15   20.87    2.12
  -6  11  15   19.21    1.68
  15  11   6   19.25    1.88
   6  15  11   18.06    1.95
  11  15   6   17.65    1.82
  15   6  11   19.14    1.99
  -6  15  11   17.26    1.53
   6  11  15   14.68    1.79
   7  15  11    1.28    0.82
  11   7  15    0.42    0.80
  15  11   7    1.26    0.75
  -7  11  15    0.88    0.51
  11  15   7    1.16    0.71
  15   7  11    0.40    0.79
   7  11  15    0.98    0.82
  15  11   8    3.34    0.94
  -8  11  15    4.55    0.68
  11   8  15    2.66    1.02
   8  15  11    4.36    1.04
   8  11  15    3.96    1.00
  15   8  11    3.62    1.01
  11  15   8    4.98    1.03
   9  15  11    5.78    1.13
  15  11   9    5.23    1.11
  11   9  15    5.82    1.25
  15   9  11    5.85    1.17
  11  15   9    2.95    0.97
   9  11  15    5.89    1.17
  11  10  15   10.91    1.54
  10  15  11   11.64    1.57
  15  11  10   10.96    1.52
  11  15  10    9.78    1.41
  10  11  15   10.72    1.62
  15  10  11   10.68    1.52
  11  11  15    0.93    0.91
  11  15  11    1.35    0.89
  15  11  11    0.95    0.89
   0  12  15    8.48    1.15
   0  15  12    7.45    1.06
  12  15   0    4.88    0.92
  15  12   0    5.29    0.93
   1  15  12    5.23    1.01
  -1  12  15    8.19    1.10
  15  12   1    7.20    1.02
  12  15   1    6.77    1.06
   1  12  15    8.55    1.19
  15  12  -1    6.54    0.96
  -1  15  12    8.15    1.13
   2  15  12    0.62    0.65
  -2  12  15    2.35    0.70
  15  12   2    1.21    0.65
  15  12  -2    1.34    0.53
  12  15   2    0.65    0.63
  -2  15  12    0.70    0.59
   2  12  15    1.68    0.77
  -3  12  15   11.78    1.30
  15  12   3   11.19    1.37
   3  15  12   11.39    1.44
  15   3  12   15.52    1.88
  12  15   3   16.09    1.67
  -3  15  12   17.24    1.54
   3  12  15   14.26    1.74
  15  12   4   18.57    1.90
   4  15  12   20.37    2.03
  -4  12  15   21.58    1.85
  12   4  15   24.26    2.38
  12  15   4   22.60    2.02
  -4  15  12   21.13    1.88
   4  12  15   21.99    2.13
  15   4  12   23.81    2.27
  15  12   5   17.09    1.73
  12   5  15   21.97    2.18
   5  15  12   14.67    1.78
  -5  12  15   15.49    1.56
  15   5  12   17.47    1.92
  -5  15  12   15.08    1.49
  12  15   5   14.11    1.69
   5  12  15   16.56    1.84
   6  15  12   16.27    1.82
  12   6  15   15.86    1.92
  -6  12  15   15.22    1.46
  15  12   6   16.51    1.74
   6  12  15   17.47    1.93
  15   6  12   16.46    1.98
  -6  15  12   17.87    1.58
  12  15   6   17.44    1.84
   7  15  12    5.73    1.09
  -7  12  15    6.56    0.89
  12   7  15    8.07    1.31
  15  12   7    7.76    1.19
   7  12  15    8.27    1.31
  12  15   7    5.63    1.10
  -7  15  12    4.07    0.77
  15   7  12    6.03    1.20
  -8  12  15   17.01    1.48
  12   8  15   17.10    2.07
  15  12   8   15.36    1.80
   8  15  12   18.74    1.98
  15   8  12   14.31    1.85
   8  12  15   15.69    1.87
  12  15   8   17.19    1.88
  15  12   9    0.15    0.75
   9  15  12   -0.83    0.61
  12   9  15   -0.10    0.73
   9  12  15   -0.90    0.78
  15   9  12    0.55    0.82
  12  15   9   -0.42    0.70
  15  12  10    4.58    1.14
  10  15  12    3.89    1.07
  12  10  15    2.71    1.09
  10  12  15    3.52    1.07
  12  15  10    3.81    0.98
  15  10  12    4.58    1.11
  12  11  15   14.09    1.85
  15  12  11   13.60    1.77
  11  15  12   13.15    1.76
  12  15  11   15.23    1.84
  15  11  12   12.89    1.75
  11  12  15   11.76    1.75
  12  12  15   20.01    2.29
  12  15  12   22.48    2.27
  15  12  12   19.01    2.22
   0  13  15   23.55    1.94
  13  15   0   17.74    1.80
   0  15  13   21.53    1.93
  15  13   0   16.44    1.74
  15  13   1    7.65    1.09
   1  15  13    5.09    1.00
  -1  13  15    5.89    1.02
  15  13  -1    9.86    1.15
   1  13  15    7.34    1.18
  -1  15  13    6.44    1.06
  13  15   1    9.43    1.21
   2  15  13   43.33    3.30
  15  13   2   41.42    3.22
  -2  13  15   39.74    3.16
   2  13  15   45.06    3.42
  -2  15  13   42.02    3.27
  13  15   2   42.43    3.35
   3  15  13    1.97    0.80
  -3  13  15    3.94    0.82
  15  13   3    3.77    0.86
  -3  15  13    3.47    0.79
  13  15   3    3.44    0.86
  15   3  13    1.17    0.93
   3  13  15    2.69    0.88
  15  13   4   11.62    1.53
  -4  13  15   14.91    1.49
  13   4  15   17.26    1.99
   4  15  13   15.63    1.64
  -4  15  13   14.00    1.50
  15   4  13   18.23    1.98
  13  15   4   14.93    1.70
   4  13  15   19.62    1.88
   5  15  13   10.27    1.42
  -5  13  15   10.28    1.18
  15  13   5    9.13    1.29
  13   5  15    8.05    1.48
  15   5  13   10.03    1.52
  -5  15  13    9.26    1.14
   5  13  15   10.21    1.44
  13  15   5    9.21    1.34
  13   6  15    5.51    1.21
  -6  13  15    5.52    0.84
   6  15  13    6.12    1.16
  15  13   6    4.51    1.00
   6  13  15    5.50    1.09
  13  15   6    4.15    1.00
  15   6  13    5.62    1.17
  -6  15  13    4.87    0.83
   7  15  13    5.48    1.10
  15  13   7    6.23    1.14
  13   7  15    5.01    1.25
  -7  13  15    6.29    0.87
  -7  15  13    6.95    0.92
   7  13  15    6.12    1.16
  15   7  13    5.62    1.28
  13  15   7    5.62    1.12
  13   8  15    3.02    1.12
  -8  13  15    3.72    0.69
  15  13   8    2.68    0.96
   8  15  13    2.95    0.96
   8  13  15    1.30    0.93
  15   8  13    4.61    1.12
  13  15   8    2.84    0.94
  -8  15  13    5.54    0.77
  15  13   9    4.72    1.11
   9  15  13    5.64    1.17
  13   9  15    5.86    1.31
   9  13  15    6.39    1.22
  15   9  13    5.78    1.24
  13  15   9    7.02    1.26
  13  10  15   12.29    1.70
  15  13  10    9.89    1.52
  10  15  13   13.44    1.69
  15  10  13   14.63    1.86
  13  15  10   14.62    1.80
  10  13  15   10.31    1.60
  11  15  13   19.50    2.23
  15  13  11   21.75    2.29
  13  11  15   17.03    2.18
  13  15  11   14.46    1.90
  15  11  13   20.09    2.19
  11  13  15   19.83    2.17
  15  13  12    1.70    1.00
  12  15  13    0.44    0.92
  13  12  15    1.18    1.05
  15  12  13    1.71    0.99
  13  15  12    0.43    0.80
  12  13  15    1.76    0.94
  15  13  13    6.26    1.35
  13  13  15    5.56    1.27
  13  15  13    6.86    1.37
  15  14   0   -0.13    0.55
  14  15   0    0.22    0.58
   0  14  15    0.77    0.67
   0  15  14    0.98    0.68
  -1  14  15    7.10    1.12
   1  15  14    6.14    1.10
  15  14   1    6.46    1.07
  15  14  -1    7.82    1.07
  -1  15  14    6.93    1.10
   1  14  15    6.70    1.14
  14  15   1    8.14    1.15
   2  15  14   16.85    1.88
  15  14   2   18.50    1.83
  -2  14  15   20.58    1.87
  14  15   2   19.27    1.95
  -2  15  14   19.89    1.88
   2  14  15   22.61    2.05
  15  14   3    6.96    1.14
  -3  14  15    7.27    1.06
   3  15  14    7.31    1.18
  15   3  14    6.18    1.33
  -3  15  14    6.35    1.02
  14  15   3    7.36    1.12
   3  14  15    6.19    1.14
  15  14   4    4.24    0.93
  14   4  15    4.82    1.15
   4  15  14    2.99    0.91
  -4  14  15    2.70    0.75
  15   4  14    8.19    1.41
  14  15   4    3.28    0.88
  -4  15  14    4.02    0.82
   4  14  15    3.63    1.01
  15  14   5   43.12    3.35
  -5  14  15   41.14    3.15
  14   5  15   40.35    3.55
   5  15  14   42.21    3.41
  -5  15  14   34.44    2.82
  15   5  14   37.96    3.22
  14  15   5   38.55    3.04
   5  14  15   35.19    3.08
   6  15  14   16.85    1.96
  -6  14  15   18.51    1.65
  15  14   6   16.98    1.92
  14   6  15   21.64    2.27
   6  14  15   16.57    1.95
  -6  15  14   13.73    1.46
  15   6  14   15.07    1.91
  14  15   6   16.67    1.82
  14   7  15   17.30    2.03
  -7  14  15   15.21    1.49
   7  15  14   14.65    1.88
  15  14   7   16.22    1.83
  14  15   7   16.24    1.84
  -7  15  14   16.19    1.53
  15   7  14   15.77    1.98
   7  14  15   15.21    1.90
  14   8  15   10.00    1.52
  15  14   8    7.29    1.30
  -8  14  15    5.64    1.17
   8  15  14    8.53    1.43
  15   8  14    9.71    1.56
  -8  15  14    8.24    1.02
  14  15   8    7.63    1.34
   8  14  15    9.78    1.53
  14   9  15   21.70    2.48
  15  14   9   22.98    2.28
   9  15  14   27.16    2.48
  14  15   9   23.74    2.22
   9  14  15   20.89    2.24
  15   9  14   21.15    2.39
  10  15  14   25.94    2.48
  14  10  15   23.35    2.51
  15  14  10   21.43    2.33
  15  10  14   17.73    2.15
  14  15  10   22.80    2.26
  10  14  15   20.81    2.30
  15  14  11    2.26    1.01
  14  11  15    5.19    1.30
  11  15  14    2.95    1.13
  11  14  15    4.37    1.15
  14  15  11    4.03    1.17
  15  11  14    4.96    1.31
  15  14  12    5.64    1.27
  14  12  15    5.78    1.30
  12  15  14    3.46    1.19
  15  12  14    3.49    1.10
  14  15  12    4.05    1.17
  12  14  15    5.82    1.34
  14  13  15    2.15    1.10
  13  15  14    1.70    1.06
  15  14  13    2.23    1.11
  15  13  14    1.95    1.10
  14  15  13    1.29    1.02
  13  14  15    1.53    1.11
  14  14  15    5.28    1.42
  14  15  14    5.87    1.38
  15  14  14    6.05    1.42
   0  15  15   76.23    5.77
  15  15   0   84.92    5.77
  -1  15  15   14.07    1.58
   1  15  15   15.83    1.67
  15  15   1   10.02    1.42
  -2  15  15    5.00    0.95
   2  15  15    4.01    1.02
  15  15   2    3.78    0.91
  -3  15  15   16.62    1.66
   3  15  15   17.41    1.90
  15   3  15   12.10    1.98
  15  15   3   19.43    1.82
  -4  15  15    1.18    0.64
   4  15  15    0.85    0.83
  15   4  15    3.97    1.22
  15  15   4    1.58    0.83
  -5  15  15    1.92    0.68
   5  15  15    0.15    0.84
  15   5  15    3.03    1.10
  15  15   5    1.07    0.77
  -6  15  15    9.18    1.10
   6  15  15    7.60    1.34
  15   6  15    4.95    1.32
  15  15   6    7.85    1.28
  -7  15  15    1.10    0.59
   7  15  15    3.19    1.09
  15   7  15    3.78    1.19
  15  15   7    1.33    0.81
   8  15  15    2.56    1.04
  15   8  15    1.78    1.08
  15  15   8    1.58    0.90
   9  15  15    2.47    1.03
  15   9  15    4.05    1.21
  15  15   9    2.20    0.95
  10  15  15    1.15    1.03
  15  10  15    0.52    0.97
  15  15  10    1.21    0.92
  11  15  15    5.55    1.35
  15  11  15    6.98    1.43
  15  15  11    4.22    1.19
  12  15  15    0.66    0.95
  15  12  15    0.45    1.05
  15  15  12    0.23    0.87
  13  15  15    4.00    1.27
  15  13  15    5.17    1.36
  15  15  13    5.70    1.35
  14  15  15    0.77    1.06
  15  14  15   -0.08    1.05
  15  15  14    0.14    1.01
  15  15  15   17.84    2.29
  16   0   0    5.45    0.67
  16   0  -1    2.91    0.46
  16   0   1    2.88    0.55
  16   1   0    3.06    0.51
  16  -1   0    3.11    0.51
  16   1   1   33.91    2.53
  16   1  -1   36.47    2.48
  16  -1  -1   34.92    2.44
  16  -1   1   33.27    2.52
  16   0  -2   17.52    1.38
  16   0   2   19.75    1.57
  16   2   0   17.00    1.49
  16  -2   0   20.98    1.48
  16   2   1   25.25    1.97
  16  -2  -1   25.93    1.86
  16   1  -2   25.47    1.85
  16  -1   2   25.84    2.00
  16  -2   1   25.09    1.92
  16   2  -1   24.25    1.86
  16   1   2   24.09    1.96
  16  -1  -2   26.26    1.79
  16   2   2    3.17    0.64
  16   2  -2    3.70    0.51
  16  -2  -2    3.89    0.45
  16   0   3    9.89    1.02
  16   0  -3    6.77    0.66
  16   3   0    8.87    0.89
  16   1  -3   57.68    3.85
  16   3   1   54.16    3.99
  16  -1   3   60.71    4.09
  16  -3  -1   56.70    3.89
  16   3  -1   64.92    4.42
  16  -1  -3   63.78    4.28
  16   1   3   64.92    4.53
  16   2  -3    1.27    0.32
  16   3   2    0.06    0.42
  16  -3  -2    0.90    0.27
  16   3  -2    0.70    0.33
  16   2   3    0.65    0.48
  16   3  -3   20.83    1.59
  16   3   3   24.29    1.82
   3  16   3   19.22    1.85
  16   0   4   63.83    4.37
  16   4   0   59.44    4.26
  16   4   1   13.62    1.19
  16  -4  -1   11.05    1.04
  16   4  -1   14.04    1.15
  16   1   4   10.16    1.23
  16  -4  -2    4.45    0.51
  16   4   2    4.86    0.75
   2  16   4    6.46    0.92
  16   2   4    3.43    0.73
  16   4  -2    4.50    0.58
  16   4   3    2.75    0.64
   3  16   4    2.14    0.65
  16   4  -3    3.16    0.49
   4  16   3    2.61    0.72
  16   3   4    3.24    0.69
   4  16   4   13.78    1.41
  16   4   4   12.00    1.32
  16   0   5    3.77    0.78
   0   5  16    3.46    0.87
   0  16   5    0.43    0.53
  16   5   0    1.34    0.49
   1  16   5   39.73    2.97
  16   5   1   39.74    2.87
  -1   5  16   36.92    3.04
  16   5  -1   39.65    2.88
  16   1   5   40.79    3.03
   1   5  16   39.36    3.17
  -2   5  16   16.95    1.74
  16   5   2   18.16    1.62
   2  16   5   21.39    1.72
  16   2   5   14.00    1.57
   5  16   2   17.82    1.65
  16   5  -2   19.68    1.45
  16   5   3   50.87    3.79
  -3   5  16   60.19    3.89
   3  16   5   47.44    3.86
  16   5  -3   45.74    3.30
   5  16   3   45.91    3.53
  16   3   5   51.38    3.53
   4  16   5    5.69    0.87
  16   5   4    2.75    0.71
  -4   5  16    1.61    0.61
  -5   4  16    1.18    0.61
  16   4   5    2.24    0.67
   5  16   5  145.32    9.81
  -5   5  16  147.38    9.69
  16   5   5  138.47    9.73
   0   6  16   22.93    2.12
   0  16   6   26.06    2.07
  16   6   0   24.93    1.96
   1  16   6    5.04    0.83
  -1   6  16    3.99    0.84
  16   6   1    4.43    0.73
  -1  16   6    5.87    0.85
  16   6  -1    4.86    0.68
  16   1   6    3.36    0.80
   1   6  16    3.55    0.84
   2  16   6   13.18    1.43
  16   6   2   14.01    1.31
  -2   6  16   13.70    1.46
  16   6  -2   12.06    1.15
  -2  16   6   11.76    1.25
  16   2   6   14.89    1.44
   2   6  16   15.45    1.58
   6  16   2    9.90    1.27
   3  16   6    0.25    0.58
  -3   6  16    0.47    0.55
  16   6   3    0.49    0.52
   3   6  16    0.97    0.71
   6  16   3    0.82    0.53
  16   3   6    1.57    0.66
  16   6  -3    0.61    0.37
  16   6   4   59.14    4.27
   4  16   6   59.05    4.32
  -4   6  16   59.71    4.25
  16   4   6   63.75    4.68
  -6   4  16   61.59    4.56
   4   6  16   63.57    4.81
   6  16   4   72.95    4.77
  -5   6  16    8.45    1.05
   5  16   6   11.19    1.30
  16   6   5    8.32    1.13
   6   5  16    7.97    1.36
  16   5   6    6.32    1.00
   6  16   5    8.95    1.12
  -6   5  16    7.13    0.89
   5   6  16    3.89    1.04
   6  16   6   -0.55    0.57
  16   6   6   -0.44    0.52
  -6   6  16    0.07    0.45
   6   6  16   -0.22    0.70
   0  16   7    0.03    0.50
   0   7  16    0.35    0.60
  16   7   0    0.37    0.44
   1  16   7   23.27    1.88
  16   7   1   21.00    1.76
  -1   7  16   17.96    1.83
  -1  16   7   17.27    1.58
  16   7  -1   17.08    1.44
  16   1   7   15.15    1.68
   1   7  16   13.60    1.62
   7  16   1   17.34    1.59
  -2   7  16   24.53    2.20
  16   7   2   26.70    2.15
   2  16   7   27.66    2.20
   7  16   2   28.66    2.19
  -2  16   7   27.69    2.13
   2   7  16   20.29    2.19
  16   7  -2   29.03    2.04
  16   2   7   21.56    2.18
   3  16   7   12.07    1.38
  16   7   3    9.75    1.20
  -3   7  16   11.70    1.27
  16   3   7   11.60    1.41
   3   7  16   10.54    1.42
  16   7  -3   13.69    1.19
   7  16   3   12.66    1.36
  -3  16   7   14.13    1.32
  16   7   4   41.86    3.24
   4  16   7   40.75    3.29
  -4   7  16   45.94    3.22
   4   7  16   48.55    3.71
  -7   4  16   49.01    3.43
  16   4   7   45.95    3.58
   7  16   4   46.05    3.59
   7   5  16    3.58    1.04
  -5   7  16    4.11    0.73
   5  16   7    2.86    0.81
  16   7   5    3.28    0.79
  16   5   7    3.21    0.80
   7  16   5    2.86    0.80
   5   7  16    2.71    0.87
  -7   5  16    3.67    0.65
  16   7   6    5.97    0.98
   6  16   7    4.41    0.93
  -6   7  16    4.85    0.76
   7   6  16    5.21    1.13
   7  16   6    5.30    0.91
  16   6   7    4.77    0.93
   6   7  16    5.83    1.07
  -7   6  16    5.27    0.77
   7  16   7    0.74    0.61
   7   7  16    2.86    0.97
  -7   7  16    1.41    0.53
  16   7   7    2.50    0.79
  16   8   0   33.68    2.59
   0   8  16   34.89    2.75
   0  16   8   33.61    2.68
   1  16   8    3.30    0.76
  16   8   1    1.99    0.62
  -1   8  16    2.67    0.77
  16   1   8    2.39    0.83
  -1  16   8    3.12    0.71
  16   8  -1    2.27    0.58
   8  16   1    2.68    0.71
   1   8  16    1.41    0.73
  16   8   2    9.72    1.15
   2  16   8    8.03    1.15
  -2   8  16   11.43    1.27
  16   2   8   10.56    1.29
  -2  16   8    6.05    0.94
   2   8  16   12.84    1.38
  16   8  -2    6.49    0.88
   8  16   2    6.85    1.05
  16   8   3   25.59    2.19
  -3   8  16   25.54    2.21
   3  16   8   29.89    2.32
  -3  16   8   31.41    2.32
  -8   3  16   24.02    2.17
  16   8  -3   32.26    2.22
   3   8  16   25.93    2.47
   8  16   3   35.19    2.52
  16   3   8   25.87    2.42
   4  16   8    9.39    1.27
  16   8   4   10.66    1.28
  -4   8  16   12.43    1.26
  16   4   8   13.37    1.58
  -8   4  16   14.94    1.31
   8  16   4   11.44    1.50
   4   8  16   13.91    1.63
  -4  16   8   17.11    1.40
   8   5  16    1.54    0.85
  16   8   5    0.72    0.60
  -5   8  16   -0.21    0.46
   5  16   8   -0.24    0.61
  16   5   8    0.96    0.73
  -8   5  16    0.78    0.46
   8  16   5   -0.16    0.59
   5   8  16    0.62    0.75
   8   6  16    9.48    1.37
  16   8   6    7.32    1.09
   6  16   8    6.32    1.07
  -6   8  16    8.34    0.99
  -8   6  16    7.42    0.85
   6   8  16    7.31    1.23
   8  16   6    5.22    0.97
  16   6   8    7.17    1.13
   8   7  16   15.64    1.95
   7  16   8   21.53    1.90
  16   8   7   17.92    1.83
  -7   8  16   16.97    1.53
   8  16   7   22.03    2.01
   7   8  16   18.77    2.14
  16   7   8   20.14    2.01
  -8   7  16   20.14    1.65
  16   8   8    4.59    1.01
  -8   8  16    6.17    0.77
   8   8  16    5.33    1.15
   8  16   8    5.79    1.07
   0  16   9    0.27    0.55
  16   9   0    0.10    0.48
   0   9  16    0.22    0.61
   1  16   9    2.26    0.71
  16   9   1    2.69    0.68
  -1   9  16    5.44    0.92
  -1  16   9    0.97    0.59
  16   9  -1    1.13    0.52
   9  16   1    0.46    0.61
   1   9  16    2.96    0.83
   2  16   9   82.51    5.64
  -2   9  16   72.91    5.55
  16   9   2   82.36    5.58
   2   9  16   74.11    5.99
   9  16   2   90.90    6.01
  16   2   9   71.81    5.99
  16   9  -2   94.47    5.86
  -2  16   9   90.16    5.94
  16   9   3    8.99    1.17
  -3   9  16   11.94    1.25
   3  16   9    8.04    1.17
  -9   3  16   10.74    1.02
   3   9  16   11.96    1.48
  16   3   9   11.40    1.42
  -3  16   9    8.05    1.11
   9  16   3    6.91    1.18
  -4   9  16    2.14    0.63
   4  16   9    1.02    0.71
  16   9   4    1.03    0.62
   4   9  16    0.48    0.75
  16   4   9    1.54    0.75
  -4  16   9    1.12    0.55
  -9   4  16    1.26    0.44
   9  16   4    1.11    0.71
   9   5  16   23.89    2.25
  -5   9  16   21.26    1.85
   5  16   9   20.55    2.05
  16   9   5   23.23    2.04
   9  16   5   15.84    1.79
  16   5   9   18.72    1.84
   5   9  16   17.59    1.95
  -9   5  16   16.95    1.42
   9   6  16   31.12    2.88
  16   9   6   32.15    2.66
  -6   9  16   30.63    2.47
   6  16   9   35.04    2.74
  -9   6  16   33.24    2.42
   9  16   6   34.83    2.74
   6   9  16   30.93    2.80
  16   6   9   29.32    2.70
   7  16   9   50.19    3.92
  16   9   7   47.08    3.86
  -7   9  16   53.23    3.67
   9   7  16   54.10    4.09
   9  16   7   48.10    3.76
   7   9  16   48.08    3.86
  16   7   9   49.26    3.77
  -8   9  16    2.21    0.54
   8  16   9    2.83    0.80
  16   9   8    2.43    0.84
   9   8  16    1.79    0.97
   9  16   8    1.79    0.82
  16   8   9    2.17    0.88
   8   9  16    1.17    0.88
  16   9   9   10.75    1.49
   9  16   9   12.27    1.55
   9   9  16   13.80    1.72
   0  10  16   37.63    3.01
  16  10   0   40.29    2.92
   0  16  10   35.84    2.94
  16  10   1   18.59    1.77
  -1  10  16   20.71    1.85
   1  16  10   19.34    1.84
  10  16   1   21.30    1.89
  -1  16  10   18.87    1.80
  16  10  -1   20.12    1.75
   1  10  16   19.05    1.95
  16  10   2    9.88    1.20
   2  16  10    7.59    1.15
  -2  10  16   11.81    1.29
  -2  16  10    9.77    1.25
  16   2  10   12.59    1.59
   2  10  16   12.57    1.48
  10  16   2   12.29    1.43
  16  10  -2   10.02    1.18
  16  10   3   52.62    3.85
   3  16  10   50.36    3.90
  -3  10  16   52.68    3.83
  10  16   3   53.89    3.71
  -3  16  10   52.75    3.59
  16   3  10   39.23    3.71
   3  10  16   45.04    3.71
  16  10   4   19.60    1.84
   4  16  10   20.06    1.93
  -4  10  16   18.77    1.75
   4  10  16   21.96    2.07
  10  16   4   19.97    1.94
  16   4  10   18.88    2.01
  -4  16  10   20.43    1.79
  16  10   5   11.95    1.41
   5  16  10   12.17    1.49
  10   5  16   11.32    1.60
  -5  10  16   13.27    1.35
  16   5  10   12.90    1.68
  -5  16  10   16.86    1.45
  10  16   5   13.88    1.62
   5  10  16   12.54    1.65
  10   6  16    3.87    1.04
   6  16  10    4.46    0.99
  -6  10  16    3.67    0.74
  16  10   6    4.74    0.96
   6  10  16    4.88    1.12
  16   6  10    5.26    1.09
  10  16   6    3.73    0.91
  16  10   7   48.85    3.85
  10   7  16   45.40    3.94
  -7  10  16   53.27    3.62
   7  16  10   51.67    3.91
  10  16   7   55.86    4.14
   7  10  16   52.37    4.20
  16   7  10   53.11    4.15
   8  16  10   23.50    2.22
  10   8  16   24.54    2.31
  16  10   8   23.25    2.20
  -8  10  16   20.90    1.81
   8  10  16   23.83    2.41
  16   8  10   23.51    2.31
  10  16   8   25.56    2.32
   9  16  10    3.82    1.04
  10   9  16    6.64    1.29
  16  10   9    4.07    1.01
  16   9  10    3.49    0.98
   9  10  16    2.94    1.06
  10  16   9    3.48    0.96
  10  10  16   11.13    1.68
  16  10  10   11.60    1.59
  10  16  10   15.73    1.73
   0  11  16    0.61    0.69
  16  11   0    0.76    0.57
   0  16  11    0.78    0.61
   1  16  11   11.49    1.33
  -1  11  16    8.42    1.23
  16  11   1   10.81    1.25
  -1  16  11   11.58    1.34
   1  11  16    8.87    1.36
  16  11  -1   11.95    1.27
  11  16   1   11.39    1.36
  16  11   2    3.58    0.81
  -2  11  16    3.51    0.82
   2  16  11    2.69    0.84
  16  11  -2    1.42    0.59
  16   2  11    2.46    1.01
  11  16   2    2.14    0.73
  -2  16  11    2.31    0.70
   2  11  16    3.46    0.91
  16  11   3    2.65    0.77
   3  16  11    3.14    0.88
  -3  11  16    3.95    0.82
  11  16   3    3.80    0.90
  16   3  11    4.28    1.05
   3  11  16    5.50    1.04
  -3  16  11    4.32    0.85
  16  11   4   36.89    2.91
   4  16  11   36.63    2.99
  -4  11  16   35.69    2.82
  11  16   4   36.48    2.96
  16   4  11   36.11    3.08
  -4  16  11   36.36    2.80
   4  11  16   36.91    3.05
  -5  11  16    5.57    0.87
  16  11   5    6.39    1.07
   5  16  11    6.44    1.12
  11   5  16    3.48    1.15
  -5  16  11    6.17    0.86
  16   5  11    3.93    1.05
  11  16   5    4.25    1.00
   5  11  16    4.74    1.06
  -6  11  16   13.89    1.37
  11   6  16   16.63    1.86
   6  16  11   11.55    1.55
  16  11   6   12.12    1.51
  16   6  11   14.91    1.73
  -6  16  11   11.88    1.33
  11  16   6   13.14    1.62
   6  11  16   16.47    1.80
   7  16  11   39.90    3.35
  -7  11  16   38.31    3.02
  11   7  16   48.70    3.59
  16  11   7   41.34    3.31
   7  11  16   42.16    3.46
  11  16   7   38.40    3.32
  16   7  11   44.33    3.46
   8  16  11   62.08    4.42
  -8  11  16   57.83    4.05
  16  11   8   53.64    4.32
  11   8  16   54.41    4.48
   8  11  16   48.36    4.13
  16   8  11   52.21    4.17
  11  16   8   60.29    4.20
   9  16  11    5.18    1.13
  11   9  16    5.75    1.26
  16  11   9    7.65    1.26
   9  11  16    6.11    1.26
  16   9  11    6.63    1.23
  11  16   9    6.05    1.22
  16  11  10    7.52    1.25
  11  10  16    6.32    1.33
  10  16  11    3.66    1.09
  10  11  16    4.28    1.23
  11  16  10    5.62    1.19
  16  10  11    6.48    1.22
  16  11  11   14.69    1.90
  11  11  16   16.26    2.04
  11  16  11   15.35    1.87
  16  12   0   45.48    3.34
   0  16  12   43.51    3.39
   0  12  16   42.28    3.41
  12  16   0   44.52    3.36
  16  12   1    3.56    0.80
   1  16  12    3.05    0.83
  -1  12  16    3.77    0.86
  12  16   1    2.94    0.82
  -1  16  12    3.86    0.85
   1  12  16    3.78    0.94
  16  12  -1    4.28    0.81
  -2  12  16    6.70    1.05
   2  16  12    5.08    1.01
  16  12   2    5.66    0.97
  16   2  12    9.84    1.49
  12  16   2    6.09    1.07
   2  12  16    7.77    1.21
  -2  16  12    6.26    1.00
  -3  12  16    0.94    0.64
  16  12   3    0.71    0.62
   3  16  12    0.05    0.68
  16   3  12    0.04    0.80
   3  12  16    2.25    0.88
  -3  16  12    1.50    0.66
  12  16   3    1.32    0.67
  -4  12  16    1.56    0.64
  12   4  16    0.49    1.01
   4  16  12    2.06    0.84
  16  12   4    1.37    0.75
  12  16   4    2.99    0.85
   4  12  16    2.20    0.90
  -4  16  12    3.48    0.77
  16   4  12    0.85    0.87
   5  16  12    0.59    0.73
  12   5  16    0.33    0.87
  16  12   5    0.93    0.72
  -5  12  16    1.02    0.60
  16   5  12    1.59    0.95
   5  12  16    2.02    0.88
  12  16   5    0.99    0.75
  -5  16  12    1.22    0.58
  -6  12  16    0.31    0.51
   6  16  12    0.70    0.78
  16  12   6    0.96    0.76
  12   6  16   -0.74    0.84
  16   6  12    0.07    0.82
   6  12  16    0.91    0.86
  12  16   6    1.29    0.80
  -6  16  12    2.76    0.64
   7  16  12   19.57    1.96
  16  12   7   15.50    1.81
  12   7  16   14.18    1.92
  -7  12  16   16.37    1.51
   7  12  16   15.58    1.84
  16   7  12   14.83    1.86
  12  16   7   15.63    1.80
   8  16  12    5.78    1.23
  12   8  16    6.80    1.36
  16  12   8    6.33    1.18
   8  12  16    5.40    1.27
  12  16   8    5.58    1.18
  16   8  12    8.39    1.38
  16  12   9    6.73    1.27
  12   9  16    7.64    1.46
   9  16  12    9.79    1.48
   9  12  16    8.73    1.50
  12  16   9    8.96    1.37
  16   9  12    6.65    1.34
  16  12  10   -0.22    0.83
  10  16  12    1.03    0.86
  12  10  16   -0.46    0.90
  16  10  12    0.23    0.84
  12  16  10    0.08    0.81
  10  12  16   -0.07    0.89
  12  11  16    8.52    1.57
  16  12  11   10.20    1.51
  11  16  12    9.61    1.54
  12  16  11    8.91    1.47
  16  11  12    9.95    1.53
  11  12  16    8.71    1.54
  12  16  12   38.44    3.42
  12  12  16   40.17    3.51
  16  12  12   40.36    3.45
   0  13  16    0.74    0.73
   0  16  13    1.25    0.70
  16  13   0   -0.12    0.56
  13  16   0    0.05    0.57
  -1  13  16    5.04    0.96
  16  13   1    2.44    0.78
   1  16  13    2.63    0.83
  16  13  -1    2.37    0.72
  -1  16  13    3.45    0.85
  13  16   1    2.40    0.80
   1  13  16    6.04    1.05
  -2  13  16   49.43    3.68
  16  13   2   47.99    3.68
   2  16  13   47.40    3.72
  13  16   2   49.22    3.55
   2  13  16   40.02    3.53
  -2  16  13   46.54    3.45
   3  16  13   14.12    1.72
  -3  13  16   17.67    1.67
  16  13   3   15.59    1.67
   3  13  16   17.87    1.98
  16   3  13   19.12    2.15
  13  16   3   18.16    1.88
  -3  16  13   18.38    1.77
  16  13   4    9.63    1.38
  13   4  16   14.08    1.84
  -4  13  16   12.52    1.36
   4  16  13   10.25    1.45
  -4  16  13   11.26    1.33
   4  13  16   12.91    1.61
  13  16   4    9.00    1.38
  16   4  13   15.94    1.79
  16  13   5   14.76    1.70
  -5  13  16   13.90    1.48
  13   5  16   15.47    1.96
   5  16  13   14.99    1.77
   5  13  16   11.95    1.61
  13  16   5   13.00    1.59
  16   5  13   13.64    1.73
  -5  16  13   11.36    1.33
  16  13   6   11.26    1.52
   6  16  13   15.19    1.76
  -6  13  16   12.55    1.33
  13   6  16   12.60    1.75
   6  13  16   10.93    1.60
  13  16   6   10.27    1.46
  -6  16  13   12.51    1.29
  16   6  13   10.45    1.64
   7  16  13   11.70    1.56
  13   7  16    9.80    1.63
  16  13   7    9.78    1.45
  -7  13  16   12.27    1.25
  13  16   7   15.26    1.85
   7  13  16   15.16    1.92
  -7  16  13   16.14    1.53
  16   7  13   15.24    1.97
   8  16  13   27.65    2.52
  16  13   8   23.63    2.38
  13   8  16   23.77    2.58
   8  13  16   19.03    2.22
  13  16   8   21.82    2.20
  16   8  13   23.60    2.37
   9  16  13    4.95    1.19
  16  13   9    4.36    1.11
  13   9  16    4.67    1.28
  13  16   9    6.47    1.27
  16   9  13    3.89    1.19
   9  13  16    5.81    1.29
  10  16  13    7.62    1.38
  16  13  10    8.52    1.43
  13  10  16    7.71    1.42
  10  13  16    6.93    1.42
  16  10  13    7.55    1.37
  13  16  10    9.46    1.49
  16  13  11    8.46    1.45
  11  16  13    7.81    1.40
  13  11  16   11.18    1.67
  16  11  13   11.41    1.68
  13  16  11    8.60    1.46
  11  13  16    9.91    1.62
  16  13  12    3.52    1.17
  13  12  16    3.80    1.25
  12  16  13    2.29    0.99
  16  12  13    5.02    1.26
  12  13  16    4.66    1.26
  13  16  12    2.85    1.07
  13  13  16    4.75    1.28
  16  13  13    4.12    1.21
  13  16  13    4.57    1.28
  14  16   0    4.08    0.88
   0  14  16    2.47    0.84
   0  16  14    2.27    0.83
  16  14   0    3.12    0.80
  16  14   1   25.60    2.28
   1  16  14   25.43    2.33
  -1  14  16   26.77    2.34
  16  14  -1   29.88    2.44
  14  16   1   29.95    2.52
  -1  16  14   29.39    2.54
   1  14  16   29.50    2.59
  16  14   2   -0.16    0.61
  -2  14  16    0.69    0.66
   2  16  14    0.61    0.75
   2  14  16    0.70    0.76
  14  16   2   -0.45    0.61
  -2  16  14   -0.08    0.59
  16  14   3   37.97    3.26
  -3  14  16   40.30    3.19
   3  16  14   46.88    3.41
   3  14  16   43.29    3.54
  16   3  14   46.36    3.77
  14  16   3   43.54    3.48
  -3  16  14   43.86    3.38
  14   4  16    9.94    1.71
  -4  14  16   11.96    1.34
   4  16  14   11.18    1.55
  16  14   4   10.88    1.44
  16   4  14    8.49    1.59
   4  14  16   10.59    1.56
  -4  16  14   12.77    1.37
  14  16   4   10.98    1.43
  -5  14  16   25.36    2.28
   5  16  14   28.88    2.58
  16  14   5   26.54    2.46
  14   5  16   33.22    2.86
   5  14  16   25.41    2.38
  16   5  14   26.20    2.50
  14  16   5   21.22    2.19
  -5  16  14   21.86    2.00
  -6  14  16    1.34    0.63
  16  14   6    1.28    0.76
   6  16  14    0.98    0.84
  14   6  16    0.58    0.99
  -6  16  14    2.07    0.68
  16   6  14    1.73    1.06
   6  14  16    0.40    0.85
  14  16   6    0.02    0.67
  -7  14  16   15.85    1.50
  16  14   7   13.55    1.75
  14   7  16   14.79    2.00
   7  16  14   14.95    1.88
  14  16   7   17.58    1.95
   7  14  16   16.34    2.02
  -7  16  14   17.32    1.62
  16   7  14   17.86    2.15
  14   8  16   15.48    2.07
   8  16  14   15.74    1.92
  16  14   8   17.02    1.93
  16   8  14   11.49    1.79
  14  16   8   15.26    1.78
   8  14  16   15.21    1.83
  14   9  16    6.52    1.42
   9  16  14    3.53    1.13
  16  14   9    4.92    1.20
  14  16   9    4.76    1.12
   9  14  16    5.61    1.29
  16   9  14    3.16    1.18
  10  16  14    1.57    0.94
  14  10  16   -0.01    0.94
  16  14  10    1.12    0.93
  16  10  14    1.38    1.07
  14  16  10    2.26    0.91
  10  14  16    0.58    1.00
  14  11  16    1.66    1.08
  11  16  14    0.01    0.92
  16  14  11   -0.30    0.84
  11  14  16    0.06    0.96
  16  11  14    1.33    1.04
  14  16  11    0.83    0.98
  16  14  12    3.68    1.21
  12  16  14    3.85    1.17
  14  12  16    2.64    1.20
  16  12  14    3.23    1.17
  14  16  12    4.00    1.22
  12  14  16    3.45    1.22
  16  14  13    0.44    0.96
  13  16  14    0.40    0.99
  14  13  16    0.31    0.94
  13  14  16    1.44    1.00
  14  16  13    0.34    0.97
  16  13  14    1.22    1.03
  16  14  14    1.37    1.06
  14  16  14    1.69    0.99
  14  14  16    1.72    1.16
   0  15  16    3.60    0.96
  15  16   0    2.27    0.76
  16  15   0    1.52    0.71
   0  16  15    2.23    0.85
  16  15   1    8.31    1.23
  -1  15  16    8.91    1.28
   1  16  15    8.48    1.28
  -1  16  15    9.34    1.27
  15  16   1    8.03    1.22
   1  15  16    8.04    1.28
  16  15   2    4.30    0.96
  -2  15  16    3.08    0.85
   2  16  15    2.34    0.93
   2  15  16    3.35    1.00
  -2  16  15    4.56    0.93
  15  16   2    5.03    1.01
  -3  15  16    5.27    0.98
  15   3  16    4.30    1.36
  16  15   3    5.52    1.06
   3  16  15    3.81    1.06
  16   3  15    2.74    1.19
  -3  16  15    4.79    0.96
   3  15  16    6.08    1.21
  15  16   3    5.92    1.08
  16  15   4    5.70    1.13
  15   4  16    5.21    1.34
  -4  15  16    5.26    0.96
   4  16  15    5.20    1.12
  -4  16  15    7.13    1.07
  15  16   4    7.18    1.21
   4  15  16    6.33    1.24
  16   4  15    8.73    1.56
  -5  15  16    7.05    1.08
  15   5  16   10.18    1.60
   5  16  15    6.10    1.28
  16  15   5    7.31    1.20
   5  15  16    8.23    1.37
  15  16   5    6.00    1.18
  16   5  15   10.02    1.59
  -5  16  15    7.51    1.09
  -6  15  16   27.01    2.14
  15   6  16   23.84    2.67
  16  15   6   22.09    2.33
   6  16  15   25.29    2.46
  16   6  15   22.22    2.48
  15  16   6   21.92    2.24
   6  15  16   21.75    2.32
  -6  16  15   23.07    2.00
  -7  15  16   29.01    2.48
  16  15   7   29.47    2.75
  15   7  16   31.55    3.03
   7  16  15   35.57    2.92
  16   7  15   35.94    3.24
  -7  16  15   32.51    2.70
  15  16   7   34.45    3.02
   7  15  16   37.32    3.15
  16  15   8   13.17    1.74
  15   8  16   10.77    1.75
   8  16  15   12.12    1.70
  15  16   8   11.87    1.60
   8  15  16   11.21    1.68
  16   8  15   11.43    1.77
  15   9  16    4.34    1.35
   9  16  15    5.04    1.25
  16  15   9    3.47    1.09
  16   9  15    5.72    1.36
   9  15  16    3.37    1.21
  15  16   9    4.76    1.21
  15  10  16    1.96    1.15
  16  15  10    3.19    1.10
  10  16  15    2.37    1.08
  15  16  10    1.50    0.98
  16  10  15    3.55    1.17
  10  15  16    2.21    1.03
  16  15  11   11.45    1.69
  11  16  15   12.04    1.75
  15  11  16    9.04    1.69
  15  16  11   11.66    1.77
  16  11  15   14.73    1.94
  11  15  16   10.45    1.76
  16  15  12    7.97    1.52
  15  12  16    8.82    1.68
  12  16  15   10.61    1.64
  15  16  12    9.15    1.62
  12  15  16    8.44    1.63
  16  12  15    8.86    1.65
  16  15  13    3.71    1.25
  15  13  16    5.46    1.45
  13  16  15    3.45    1.33
  15  16  13    4.39    1.26
  13  15  16    1.46    1.11
  16  13  15    2.86    1.24
  14  16  15    2.77    1.21
  16  15  14    4.18    1.28
  15  14  16    2.26    1.30
  16  14  15    3.02    1.27
  15  16  14    3.31    1.19
  14  15  16    2.49    1.23
  15  15  16    2.53    1.27
  15  16  15    4.36    1.34
  16  15  15    4.28    1.33
   0  16  16    8.54    1.28
  16  16   0    7.73    1.16
  -1  16  16    5.29    1.05
   1  16  16    4.39    1.06
  16  16   1    3.52    0.90
  -2  16  16   11.32    1.38
   2  16  16    9.83    1.44
  16  16   2    7.77    1.31
  -3  16  16    1.41    0.73
   3  16  16    1.26    0.88
  16   3  16    1.00    1.08
  16  16   3    1.98    0.84
  -4  16  16    3.19    0.82
   4  16  16    3.00    1.03
  16   4  16    5.01    1.36
  16  16   4    1.76    0.84
  -5  16  16    6.38    1.03
   5  16  16    6.30    1.28
  16   5  16    7.59    1.53
  16  16   5    5.80    1.14
  -6  16  16   -0.16    0.57
   6  16  16   -1.00    0.77
  16   6  16   -0.33    0.95
  16  16   6   -0.17    0.76
   7  16  16    4.68    1.26
  16   7  16    4.88    1.34
  16  16   7    4.26    1.13
   8  16  16   10.68    1.66
  16   8  16   10.15    1.72
  16  16   8    8.09    1.44
   9  16  16   -1.24    0.85
  16   9  16   -0.29    0.94
  16  16   9    0.50    0.90
  10  16  16   -0.76    0.97
  16  10  16   -0.27    0.97
  16  16  10   -0.19    0.83
  11  16  16    1.09    1.06
  16  11  16    0.09    1.04
  16  16  11   -0.17    0.93
  12  16  16   22.54    2.67
  16  12  16   23.52    2.72
  16  16  12   26.95    2.68
  13  16  16    0.27    1.04
  16  13  16    1.22    1.13
  16  16  13    0.61    1.07
  14  16  16    3.82    1.34
  16  14  16    4.70    1.42
  16  16  14    4.96    1.40
  15  16  16   -0.60    1.04
  16  15  16    1.44    1.20
  16  16  15    1.11    1.15
  16  16  16   46.85    4.15
  17   0   0    0.34    0.36
  17   0  -1   20.44    1.53
  17   0   1   19.04    1.60
  17  -1   0   20.23    1.56
  17   1   0   20.09    1.58
  17  -1  -1    1.59    0.38
  17  -1   1    2.37    0.50
  17   1  -1    1.67    0.41
  17   1   1    1.28    0.46
  17   0   2   45.05    3.28
  17  -2   0   46.83    3.21
  17   0  -2   45.91    3.14
  17   2   0   44.96    3.23
  17  -1   2   18.19    1.51
  17   2   1   18.31    1.49
  17  -2  -1   17.52    1.35
  17   1  -2   16.41    1.33
  17  -1  -2   21.15    1.56
  17   1   2   21.63    1.76
  17  -2   1   21.96    1.71
  17   2  -1   21.52    1.66
  17   2  -2    0.74    0.34
  17   2   2    0.60    0.48
  17  -2   2    0.77    0.48
  17  -2  -2    1.36    0.31
  17   0   3    7.00    0.94
  17   3   0   10.19    0.94
  17  -3   0    7.22    0.82
  17  -1   3   20.91    1.86
  17  -3  -1   22.30    1.68
  17   3   1   23.21    1.82
  17   1  -3   23.66    1.64
  17  -1  -3   25.57    1.87
  17   3  -1   26.14    1.97
  17   1   3   26.25    2.09
  17  -3   1   26.65    2.02
  17  -3  -2   14.55    1.14
  17   2  -3   14.89    1.18
  17   3   2   16.51    1.40
  17   2   3   18.88    1.57
  17   3  -2   16.38    1.37
  17   3   3    4.44    0.75
  17   4   0    8.22    0.95
  17   0   4    9.20    1.09
  17  -1   4    0.01    0.53
  17   4   1    1.32    0.49
  17  -4  -1    0.56    0.33
  17   1   4    0.29    0.53
  17   4  -1    2.07    0.48
   2  17   4   67.22    5.02
  17   4   2   71.88    4.94
  17  -4  -2   72.59    4.88
  17   4  -2   65.22    4.47
  17   2   4   65.25    4.63
  17   4   3   27.88    2.38
   3  17   4   34.30    2.55
   4  17   3   39.45    2.88
  17   4  -3   37.83    2.59
  17   3   4   31.74    2.75
  17   4   4    3.42    0.72
   4  17   4    0.39    0.58
  17   0   5    4.93    0.84
   0   5  17    2.89    0.88
  17   5   0    5.32    0.75
  -1   5  17   10.92    1.27
   1  17   5    5.26    0.96
  17   5   1    9.23    0.99
   1   5  17   10.60    1.44
  17   1   5   13.43    1.35
  17   5  -1   11.82    1.13
   2  17   5    7.63    1.12
  -2   5  17   10.63    1.27
  17   5   2   10.74    1.12
  17   5  -2    8.89    0.96
  17   2   5   10.81    1.22
   3  17   5   36.50    3.16
  -3   5  17   48.90    3.22
  17   5   3   40.43    3.11
  17   3   5   36.45    2.52
   5  17   3   27.88    2.51
  17   5  -3   29.47    2.25
  -4   5  17   20.00    1.90
  17   5   4   20.94    1.89
   4  17   5   24.56    2.01
  -5   4  17   18.39    1.85
   5  17   4   23.42    1.98
  17   4   5   22.75    1.94
  -5   5  17    0.06    0.49
  17   5   5    0.41    0.59
   5  17   5    0.00    0.62
  17   6   0    0.73    0.44
   0   6  17    0.34    0.65
   0  17   6    2.03    0.66
  17   0   6    0.26    0.59
  17   6   1    7.12    0.97
   1  17   6    8.77    1.11
  -1   6  17    9.47    1.21
  -1  17   6    6.12    0.91
  17   1   6    5.80    0.99
  17   6  -1    6.65    0.83
   1   6  17    7.06    1.15
  17   6   2    5.87    0.85
  -2   6  17    5.77    0.96
   2  17   6    4.76    0.89
  17   6  -2    6.07    0.77
   6  17   2    6.54    0.96
  17   2   6    4.86    0.91
   2   6  17    5.66    1.08
  -3   6  17   19.67    1.69
   3  17   6   13.18    1.63
  17   6   3   17.36    1.59
  17   6  -3   15.24    1.39
   6  17   3   15.36    1.67
  17   3   6   23.84    1.80
   4  17   6   30.74    2.58
  17   6   4   32.04    2.52
  -4   6  17   30.29    2.48
  17   4   6   26.22    2.24
  -6   4  17   22.22    2.09
   4   6  17   28.79    2.46
   6  17   4   31.30    2.34
   6   5  17   41.07    3.43
  17   6   5   40.46    3.14
  -5   6  17   40.63    3.07
   5  17   6   40.71    3.21
  17   5   6   39.35    3.02
  -6   5  17   35.97    2.84
   5   6  17   39.66    3.19
   6  17   5   38.24    3.04
  17   6   6   29.41    2.32
   6   6  17   24.17    2.47
  -6   6  17   23.29    2.13
   6  17   6   31.72    2.41
  17   7   0   11.89    1.19
   0   7  17   13.41    1.47
   0  17   7    9.77    1.25
  -1   7  17   26.83    2.35
   1  17   7   25.80    2.29
  17   7   1   29.36    2.21
  17   1   7   27.70    2.39
  -1  17   7   26.93    2.28
  17   7  -1   28.56    2.19
   1   7  17   28.61    2.46
  17   7   2   12.04    1.28
   2  17   7   12.44    1.38
  -2   7  17    9.13    1.28
  -2  17   7   14.19    1.36
  17   2   7    9.05    1.32
   2   7  17    9.45    1.42
   7  17   2   15.03    1.43
  17   7  -2   11.63    1.16
  -3   7  17   15.37    1.61
   3  17   7   19.00    1.72
  17   7   3   14.61    1.55
   3   7  17   21.83    2.10
  17   3   7   19.38    1.97
   7  17   3   20.22    1.94
  17   7  -3   22.31    1.71
  17   7   4    3.72    0.81
  -4   7  17    4.81    0.84
   4  17   7    3.35    0.87
   4   7  17    3.09    0.94
  -7   4  17    2.16    0.59
  17   4   7    3.00    0.80
   7  17   4    0.92    0.69
  -5   7  17    3.43    0.76
   5  17   7    4.50    0.94
  17   7   5    3.46    0.83
   7   5  17    1.99    0.99
   5   7  17    4.67    1.07
  -7   5  17    2.99    0.68
  17   5   7    2.57    0.80
   7  17   5    2.81    0.79
  -6   7  17   18.04    1.65
   7   6  17   21.57    2.20
   6  17   7   15.99    1.88
  17   7   6   20.17    1.83
   6   7  17   22.12    2.11
  -7   6  17   19.76    1.64
   7  17   6   16.53    1.84
  17   6   7   17.50    1.82
   7  17   7    0.57    0.62
   7   7  17    1.19    0.79
  -7   7  17    0.78    0.53
  17   7   7   -0.02    0.66
   0  17   8    1.55    0.63
  17   8   0    0.78    0.51
   0   8  17    0.44    0.68
   1  17   8    5.02    0.90
  -1   8  17    2.82    0.81
  17   8   1    2.83    0.68
   1   8  17    5.23    1.01
  -1  17   8    3.70    0.80
  17   8  -1    4.89    0.77
  17   1   8    5.41    1.03
  17   8   2    5.35    0.89
   2  17   8    4.61    0.92
  -2   8  17    7.01    1.05
   2   8  17    6.36    1.13
  17   8  -2    6.23    0.82
  -2  17   8    5.99    0.96
   8  17   2    6.32    1.04
  17   2   8    4.45    1.00
  17   8   3   29.12    2.43
  -3   8  17   26.85    2.42
   3  17   8   34.13    2.56
   8  17   3   36.59    2.63
  17   3   8   28.29    2.56
  -8   3  17   24.26    2.31
  -3  17   8   36.77    2.52
   3   8  17   25.03    2.61
  17   8  -3   35.09    2.35
  17   8   4   31.79    2.52
  -4   8  17   30.65    2.46
   4  17   8   28.99    2.56
  -8   4  17   34.99    2.52
   4   8  17   32.67    2.85
   8  17   4   31.01    2.74
  17   4   8   34.21    2.77
   5  17   8   12.59    1.55
   8   5  17   13.29    1.82
  -5   8  17   14.59    1.42
  17   8   5   14.51    1.59
   8  17   5   15.29    1.61
  17   5   8   11.79    1.49
   5   8  17   11.58    1.60
  -8   5  17   11.90    1.22
  17   8   6    3.61    0.87
   8   6  17    3.08    1.07
  -6   8  17    3.04    0.71
   6  17   8    3.18    0.81
   8  17   6    4.75    1.01
   6   8  17    4.81    1.11
  -8   6  17    4.81    0.74
  17   6   8    4.15    0.96
   8   7  17   35.53    3.06
   7  17   8   32.84    2.86
  17   8   7   36.75    2.90
  -7   8  17   33.64    2.62
  -8   7  17   32.82    2.46
  17   7   8   31.65    2.75
   7   8  17   35.34    2.96
   8  17   7   31.36    2.70
   8  17   8    6.72    1.18
  -8   8  17    8.32    0.96
   8   8  17    7.36    1.33
  17   8   8    9.11    1.30
   0  17   9   15.13    1.53
   0   9  17   14.64    1.63
  17   9   0   13.31    1.41
  -1   9  17   23.79    2.25
   1  17   9   25.31    2.23
  17   9   1   26.66    2.14
  17   9  -1   23.22    1.85
  17   1   9   20.86    2.13
   1   9  17   20.20    2.04
  -1  17   9   21.26    1.96
   2  17   9   10.89    1.33
  17   9   2   10.11    1.21
  -2   9  17    8.17    1.21
   2   9  17    5.97    1.20
  17   9  -2   11.42    1.08
  17   2   9    6.04    1.19
  -2  17   9    8.36    1.13
   9  17   2   10.07    1.29
   3  17   9   44.45    3.54
  -3   9  17   47.62    3.50
  17   9   3   46.39    3.48
  -3  17   9   44.12    3.51
  17   3   9   47.63    3.71
   9  17   3   47.67    3.66
   3   9  17   48.69    3.76
  -9   3  17   50.24    3.42
  -4   9  17    6.94    1.05
   4  17   9    7.95    1.16
  17   9   4    8.25    1.13
  -4  17   9   13.45    1.21
   4   9  17    7.29    1.29
   9  17   4   10.84    1.35
  17   4   9    8.91    1.34
  -9   4  17    8.28    1.08
   9   5  17    1.09    0.88
  -5   9  17    0.58    0.56
   5  17   9    2.28    0.81
  17   9   5    1.41    0.70
  17   5   9   -0.27    0.67
   9  17   5    1.02    0.69
   5   9  17    1.31    0.82
  17   9   6    0.98    0.72
   9   6  17    0.97    0.82
   6  17   9    0.81    0.74
  -6   9  17    1.35    0.58
   6   9  17    1.19    0.86
  17   6   9    0.44    0.73
   9  17   6   -0.05    0.63
   7  17   9    4.07    0.96
  -7   9  17    5.41    0.83
  17   9   7    5.59    1.07
   9   7  17    5.04    1.14
   7   9  17    3.49    1.11
  17   7   9    3.93    0.98
   9  17   7    3.57    0.93
   8  17   9    4.63    1.03
  17   9   8    4.00    1.02
   9   8  17    5.38    1.22
  -8   9  17    4.60    0.93
   8   9  17    4.16    1.15
   9  17   8    4.70    1.06
  17   8   9    5.50    1.13
   9   9  17    8.33    1.47
  17   9   9    6.95    1.27
   9  17   9    9.47    1.34
   0  17  10    0.66    0.64
  17  10   0    0.81    0.56
   0  10  17    0.56    0.72
   1  17  10   43.99    3.46
  17  10   1   43.71    3.36
  -1  10  17   47.93    3.52
  17  10  -1   47.11    3.55
  -1  17  10   49.36    3.65
  10  17   1   44.66    3.64
   1  10  17   51.87    3.79
  17   1  10   49.55    3.87
  -2  10  17    0.40    0.61
   2  17  10    1.05    0.71
  17  10   2    0.86    0.60
  17   2  10    0.38    0.76
  10  17   2    0.74    0.67
  17  10  -2    1.65    0.56
  -2  17  10    1.04    0.65
   2  10  17    0.33    0.72
   3  17  10   10.61    1.47
  17  10   3   12.68    1.44
  -3  10  17   14.75    1.49
   3  10  17   16.43    1.72
  -3  17  10    9.82    1.26
  17   3  10   16.06    1.66
  10  17   3    8.49    1.35
   4  17  10    6.27    1.09
  -4  10  17    4.22    0.86
  17  10   4    6.18    1.04
  17   4  10    5.65    1.15
   4  10  17    6.46    1.24
  -4  17  10   10.00    1.13
  10  17   4    8.40    1.21
   5  17  10   28.94    2.54
  -5  10  17   29.95    2.34
  17  10   5   28.04    2.45
  10   5  17   27.13    2.67
  10  17   5   28.08    2.47
  17   5  10   27.38    2.53
   5  10  17   28.51    2.60
  -6  10  17   10.91    1.19
   6  17  10    9.80    1.40
  17  10   6    9.59    1.33
  10   6  17    9.50    1.56
   6  10  17    9.77    1.42
  10  17   6    8.75    1.32
  17   6  10    7.27    1.31
   7  17  10   12.30    1.56
  -7  10  17   11.33    1.24
  17  10   7   11.14    1.49
  10   7  17   12.86    1.73
  10  17   7   11.34    1.53
   7  10  17   13.64    1.77
  17   7  10   12.85    1.65
   8  17  10    9.16    1.34
  10   8  17   12.15    1.60
  17  10   8    8.89    1.36
   8  10  17   10.54    1.55
  17   8  10    9.39    1.37
  10  17   8    6.17    1.24
  17  10   9   22.12    2.20
   9  17  10   21.35    2.20
  10   9  17   21.79    2.44
  17   9  10   23.35    2.24
  10  17   9   20.62    2.19
   9  10  17   21.83    2.35
  10  10  17   18.58    2.17
  17  10  10   20.35    2.07
  10  17  10   16.86    1.97
  17  11   0   37.81    3.05
   0  17  11   39.42    3.13
   0  11  17   42.76    3.20
  -1  11  17    7.83    1.19
   1  17  11    9.13    1.22
  17  11   1    8.98    1.19
  11  17   1    8.05    1.14
  17  11  -1    7.80    1.04
   1  11  17    6.96    1.19
  -1  17  11    8.04    1.12
   2  17  11   22.82    2.22
  17  11   2   22.91    2.13
  -2  11  17   26.87    2.18
  17  11  -2   22.94    2.19
  17   2  11   34.06    2.68
  -2  17  11   29.92    2.38
  11  17   2   26.14    2.39
   2  11  17   30.12    2.53
  -3  11  17   21.92    2.06
  17  11   3   23.91    2.10
   3  17  11   24.03    2.20
  11  17   3   25.68    2.24
  -3  17  11   25.90    2.10
   3  11  17   22.73    2.26
  17   3  11   20.77    2.28
  17  11   4   18.79    1.83
   4  17  11   18.75    1.92
  -4  11  17   18.22    1.76
  -4  17  11   15.12    1.56
  17   4  11   17.01    1.92
  11  17   4   14.25    1.75
   4  11  17   19.77    1.95
  17  11   5    7.30    1.17
  11   5  17    5.60    1.34
   5  17  11    6.62    1.18
  -5  11  17    7.75    1.04
  11  17   5    8.41    1.30
  -5  17  11    9.06    1.12
  17   5  11    8.36    1.36
   5  11  17    8.47    1.36
  11   6  17   30.69    2.98
  -6  11  17   33.67    2.55
  17  11   6   31.70    2.78
   6  17  11   33.04    2.82
  17   6  11   29.16    2.77
   6  11  17   29.97    2.74
  11  17   6   34.37    2.76
  11   7  17   17.21    2.01
  -7  11  17   13.47    1.47
  17  11   7   17.73    1.80
   7  17  11   15.88    1.80
  17   7  11   19.49    2.12
  11  17   7   16.70    2.02
   7  11  17   23.20    2.26
   8  17  11   20.56    2.07
  17  11   8   18.57    1.96
  11   8  17   15.08    2.12
  11  17   8   22.29    2.14
   8  11  17   18.88    2.19
  17   8  11   17.15    2.04
  17  11   9    4.89    1.16
   9  17  11    5.68    1.18
  11   9  17    4.89    1.28
   9  11  17    4.64    1.25
  11  17   9    4.19    1.10
  17   9  11    5.70    1.19
  11  10  17    4.05    1.20
  10  17  11    4.79    1.15
  17  11  10    3.33    1.05
  10  11  17    3.88    1.12
  17  10  11    2.43    1.05
  11  17  10    6.14    1.20
  11  11  17    4.57    1.24
  11  17  11    6.80    1.26
  17  11  11    3.74    1.10
  17  12   0    0.16    0.57
   0  17  12   -0.50    0.61
   0  12  17    0.55    0.71
   1  17  12    8.03    1.17
  -1  12  17    6.69    1.13
  17  12   1    6.32    1.06
  17  12  -1    7.65    1.07
   1  12  17    7.00    1.21
  12  17   1    9.21    1.21
  -1  17  12    7.43    1.15
  -2  12  17    2.50    0.84
  17  12   2    3.45    0.85
   2  17  12    4.00    0.92
   2  12  17    2.61    0.93
  17   2  12    3.71    1.12
  12  17   2    3.33    0.89
  -2  17  12    3.38    0.81
  17  12   3   28.57    2.43
  -3  12  17   26.09    2.35
   3  17  12   29.05    2.50
  -3  17  12   26.82    2.28
  17   3  12   22.65    2.51
   3  12  17   27.44    2.48
  12  17   3   28.20    2.41
   4  17  12   14.85    1.74
  17  12   4   11.60    1.58
  -4  12  17   17.52    1.60
  12   4  17   15.66    2.08
  12  17   4    9.77    1.47
  17   4  12   15.94    1.84
  -4  17  12   14.53    1.50
   4  12  17   17.17    1.88
   5  17  12    1.77    0.89
  17  12   5    1.95    0.82
  -5  12  17    2.42    0.71
  12   5  17    3.15    1.15
  12  17   5    1.76    0.80
   5  12  17    2.47    0.97
  17   5  12    3.88    1.11
  -5  17  12    2.37    0.69
  12   6  17    2.73    1.09
  17  12   6    3.91    0.97
   6  17  12    4.76    1.09
  -6  12  17    3.52    0.76
  -6  17  12    4.15    0.79
   6  12  17    3.91    1.10
  17   6  12    4.79    1.17
  12  17   6    3.48    0.97
  12   7  17   38.43    3.22
  17  12   7   31.68    2.91
   7  17  12   35.90    3.02
  -7  12  17   33.52    2.65
  17   7  12   38.64    3.35
  12  17   7   37.72    3.20
   7  12  17   41.72    3.41
  17  12   8   26.25    2.52
   8  17  12   26.53    2.52
  12   8  17   30.42    2.79
  17   8  12   27.49    2.67
   8  12  17   26.62    2.68
  12  17   8   28.88    2.61
  12   9  17    8.81    1.59
  17  12   9   11.06    1.54
   9  17  12    9.81    1.50
  12  17   9    9.79    1.43
   9  12  17    9.75    1.60
  17   9  12   10.39    1.55
  10  17  12    0.66    0.87
  12  10  17   -0.64    0.90
  17  12  10    0.19    0.84
  17  10  12   -0.05    0.86
  12  17  10   -0.13    0.79
  10  12  17    0.66    0.86
  17  12  11    5.29    1.22
  11  17  12    3.68    1.13
  12  11  17    4.57    1.26
  17  11  12    4.19    1.23
  11  12  17    7.16    1.44
  12  17  11    5.19    1.23
  17  12  12   11.35    1.74
  12  17  12   12.01    1.75
  12  12  17   13.29    1.89
  17  13   0   11.06    1.37
   0  17  13   11.01    1.42
   0  13  17   13.12    1.54
  17  13   1   28.92    2.41
  -1  13  17   27.85    2.44
   1  17  13   27.47    2.46
  13  17   1   29.22    2.49
  -1  17  13   28.34    2.43
   1  13  17   27.68    2.54
  17  13  -1   29.05    2.38
  -2  13  17   11.66    1.50
   2  17  13   12.97    1.61
  17  13   2   14.59    1.57
   2  13  17   12.29    1.60
  13  17   2   12.53    1.50
  -2  17  13   11.76    1.45
  17   2  13   12.14    1.76
   3  17  13    9.06    1.34
  -3  13  17    9.19    1.25
  17  13   3    9.06    1.26
  -3  17  13    8.96    1.19
  17   3  13    7.47    1.42
  13  17   3    7.59    1.25
   3  13  17   10.26    1.47
   4  17  13    3.57    0.96
  -4  13  17    4.70    0.91
  13   4  17    2.69    1.23
  17  13   4    4.15    0.98
  13  17   4    4.60    1.03
   4  13  17    2.62    1.03
  -4  17  13    4.67    0.88
  17   4  13    3.44    1.13
   5  17  13    4.40    1.11
  -5  13  17    3.80    0.81
  17  13   5    3.58    0.97
  13   5  17    2.58    1.18
   5  13  17    3.00    1.04
  17   5  13    3.18    1.12
  13  17   5    3.98    1.02
  -5  17  13    3.06    0.77
  17  13   6    8.25    1.33
   6  17  13   10.03    1.47
  -6  13  17   10.09    1.19
  13   6  17    8.59    1.59
   6  13  17    7.30    1.42
  13  17   6    8.35    1.29
  -6  17  13   10.47    1.17
  17   6  13    6.84    1.43
  17  13   7    2.75    0.96
  13   7  17    3.37    1.21
   7  17  13    2.48    1.01
  -7  13  17    2.29    0.76
   7  13  17    3.62    1.12
  17   7  13    2.91    1.08
  13  17   7    2.44    0.93
  17  13   8   -0.38    0.78
  13   8  17    0.58    0.99
   8  17  13   -0.55    0.79
  13  17   8   -0.10    0.81
  17   8  13   -0.50    0.88
   8  13  17    0.53    0.88
   9  17  13    6.16    1.29
  17  13   9    6.95    1.27
  13   9  17    6.04    1.35
   9  13  17    4.88    1.23
  13  17   9    4.76    1.09
  17   9  13    4.92    1.23
  10  17  13    5.63    1.28
  13  10  17    3.79    1.25
  17  13  10    4.35    1.17
  17  10  13    4.70    1.28
  13  17  10    4.24    1.13
  10  13  17    4.07    1.21
  17  13  11    7.94    1.41
  11  17  13    5.56    1.31
  13  11  17    6.92    1.49
  13  17  11    8.06    1.41
  11  13  17    6.75    1.44
  17  11  13    5.53    1.34
  13  12  17    8.01    1.60
  12  17  13    6.37    1.33
  17  13  12    7.74    1.49
  13  17  12    6.06    1.33
  17  12  13    4.93    1.29
  12  13  17    5.80    1.30
  13  13  17    8.90    1.62
  13  17  13   10.23    1.66
  17  13  13   10.45    1.65
   0  14  17    2.57    0.90
   0  17  14    3.29    0.90
  17  14   0    2.44    0.73
  -1  14  17   -0.17    0.66
  17  14   1    0.58    0.64
   1  17  14   -0.10    0.67
  -1  17  14   -0.41    0.63
  17  14  -1    0.71    0.58
   1  14  17    1.49    0.83
  14  17   1    0.42    0.65
  17  14   2    0.83    0.68
   2  17  14    0.08    0.72
  -2  14  17    0.69    0.72
  17   2  14    1.18    1.04
  14  17   2   -0.46    0.59
  -2  17  14    0.52    0.63
   2  14  17    0.27    0.76
  17  14   3    7.93    1.23
  -3  14  17    8.74    1.22
   3  17  14    7.44    1.27
   3  14  17    8.97    1.42
  14  17   3    8.22    1.27
  -3  17  14    7.64    1.15
  17   3  14    8.86    1.55
  17  14   4    6.02    1.14
   4  17  14    6.54    1.23
  -4  14  17    7.15    1.11
  14   4  17   13.22    1.82
  14  17   4    5.03    1.09
  -4  17  14    3.07    0.84
  17   4  14    8.07    1.44
   4  14  17    7.30    1.26
   5  17  14   27.39    2.57
  14   5  17   26.34    2.78
  17  14   5   25.73    2.45
  -5  14  17   28.19    2.32
  17   5  14   24.22    2.62
  -5  17  14   26.73    2.24
   5  14  17   28.40    2.60
  14  17   5   24.46    2.41
  14   6  17   11.72    1.86
   6  17  14   17.27    1.96
  -6  14  17   16.27    1.57
  17  14   6   16.68    1.89
  -6  17  14   16.09    1.55
  14  17   6   13.90    1.77
  17   6  14   13.88    1.90
   6  14  17   16.14    1.97
   7  17  14    6.21    1.26
  17  14   7    5.08    1.15
  14   7  17    8.69    1.59
  17   7  14    8.81    1.54
   7  14  17    6.82    1.37
  -7  17  14    4.39    0.90
  14  17   7    6.06    1.18
  14   8  17    9.62    1.69
  17  14   8    8.47    1.44
   8  17  14    9.52    1.56
   8  14  17    8.73    1.47
  14  17   8    7.84    1.43
  17   8  14    8.58    1.53
  17  14   9   14.25    1.76
  14   9  17    9.94    1.75
   9  17  14   12.19    1.75
  14  17   9   13.63    1.78
   9  14  17   12.32    1.86
  17   9  14   12.27    1.87
  17  14  10   14.21    1.83
  14  10  17   14.98    2.05
  10  17  14   10.79    1.73
  10  14  17   16.78    2.12
  14  17  10   18.53    2.07
  17  10  14   13.01    1.94
  17  14  11    5.43    1.30
  11  17  14    6.94    1.40
  14  11  17    6.10    1.44
  14  17  11    5.36    1.33
  11  14  17    5.11    1.36
  17  11  14    6.14    1.35
  12  17  14    4.09    1.22
  17  14  12    1.41    1.01
  14  12  17    1.59    1.12
  14  17  12    4.01    1.23
  12  14  17    2.53    1.24
  17  12  14    2.62    1.21
  14  13  17    1.70    1.16
  17  14  13    2.37    1.16
  13  17  14    2.95    1.18
  14  17  13    3.35    1.17
  17  13  14    1.60    1.11
  13  14  17    1.60    1.18
  14  17  14    7.18    1.52
  17  14  14    5.37    1.43
  14  14  17    6.44    1.55
  17  15   0    2.51    0.83
   0  17  15    5.98    1.10
   0  15  17    5.48    1.08
   1  17  15    1.11    0.78
  -1  15  17    0.18    0.76
  17  15   1    1.13    0.70
   1  15  17    0.73    0.80
  15  17   1    1.72    0.81
  -1  17  15    0.37    0.74
   2  17  15   11.71    1.53
  17  15   2   12.27    1.56
  -2  15  17   12.04    1.49
  -2  17  15   10.87    1.39
  17   2  15   14.29    1.92
  15  17   2    9.34    1.35
   2  15  17   10.86    1.51
   3  17  15    1.08    0.84
  17  15   3    1.04    0.76
  -3  15  17    0.38    0.67
  15   3  17    2.09    1.26
  15  17   3    1.33    0.79
  17   3  15    2.54    1.12
  -3  17  15    0.90    0.65
   3  15  17    0.74    0.84
   4  17  15   25.73    2.45
  17  15   4   23.66    2.34
  -4  15  17   25.48    2.24
  15   4  17   26.87    2.74
   4  15  17   27.36    2.53
  15  17   4   26.60    2.46
  17   4  15   28.21    2.72
  -4  17  15   22.60    2.17
  -5  15  17    5.04    0.94
   5  17  15    3.39    1.10
  17  15   5    4.48    1.05
  15   5  17    3.23    1.28
  15  17   5    4.68    1.06
  17   5  15    3.81    1.24
   5  15  17    5.62    1.25
  -5  17  15    4.50    0.93
  -6  15  17    6.67    1.03
  15   6  17    7.10    1.49
  17  15   6    7.73    1.31
   6  17  15    8.51    1.45
  17   6  15    8.07    1.58
  -6  17  15    9.36    1.19
  15  17   6   10.90    1.50
   6  15  17    5.90    1.36
  15   7  17    0.97    1.12
   7  17  15    0.81    0.96
  17  15   7    0.45    0.86
  15  17   7    1.24    0.87
  -7  17  15    1.61    0.68
  17   7  15    2.58    1.17
   7  15  17    0.65    0.97
  17  15   8    9.26    1.48
  15   8  17   10.38    1.78
   8  17  15   10.77    1.66
   8  15  17    9.14    1.63
  15  17   8   10.76    1.56
  17   8  15    8.55    1.63
  17  15   9    0.48    0.89
  15   9  17    0.66    1.08
   9  17  15    0.19    0.95
  15  17   9    0.98    0.92
  17   9  15    2.29    1.20
   9  15  17    0.99    1.05
  10  17  15    4.61    1.30
  17  15  10    4.67    1.20
  15  10  17    5.99    1.49
  10  15  17    4.85    1.33
  15  17  10    6.34    1.35
  17  10  15    4.86    1.39
  11  17  15    3.54    1.20
  17  15  11    2.56    1.14
  15  11  17    3.05    1.30
  17  11  15    3.64    1.26
  11  15  17    3.91    1.25
  15  17  11    3.06    1.13
  17  15  12    2.90    1.13
  15  12  17    0.89    1.12
  12  17  15    2.57    1.16
  17  12  15    2.90    1.26
  12  15  17    1.41    1.16
  15  17  12    2.75    1.17
  17  15  13    6.77    1.52
  15  13  17    8.33    1.68
  13  17  15    8.24    1.61
  15  17  13    5.90    1.44
  13  15  17    6.65    1.54
  17  13  15    6.69    1.57
  14  17  15    2.06    1.20
  17  15  14    1.28    1.16
  15  14  17    2.07    1.28
  14  15  17    1.64    1.19
  15  17  14    2.75    1.31
  17  14  15    1.44    1.18
  15  17  15    8.36    1.70
  17  15  15    9.20    1.77
  15  15  17    8.07    1.72
   0  17  16    0.43    0.74
   0  16  17    1.02    0.80
  17  16   1    6.44    1.11
   1  17  16    3.88    1.07
  -1  16  17    5.67    1.08
  -1  17  16    7.52    1.19
  16  17   1    4.56    1.02
   1  16  17    6.14    1.21
  17  16   2    5.56    1.11
   2  17  16    6.21    1.21
  -2  16  17    6.31    1.10
  17   2  16    5.73    1.48
  16  17   2    6.95    1.21
  -2  17  16    6.74    1.16
   2  16  17    7.32    1.31
  16   3  17    1.35    1.15
   3  17  16    1.43    0.92
  -3  16  17    3.13    0.85
  17  16   3    2.55    0.91
  17   3  16   -0.50    1.00
  -3  17  16    1.41    0.74
  16  17   3    0.94    0.81
   3  16  17    2.06    0.97
  -4  16  17    6.54    1.12
   4  17  16    7.11    1.35
  17  16   4    7.34    1.26
  16   4  17   11.16    1.80
  -4  17  16    7.93    1.19
  16  17   4    6.76    1.26
  17   4  16    7.98    1.62
   4  16  17    8.39    1.42
   5  17  16    5.17    1.27
  17  16   5    5.17    1.13
  -5  16  17    6.11    1.04
  16   5  17    5.73    1.44
   5  16  17    5.53    1.26
  17   5  16    5.28    1.39
  -5  17  16    5.43    0.99
  16  17   5    5.03    1.13
  -6  16  17    3.33    0.84
   6  17  16    3.33    1.13
  17  16   6    1.82    0.91
  16   6  17    2.47    1.12
  -6  17  16    3.38    0.83
  17   6  16    1.53    1.15
  16  17   6    1.89    0.95
   6  16  17    1.24    1.02
   7  17  16   11.74    1.77
  17  16   7   13.95    1.80
  16   7  17   14.30    2.04
  17   7  16   15.04    2.18
  16  17   7   16.75    2.00
   7  16  17   18.14    2.14
  16   8  17    5.06    1.44
  17  16   8    4.59    1.18
   8  17  16    5.30    1.28
   8  16  17    4.52    1.27
  16  17   8    3.63    1.12
  17   8  16    4.22    1.37
   9  17  16   -0.36    0.93
  17  16   9    0.85    0.93
  16   9  17    0.08    1.06
   9  16  17    0.63    1.06
  17   9  16    1.80    1.18
  16  17   9    0.90    0.91
  10  17  16    0.90    1.05
  16  10  17   -0.34    1.07
  17  16  10   -0.01    0.92
  17  10  16    0.53    1.08
  16  17  10    0.44    0.93
  10  16  17    1.53    1.09
  11  17  16    4.60    1.34
  16  11  17    1.51    1.21
  17  16  11    2.49    1.11
  16  17  11    4.14    1.27
  11  16  17    4.62    1.37
  17  11  16    6.45    1.49
  16  12  17    2.95    1.34
  12  17  16    4.40    1.41
  17  16  12    4.04    1.30
  12  16  17    3.88    1.38
  16  17  12    2.96    1.22
  17  12  16    2.93    1.32
  17  16  13    3.12    1.21
  16  13  17    2.86    1.38
  13  17  16    1.12    1.13
  17  13  16    2.67    1.28
  16  17  13    2.51    1.17
  13  16  17    1.41    1.10
  17  16  14    1.66    1.22
  14  17  16    1.56    1.25
  16  14  17    1.52    1.28
  16  17  14    1.70    1.22
  17  14  16   -0.14    1.10
  14  16  17    1.65    1.22
  16  15  17    8.44    1.75
  17  16  15    5.70    1.52
  15  17  16    6.65    1.68
  17  15  16    5.55    1.54
  15  16  17    5.62    1.56
  16  17  15    6.12    1.54
  16  16  17    3.78    1.42
  16  17  16    4.58    1.50
  17  16  16    3.28    1.38
   0  17  17   18.23    2.01
  -1  17  17    2.86    0.90
   1  17  17    3.00    1.01
  17  17   1    2.80    0.89
  -2  17  17    6.33    1.12
   2  17  17    5.98    1.24
  17   2  17    3.46    1.42
  17  17   2    7.18    1.21
  -3  17  17    0.63    0.73
   3  17  17    1.75    0.92
  17   3  17    1.77    1.16
  17  17   3    1.59    0.85
  -4  17  17    3.05    0.86
   4  17  17    2.10    1.04
  17   4  17    0.09    1.07
  17  17   4    3.54    1.05
  -5  17  17    9.45    1.29
   5  17  17    9.84    1.59
  17   5  17   11.00    1.81
  17  17   5    8.44    1.40
   6  17  17    4.42    1.20
  17   6  17    3.85    1.39
  17  17   6    1.66    1.00
   7  17  17    1.11    1.04
  17   7  17    1.01    1.16
  17  17   7    3.00    1.01
   8  17  17    1.19    1.06
  17   8  17   -0.41    1.12
  17  17   8    0.89    0.93
   9  17  17    2.36    1.10
  17   9  17    0.88    1.18
  17  17   9    1.59    1.02
  10  17  17    0.47    1.05
  17  10  17    1.85    1.22
  17  17  10    0.21    0.94
  11  17  17    4.26    1.32
  17  11  17    4.70    1.49
  17  17  11    5.10    1.35
  12  17  17    2.17    1.19
  17  12  17    1.62    1.27
  17  17  12    1.65    1.15
  13  17  17   25.36    2.82
  17  13  17   22.84    2.81
  17  17  13   25.41    2.76
  14  17  17    1.15    1.25
  17  14  17    0.72    1.25
  17  17  14    2.05    1.22
  15  17  17    0.21    1.20
  17  15  17   -0.26    1.17
  17  17  15   -1.07    1.11
  16  17  17   -0.95    1.23
  17  16  17   -0.51    1.17
  17  17  16    0.80    1.26
  17  17  17    2.36    1.34
  18   0   0    0.27    0.36
  18   0  -1    0.37    0.32
  18   0   1    0.06    0.38
  18   1   0    0.29    0.36
  18  -1   0   -0.20    0.32
  18   1   1    9.44    0.97
  18   1  -1    9.48    0.87
  18  -1  -1    7.86    0.83
  18  -1   1    7.88    0.92
  18   0  -2    0.30    0.30
  18   0   2    2.62    0.57
  18  -2   0    2.47    0.46
  18   2   0    0.93    0.44
  18   2   1   10.85    1.09
  18   1  -2    9.65    0.89
  18  -2  -1    9.62    0.90
  18  -1   2    9.92    1.07
  18  -2   1   10.95    1.03
  18   1   2    9.58    1.08
  18   2  -1    9.16    0.97
  18   2   2    0.70    0.49
  18  -2   2   -0.35    0.41
  18   2  -2    0.98    0.36
  18   3   0  109.86    7.37
  18   0   3  112.30    7.45
  18  -3   0  105.97    7.31
  18  -1   3   22.74    1.99
  18  -3  -1   24.68    1.84
  18   3   1   26.94    1.99
  18   1   3   26.88    2.19
  18   3  -1   29.11    2.07
  18  -3   1   26.15    2.09
  18  -2   3    8.56    1.00
  18   3   2    7.80    0.95
  18   2  -3    6.78    0.74
  18   2   3    7.51    1.01
  18  -3   2    9.26    1.03
  18   3  -2    7.88    0.84
  18   3   3    3.03    0.67
  18   0   4   14.20    1.40
  18   4   0   10.87    1.24
  18  -4   0   16.30    1.24
  18   4   1    2.31    0.56
  18  -1   4    1.24    0.59
  18   4  -1    1.46    0.47
  18   1   4    1.96    0.64
  18   4   2   15.66    1.46
  18   2   4   22.52    1.85
  18   4  -2   19.81    1.64
  18   4   3   38.56    2.94
   3  18   4   39.27    3.03
  18   4  -3   39.36    2.65
  18   3   4   33.90    2.83
   4  18   4    6.43    1.02
  18   4   4    4.90    0.89
   0   5  18    3.69    1.03
  18   0   5    4.84    0.88
  18   5   0    7.47    0.85
  18  -1   5   18.24    1.70
  18   5   1   16.60    1.54
  -1   5  18   18.06    1.85
  18   1   5   14.34    1.46
   1   5  18   16.43    1.80
  18   5  -1   12.96    1.26
  -2   5  18    1.75    0.73
  18   5   2    0.44    0.49
   2  18   5    0.60    0.60
  18   5  -2    0.63    0.40
   2   5  18    0.21    0.78
  18   2   5    0.27    0.53
   3  18   5   10.88    1.26
  -3   5  18    9.26    1.25
  18   5   3    9.57    1.17
  18   3   5    5.67    0.98
   3   5  18    8.53    1.39
  18   5  -3    9.23    0.85
   5  18   3    5.79    0.95
   4  18   5    0.08    0.56
  -4   5  18    0.20    0.60
  18   5   4    0.38    0.55
   4   5  18   -0.10    0.83
   5  18   4    0.52    0.56
  18   4   5    0.10    0.56
  -5   4  18    0.13    0.58
   5  18   5    0.78    0.68
   5   5  18    0.78    0.94
  18   5   5    0.99    0.66
  -5   5  18    1.77    0.64
  18   0   6   17.98    1.70
   0   6  18   20.72    1.85
   0  18   6   13.29    1.56
  18   6   0   17.26    1.52
  -1   6  18    3.93    0.93
   1  18   6    6.86    0.96
  18   6   1    5.24    0.81
  18   1   6    5.46    0.96
  18   6  -1    6.93    0.82
   1   6  18    3.29    0.95
  18   6   2    7.19    0.95
   2  18   6    5.31    0.94
  -2   6  18    5.63    1.00
  18   6  -2    3.37    0.63
   2   6  18    4.13    1.01
  18   2   6    4.25    0.89
  18   6   3    1.90    0.64
  -3   6  18    1.89    0.74
   3  18   6    0.90    0.68
   3   6  18    0.38    0.77
  18   3   6    1.55    0.68
  18   6  -3    1.17    0.44
   6  18   3    1.40    0.68
  -4   6  18   12.16    1.39
  18   6   4   12.25    1.35
   4  18   6   10.87    1.39
   4   6  18    7.69    1.30
   6  18   4    7.83    1.11
  -6   4  18    6.60    0.99
  18   4   6    6.78    1.08
  -5   6  18   12.76    1.42
   5  18   6   16.07    1.66
  18   6   5   12.80    1.46
   6   5  18   10.88    1.73
   5   6  18   10.81    1.62
  -6   5  18   13.26    1.38
  18   5   6   10.13    1.38
   6  18   5   15.78    1.57
  18   6   6   18.55    1.80
   6   6  18   14.23    1.94
  -6   6  18   17.21    1.67
   6  18   6   25.52    2.00
   0   7  18   49.88    3.69
  18   7   0   42.86    3.40
  18   0   7   50.50    3.64
  -1   7  18   13.03    1.58
   1  18   7   15.62    1.54
  18   7   1   14.03    1.43
   1   7  18   11.06    1.49
  -1  18   7   16.86    1.47
  18   1   7   10.52    1.44
  18   7  -1   13.71    1.29
   2  18   7    7.69    1.23
  -2   7  18   18.21    1.60
  18   7   2   13.12    1.36
  18   2   7   17.59    1.62
  18   7  -2   12.48    1.32
   2   7  18   14.78    1.68
  18   7   3   22.28    2.05
   3  18   7   25.23    2.20
  -3   7  18   25.46    2.16
   7  18   3   25.86    2.25
   3   7  18   25.97    2.42
  18   7  -3   28.86    2.03
  18   3   7   21.99    2.22
   4  18   7   33.43    2.66
  18   7   4   32.12    2.58
  -4   7  18   30.43    2.57
   4   7  18   27.00    2.63
  -7   4  18   30.19    2.36
   7  18   4   31.77    2.54
  18   4   7   28.85    2.49
  18   7   5   29.90    2.50
  -5   7  18   31.52    2.48
   7   5  18   32.08    2.91
   5  18   7   28.11    2.58
  -7   5  18   29.82    2.31
   7  18   5   23.65    2.42
   5   7  18   31.11    2.66
  18   5   7   29.92    2.49
   6  18   7   22.39    2.14
   7   6  18   24.57    2.41
  18   7   6   23.01    2.13
  -6   7  18   22.34    1.95
   6   7  18   19.46    2.12
   7  18   6   17.09    1.80
  -7   6  18   18.43    1.66
  18   6   7   18.44    1.85
  18   7   7   10.88    1.46
   7  18   7   17.81    1.68
   7   7  18   11.02    1.65
  -7   7  18   10.95    1.26
   0   8  18    1.20    0.75
   0  18   8    1.80    0.68
  18   8   0    1.30    0.55
  18   0   8    1.25    0.83
  -1   8  18   66.71    4.35
   1  18   8   50.00    4.17
  18   8   1   56.23    4.11
  18   1   8   64.13    4.48
   1   8  18   70.00    4.54
  -1  18   8   50.75    4.27
  18   8  -1   56.54    4.21
  -2   8  18   43.02    3.76
   2  18   8   55.42    3.86
  18   8   2   52.97    3.73
  18   8  -2   58.03    3.80
   2   8  18   42.79    3.99
  18   2   8   41.02    3.91
   8  18   2   59.63    4.02
  -2  18   8   62.48    3.96
  -3   8  18   15.73    1.54
   3  18   8    8.55    1.37
  18   8   3   12.88    1.41
   3   8  18   13.78    1.76
  -8   3  18   15.64    1.46
  18   3   8   14.82    1.68
  -4   8  18    1.01    0.65
   4  18   8    1.54    0.76
  18   8   4    1.83    0.71
   4   8  18    2.16    0.94
   8  18   4    1.70    0.74
  -8   4  18    2.46    0.64
  18   4   8    1.62    0.81
   8   5  18   17.09    2.07
  18   8   5   15.06    1.71
   5  18   8   17.40    1.81
  -5   8  18   17.54    1.63
   5   8  18   18.61    2.04
  18   5   8   17.80    1.89
   8  18   5   18.48    1.88
  -8   5  18   16.87    1.56
  18   8   6   21.25    2.08
   8   6  18   20.03    2.33
  -6   8  18   21.83    1.90
   6  18   8   23.10    2.14
   8  18   6   27.23    2.34
  18   6   8   22.92    2.25
  -8   6  18   23.66    2.01
   6   8  18   27.55    2.51
  -7   8  18    0.52    0.53
  18   8   7    1.21    0.73
   8   7  18    0.59    0.91
   7  18   8    0.72    0.76
   7   8  18    1.01    0.91
  18   7   8    1.80    0.84
   8  18   7   -0.12    0.67
   8  18   8   11.82    1.52
   8   8  18    7.29    1.48
  18   8   8    9.88    1.37
   0   9  18    4.57    1.05
  18   9   0    7.03    0.98
   0  18   9    6.65    1.05
  -1   9  18    1.43    0.76
   1  18   9    1.45    0.69
  18   9   1    0.92    0.58
  -1  18   9    1.88    0.71
  18   1   9    1.81    0.83
  18   9  -1    1.30    0.58
   1   9  18    1.27    0.79
  18   9   2    0.48    0.58
   2  18   9    0.84    0.68
  -2   9  18    0.11    0.64
  18   2   9    0.38    0.75
   2   9  18   -0.16    0.76
  18   9  -2   -0.24    0.46
   9  18   2    0.59    0.66
  -2  18   9    0.56    0.57
  -3   9  18    2.26    0.72
   3  18   9    2.76    0.82
  18   9   3    1.54    0.71
  -3  18   9    2.08    0.70
   3   9  18    1.95    0.90
   9  18   3    1.83    0.80
  18   3   9    2.34    0.85
   4  18   9    8.02    1.25
  18   9   4    8.04    1.17
  -4   9  18    8.65    1.16
   4   9  18    9.74    1.46
  18   4   9    9.46    1.36
   9  18   4    8.86    1.25
  -5   9  18    6.95    1.03
   5  18   9    6.46    1.16
  18   9   5    8.11    1.16
   9   5  18    8.58    1.52
   9  18   5    7.39    1.22
  18   5   9    8.42    1.30
   5   9  18    8.72    1.40
   6  18   9   13.14    1.57
   9   6  18   11.40    1.71
  18   9   6   15.84    1.65
  -6   9  18   12.42    1.38
  18   6   9   13.09    1.65
   9  18   6   15.46    1.69
   6   9  18   11.99    1.71
  18   9   7   -0.29    0.71
   9   7  18    0.00    0.86
   7  18   9   -0.25    0.65
  -7   9  18   -0.15    0.51
   7   9  18    0.29    0.88
  18   7   9    0.16    0.76
   9  18   7    0.51    0.72
   8  18   9    6.17    1.14
  18   9   8    6.61    1.21
   9   8  18    5.21    1.31
  18   8   9    5.38    1.14
   9  18   8    6.20    1.09
   8   9  18    4.60    1.22
  18   9   9   11.04    1.53
   9  18   9   11.37    1.54
   9   9  18    9.90    1.63
  18  10   0    4.02    0.79
   0  18  10    2.44    0.78
   0  10  18    6.73    1.12
  -1  10  18    0.95    0.76
  18  10   1    2.39    0.72
   1  18  10    2.11    0.76
   1  10  18    2.83    0.93
  18   1  10    2.99    0.97
  18  10  -1    3.48    0.72
  -1  18  10    1.88    0.76
  18  10   2   18.99    1.79
   2  18  10   18.48    1.87
  -2  10  18   18.07    1.82
  10  18   2   17.34    1.83
  -2  18  10   19.26    1.76
  18   2  10   19.17    2.05
  18  10  -2   18.61    1.68
   2  10  18   17.88    2.00
   3  18  10    1.99    0.84
  18  10   3    2.74    0.80
  -3  10  18    3.07    0.80
  10  18   3    3.75    0.85
   3  10  18    2.56    0.98
  18   3  10    1.74    0.85
  -3  18  10    3.99    0.81
   4  18  10    0.46    0.70
  18  10   4    1.71    0.72
  -4  10  18    2.05    0.71
  -4  18  10   -0.36    0.52
   4  10  18    1.19    0.92
  18   4  10    2.14    0.89
  10  18   4    0.20    0.69
  -5  10  18   23.78    1.98
  18  10   5   22.34    2.13
   5  18  10   19.19    2.10
  10   5  18   22.88    2.50
  18   5  10   21.66    2.24
  10  18   5   21.03    2.13
   5  10  18   22.79    2.29
  -6  10  18    0.40    0.58
   6  18  10    0.24    0.73
  18  10   6    0.12    0.67
  10   6  18   -0.49    0.88
  10  18   6   -0.24    0.67
  18   6  10   -0.38    0.74
   6  10  18    0.28    0.84
  10   7  18    4.22    1.23
  18  10   7    2.92    0.92
   7  18  10    4.53    1.05
  -7  10  18    5.10    0.82
   7  10  18    4.86    1.24
  18   7  10    5.69    1.16
  10  18   7    3.04    0.98
  10   8  18   18.07    2.16
   8  18  10   15.01    1.82
  18  10   8   16.61    1.90
  10  18   8   15.06    1.79
  18   8  10   17.29    1.94
   8  10  18   15.41    1.99
  10   9  18   13.77    1.87
  18  10   9   11.62    1.62
   9  18  10   11.84    1.64
   9  10  18   10.94    1.67
  10  18   9   11.27    1.59
  18   9  10   10.59    1.55
  18  10  10    2.68    1.01
  10  18  10    2.39    0.95
  10  10  18    2.21    1.07
  18  11   0   39.47    2.91
   0  11  18   33.58    2.98
   0  18  11   36.48    2.96
  -1  11  18    8.97    1.25
  18  11   1    6.12    1.03
   1  18  11    7.34    1.17
   1  11  18    7.35    1.22
  18   1  11    8.36    1.39
  -1  18  11    5.24    0.99
  18  11  -1    6.50    0.95
   2  18  11    9.42    1.36
  -2  11  18   11.37    1.38
  18  11   2   10.47    1.32
  11  18   2    6.72    1.20
  18  11  -2    6.40    0.97
  -2  18  11    8.43    1.16
  18   2  11   12.30    1.57
   2  11  18   11.49    1.45
  18  11   3    1.01    0.68
  -3  11  18    1.52    0.74
   3  18  11    1.07    0.75
  -3  18  11    1.75    0.69
  11  18   3    1.98    0.80
  18   3  11    0.75    0.85
   3  11  18    0.80    0.87
   4  18  11   46.21    3.56
  -4  11  18   41.92    3.38
  11   4  18   47.53    3.91
  18  11   4   43.12    3.46
  18   4  11   38.89    3.80
  -4  18  11   51.43    3.67
  11  18   4   53.01    3.86
   4  11  18   51.94    3.93
   5  18  11   15.22    1.77
  -5  11  18   15.93    1.56
  18  11   5   12.44    1.61
  11   5  18   15.58    2.02
   5  11  18   13.96    1.81
  11  18   5   14.23    1.71
  18   5  11   13.31    1.77
  11   6  18    3.70    1.20
  18  11   6    2.90    0.94
  -6  11  18    3.03    0.76
   6  18  11    2.14    0.86
   6  11  18    4.02    1.13
  18   6  11    3.85    1.10
  11  18   6    2.61    0.89
  18  11   7   15.29    1.88
  11   7  18   16.35    2.12
   7  18  11   20.51    1.98
  -7  11  18   20.97    2.08
  11  18   7   19.69    2.06
   7  11  18   21.18    2.27
  18   7  11   17.23    2.09
  11   8  18    7.98    1.49
  18  11   8    6.94    1.24
   8  18  11    6.80    1.29
  11  18   8    6.14    1.18
   8  11  18    6.58    1.35
  18   8  11    6.46    1.27
  11   9  18   17.77    2.18
  18  11   9   17.99    2.06
   9  18  11   18.60    2.06
  18   9  11   18.00    2.01
   9  11  18   16.58    2.10
  11  18   9   16.06    1.93
  11  10  18    7.82    1.47
  10  18  11    6.44    1.29
  18  11  10    5.01    1.23
  11  18  10    3.98    1.05
  18  10  11    4.52    1.18
  10  11  18    4.39    1.24
  11  18  11   14.63    1.94
  18  11  11   16.18    2.00
  11  11  18   15.31    2.07
  18  12   0    0.59    0.63
   0  12  18    3.20    0.91
   0  18  12    0.63    0.69
   1  18  12   61.04    4.44
  18  12   1   59.21    4.37
  -1  12  18   57.09    4.40
  -1  18  12   55.53    4.18
  18   1  12   52.71    4.50
   1  12  18   53.08    4.28
  18  12  -1   61.10    4.14
  18  12   2   11.57    1.42
   2  18  12   11.82    1.51
  -2  12  18   10.64    1.40
  -2  18  12   11.89    1.42
  12  18   2   12.63    1.53
  18   2  12   10.98    1.63
   2  12  18   10.20    1.47
   3  18  12   12.18    1.55
  18  12   3   12.30    1.48
  -3  12  18   12.60    1.48
  -3  18  12   11.34    1.39
  18   3  12   14.93    1.80
   3  12  18   13.04    1.64
  12  18   3    9.35    1.41
  12   4  18   16.43    2.22
  -4  12  18   23.39    1.92
  18  12   4   17.28    1.90
   4  18  12   19.68    2.06
   4  12  18   20.46    2.12
  -4  18  12   18.40    1.78
  12  18   4   18.13    2.03
  18   4  12   18.87    2.18
  12   5  18    3.07    1.21
  -5  12  18    6.04    1.00
  18  12   5    6.87    1.14
   5  18  12    5.80    1.13
  12  18   5    8.79    1.32
  18   5  12    3.70    1.23
  -5  18  12    8.71    1.10
   5  12  18    5.60    1.27
  18  12   6   19.01    2.00
  -6  12  18   19.69    1.83
  12   6  18   19.32    2.28
   6  18  12   20.27    2.14
   6  12  18   19.93    2.19
  12  18   6   16.38    1.96
  18   6  12   19.57    2.20
  18  12   7    7.82    1.32
   7  18  12    6.25    1.31
  12   7  18   12.25    1.74
  18   7  12    9.34    1.50
   7  12  18    9.09    1.56
  12  18   7    7.53    1.34
   8  18  12    3.96    1.10
  18  12   8    5.49    1.17
  12   8  18    5.99    1.43
  18   8  12    4.94    1.17
  12  18   8    3.46    1.03
   8  12  18    3.27    1.17
  18  12   9    5.04    1.17
   9  18  12    4.76    1.15
  12   9  18    4.01    1.34
  12  18   9    5.80    1.26
   9  12  18    3.99    1.25
  18   9  12    3.98    1.16
  18  12  10    3.96    1.09
  12  10  18    3.96    1.28
  10  18  12    2.95    1.07
  10  12  18    4.23    1.30
  12  18  10    2.24    1.04
  18  10  12    6.09    1.31
  11  18  12    1.70    1.01
  12  11  18    0.70    1.09
  18  12  11    2.46    1.10
  12  18  11    0.85    0.99
  18  11  12    1.71    1.04
  11  12  18    1.72    1.12
  18  12  12    3.86    1.21
  12  12  18    5.87    1.40
  12  18  12    4.46    1.24
   0  18  13    1.58    0.76
   0  13  18    1.46    0.84
  18  13   0    0.54    0.65
  -1  13  18    1.91    0.84
  18  13   1    1.22    0.73
   1  18  13    2.11    0.83
  -1  18  13    0.81    0.71
  18   1  13    4.67    1.25
  18  13  -1    1.23    0.67
   1  13  18    2.15    0.91
  -2  13  18   17.45    1.79
  18  13   2   16.44    1.69
   2  18  13   13.98    1.76
  13  18   2   14.49    1.69
   2  13  18   15.19    1.83
  -2  18  13   14.90    1.65
  18   2  13   15.03    1.98
  18  13   3    3.37    0.90
  -3  13  18    4.53    0.94
   3  18  13    3.33    1.01
  -3  18  13    2.60    0.80
   3  13  18    2.32    0.98
  18   3  13    3.93    1.20
  13  18   3    4.22    1.00
  -4  13  18    3.89    0.88
  13   4  18    2.86    1.21
   4  18  13    2.09    0.94
  18  13   4    2.00    0.85
  13  18   4    3.17    0.96
   4  13  18    2.50    1.01
  18   4  13    3.23    1.12
  -4  18  13    3.20    0.82
   5  18  13   24.14    2.48
  -5  13  18   27.19    2.30
  18  13   5   25.42    2.46
  13   5  18   31.42    2.91
   5  13  18   28.76    2.64
  13  18   5   25.35    2.43
  -5  18  13   21.16    2.14
  18   5  13   31.87    2.72
  18  13   6   19.48    2.06
   6  18  13   22.58    2.17
  -6  13  18   19.24    1.79
  13   6  18   13.58    2.13
  18   6  13   11.83    1.95
   6  13  18   16.72    2.10
  13  18   6   20.70    2.03
  -6  18  13   22.97    1.79
  18  13   7    2.48    0.96
  13   7  18    1.05    1.06
   7  18  13    3.05    1.02
  13  18   7    2.73    0.95
   7  13  18    2.21    1.04
  18   7  13    1.55    1.04
  18  13   8    4.77    1.14
  13   8  18    2.87    1.26
   8  18  13    1.76    1.01
   8  13  18    2.54    1.12
  18   8  13    3.96    1.17
  13  18   8    2.44    0.97
   9  18  13    2.98    1.12
  18  13   9    2.76    1.04
  13   9  18    1.59    1.15
   9  13  18    1.12    1.01
  13  18   9    2.51    1.05
  18   9  13    1.52    1.06
  10  18  13   29.83    2.84
  13  10  18   31.22    3.04
  18  13  10   27.08    2.73
  13  18  10   32.84    2.95
  18  10  13   31.69    2.99
  10  13  18   29.19    3.01
  18  13  11    0.73    0.96
  13  11  18    0.55    0.97
  11  18  13    2.28    1.03
  11  13  18    2.09    1.14
  13  18  11    1.35    1.02
  18  11  13    1.07    1.04
  13  12  18    2.61    1.26
  18  13  12    1.11    1.07
  12  18  13    1.75    1.04
  13  18  12    3.19    1.16
  12  13  18    4.11    1.33
  18  12  13    0.75    1.05
  18  13  13    5.65    1.37
  13  18  13    4.14    1.25
  13  13  18    6.35    1.55
  18  14   0    0.68    0.66
   0  14  18    0.62    0.78
   0  18  14    0.80    0.72
  -1  14  18    1.42    0.79
   1  18  14    0.15    0.78
  18  14   1    0.44    0.68
  -1  18  14   -0.01    0.67
   1  14  18   -0.17    0.75
   2  18  14    3.07    0.95
  -2  14  18    3.82    0.95
  18  14   2    4.62    0.99
  14  18   2    4.92    1.00
  18   2  14    1.94    1.16
   2  14  18    3.84    1.09
  -2  18  14    3.94    0.94
   3  18  14    1.31    0.84
  14   3  18    1.88    1.24
  -3  14  18    0.50    0.72
  18  14   3    0.90    0.76
  -3  18  14    0.55    0.70
   3  14  18    1.98    0.99
  18   3  14    0.56    0.98
  14  18   3    1.01    0.76
   4  18  14    8.13    1.34
  18  14   4    6.30    1.16
  14   4  18    6.74    1.50
  -4  14  18    5.73    1.05
  18   4  14    5.69    1.39
   4  14  18    7.79    1.37
  -4  18  14    6.52    1.07
  14  18   4    5.21    1.15
  18  14   5    0.05    0.75
  14   5  18   -0.72    0.98
  -5  14  18   -0.50    0.60
   5  18  14    0.23    0.82
  14  18   5    0.39    0.78
  18   5  14   -0.23    0.90
   5  14  18   -0.29    0.86
  -5  18  14    0.05    0.60
  -6  14  18    8.13    1.12
  18  14   6    5.91    1.21
   6  18  14    6.36    1.26
  14   6  18    5.56    1.45
  18   6  14    9.20    1.57
   6  14  18    7.78    1.40
  -6  18  14    6.02    1.03
  14  18   6    7.36    1.30
  18  14   7   -0.17    0.83
  14   7  18    0.05    1.05
   7  18  14    0.88    0.92
   7  14  18    0.60    0.93
  14  18   7    2.11    0.95
  18   7  14    0.40    1.04
  14   8  18    1.37    1.14
   8  18  14    1.60    0.95
  18  14   8    2.25    0.94
   8  14  18    0.91    1.01
  18   8  14    1.51    1.08
  14  18   8    1.09    0.85
  14   9  18    4.10    1.33
  18  14   9    3.37    1.12
   9  18  14    3.40    1.13
  14  18   9    3.19    1.10
   9  14  18    3.57    1.22
  18   9  14    4.45    1.31
  10  18  14    9.58    1.56
  18  14  10    8.69    1.51
  14  10  18    7.86    1.69
  14  18  10    6.09    1.32
  10  14  18    7.78    1.49
  18  10  14    6.11    1.42
  18  14  11    1.41    1.02
  11  18  14    0.63    1.01
  14  11  18    0.70    1.12
  11  14  18    0.36    1.05
  18  11  14    0.60    1.04
  14  18  11    1.49    1.01
  18  14  12    2.98    1.14
  12  18  14    1.64    1.17
  14  12  18    2.79    1.30
  14  18  12    2.40    1.10
  18  12  14    3.96    1.31
  12  14  18    3.14    1.33
  18  14  13    1.63    1.13
  14  13  18    3.71    1.40
  13  18  14    3.15    1.23
  14  18  13    1.90    1.18
  13  14  18    3.03    1.33
  18  13  14    3.26    1.25
  14  14  18   29.65    3.13
  14  18  14   30.00    3.04
  18  14  14   29.32    3.01
   0  15  18    2.04    0.86
   0  18  15    2.41    0.88
  18  15   0    3.76    0.90
   1  18  15    6.00    1.16
  -1  15  18    5.85    1.17
  18  15   1    7.11    1.15
   1  15  18    6.16    1.23
  -1  18  15    6.53    1.14
  18  15   2    4.94    1.09
  -2  15  18    4.94    1.07
   2  18  15    5.85    1.21
   2  15  18    5.60    1.21
  15  18   2    3.98    1.02
  -2  18  15    3.83    0.99
  18   2  15    5.99    1.41
   3  18  15    2.71    0.96
  -3  15  18    4.31    0.95
  18  15   3    2.66    0.91
  15   3  18    6.60    1.51
  18   3  15    3.15    1.22
   3  15  18    3.93    1.11
  15  18   3    3.39    0.98
  -3  18  15    3.61    0.89
   4  18  15   13.43    1.73
  18  15   4   13.04    1.68
  15   4  18   11.27    1.88
  -4  15  18   13.42    1.56
   4  15  18   18.57    2.07
  -4  18  15   15.44    1.69
  15  18   4   16.70    1.92
  18   4  15   12.08    1.99
  15   5  18   11.68    1.84
  18  15   5    7.91    1.35
  -5  15  18    9.18    1.25
   5  18  15    9.35    1.47
  -5  18  15    7.07    1.20
  18   5  15   11.54    1.77
  15  18   5   10.85    1.54
   5  15  18   14.29    1.76
  15   6  18   11.28    1.82
   6  18  15    7.37    1.37
  18  15   6    7.60    1.34
  -6  18  15    9.37    1.24
  18   6  15   10.73    1.71
   6  15  18   11.91    1.68
  15  18   6    8.48    1.47
   7  18  15    1.06    0.95
  18  15   7    1.24    0.89
  15   7  18    0.44    1.07
   7  15  18    0.19    0.98
  15  18   7    0.52    0.84
  18   7  15    0.48    1.04
   8  18  15    2.43    1.11
  18  15   8    2.24    1.04
  15   8  18    3.53    1.33
  18   8  15    3.40    1.25
  15  18   8    2.73    1.01
   8  15  18    2.56    1.16
   9  18  15   15.52    1.96
  18  15   9   15.17    1.93
  15   9  18   11.09    1.96
   9  15  18   14.77    2.01
  18   9  15   12.48    1.94
  15  18   9   12.22    1.77
  18  15  10    8.17    1.52
  15  10  18   11.43    1.91
  10  18  15    9.12    1.62
  15  18  10   10.89    1.69
  18  10  15    9.42    1.75
  10  15  18   10.27    1.78
  18  15  11    1.39    1.08
  11  18  15    0.73    1.02
  15  11  18    0.39    1.18
  15  18  11    0.58    1.03
  11  15  18    0.95    1.15
  18  11  15    1.65    1.14
  15  12  18    5.53    1.48
  18  15  12    3.17    1.23
  12  18  15    2.70    1.27
  12  15  18    6.33    1.53
  18  12  15    6.99    1.49
  15  18  12    6.40    1.46
  13  18  15    3.63    1.27
  18  15  13    4.34    1.32
  15  13  18    2.08    1.34
  15  18  13    6.50    1.47
  18  13  15    3.45    1.39
  13  15  18    5.03    1.51
  15  14  18    0.57    1.18
  14  18  15    0.42    1.17
  18  15  14   -0.07    1.04
  14  15  18    1.18    1.26
  18  14  15    1.16    1.15
  15  18  14    0.75    1.11
  15  18  15    4.13    1.41
  18  15  15    2.84    1.36
  15  15  18    1.48    1.37
   0  16  18   12.84    1.71
   0  18  16   14.17    1.71
  18  16   1   24.59    2.16
   1  18  16   23.08    2.29
  -1  16  18   18.54    2.11
   1  16  18   21.35    2.24
  -1  18  16   22.55    2.20
  18  16   2    0.28    0.76
  -2  16  18    1.19    0.83
   2  18  16    1.19    0.91
  16  18   2    0.00    0.74
  -2  18  16    0.20    0.70
   2  16  18    1.43    0.91
  18   2  16    1.09    1.19
   3  18  16   12.57    1.69
  -3  16  18   15.14    1.68
  18  16   3   13.41    1.66
  16   3  18    9.09    1.88
  16  18   3   11.55    1.59
   3  16  18   13.14    1.71
  -3  18  16   12.45    1.55
  18   3  16   13.50    2.00
  18  16   4    2.39    0.93
  16   4  18    2.98    1.32
   4  18  16    1.81    0.97
  -4  16  18    1.40    0.79
  18   4  16    0.39    1.10
  -4  18  16    0.02    0.70
   4  16  18   -0.22    0.90
  16  18   4   -0.10    0.81
  16   5  18    3.67    1.39
   5  18  16    5.12    1.19
  18  16   5    4.10    1.09
  -5  16  18    5.16    1.00
  18   5  16    6.16    1.45
  -5  18  16    5.44    1.02
   5  16  18    3.11    1.18
  16  18   5    5.35    1.19
  16   6  18    3.46    1.36
  18  16   6    1.04    0.88
   6  18  16    1.88    0.99
  16  18   6    2.12    0.95
  18   6  16    3.13    1.24
   6  16  18    2.50    1.14
  -6  18  16    2.28    0.77
   7  18  16    1.97    1.06
  16   7  18    1.20    1.21
  18  16   7    2.23    1.02
  16  18   7    1.52    0.99
   7  16  18    2.05    1.15
  18   7  16    2.09    1.21
  16   8  18    1.24    1.26
   8  18  16    1.91    1.07
  18  16   8    2.42    1.03
  16  18   8    2.46    1.00
   8  16  18    4.67    1.29
  18   8  16    2.58    1.28
   9  18  16    0.31    1.02
  18  16   9    1.06    1.01
  16   9  18    0.39    1.16
  18   9  16    3.05    1.25
   9  16  18    1.49    1.11
  16  18   9    2.11    1.04
  16  10  18    1.11    1.20
  10  18  16    0.91    1.09
  18  16  10    0.81    1.03
  18  10  16    1.27    1.17
  10  16  18    0.22    1.08
  16  18  10    0.63    1.02
  11  18  16   -0.07    1.04
  18  16  11   -0.19    0.89
  16  11  18    0.31    1.19
  11  16  18    0.45    1.14
  18  11  16    0.92    1.13
  16  18  11   -0.48    1.00
  16  12  18   -0.06    1.15
  18  16  12   -1.01    0.97
  12  18  16   -0.04    1.08
  16  18  12   -0.40    0.98
  18  12  16    0.06    1.08
  12  16  18    0.91    1.15
  13  18  16    2.81    1.34
  18  16  13    1.93    1.23
  16  13  18    3.06    1.37
  18  13  16    1.26    1.28
  13  16  18    1.08    1.22
  16  18  13    0.56    1.11
  18  16  14   -0.86    1.08
  14  18  16    1.23    1.20
  16  14  18   -0.69    1.21
  14  16  18    0.17    1.16
  16  18  14   -0.60    1.04
  18  14  16    1.68    1.25
  15  18  16    1.03    1.21
  16  15  18    0.73    1.28
  18  16  15    1.64    1.22
  18  15  16    2.34    1.34
  15  16  18    3.81    1.44
  16  18  15    2.11    1.30
  16  16  18   -0.01    1.29
  18  16  16    0.98    1.28
  16  18  16    1.86    1.31
   0  18  17    4.73    1.12
   0  17  18    2.75    1.02
  18  17   1    1.96    0.85
   1  18  17    1.30    0.87
  -1  17  18    1.21    0.87
   1  17  18    2.37    1.02
  -1  18  17    1.94    0.92
  17   2  18   -0.72    1.17
  -2  17  18    1.27    0.87
   2  18  17    2.09    0.95
  18  17   2    1.09    0.79
  -2  18  17    1.30    0.81
  17  18   2    1.93    0.86
  18   2  17    0.71    1.18
   2  17  18    1.36    0.93
  18  17   3    0.13    0.79
  -3  17  18    0.30    0.76
  17   3  18    1.14    1.21
   3  18  17    1.35    0.95
   3  17  18    0.39    0.92
  17  18   3   -0.30    0.76
  18   3  17    1.17    1.16
  -3  18  17    0.73    0.78
  18  17   4    5.14    1.18
  -4  17  18    4.99    1.02
  17   4  18    4.90    1.46
   4  18  17    4.80    1.20
  18   4  17    3.37    1.33
  -4  18  17    3.82    0.97
  17  18   4    3.70    1.09
   4  17  18    2.60    1.14
  18  17   5   19.32    2.12
  17   5  18   16.90    2.32
   5  18  17   20.72    2.31
  -5  17  18   17.30    1.86
  17  18   5   19.31    2.16
  -5  18  17   17.80    1.90
   5  17  18   18.98    2.19
  18   5  17   16.29    2.30
  17   6  18    5.86    1.61
   6  18  17    8.64    1.55
  18  17   6    7.51    1.40
   6  17  18    6.42    1.42
  18   6  17    6.45    1.58
  17  18   6    7.73    1.37
  18  17   7    1.31    0.93
  17   7  18    2.01    1.28
   7  18  17    1.69    1.15
   7  17  18    1.47    1.14
  17  18   7    0.18    0.91
  18   7  17    2.34    1.28
  17   8  18    7.29    1.72
  18  17   8    6.92    1.39
   8  18  17    7.57    1.52
  17  18   8    7.97    1.42
  18   8  17    7.61    1.71
   8  17  18    6.96    1.53
  18  17   9   15.30    1.92
   9  18  17   12.99    1.92
  17   9  18   10.18    1.97
  18   9  17   11.80    1.97
   9  17  18   12.85    1.88
  17  18   9   13.21    1.85
  17  10  18    2.83    1.35
  18  17  10    3.09    1.20
  10  18  17    2.49    1.24
  10  17  18    4.42    1.42
  17  18  10    4.61    1.30
  18  10  17    4.58    1.41
  11  18  17    1.26    1.19
  18  17  11   -0.58    1.01
  17  11  18    1.16    1.27
  18  11  17    0.64    1.20
  11  17  18   -0.89    1.05
  17  18  11    1.62    1.12
  12  18  17    6.39    1.55
  18  17  12    4.36    1.34
  17  12  18    6.92    1.64
  17  18  12    5.83    1.44
  12  17  18    6.58    1.60
  18  12  17    3.77    1.46
  18  17  13    2.55    1.23
  13  18  17    2.15    1.32
  17  13  18    2.24    1.37
  18  13  17    2.45    1.36
  17  18  13    2.33    1.23
  13  17  18    1.93    1.27
  17  14  18    1.66    1.38
  14  18  17    1.68    1.29
  18  17  14    0.75    1.18
  14  17  18    2.27    1.35
  17  18  14    2.25    1.31
  18  14  17    2.53    1.32
  17  15  18    1.02    1.29
  18  17  15    0.80    1.27
  15  18  17    0.72    1.23
  15  17  18    1.34    1.30
  17  18  15    1.25    1.25
  18  15  17    0.98    1.30
  16  18  17    7.91    1.76
  17  16  18    7.40    1.84
  18  17  16    8.82    1.84
  18  16  17    5.52    1.69
  16  17  18    9.91    1.87
  17  18  16    6.68    1.69
  17  17  18    0.86    1.33
  17  18  17   -0.69    1.19
  18  17  17    1.12    1.38
   0  18  18    0.13    0.88
  -1  18  18    0.83    0.84
   1  18  18    0.10    0.87
  18   1  18    1.80    1.30
  -2  18  18    2.16    0.89
   2  18  18    2.00    0.99
  18   2  18    2.17    1.30
  18  18   2    0.40    0.82
  -3  18  18    0.14    0.75
   3  18  18    0.41    0.89
  18   3  18    1.91    1.32
  18  18   3    0.75    0.80
  -4  18  18   10.81    1.46
   4  18  18    9.26    1.64
  18   4  18   11.04    1.92
  18  18   4    9.63    1.48
   5  18  18    0.25    0.98
  18   5  18   -0.03    1.17
  18  18   5    0.15    0.84
   6  18  18   -0.07    0.99
  18   6  18   -0.14    1.12
  18  18   6   -0.25    0.84
   7  18  18   -0.22    0.97
  18   7  18    0.67    1.20
  18  18   7    1.34    0.97
   8  18  18    0.64    1.06
  18   8  18    1.55    1.27
  18  18   8    0.84    0.97
   9  18  18    5.16    1.38
  18   9  18    6.25    1.58
  18  18   9    5.07    1.29
  10  18  18    4.22    1.42
  18  10  18    3.44    1.45
  18  18  10    4.18    1.34
  11  18  18    9.01    1.73
  18  11  18    9.51    1.84
  18  18  11    6.47    1.53
  12  18  18    0.37    1.21
  18  12  18   -0.17    1.20
  18  18  12    0.73    1.11
  13  18  18    0.31    1.26
  18  13  18    1.45    1.33
  18  18  13    0.83    1.13
  14  18  18    8.08    1.76
  18  14  18    5.84    1.69
  18  18  14    6.52    1.64
  15  18  18    6.54    1.67
  18  15  18    5.67    1.72
  18  18  15    5.79    1.59
  16  18  18   -1.42    1.22
  18  16  18    1.09    1.36
  18  18  16    0.41    1.26
  19   0   0   -0.12    0.35
  19   0  -1    7.11    0.95
  19   0   1    8.09    0.91
  19   1   0    9.34    0.93
  19  -1   0    6.72    0.82
  19   1  -1    2.77    0.50
  19   1   1    1.73    0.54
  19  -1   1    2.29    0.54
  19   2   0   25.44    1.95
  19   0   2   25.36    2.01
  19  -2   0   24.62    1.91
  19  -1   2    1.21    0.51
  19   2   1    0.38    0.46
  19   2  -1    0.58    0.40
  19  -2   1    0.55    0.44
  19   1   2    1.30    0.53
  19  -2   2    3.77    0.68
  19   2   2    3.21    0.67
  19   2  -2    3.73    0.83
  19   3   0   37.11    2.77
  19   0   3   38.30    2.86
  19  -1   3   28.37    2.23
  19   3   1   27.55    2.18
  19   3  -1   24.85    1.94
  19   1   3   27.10    2.11
  19  -3   1   24.87    1.98
  19   3   2    1.30    0.56
  19  -2   3    0.75    0.55
  19   3  -2    2.85    0.50
  19   2   3    1.22    0.57
  19  -3   2    1.09    0.51
  19  -3   3   12.83    1.44
  19   3   3   16.35    1.46
  19   4   0    0.45    0.45
  19   0   4    1.46    0.61
  19   4   1   20.88    1.72
  19  -1   4   19.28    1.80
  19   1   4   20.32    1.76
  19  -4   1   19.46    1.58
  19   4  -1   17.52    1.55
  19  -2   4   32.03    2.59
  19   4   2   34.08    2.56
  19   2   4   33.29    2.65
  19   4  -2   34.04    2.46
  19   4   3   13.24    1.38
  19   3   4   12.80    1.40
  19   4   4   12.63    1.36
  -4   4  19   10.60    1.39
   0   5  19    4.58    1.08
  19   5   0    4.33    0.74
  19   0   5    5.40    0.94
  -1   5  19    7.38    1.28
  19   5   1   10.98    1.13
  19  -1   5    8.58    1.15
  19   1   5    7.01    1.09
   1   5  19    7.05    1.29
  19   5  -1    9.36    0.97
  19  -2   5   25.39    2.09
  19   5   2   20.40    1.92
  -2   5  19   24.08    2.14
   2   5  19   20.41    2.05
  19   2   5   19.05    1.72
  19   5  -2   15.60    1.44
   3  19   5   12.76    1.47
  -3   5  19   11.61    1.43
  19   5   3   12.31    1.35
  19   5  -3   10.56    1.01
   3   5  19    8.07    1.50
  19   3   5   11.65    1.30
   4  19   5    3.50    0.89
  19   5   4    2.48    0.74
  -4   5  19    2.47    0.80
   5  19   4    3.29    0.83
  19   4   5    0.79    0.63
  -5   4  19    1.62    0.70
   4   5  19    1.55    0.99
   5   5  19   12.96    1.85
  -5   5  19   14.08    1.53
  19   5   5   14.58    1.54
   5  19   5   13.44    1.58
   0   6  19    7.14    1.25
  19   0   6    8.89    1.20
  19   6   0    8.39    1.01
  19  -1   6    9.07    1.27
  -1   6  19    8.35    1.31
  19   6   1   10.45    1.14
   1   6  19   11.96    1.57
  19   6  -1   13.28    1.22
  19   1   6    9.86    1.34
   2  19   6    5.30    0.96
  -2   6  19    3.91    0.94
  19   6   2    4.30    0.84
   2   6  19    2.72    0.99
  19   2   6    4.16    0.89
  19   6  -2    5.02    0.71
  19   6   3    1.74    0.65
   3  19   6    1.98    0.78
  -3   6  19    2.26    0.78
  19   6  -3    2.15    0.51
  19   3   6    1.71    0.73
   3   6  19    1.33    0.92
  19   6   4   68.78    4.98
  -4   6  19   65.82    4.98
   4  19   6   73.99    5.09
  -6   4  19   61.09    4.51
  19   4   6   63.97    4.59
   6  19   4   68.11    4.69
   4   6  19   57.64    4.75
  19   6   5    4.71    0.93
  -5   6  19    7.07    1.02
   6   5  19    7.45    1.41
   5  19   6    3.29    0.95
  19   5   6    5.27    1.00
   6  19   5    3.56    0.94
   5   6  19    4.92    1.11
  -6   5  19    5.04    0.90
   6  19   6    2.66    0.89
   6   6  19    3.58    1.14
  19   6   6    4.04    0.91
  -6   6  19    3.30    0.81
   0   7  19    5.12    1.05
  19   0   7    5.49    0.99
   0  19   7    2.39    0.73
  19   7   0    4.23    0.77
   1  19   7   13.33    1.54
  -1   7  19   13.05    1.59
  19   7   1   13.64    1.37
  19  -1   7   13.57    1.61
  19   1   7   13.28    1.59
   1   7  19   16.04    1.73
  19   7  -1   14.56    1.39
  -2   7  19   11.55    1.54
  19   7   2   15.29    1.48
   2  19   7   14.95    1.59
  19   2   7   13.95    1.67
  19   7  -2   16.64    1.44
   2   7  19   17.57    1.89
  -3   7  19    6.49    1.12
   3  19   7    9.14    1.22
  19   7   3    7.06    1.05
  19   3   7    4.69    0.99
   3   7  19    3.41    1.02
  -7   3  19    3.32    0.84
   7  19   3    5.37    0.91
  -4   7  19   13.60    1.41
   4  19   7    6.70    1.20
  19   7   4    8.86    1.21
   4   7  19   13.23    1.75
  19   4   7   12.30    1.56
  -7   4  19   14.99    1.45
   5  19   7    8.05    1.23
  19   7   5    9.29    1.22
  -5   7  19    9.15    1.20
   7   5  19    8.75    1.55
   7  19   5    8.75    1.34
  -7   5  19   10.29    1.23
   5   7  19   10.75    1.62
  19   5   7   11.11    1.41
  -6   7  19    0.96    0.63
  19   7   6    0.82    0.71
   7   6  19    2.10    1.02
   6  19   7   -0.44    0.68
   7  19   6   -0.20    0.61
  -7   6  19    0.29    0.56
   6   7  19   -0.50    0.85
  19   6   7    0.86    0.74
   7  19   7    7.90    1.32
   7   7  19    9.49    1.48
  -7   7  19    9.77    1.15
  19   7   7   10.01    1.35
   0   8  19   11.68    1.40
   0  19   8    5.13    1.05
  19   8   0    6.39    0.95
  19   0   8    9.58    1.30
  19   8   1   42.78    3.17
  -1   8  19   38.27    3.29
   1  19   8   44.05    3.29
  -1  19   8   44.04    3.44
  19   8  -1   50.78    3.36
   1   8  19   42.26    3.56
  19   1   8   41.31    3.51
  19   8   2    7.22    1.03
   2  19   8    4.38    1.02
  -2   8  19   10.89    1.31
   2   8  19    9.66    1.51
  19   2   8   11.60    1.48
  -3   8  19   43.73    3.38
  19   8   3   43.24    3.33
   3  19   8   42.94    3.43
  -8   3  19   36.27    2.86
   8  19   3   39.20    3.07
   3   8  19   40.50    3.28
  19   3   8   36.22    3.06
   4  19   8    0.17    0.64
  -4   8  19    1.59    0.73
  19   8   4    0.70    0.65
  -8   4  19    0.61    0.64
   8  19   4    0.59    0.74
   4   8  19    0.72    0.89
  19   4   8    0.78    0.76
  -5   8  19    5.76    1.01
   5  19   8    4.79    1.03
   8   5  19    8.50    1.51
  19   8   5    7.58    1.13
   5   8  19    7.61    1.37
   8  19   5    5.46    1.10
  19   5   8    5.33    1.05
  -6   8  19    7.31    1.04
   6  19   8    4.85    1.09
  19   8   6    7.87    1.20
   8   6  19    8.55    1.47
   6   8  19    7.90    1.41
  19   6   8    6.31    1.14
   8  19   6    3.48    0.98
   8   7  19   17.71    2.21
  -7   8  19   19.79    1.81
  19   8   7   19.98    2.06
   7  19   8   23.46    2.12
   7   8  19   22.25    2.44
   8  19   7   26.70    2.32
  19   7   8   21.45    2.24
  19   8   8   -0.57    0.74
   8  19   8    1.30    0.73
   8   8  19    0.26    0.94
  19   9   0    3.99    0.81
   0   9  19    6.03    1.13
  19   0   9    7.05    1.21
   0  19   9    4.19    0.89
  -1   9  19    1.97    0.86
  19   9   1    3.83    0.79
   1  19   9    4.59    0.94
  19   9  -1    3.91    0.76
  -1  19   9    4.07    0.86
  19   1   9    1.30    0.85
   1   9  19    2.86    0.98
   2  19   9   44.17    3.43
  19   9   2   43.65    3.32
  -2   9  19   42.74    3.40
   2   9  19   43.54    3.51
  -2  19   9   46.00    3.33
  19   2   9   41.03    3.45
  19   9  -2   41.38    3.17
   3  19   9    6.82    1.16
  -3   9  19    8.03    1.19
  19   9   3    6.96    1.09
  19   3   9    9.01    1.37
   9  19   3    8.85    1.30
   3   9  19    8.56    1.43
   4  19   9    2.76    0.95
  19   9   4    4.40    0.95
  -4   9  19    6.91    1.05
  19   4   9    5.03    1.08
   9  19   4    2.56    0.91
   4   9  19    7.50    1.34
   5  19   9   23.83    2.35
  19   9   5   23.98    2.25
  -5   9  19   26.98    2.25
   9   5  19   29.77    2.76
   9  19   5   22.84    2.27
   5   9  19   26.04    2.50
  19   5   9   25.09    2.32
   9   6  19    2.47    1.16
  19   9   6    2.13    0.84
  -6   9  19    2.69    0.74
   6  19   9    2.33    0.90
   6   9  19    0.40    0.94
  19   6   9    0.31    0.80
   9  19   6    2.03    0.83
   7  19   9    1.75    0.88
  19   9   7    2.50    0.90
   9   7  19    1.90    1.06
   9  19   7    2.02    0.85
  19   7   9    1.63    0.84
   7   9  19    3.21    1.18
  19   9   8   15.57    1.82
   9   8  19   15.09    1.98
   8  19   9   14.54    1.82
  19   8   9   17.76    1.98
   9  19   8   15.39    1.92
   8   9  19   18.74    2.18
   9  19   9    5.19    1.15
  19   9   9    7.55    1.29
   9   9  19    5.27    1.36
   0  10  19    2.82    0.93
  19  10   0    1.59    0.66
  19   0  10    1.98    0.98
   0  19  10    1.04    0.74
  -1  10  19   11.26    1.52
   1  19  10   13.75    1.57
  19  10   1   12.61    1.42
  -1  19  10   10.08    1.37
   1  10  19   13.86    1.66
  19  10  -1   12.50    1.34
  19   1  10   11.82    1.63
   2  19  10    0.83    0.72
  -2  10  19    0.63    0.75
  19  10   2    1.34    0.70
  19  10  -2    1.49    0.59
  -2  19  10    0.32    0.67
   2  10  19    0.90    0.89
  19   2  10    1.60    0.88
  -3  10  19    9.70    1.26
   3  19  10    6.21    1.21
  19  10   3    7.58    1.14
  -3  19  10    5.71    1.00
  19   3  10    8.10    1.32
   3  10  19    9.62    1.40
  10  19   3    6.78    1.18
  19  10   4    3.63    0.92
  -4  10  19    3.56    0.88
   4  19  10    5.39    1.03
   4  10  19    2.44    1.05
  10  19   4    5.36    0.97
  19   4  10    3.11    1.01
  19  10   5    9.20    1.28
   5  19  10    8.31    1.30
  -5  10  19    8.33    1.15
  10   5  19    6.74    1.43
  10  19   5   10.10    1.40
  19   5  10    8.03    1.38
   5  10  19    7.61    1.41
   6  19  10    6.99    1.32
  19  10   6    9.46    1.35
  -6  10  19   11.27    1.26
  10   6  19    9.81    1.64
  10  19   6    9.73    1.40
  19   6  10    9.62    1.47
   6  10  19    7.07    1.45
  19  10   7    4.95    1.09
   7  19  10    5.58    1.17
  10   7  19    3.84    1.27
   7  10  19    4.26    1.21
  10  19   7    5.59    1.14
  19   7  10    4.72    1.13
  19  10   8    5.33    1.13
  10   8  19    4.57    1.32
   8  19  10    4.85    1.10
   8  10  19    6.86    1.34
  10  19   8    6.49    1.25
  19   8  10    6.14    1.23
   9  19  10    1.51    0.88
  10   9  19    0.32    1.00
  19  10   9    0.69    0.84
  10  19   9    0.05    0.68
  19   9  10    0.62    0.87
   9  10  19    0.71    1.03
  10  10  19   26.29    2.92
  19  10  10   30.99    2.80
  10  19  10   32.46    2.82
  19   0  11   11.04    1.62
   0  11  19    8.98    1.37
  19  11   0    8.82    1.18
   0  19  11    8.92    1.28
  -1  11  19    5.87    1.16
  19  11   1    7.53    1.10
   1  19  11    7.89    1.25
  19  11  -1    9.05    1.14
   1  11  19    7.99    1.34
  19   1  11    9.77    1.51
  -1  19  11    8.22    1.23
  19  11   2   20.64    1.94
   2  19  11   19.61    2.03
  -2  11  19   22.71    2.03
   2  11  19   27.05    2.37
  -2  19  11   21.19    2.05
  19   2  11   22.07    2.32
   3  19  11    8.53    1.33
  19  11   3    7.02    1.16
  -3  11  19    8.51    1.23
  19   3  11    9.07    1.48
  -3  19  11   10.54    1.31
  11  19   3   11.58    1.45
   3  11  19    7.72    1.42
   4  19  11    1.72    0.85
  11   4  19    2.63    1.25
  -4  11  19    1.82    0.76
  19  11   4    1.33    0.73
   4  11  19    4.59    1.13
  11  19   4    3.10    0.92
  19   4  11    3.65    1.09
  11   5  19    2.30    1.08
  -5  11  19    1.91    0.77
   5  19  11    4.36    1.05
  19  11   5    4.02    0.96
  11  19   5    4.01    1.02
   5  11  19    2.83    1.11
  19   5  11    3.75    1.05
  -6  11  19    2.17    0.74
   6  19  11    3.00    0.94
  19  11   6    3.37    0.95
  11   6  19    3.76    1.19
  19   6  11    3.65    1.09
   6  11  19    3.82    1.17
  11  19   6    2.56    0.92
  11   7  19    2.79    1.15
   7  19  11    2.67    0.95
  19  11   7    1.99    0.88
  19   7  11    1.99    0.98
  11  19   7    2.40    0.88
   7  11  19    1.22    1.06
  19  11   8    1.54    0.90
  11   8  19    1.95    1.15
   8  19  11    0.90    0.88
  19   8  11    1.12    0.92
   8  11  19    2.63    1.09
  11  19   8    1.30    0.92
  11   9  19    7.69    1.62
   9  19  11    9.50    1.46
  19  11   9    8.17    1.40
  19   9  11    9.17    1.50
  11  19   9    9.42    1.49
   9  11  19    9.74    1.67
  11  10  19   18.18    2.27
  10  19  11   17.12    2.05
  19  11  10   17.52    2.09
  10  11  19   17.07    2.22
  11  19  10   20.61    2.25
  19  10  11   18.02    2.15
  11  11  19    1.41    1.12
  11  19  11    0.92    0.99
  19  11  11    2.17    1.06
   0  19  12    9.87    1.35
  19  12   0    8.59    1.21
   0  12  19   11.88    1.50
  19  12   1   23.13    2.03
  -1  12  19   18.75    2.09
   1  19  12   20.62    2.05
  -1  19  12   22.78    2.18
   1  12  19   24.18    2.32
  19   1  12   23.15    2.55
  19  12  -1   25.06    2.12
   2  19  12   12.92    1.64
  -2  12  19   16.13    1.68
  19  12   2   10.46    1.46
  12  19   2    7.96    1.32
  -2  19  12    9.65    1.32
   2  12  19   17.70    1.78
  19  12   3   30.46    2.57
  -3  12  19   29.28    2.55
   3  19  12   28.70    2.61
  12  19   3   33.21    2.82
   3  12  19   31.91    2.92
  -3  19  12   35.27    2.70
  19   3  12   29.01    2.92
   4  19  12    6.74    1.22
  -4  12  19    7.17    1.11
  12   4  19    5.24    1.47
  19  12   4    6.80    1.15
  -4  19  12    5.09    0.98
  12  19   4    4.26    1.03
  19   4  12    7.41    1.38
   4  12  19    6.26    1.31
  19  12   5    9.60    1.37
   5  19  12    9.75    1.42
  -5  12  19    9.62    1.26
  12   5  19    7.54    1.64
   5  12  19    7.12    1.40
  19   5  12    7.14    1.38
  12  19   5    8.43    1.35
  -6  12  19    7.62    1.16
  12   6  19    8.00    1.49
   6  19  12    8.28    1.41
  19  12   6    8.62    1.34
  12  19   6    6.06    1.25
   6  12  19    7.85    1.46
  19   6  12   10.04    1.56
   7  19  12   25.16    2.45
  12   7  19   19.80    2.53
  19  12   7   24.95    2.34
  19   7  12   24.61    2.58
   7  12  19   24.01    2.58
  12  19   7   25.32    2.43
  19  12   8   10.19    1.51
   8  19  12    8.61    1.39
  12   8  19    7.25    1.60
  12  19   8   10.88    1.54
   8  12  19    9.35    1.65
  19   8  12    8.88    1.55
  19  12   9    3.87    1.09
   9  19  12    4.32    1.17
  12   9  19    3.14    1.28
  19   9  12    2.66    1.09
   9  12  19    4.29    1.30
  12  19   9    2.71    1.00
  10  19  12    0.61    0.90
  12  10  19    0.65    1.11
  19  12  10    0.47    0.93
  12  19  10    1.75    1.05
  19  10  12    1.10    1.03
  10  12  19    2.07    1.17
  11  19  12    7.34    1.47
  19  12  11    6.79    1.39
  12  11  19    7.44    1.61
  19  11  12    9.62    1.62
  11  12  19    6.92    1.58
  12  19  11    8.14    1.45
  12  19  12    6.34    1.36
  19  12  12    3.86    1.27
  12  12  19    4.88    1.44
  19  13   0   14.69    1.66
   0  19  13   17.16    1.77
   0  13  19   16.06    1.86
   1  19  13    7.10    1.21
  19  13   1    7.11    1.15
  -1  13  19    5.73    1.16
  -1  19  13    6.96    1.14
  19  13  -1    6.03    0.99
   1  13  19    6.78    1.25
  19   1  13    4.67    1.33
  19  13   2   15.78    1.76
  -2  13  19   16.57    1.81
   2  19  13   15.74    1.84
  -2  19  13   16.92    1.75
   2  13  19   19.40    2.04
  19   2  13   18.86    2.19
  13  19   2   13.00    1.71
  -3  13  19    0.96    0.73
   3  19  13    1.87    0.88
  19  13   3    2.17    0.84
  -3  19  13    2.99    0.84
   3  13  19   -0.02    0.86
  13  19   3    2.86    0.93
  19   3  13   -0.14    0.93
  13   4  19   12.86    2.09
   4  19  13   16.25    1.90
  19  13   4   17.33    1.84
  -4  13  19   15.38    1.68
  19   4  13   15.86    2.03
  13  19   4   16.36    1.91
   4  13  19   16.59    2.02
  -4  19  13   18.08    1.75
  19  13   5    2.91    0.92
  -5  13  19    3.33    0.87
  13   5  19    2.90    1.23
   5  19  13    1.95    0.93
  -5  19  13    1.91    0.70
   5  13  19    4.00    1.15
  19   5  13    2.92    1.13
  13  19   5    1.46    0.89
   6  19  13    3.01    1.07
  13   6  19    2.21    1.24
  19  13   6    2.65    0.95
  13  19   6    1.69    0.89
  19   6  13    1.42    1.03
   6  13  19    2.34    1.12
  13   7  19    0.47    1.07
   7  19  13   -0.55    0.81
  19  13   7   -0.01    0.79
  13  19   7   -0.52    0.73
   7  13  19   -0.46    0.90
  19   7  13   -0.89    0.92
  19  13   8   12.69    1.70
  13   8  19   10.65    1.88
   8  19  13   13.37    1.80
  13  19   8    9.43    1.56
  19   8  13   10.66    1.73
   8  13  19   11.35    1.74
   9  19  13   -0.38    0.81
  19  13   9    1.29    0.92
  13   9  19    0.43    1.13
   9  13  19   -0.48    0.95
  13  19   9    0.71    0.88
  19   9  13    1.81    1.07
  13  10  19    0.52    1.12
  19  13  10    1.06    0.96
  10  19  13    1.62    1.03
  10  13  19    1.94    1.15
  19  10  13    0.45    0.96
  13  19  10    1.05    0.99
  11  19  13   11.36    1.76
  13  11  19    9.48    1.77
  19  13  11    7.48    1.47
  13  19  11    9.53    1.63
  19  11  13   11.20    1.74
  11  13  19    9.85    1.80
  19  13  12    4.93    1.38
  13  12  19    4.29    1.44
  12  19  13    4.72    1.37
  13  19  12    6.02    1.35
  12  13  19    6.47    1.54
  19  12  13    4.02    1.34
  13  19  13    3.03    1.25
  19  13  13    3.78    1.29
  13  13  19    3.24    1.38
  19  14   0    5.76    1.04
   0  19  14    6.76    1.19
   0  14  19    3.87    1.09
   1  19  14    8.69    1.31
  -1  14  19    7.14    1.25
  19  14   1    6.73    1.15
   1  14  19    6.10    1.25
  -1  19  14    7.84    1.23
  19   1  14    5.00    1.41
  19  14   2    5.70    1.10
   2  19  14    4.63    1.09
  -2  14  19    6.55    1.15
  14  19   2    5.83    1.09
   2  14  19    5.25    1.21
  19   2  14    7.46    1.52
  -2  19  14    2.69    0.91
  19  14   3    0.67    0.74
   3  19  14    0.37    0.76
  -3  14  19    0.38    0.73
  14   3  19    0.68    1.18
  19   3  14    0.63    0.98
  14  19   3    0.50    0.77
  -3  19  14    0.14    0.69
   3  14  19    0.29    0.88
  -4  14  19    8.54    1.25
   4  19  14    7.27    1.32
  14   4  19   10.72    1.83
  19  14   4    7.13    1.27
  -4  19  14    5.28    1.05
  14  19   4    6.84    1.25
   4  14  19    7.96    1.45
  19   4  14    9.53    1.61
  -5  14  19   14.26    1.67
  14   5  19   12.92    2.08
   5  19  14   17.68    1.98
  19  14   5   16.00    1.84
  14  19   5   16.09    1.91
  -5  19  14   18.97    1.74
  19   5  14   12.92    1.99
   5  14  19   14.64    1.98
  14   6  19   16.15    2.16
   6  19  14   15.26    1.94
  19  14   6   16.12    1.91
  14  19   6   16.80    2.01
   6  14  19   20.39    2.27
  19   6  14   16.37    2.18
  19  14   7    1.73    0.91
  14   7  19    1.31    1.19
   7  19  14    1.38    0.98
  19   7  14    0.49    1.03
  14  19   7    0.75    0.87
   7  14  19    1.39    1.09
  19  14   8    3.19    1.05
   8  19  14    1.00    1.00
  14   8  19    4.36    1.42
  14  19   8    2.92    1.04
   8  14  19    2.88    1.18
  19   8  14    2.55    1.14
   9  19  14   22.25    2.40
  19  14   9   18.35    2.23
  14   9  19   20.57    2.55
   9  14  19   23.65    2.55
  14  19   9   18.18    2.19
  19   9  14   19.76    2.40
  19  14  10   10.69    1.64
  14  10  19    5.13    1.57
  10  19  14    8.07    1.51
  14  19  10    7.79    1.47
  10  14  19    7.71    1.62
  19  10  14    6.67    1.50
  14  11  19    5.04    1.52
  11  19  14    4.27    1.31
  19  14  11    5.70    1.35
  11  14  19    4.49    1.40
  19  11  14    5.49    1.44
  14  19  11    5.37    1.36
  14  12  19    1.38    1.27
  19  14  12    1.60    1.08
  12  19  14    1.15    1.10
  12  14  19    0.18    1.18
  19  12  14    2.20    1.19
  14  19  12    1.12    1.11
  14  13  19    5.38    1.56
  19  14  13    6.71    1.53
  13  19  14    7.36    1.56
  14  19  13    6.49    1.50
  19  13  14    6.36    1.54
  13  14  19    6.22    1.62
  19  14  14    0.82    1.19
  14  19  14    1.17    1.16
  14  14  19    0.17    1.22
   0  15  19   18.28    2.04
   0  19  15   17.62    1.97
  19  15   0   18.05    1.82
  -1  15  19    3.18    1.02
   1  19  15    3.02    0.94
  19  15   1    2.12    0.83
  -1  19  15    1.13    0.86
  19   1  15    6.09    1.46
   1  15  19    3.46    1.10
  19  15   2    9.90    1.38
  -2  15  19    8.50    1.37
   2  19  15    9.03    1.40
   2  15  19    7.34    1.37
  19   2  15    5.33    1.49
  -2  19  15    9.91    1.36
  15  19   2   11.63    1.44
  15   3  19    6.66    1.69
  19  15   3    4.46    1.10
   3  19  15    5.33    1.24
  -3  15  19    6.27    1.12
  19   3  15    5.29    1.45
  15  19   3    7.85    1.31
   3  15  19    5.97    1.34
  -3  19  15    5.51    1.09
  15   4  19    5.42    1.61
  -4  15  19    8.74    1.24
   4  19  15    8.18    1.40
  19  15   4    7.69    1.34
   4  15  19    7.32    1.40
  15  19   4    8.78    1.39
  19   4  15    4.61    1.41
  -4  19  15    7.59    1.17
  15   5  19    4.82    1.46
  19  15   5    2.78    1.00
  -5  15  19    2.25    0.82
   5  19  15    2.23    1.04
  15  19   5    2.96    1.03
   5  15  19    4.25    1.24
  19   5  15    3.11    1.23
  -5  19  15    3.29    0.86
  19  15   6    1.03    0.86
  15   6  19    0.71    1.20
   6  19  15    0.75    0.90
  15  19   6    1.34    0.87
  -6  19  15    0.92    0.67
   6  15  19    0.91    1.05
  19   6  15    1.06    1.10
   7  19  15    1.67    1.02
  15   7  19    3.32    1.39
  19  15   7    2.87    1.02
   7  15  19    4.15    1.26
  19   7  15    2.46    1.21
  15  19   7    2.11    1.04
  19  15   8    2.69    1.10
   8  19  15    1.84    1.08
  15   8  19    4.06    1.41
  19   8  15    1.04    1.13
   8  15  19    1.93    1.21
  15  19   8    2.26    1.05
   9  19  15   -0.69    0.93
  15   9  19   -1.01    1.10
  19  15   9   -0.21    0.94
  15  19   9   -1.23    0.78
  19   9  15   -0.03    1.02
   9  15  19    0.48    1.08
  10  19  15    0.13    0.96
  15  10  19    0.43    1.18
  19  15  10   -0.03    0.91
  15  19  10   -0.25    0.92
  19  10  15    0.60    1.10
  10  15  19    0.56    1.10
  11  19  15   12.83    1.99
  15  11  19   14.48    2.21
  19  15  11   14.76    2.01
  15  19  11   14.69    1.98
  19  11  15   11.95    1.95
  11  15  19   10.85    1.90
  19  15  12   -0.06    0.99
  15  12  19   -0.68    1.12
  12  19  15   -0.25    1.08
  19  12  15   -0.19    1.09
  12  15  19   -0.71    1.15
  15  19  12   -0.98    0.92
  15  13  19    2.72    1.37
  13  19  15    3.48    1.39
  19  15  13    1.25    1.19
  15  19  13    4.18    1.40
  13  15  19    3.20    1.40
  19  13  15    1.03    1.21
  14  19  15    6.33    1.57
  19  15  14    7.24    1.61
  15  14  19    8.09    1.79
  15  19  14    6.75    1.58
  14  15  19    8.27    1.76
  19  14  15    7.37    1.70
  15  15  19    6.29    1.71
  19  15  15    8.53    1.75
  15  19  15    9.40    1.82
   0  16  19    0.11    0.87
   0  19  16    0.69    0.77
  -1  16  19    0.86    0.82
   1  19  16    1.38    0.90
  19  16   1    0.73    0.79
  -1  19  16    1.53    0.86
  19   1  16    2.68    1.31
   1  16  19    1.90    1.03
  16   2  19   15.04    2.24
   2  19  16   12.31    1.69
  19  16   2   12.43    1.62
  -2  16  19   12.52    1.63
  19   2  16    9.37    1.74
   2  16  19   10.03    1.55
  16  19   2    7.40    1.26
  -2  19  16    9.76    1.38
  16   3  19    2.27    1.32
  -3  16  19    6.68    1.16
  19  16   3    7.92    1.29
   3  19  16    6.84    1.32
  16  19   3    9.31    1.39
   3  16  19    5.13    1.31
  19   3  16    4.18    1.40
  -3  19  16    8.25    1.26
  19  16   4    3.83    1.05
  16   4  19    1.82    1.27
   4  19  16    3.05    1.06
  -4  16  19    3.34    0.96
  16  19   4    1.63    0.90
  -4  19  16    2.14    0.85
  19   4  16    2.64    1.27
   4  16  19    2.65    1.14
  19  16   5    1.97    0.95
  16   5  19    1.23    1.29
   5  19  16    2.95    1.09
   5  16  19    1.95    1.13
  -5  19  16    0.33    0.67
  19   5  16    0.35    1.18
  16  19   5    0.39    0.86
  19  16   6    4.71    1.17
   6  19  16    6.04    1.33
  16   6  19    5.07    1.57
   6  16  19    7.29    1.49
  19   6  16    4.91    1.50
  16  19   6    6.68    1.31
  16   7  19   10.94    1.92
  19  16   7    9.34    1.53
   7  19  16   10.22    1.72
   7  16  19    8.71    1.59
  19   7  16    8.25    1.67
  16  19   7    7.37    1.40
  16   8  19    0.52    1.18
   8  19  16   -0.21    0.99
  19  16   8    0.65    0.94
  16  19   8    0.47    0.90
   8  16  19    1.01    1.06
  19   8  16    1.26    1.17
  16   9  19    5.87    1.58
  19  16   9    6.10    1.38
   9  19  16    5.04    1.34
  16  19   9    4.38    1.23
   9  16  19    5.43    1.44
  19   9  16    5.77    1.51
  16  10  19    1.09    1.25
  19  16  10    1.40    1.10
  10  19  16    1.11    1.13
  10  16  19    3.17    1.34
  16  19  10    3.70    1.20
  19  10  16    2.13    1.28
  11  19  16    1.03    1.11
  16  11  19    1.14    1.31
  19  16  11    4.45    1.27
  11  16  19    3.47    1.33
  16  19  11    4.10    1.34
  19  11  16    4.07    1.33
  19  16  12    0.80    1.16
  16  12  19    1.44    1.31
  12  19  16    1.63    1.16
  19  12  16    0.68    1.18
  12  16  19    2.07    1.32
  16  19  12    2.20    1.20
  16  13  19   -0.36    1.21
  19  16  13   -0.43    1.06
  13  19  16    1.59    1.24
  16  19  13    0.80    1.18
  13  16  19   -0.56    1.11
  19  13  16    0.35    1.17
  19  16  14    1.55    1.26
  16  14  19    0.82    1.31
  14  19  16    3.12    1.37
  16  19  14    1.38    1.23
  14  16  19    2.29    1.38
  19  14  16    1.69    1.29
  19  16  15    1.68    1.23
  16  15  19   -0.13    1.28
  15  19  16    1.15    1.28
  19  15  16    0.76    1.28
  16  19  15   -0.97    1.12
  15  16  19    0.66    1.25
  19  16  16   -0.31    1.21
  16  16  19    0.64    1.39
  16  19  16   -0.94    1.16
   0  19  17   11.75    1.62
   0  17  19   11.01    1.59
   1  19  17    2.48    0.99
  19  17   1    1.85    0.82
  -1  17  19    2.51    0.96
  -1  19  17    2.07    0.90
  19   1  17    3.64    1.47
   1  17  19    2.33    1.03
   2  19  17    6.95    1.36
  -2  17  19    6.88    1.26
  19  17   2    7.80    1.29
  17   2  19    6.12    1.68
  19   2  17    6.50    1.63
   2  17  19    8.50    1.50
  -2  19  17    9.58    1.40
   3  19  17    2.76    1.07
  17   3  19    1.90    1.31
  -3  17  19    3.20    0.99
  19  17   3    4.53    1.04
  -3  19  17    2.85    0.93
  19   3  17    4.46    1.48
   3  17  19    3.40    1.14
  17  19   3    2.21    0.95
   4  19  17   11.64    1.74
  19  17   4   12.71    1.73
  17   4  19   11.32    2.00
  -4  17  19   12.37    1.57
   4  17  19   13.37    1.86
  17  19   4    8.90    1.54
  19   4  17   11.63    1.93
  -4  19  17   13.26    1.59
   5  19  17    0.67    0.99
  19  17   5    1.30    0.94
  17   5  19    1.53    1.20
  19   5  17    0.02    1.19
   5  17  19    0.70    1.04
  -5  19  17    2.42    0.82
  17  19   5    1.01    0.93
   6  19  17    5.08    1.32
  19  17   6    4.43    1.18
  17   6  19    5.17    1.59
   6  17  19    5.83    1.41
  17  19   6    6.76    1.32
  19   6  17    3.34    1.44
   7  19  17    5.55    1.36
  19  17   7    4.58    1.19
  17   7  19    5.07    1.57
   7  17  19    6.79    1.45
  19   7  17    7.18    1.61
  17  19   7    5.31    1.27
   8  19  17    3.95    1.24
  19  17   8    3.58    1.16
  17   8  19    1.85    1.29
  19   8  17    3.81    1.39
  17  19   8    3.27    1.15
   8  17  19    3.48    1.28
  17   9  19   -0.40    1.21
   9  19  17    0.02    1.01
  19  17   9    0.11    0.97
   9  17  19    0.41    1.12
  19   9  17    0.64    1.19
  17  19   9    0.20    0.92
  19  17  10    3.34    1.24
  17  10  19    3.87    1.50
  10  19  17    4.08    1.34
  19  10  17    5.42    1.49
  17  19  10    3.64    1.23
  10  17  19    1.76    1.34
  17  11  19    0.85    1.27
  11  19  17    2.33    1.28
  19  17  11    1.45    1.11
  17  19  11    0.73    1.14
  19  11  17    2.29    1.33
  11  17  19    1.43    1.23
  19  17  12    0.48    1.14
  17  12  19    2.29    1.32
  12  19  17    0.20    1.20
  17  19  12    2.30    1.21
  12  17  19   -0.13    1.17
  19  12  17    2.24    1.34
  19  17  13    6.70    1.60
  17  13  19    6.16    1.72
  13  19  17    5.24    1.54
  13  17  19    7.19    1.76
  19  13  17    5.19    1.66
  17  19  13    7.36    1.64
  19  17  14    2.78    1.35
  17  14  19    0.95    1.33
  14  19  17    0.43    1.22
  14  17  19    1.10    1.29
  19  14  17    2.83    1.42
  17  19  14    0.78    1.22
  17  15  19    2.11    1.48
  19  17  15    1.63    1.25
  15  19  17    4.24    1.53
  15  17  19    1.89    1.32
  19  15  17    1.51    1.37
  17  19  15    2.31    1.38
  17  16  19   -0.78    1.28
  19  17  16    0.51    1.33
  16  19  17   -0.70    1.13
  16  17  19    0.43    1.25
  19  16  17   -0.07    1.23
  17  19  16    1.67    1.36
   0  19  18    3.21    1.06
   0  18  19    2.44    1.05
  18   1  19    3.14    1.43
   1  19  18    2.72    1.07
  -1  18  19    1.95    0.97
   1  18  19    2.75    1.12
  19   1  18    3.40    1.47
  -1  19  18    2.89    1.02
   2  19  18    0.88    0.91
  19  18   2    0.23    0.79
  -2  18  19    0.32    0.84
  18   2  19    2.31    1.36
   2  18  19    0.49    0.95
  19   2  18    0.42    1.27
  -2  19  18    0.72    0.86
  -3  18  19    3.25    0.99
  19  18   3    5.37    1.14
  18   3  19    2.07    1.39
   3  19  18    2.55    1.10
  18  19   3    3.78    1.09
  -3  19  18    3.53    1.01
   3  18  19    2.82    1.10
  19   3  18    1.69    1.35
  -4  18  19   -0.03    0.78
   4  19  18   -0.08    0.90
  18   4  19    0.14    1.19
  19  18   4    0.04    0.79
  -4  19  18   -0.34    0.74
  18  19   4   -0.55    0.73
   4  18  19    0.60    0.99
  19   4  18   -1.17    1.04
   5  19  18    0.92    1.03
  18   5  19    1.22    1.32
  19  18   5    0.76    0.92
   5  18  19    0.74    1.08
  18  19   5    1.28    0.95
  19   5  18    1.18    1.27
  18   6  19   10.17    1.90
  19  18   6   10.11    1.63
   6  19  18   10.07    1.72
   6  18  19    8.75    1.68
  19   6  18   10.64    1.95
  18  19   6   10.49    1.62
   7  19  18   -0.25    1.06
  18   7  19   -0.19    1.23
  19  18   7   -0.10    0.93
   7  18  19   -0.42    1.04
  18  19   7   -0.15    0.92
  19   7  18    0.46    1.23
   8  19  18    4.92    1.41
  19  18   8    3.90    1.21
  18   8  19    4.37    1.50
  18  19   8    4.35    1.23
  19   8  18    3.80    1.47
   8  18  19    3.87    1.37
   9  19  18   -0.21    1.04
  19  18   9    1.27    0.99
  18   9  19   -0.62    1.23
  19   9  18    0.62    1.22
   9  18  19    0.79    1.22
  18  19   9    0.35    1.03
  18  10  19    4.85    1.56
  10  19  18    4.22    1.43
  19  18  10    4.33    1.29
  10  18  19    4.35    1.45
  19  10  18    5.00    1.60
  18  19  10    5.21    1.35
  18  11  19    2.58    1.43
  19  18  11    1.28    1.14
  11  19  18    2.06    1.29
  18  19  11    1.84    1.15
  11  18  19    1.47    1.32
  19  11  18    1.55    1.31
  19  18  12    1.10    1.22
  18  12  19    2.21    1.40
  12  19  18   -0.58    1.16
  18  19  12    1.32    1.17
  12  18  19   -0.11    1.24
  19  12  18    1.06    1.33
  19  18  13    8.79    1.77
  13  19  18    6.88    1.74
  18  13  19    8.07    1.86
  18  19  13    6.91    1.61
  19  13  18    7.70    1.85
  13  18  19    7.40    1.78
  19  18  14    2.40    1.37
  14  19  18    2.80    1.44
  18  14  19    2.60    1.49
  14  18  19    3.91    1.51
  18  19  14    1.40    1.32
  19  14  18    4.39    1.61
   0  19  19    4.33    1.20
  -1  19  19   -0.02    0.87
   1  19  19   -0.56    0.85
  19   1  19    0.77    1.34
  -2  19  19    0.83    0.88
   2  19  19    1.38    0.99
  19   2  19    0.81    1.28
  -3  19  19   -0.20    0.76
   3  19  19    0.58    0.97
  19   3  19    0.44    1.27
  19  19   3    0.61    0.83
   4  19  19    5.74    1.42
  19   4  19    2.82    1.44
  19  19   4    4.37    1.17
   5  19  19   -0.70    0.95
  19   5  19   -0.08    1.26
  19  19   5    0.13    0.87
   6  19  19   -0.07    0.98
  19   6  19    0.55    1.32
  19  19   6   -0.69    0.84
   7  19  19   -0.03    1.07
  19   7  19   -1.37    1.17
  19  19   7    0.69    0.95
   8  19  19    0.44    1.18
  19   8  19    1.87    1.34
  19  19   8   -0.47    0.92
   9  19  19    4.37    1.45
  19   9  19    6.79    1.71
  19  19   9    3.65    1.31
  10  19  19    0.72    1.24
  19  10  19    2.28    1.47
  19  19  10    1.56    1.10
  11  19  19    2.14    1.36
  19  11  19    2.15    1.37
  19  19  11    0.69    1.07
  12  19  19    0.79    1.30
  19  12  19    1.71    1.41
  19  19  12    2.70    1.31
  13  19  19    0.01    1.27
  19  13  19    1.73    1.42
  19  19  13   -0.20    1.19
  20   0   1   38.51    2.88
  20   1   0   40.57    2.99
  20  -1   1    0.24    0.44
  20   1   1    0.15    0.45
  20   2   0    8.00    0.90
  20   0   2    6.96    0.94
  20  -1   2   13.69    1.39
  20   2   1   16.65    1.43
  20   1   2   15.34    1.44
  20  -2   2    4.51    0.76
  20   2   2    4.47    0.77
  20   3   0   15.33    1.34
  20   0   3   12.84    1.40
  20   3   1   13.88    1.34
  20  -1   3   14.38    1.41
  20   1   3   13.36    1.38
  20  -2   3    5.36    0.85
  20   3   2    6.22    0.88
  20   2   3    5.83    0.92
  20  -3   2    5.89    0.84
  20   3   3   20.62    1.78
  20  -3   3   18.55    1.72
  20   0   4    1.84    0.66
  20   4   0    1.98    0.57
  20  -1   4    5.74    0.91
  20   4   1    6.39    0.88
  20   4  -1    5.66    0.77
  20   1   4    4.97    0.88
  20  -2   4    1.00    0.60
  20   4   2    0.67    0.52
  20   2   4    0.45    0.57
  20  -4   2    0.73    0.59
  20  -3   4   12.87    1.42
  20   4   3   12.69    1.40
  20  -4   3   10.97    1.29
  20   3   4   11.21    1.32
  -4   4  20    0.58    0.76
  20   4   4    2.55    0.72
   0   5  20   12.95    1.68
  20   0   5   13.09    1.48
  20   5   0   14.32    1.33
  20   5   1    9.26    1.09
  -1   5  20    8.22    1.36
  20  -1   5    9.99    1.23
  20   5  -1    5.96    0.84
  20   1   5    8.41    1.10
   1   5  20    6.81    1.31
  -2   5  20   19.44    2.11
  20   5   2   24.44    1.99
  20  -2   5   25.16    2.08
   2   5  20   18.93    2.25
  20   2   5   22.62    1.97
  20   5   3    2.21    0.69
  -3   5  20    3.40    0.90
  20   3   5    2.76    0.80
   3   5  20    3.91    1.15
  -4   5  20   45.51    3.47
  20   5   4   43.51    3.38
   4   5  20   42.18    3.43
  20   4   5   36.50    3.00
  -5   4  20   37.77    3.06
  -5   5  20    9.33    1.34
   5  20   5   18.88    1.68
   5   5  20   10.31    1.67
  20   5   5   11.68    1.42
   0   6  20    0.64    0.79
  20   6   0    1.02    0.54
  20   0   6    0.75    0.67
  -1   6  20    7.39    1.25
  20   6   1    9.89    1.08
  20  -1   6    5.81    1.09
   1   6  20    6.20    1.23
  20   6  -1    9.78    1.00
  20   1   6    5.66    1.07
  20   6   2   14.88    1.54
  -2   6  20   14.99    1.76
  20  -2   6   18.17    1.79
  20   2   6   16.46    1.64
  20   6  -2   12.62    1.28
   2   6  20   16.82    1.88
  -3   6  20    5.05    1.02
  20   6   3    5.83    0.95
   3  20   6    6.67    1.06
  20   3   6    6.13    1.05
   3   6  20    4.90    1.21
   4  20   6   14.11    1.67
  -4   6  20   14.38    1.60
  20   6   4   12.62    1.49
   4   6  20   11.20    1.61
  -6   4  20   10.52    1.35
  20   4   6   11.54    1.42
  -5   6  20   10.61    1.34
   5  20   6    9.20    1.34
  20   6   5   10.83    1.38
   6   5  20   11.12    1.74
   6  20   5   10.72    1.44
  -6   5  20   10.37    1.26
  20   5   6    9.75    1.33
   5   6  20    7.79    1.47
   6   6  20   21.60    2.27
  20   6   6   18.20    1.86
   6  20   6   14.36    1.83
  -6   6  20   19.78    1.80
  20   0   7    1.68    0.75
   0   7  20   -0.29    0.74
  20   7   0    0.17    0.48
  20  -1   7    4.13    0.96
  -1   7  20    2.84    0.96
  20   7   1    3.75    0.76
  20   1   7    2.68    0.89
  20   7  -1    5.50    0.80
   1   7  20    4.11    1.07
  -2   7  20    2.81    0.89
   2  20   7    0.66    0.72
  20   7   2    2.02    0.68
  20   2   7    2.83    0.86
  20   7  -2    2.37    0.57
   2   7  20    2.59    0.96
  -3   7  20    0.89    0.78
   3  20   7    3.15    0.88
  20   7   3    2.58    0.75
  20   3   7    1.42    0.75
  -7   3  20    0.96    0.68
   3   7  20    0.38    0.87
  -4   7  20   16.47    1.68
  20   7   4   14.17    1.58
   4  20   7   13.56    1.64
   4   7  20   13.02    1.74
  -7   4  20   13.64    1.42
   7  20   4    9.61    1.39
  20   4   7   14.20    1.59
   5  20   7    3.54    0.95
  -5   7  20    4.45    0.96
  20   7   5    5.42    1.00
   7   5  20    5.26    1.34
  20   5   7    4.82    1.02
  -7   5  20    5.88    0.97
   5   7  20    4.85    1.20
   7  20   5    5.50    1.08
  20   7   6    0.02    0.71
   6  20   7    0.62    0.73
  -6   7  20    0.55    0.62
   7   6  20    0.59    0.94
   7  20   6    1.36    0.78
   6   7  20    1.24    0.97
  -7   6  20    1.22    0.75
  20   6   7    0.79    0.73
  20   7   7    1.25    0.80
   7   7  20    0.60    1.04
   7  20   7    1.35    0.83
  20   0   8    0.93    0.79
  20   8   0   -0.12    0.51
   0   8  20    1.68    0.86
   0  20   8    0.20    0.59
  -1   8  20    8.14    1.32
  20   8   1    9.59    1.14
  20  -1   8    6.94    1.28
   1  20   8    8.89    1.27
  20   1   8    7.19    1.24
   1   8  20    7.90    1.36
  20   8  -1    8.30    1.05
  20   8   2    2.02    0.69
   2  20   8    0.59    0.72
  -2   8  20    1.19    0.81
  20   2   8    1.15    0.80
   2   8  20    1.08    0.92
  20   8  -2    3.34    0.64
   3  20   8    9.46    1.32
  20   8   3    8.98    1.23
  -3   8  20    8.87    1.30
   3   8  20    9.01    1.44
  20   3   8    7.81    1.27
  20   8   4    5.54    1.04
   4  20   8    5.82    1.09
  -4   8  20    4.56    0.99
   8  20   4    7.64    1.18
  20   4   8    5.14    1.08
   4   8  20    3.62    1.18
   8   5  20    7.78    1.53
  20   8   5    6.31    1.13
  -5   8  20    7.51    1.14
   5  20   8    6.13    1.18
   8  20   5    3.75    0.93
   5   8  20    7.40    1.37
  20   5   8    7.01    1.20
   8   6  20    4.70    1.26
  20   8   6    5.08    1.08
  -6   8  20    5.69    0.97
   6  20   8    5.39    1.14
   8  20   6    6.66    1.23
  20   6   8    7.81    1.24
   6   8  20    6.32    1.37
   7  20   8    1.00    0.82
   8   7  20    2.40    1.15
  20   8   7    2.37    0.85
   7   8  20    2.63    1.11
  20   7   8    3.75    1.00
   8  20   7    2.39    0.93
   8   8  20   12.34    1.98
   8  20   8   19.34    1.96
  20   8   8   16.86    1.88
   0  20   9   37.12    3.16
   0   9  20   45.14    3.38
  20   9   0   38.31    3.04
  20   0   9   40.67    3.33
  20   9   1    1.20    0.62
   1  20   9    1.64    0.77
  -1   9  20    1.63    0.87
  20  -1   9    5.01    1.11
  -1  20   9    2.59    0.76
  20   9  -1    1.25    0.60
   1   9  20    1.88    0.92
  20   1   9    2.30    0.92
  20   9   2   29.61    2.49
  -2   9  20   29.32    2.65
   2  20   9   31.73    2.63
   2   9  20   27.70    2.68
  20   9  -2   32.48    2.36
  20   2   9   25.67    2.60
  20   9   3   22.02    2.02
  -3   9  20   24.34    2.12
   3  20   9   18.45    2.07
   3   9  20   24.60    2.34
  20   3   9   19.02    2.18
  20   9   4   25.68    2.26
  -4   9  20   25.85    2.28
   4  20   9   24.23    2.37
   4   9  20   30.92    2.70
  20   4   9   26.64    2.46
   9  20   4   23.68    2.40
   5  20   9    7.81    1.30
  20   9   5    8.33    1.24
   9   5  20    5.53    1.42
  -5   9  20    7.19    1.13
   5   9  20    9.55    1.56
  20   5   9    6.21    1.27
   9  20   5   10.81    1.42
   6  20   9    6.15    1.14
  20   9   6    5.99    1.12
   9   6  20    4.80    1.38
  -6   9  20    6.09    1.00
   9  20   6    6.78    1.18
  20   6   9    6.40    1.20
   6   9  20    4.87    1.34
   7  20   9    2.57    0.94
  20   9   7    1.23    0.84
   9   7  20    2.86    1.19
   7   9  20    1.90    1.09
   9  20   7    1.36    0.78
  20   7   9    2.05    0.94
   8  20   9    2.15    0.89
  20   9   8    2.24    0.95
   9   8  20    2.23    1.21
   9  20   8    2.64    0.98
  20   8   9    2.98    0.98
   8   9  20    2.05    1.17
   9   9  20    8.19    1.60
  20   9   9    8.58    1.41
   9  20   9    7.92    1.39
  20   0  10   30.47    3.27
  20  10   0   48.64    3.16
   0  10  20   32.54    3.21
   0  20  10   47.44    3.26
  20  10   1   14.45    1.61
   1  20  10   14.51    1.71
  -1  10  20   16.94    1.84
  -1  20  10   13.58    1.56
   1  10  20   14.47    1.78
  20   1  10   16.52    1.84
  20  10  -1   12.24    1.41
  -2  10  20   16.19    1.74
  20  10   2   13.76    1.56
   2  20  10   12.06    1.63
   2  10  20   16.70    1.89
  -2  20  10   11.01    1.44
  20  10  -2   13.12    1.36
  20   2  10   15.26    1.80
   3  20  10    6.95    1.16
  -3  10  20    3.89    0.99
  20  10   3    5.66    1.03
   3  10  20    4.16    1.16
  20   3  10    3.94    1.09
  -4  10  20   10.24    1.39
  10   4  20   11.14    1.84
   4  20  10   14.84    1.67
  20  10   4   11.68    1.46
  10  20   4   16.34    1.81
  20   4  10   13.56    1.78
   4  10  20   13.94    1.90
  -5  10  20    3.58    0.89
   5  20  10    3.99    1.05
  20  10   5    4.24    1.00
  10   5  20    5.34    1.35
  20   5  10    4.20    1.11
  10  20   5    2.59    0.92
   5  10  20    4.90    1.27
  10   6  20    9.59    1.69
   6  20  10    8.26    1.36
  20  10   6    7.72    1.29
  -6  10  20   10.54    1.42
   6  10  20    7.49    1.45
  10  20   6    6.85    1.29
  20   6  10    6.13    1.23
   7  20  10    4.52    1.09
  20  10   7    4.32    1.09
  10   7  20    6.10    1.45
  20   7  10    7.37    1.35
  10  20   7    4.75    1.19
   7  10  20    9.35    1.56
   8  20  10    3.03    1.02
  10   8  20    2.34    1.26
  20  10   8    3.76    1.06
  20   8  10    1.26    0.91
   8  10  20    2.50    1.23
  10  20   8    3.54    1.07
   9  20  10    0.64    0.90
  20  10   9    1.74    0.97
  10   9  20    0.35    1.07
  10  20   9    1.33    0.93
   9  10  20    0.88    1.06
  20   9  10    0.77    0.95
  10  10  20   15.58    2.11
  10  20  10   15.63    1.96
  20  10  10   15.62    1.92
   0  20  11    6.34    1.16
  20   0  11    6.23    1.33
  20  11   0    7.25    1.09
   0  11  20    7.55    1.28
   1  20  11   -0.19    0.76
  20  11   1    1.03    0.70
  -1  11  20    0.58    0.81
  20   1  11    1.04    0.92
  20  11  -1    0.65    0.61
  -1  20  11    1.88    0.80
   1  11  20    0.10    0.80
   2  20  11    3.80    0.97
  -2  11  20    4.06    1.01
  20  11   2    3.59    0.91
   2  11  20    4.33    1.11
  20   2  11    4.14    1.14
  -2  20  11    5.84    1.03
   3  20  11    6.68    1.24
  20  11   3    8.79    1.25
  -3  11  20    9.92    1.35
  20   3  11    9.71    1.49
   3  11  20    7.47    1.39
  11  20   3    7.43    1.23
  20  11   4   19.53    1.77
   4  20  11   13.32    1.74
  -4  11  20   14.74    1.71
  11   4  20   13.61    2.13
   4  11  20   14.89    1.89
  20   4  11   14.16    1.85
  11  20   4   13.78    1.72
  -5  11  20    1.44    0.76
   5  20  11    0.83    0.82
  20  11   5    0.39    0.74
  11   5  20   -0.04    1.02
  20   5  11    0.71    0.93
  11  20   5    2.63    0.93
   5  11  20    1.83    1.02
  20  11   6    2.61    0.97
  11   6  20    3.10    1.29
   6  20  11    3.67    1.09
   6  11  20    1.95    1.06
  20   6  11    1.41    1.01
  11  20   6    4.83    1.13
  20  11   7    6.27    1.21
   7  20  11    5.76    1.25
  11   7  20    5.12    1.44
  20   7  11    5.38    1.20
  11  20   7    4.65    1.12
   7  11  20    2.79    1.18
  11   8  20   22.79    2.61
  20  11   8   20.86    2.20
   8  20  11   21.46    2.28
  11  20   8   21.96    2.32
  20   8  11   21.64    2.35
   8  11  20   22.98    2.55
  11   9  20    5.78    1.50
  20  11   9    6.55    1.30
   9  20  11    4.15    1.17
  20   9  11    4.95    1.25
  11  20   9    3.97    1.17
   9  11  20    4.93    1.35
  10  20  11    0.86    0.90
  11  10  20    1.71    1.16
  20  11  10   -0.48    0.83
  11  20  10    0.44    0.87
  10  11  20    0.88    1.12
  20  10  11   -0.13    0.90
  11  11  20    3.71    1.36
  11  20  11    2.21    1.08
  20  11  11    3.02    1.18
  20  12   0    0.10    0.61
  20   0  12   -0.17    0.92
   0  12  20    0.95    0.85
   0  20  12    0.16    0.76
  -1  12  20    5.81    1.20
  20  12   1    6.76    1.12
   1  20  12    7.08    1.22
   1  12  20    7.23    1.33
  20  12  -1    7.97    1.07
  -1  20  12    6.06    1.13
  20   1  12    6.91    1.38
  -2  12  20    2.35    0.94
   2  20  12    2.77    0.94
  20  12   2    5.02    0.98
  20   2  12    2.92    1.11
   2  12  20    2.78    1.03
  -2  20  12    3.69    0.88
   3  20  12    3.86    1.06
  20  12   3    3.50    0.93
  -3  12  20    5.85    1.08
  -3  20  12    2.30    0.82
  12  20   3    1.51    0.83
  20   3  12    3.84    1.17
   3  12  20    3.83    1.13
  12   4  20   -0.15    1.10
  20  12   4    0.01    0.70
  -4  12  20    1.44    0.79
   4  20  12    0.35    0.81
  12  20   4    0.06    0.74
   4  12  20    0.01    0.88
  20   4  12    0.87    0.98
   5  20  12    1.99    0.95
  20  12   5    0.74    0.77
  -5  12  20    1.66    0.79
  12   5  20    0.55    1.09
  20   5  12    0.55    0.94
   5  12  20    0.62    0.99
  12  20   5    0.34    0.73
   6  20  12    2.34    0.99
  20  12   6    2.05    0.89
  12   6  20    3.64    1.35
  12  20   6    2.89    1.00
   6  12  20    2.10    1.13
  20   6  12    2.90    1.11
  12   7  20    2.21    1.18
   7  20  12    3.00    1.01
  20  12   7    2.37    0.96
  20   7  12    2.44    1.12
  12  20   7    3.63    1.07
   7  12  20    2.79    1.16
   8  20  12    1.18    0.91
  12   8  20   -0.07    1.09
  20  12   8    0.08    0.85
  20   8  12   -0.01    0.93
  12  20   8    0.24    0.79
   8  12  20    0.23    1.02
  20  12   9    1.02    0.94
   9  20  12    0.45    0.91
  12   9  20    2.20    1.27
  12  20   9    0.00    0.84
  20   9  12    1.66    1.04
   9  12  20    0.23    1.06
  20  12  10    2.03    1.08
  10  20  12    3.17    1.17
  12  10  20    3.13    1.28
  12  20  10    2.48    1.08
  10  12  20    2.33    1.19
  20  10  12    1.93    1.13
  12  11  20   17.55    2.37
  20  12  11   18.79    2.20
  11  20  12   17.26    2.20
  20  11  12   19.28    2.30
  12  20  11   17.53    2.16
  11  12  20   19.84    2.47
  12  12  20   11.20    1.99
  20  12  12   11.00    1.79
  12  20  12   14.69    1.99
  20   0  13   -0.12    0.99
   0  20  13   -0.23    0.72
  20  13   0    0.28    0.65
   0  13  20   -0.66    0.78
  -1  13  20   14.38    1.70
  20  13   1   11.17    1.47
   1  20  13   11.29    1.58
  -1  20  13   11.93    1.56
  20   1  13   13.91    1.87
   1  13  20   11.43    1.67
  -2  13  20    6.63    1.20
  20  13   2    7.41    1.19
   2  20  13    5.38    1.19
  20   2  13    6.21    1.39
   2  13  20    3.88    1.18
  -2  20  13    6.18    1.12
   3  20  13    3.55    1.10
  20  13   3    5.24    1.08
  -3  13  20    5.82    1.08
  20   3  13    5.03    1.28
   3  13  20    3.82    1.15
  13  20   3    6.00    1.18
  -3  20  13    4.75    0.98
  20  13   4    3.39    0.96
  13   4  20    3.79    1.42
   4  20  13    4.45    1.13
  -4  13  20    3.26    0.95
  -4  20  13    4.48    0.96
  13  20   4    3.72    1.03
   4  13  20    3.58    1.17
  20   4  13    3.59    1.24
  13   5  20    1.46    1.23
  -5  13  20    1.93    0.82
   5  20  13    2.05    0.94
  20  13   5    1.88    0.86
   5  13  20    2.17    1.08
  13  20   5    1.11    0.89
  20   5  13    0.97    1.00
  13   6  20    2.67    1.29
  20  13   6    1.95    0.94
   6  20  13    4.01    1.12
  20   6  13    2.87    1.21
   6  13  20    3.12    1.20
  13  20   6    3.06    1.09
  20  13   7    6.53    1.28
  13   7  20    5.41    1.41
   7  20  13    6.86    1.37
   7  13  20    4.52    1.30
  13  20   7    5.49    1.21
  20   7  13    3.33    1.25
  20  13   8    3.06    1.08
   8  20  13    3.48    1.14
  13   8  20    2.97    1.37
  20   8  13    3.61    1.23
   8  13  20    4.25    1.35
  13  20   8    4.84    1.21
   9  20  13    6.14    1.37
  13   9  20    3.85    1.46
  20  13   9    5.35    1.30
   9  13  20    5.35    1.42
  20   9  13    4.73    1.31
  13  20   9    5.81    1.30
  20  13  10    4.62    1.26
  13  10  20    7.00    1.65
  10  20  13    5.96    1.39
  13  20  10    5.62    1.29
  20  10  13    4.15    1.33
  10  13  20    4.25    1.40
  11  20  13    7.85    1.53
  20  13  11    7.88    1.54
  13  11  20    5.58    1.59
  13  20  11    6.77    1.35
  11  13  20    4.63    1.41
  20  11  13    6.46    1.49
  12  20  13    1.33    1.08
  13  12  20    0.30    1.21
  20  13  12    0.54    1.05
  13  20  12    0.95    1.07
  20  12  13   -0.11    0.99
  12  13  20    1.12    1.25
  13  20  13    7.26    1.55
  13  13  20    6.43    1.65
  20  13  13    7.26    1.56
   0  14  20   -0.22    0.80
   0  20  14   -0.18    0.78
  20  14   0    0.66    0.71
  20   0  14    2.61    1.28
  -1  14  20   16.85    1.93
   1  20  14   15.74    1.85
  20  14   1   16.45    1.80
   1  14  20   17.29    2.04
  -1  20  14   14.90    1.81
  20   1  14   17.04    2.17
  -2  14  20    8.24    1.31
   2  20  14    7.41    1.33
  20  14   2    7.63    1.26
  -2  20  14    5.68    1.13
  20   2  14    7.61    1.55
   2  14  20    8.15    1.45
  -3  14  20    8.63    1.33
   3  20  14    7.55    1.33
  20  14   3    9.31    1.36
  14   3  20    6.94    1.71
  14  20   3    9.56    1.38
  20   3  14    4.82    1.39
  -3  20  14    8.29    1.25
   3  14  20    5.97    1.38
  20  14   4    2.27    0.96
  -4  14  20    1.87    0.86
  14   4  20    1.94    1.28
   4  20  14    3.17    0.98
  -4  20  14    3.04    0.86
   4  14  20    2.82    1.16
  14  20   4    2.87    0.96
  20   4  14    1.97    1.16
  20  14   5    4.54    1.10
  14   5  20    2.35    1.31
   5  20  14    4.92    1.15
   5  14  20    2.01    1.12
  14  20   5    3.77    1.11
  20   5  14    1.65    1.15
   6  20  14    5.01    1.21
  14   6  20    3.00    1.37
  20  14   6    4.98    1.14
   6  14  20    6.76    1.49
  14  20   6    7.75    1.39
  20   6  14    4.66    1.38
  20  14   7    0.75    0.86
  14   7  20    0.70    1.19
   7  20  14    0.34    0.94
   7  14  20    1.08    1.09
  14  20   7    0.42    0.86
  20   7  14    0.79    1.12
  20  14   8    6.93    1.37
  14   8  20    6.91    1.67
   8  20  14    9.38    1.60
  14  20   8    7.92    1.43
   8  14  20    6.66    1.51
  20   8  14    7.33    1.57
   9  20  14    3.51    1.24
  14   9  20    1.99    1.36
  20  14   9    2.68    1.09
   9  14  20    2.91    1.32
  14  20   9    2.94    1.09
  20   9  14    2.23    1.19
  20  14  10    1.57    1.07
  10  20  14    1.19    1.10
  14  10  20    1.65    1.29
  20  10  14    2.97    1.21
  10  14  20    2.81    1.31
  14  20  10    3.17    1.13
  20  14  11    0.23    0.99
  11  20  14    1.00    1.05
  14  11  20    1.06    1.25
  20  11  14    0.72    1.15
  14  20  11    0.99    1.00
  11  14  20    1.66    1.22
  20  14  12    0.81    1.11
  12  20  14    2.44    1.23
  14  12  20    2.78    1.34
  20  12  14    1.83    1.25
  12  14  20    1.63    1.30
  14  20  12    1.79    1.21
  14  13  20    0.29    1.18
  13  20  14    1.75    1.20
  20  14  13    1.05    1.16
  20  13  14    1.18    1.18
  14  20  13    0.92    1.13
  13  14  20   -0.09    1.23
  14  20  14    3.63    1.32
  14  14  20    4.45    1.57
  20  14  14    5.07    1.48
   0  15  20    1.26    0.96
  20   0  15    3.02    1.36
   0  20  15    1.46    0.89
   1  20  15    0.48    0.81
  -1  15  20    0.72    0.84
  20  15   1   -0.86    0.64
  -1  20  15    1.37    0.85
   1  15  20    0.02    0.88
  20   1  15    0.91    1.10
   2  20  15    0.68    0.81
  20  15   2   -0.27    0.70
  -2  15  20   -0.61    0.77
  -2  20  15    0.11    0.76
   2  15  20    0.32    0.91
  20   2  15   -0.35    1.02
  -3  15  20    4.87    1.12
   3  20  15    6.60    1.30
  20  15   3    5.56    1.14
  15   3  20    4.17    1.56
  20   3  15    4.94    1.39
   3  15  20    6.15    1.34
  -3  20  15    3.76    1.03
  15  20   3    5.12    1.15
  20  15   4    2.35    0.93
  -4  15  20    1.13    0.80
   4  20  15    1.95    1.04
  15   4  20    0.27    1.21
  15  20   4    1.66    0.91
  20   4  15    0.56    1.10
   4  15  20    1.05    1.06
  -4  20  15    1.85    0.81
   5  20  15   -0.02    0.92
  15   5  20   -0.24    1.12
  20  15   5    0.20    0.84
   5  15  20    0.14    1.01
  20   5  15    0.78    1.15
  -5  20  15    0.12    0.70
  15  20   5    0.37    0.83
  20  15   6    1.53    0.92
  15   6  20    0.44    1.17
   6  20  15    1.10    1.00
  15  20   6    2.35    1.02
  20   6  15    1.46    1.16
   6  15  20    2.48    1.19
   7  20  15    9.66    1.63
  15   7  20    7.76    1.76
  20  15   7    8.31    1.46
  20   7  15    8.33    1.74
  15  20   7   12.22    1.69
   7  15  20    8.68    1.70
   8  20  15    8.67    1.58
  20  15   8    6.50    1.38
  15   8  20    6.05    1.67
  15  20   8    6.46    1.34
  20   8  15    5.89    1.51
   8  15  20    7.20    1.61
  20  15   9    1.42    1.00
  15   9  20    2.32    1.39
   9  20  15    3.30    1.28
  20   9  15    1.48    1.23
   9  15  20    2.47    1.25
  15  20   9    2.14    1.07
  15  10  20    2.26    1.35
  20  15  10    1.91    1.10
  10  20  15    2.01    1.21
  10  15  20    1.95    1.26
  20  10  15    1.80    1.19
  15  20  10    0.96    0.97
  15  11  20    5.05    1.57
  20  15  11    4.97    1.39
  11  20  15    5.63    1.45
  15  20  11    7.06    1.47
  11  15  20    8.30    1.71
  20  11  15    4.45    1.50
  20  15  12    2.11    1.23
  15  12  20    4.48    1.54
  12  20  15    4.35    1.39
  15  20  12    2.79    1.21
  20  12  15    2.96    1.37
  12  15  20    2.22    1.40
  13  20  15   -0.67    1.03
  20  15  13    1.78    1.20
  15  13  20    0.99    1.33
  15  20  13    2.34    1.28
  13  15  20    1.50    1.33
  20  13  15    0.41    1.19
  15  14  20   -0.03    1.25
  14  20  15    0.79    1.19
  20  15  14   -0.77    1.09
  20  14  15   -0.03    1.14
  15  20  14   -0.43    1.17
  14  15  20   -0.25    1.22
  20  15  15    0.90    1.24
  15  15  20    0.10    1.30
  15  20  15   -0.13    1.14
   0  16  20    5.78    1.28
  20   0  16    5.55    1.61
   0  20  16    6.85    1.26
   1  20  16    0.04    0.81
  -1  16  20   -0.22    0.83
  20  16   1    0.56    0.76
  20   1  16   -0.46    1.09
  -1  20  16    0.91    0.82
   1  16  20    0.29    0.90
  16   2  20   -0.10    1.33
   2  20  16    0.62    0.83
  20  16   2    1.40    0.80
  -2  16  20   -0.63    0.72
   2  16  20    0.82    1.00
  20   2  16    0.33    1.09
  -2  20  16    0.34    0.81
  -3  16  20    3.21    1.01
  16   3  20    2.01    1.32
  20  16   3    1.81    0.94
   3  20  16    2.93    1.12
  16  20   3    2.06    0.91
   3  16  20    3.93    1.20
  -3  20  16    2.41    0.94
  20   3  16    4.46    1.42
  20  16   4    2.13    0.93
  -4  16  20    1.82    0.87
  16   4  20    1.23    1.32
   4  20  16    0.68    0.98
  16  20   4    1.13    0.91
  -4  20  16    2.24    0.87
   4  16  20    1.10    1.06
  20   4  16    1.60    1.26
  16   5  20    0.72    1.19
  20  16   5    1.07    0.90
   5  20  16    0.33    0.98
  -5  20  16    1.73    0.81
   5  16  20    2.00    1.10
  16  20   5    0.16    0.89
  20   5  16    1.09    1.18
   6  20  16    2.43    1.11
  20  16   6   -0.41    0.78
  16   6  20    1.89    1.32
   6  16  20    0.57    1.04
  16  20   6    1.09    0.94
  20   6  16    1.45    1.23
  16   7  20    2.04    1.36
   7  20  16    1.08    1.10
  20  16   7    2.31    1.03
  16  20   7    2.42    1.07
   7  16  20    2.21    1.23
  20   7  16    1.70    1.30
  20  16   8    1.92    1.04
   8  20  16    2.78    1.19
  16   8  20    2.85    1.38
   8  16  20    1.85    1.19
  20   8  16    0.31    1.15
  16  20   8    1.01    1.00
   9  20  16    0.02    1.03
  16   9  20    2.59    1.40
  20  16   9    0.77    0.97
  20   9  16    1.67    1.26
   9  16  20    1.46    1.21
  16  20   9   -0.24    0.92
  16  10  20    1.21    1.34
  20  16  10   -0.08    0.94
  10  20  16    0.22    1.13
  20  10  16    0.44    1.21
  16  20  10    0.58    1.04
  10  16  20    1.44    1.21
  11  20  16    6.20    1.60
  20  16  11    6.71    1.54
  16  11  20    6.64    1.69
  16  20  11    5.80    1.43
  11  16  20    6.28    1.62
  20  11  16    8.78    1.71
  20  16  12   11.09    1.83
  12  20  16   11.51    1.95
  16  12  20   10.07    2.04
  16  20  12   10.25    1.77
  20  12  16    6.43    1.66
  12  16  20    7.34    1.76
  13  20  16    0.45    1.22
  20  16  13    0.86    1.15
  16  13  20    0.48    1.26
  13  16  20    1.53    1.33
  20  13  16   -1.64    1.15
  16  20  13   -0.77    1.10
  16  14  20    0.06    1.28
  14  20  16   -0.45    1.13
  20  16  14    0.29    1.16
  16  20  14    0.77    1.20
  14  16  20    0.41    1.27
  20  14  16    1.21    1.29
  15  20  16    2.65    1.46
  20  16  15    2.05    1.41
  16  15  20    2.46    1.55
  15  16  20    3.87    1.59
  16  20  15    5.03    1.57
  20  15  16    7.62    1.70
  20   0  17    7.38    1.71
   0  17  20    3.74    1.16
   0  20  17    5.17    1.20
   1  20  17    2.50    1.03
  -1  17  20    2.39    1.04
  -1  20  17    3.31    1.07
   1  17  20    3.59    1.15
  20   1  17    4.41    1.46
  -2  17  20    1.69    0.95
  20  17   2    1.91    0.92
  17   2  20    3.14    1.49
   2  20  17    2.28    1.03
   2  17  20    0.45    0.99
  20   2  17    3.04    1.43
  -2  20  17    1.49    0.89
  17   3  20    1.03    1.37
  20  17   3    2.54    0.97
   3  20  17    3.80    1.14
  -3  17  20    2.71    0.99
  17  20   3    4.22    1.13
   3  17  20    3.86    1.25
  20   3  17    2.25    1.36
  -3  20  17    4.45    1.10
   4  20  17    3.59    1.19
  20  17   4    3.08    1.05
  17   4  20    4.73    1.55
   4  17  20    3.44    1.18
  20   4  17    4.78    1.54
  -4  20  17    3.37    0.97
  17  20   4    3.55    1.09
  20  17   5    0.89    0.93
  17   5  20    1.69    1.38
   5  20  17    1.97    1.09
   5  17  20    0.03    0.99
  17  20   5    1.48    0.91
  20   5  17    2.01    1.25
  17   6  20    4.37    1.54
   6  20  17    2.33    1.19
  20  17   6    5.13    1.23
   6  17  20    3.78    1.29
  17  20   6    3.90    1.20
  20   6  17    4.97    1.52
   7  20  17    6.19    1.46
  17   7  20    8.02    1.84
  20  17   7    8.33    1.51
  17  20   7    7.77    1.48
  20   7  17    7.03    1.68
   7  17  20    6.28    1.52
  20  17   8    7.29    1.45
  17   8  20    5.07    1.65
   8  20  17    7.42    1.60
  20   8  17    7.10    1.68
   8  17  20    6.08    1.52
  17  20   8    4.78    1.37
  17   9  20    0.43    1.30
  20  17   9   -0.20    0.96
   9  20  17    0.67    1.13
  20   9  17    1.72    1.32
   9  17  20    0.23    1.13
  17  20   9    0.68    1.01
  17  10  20    2.82    1.45
  10  20  17    1.36    1.16
  20  17  10    1.95    1.17
  10  17  20    0.50    1.21
  20  10  17    1.68    1.24
  17  20  10    1.35    1.10
  20  17  11    6.13    1.50
  17  11  20    4.82    1.66
  11  20  17    6.02    1.60
  17  20  11    5.78    1.44
  20  11  17    4.60    1.54
  11  17  20    5.96    1.60
  12  20  17    3.29    1.39
  20  17  12    5.48    1.50
  17  12  20    5.82    1.73
  17  20  12    5.31    1.40
  20  12  17    5.55    1.61
  12  17  20    4.75    1.56
  20  17  13   -0.24    1.15
  17  13  20    0.33    1.35
  13  20  17    0.80    1.20
  13  17  20   -1.25    1.16
  17  20  13    0.21    1.16
  20  13  17   -0.09    1.25
  20  17  14    1.04    1.28
  17  14  20    3.63    1.56
  14  20  17    1.85    1.34
  14  17  20    1.08    1.40
  20  14  17    2.17    1.41
  17  20  14    1.80    1.37
  20   0  18   15.37    2.31
   0  20  18   10.29    1.61
   0  18  20    9.97    1.61
  18   1  20   11.49    2.23
  -1  18  20   15.59    1.93
   1  20  18   15.72    1.93
  20   1  18   11.00    2.10
   1  18  20   14.15    1.91
  -1  20  18   16.32    1.92
  -2  18  20    3.50    1.09
  18   2  20    4.91    1.58
  20  18   2    3.72    1.01
   2  20  18    3.70    1.17
  -2  20  18    6.52    1.31
  20   2  18    6.43    1.70
   2  18  20    6.94    1.38
  20  18   3    2.36    0.98
  -3  18  20    1.59    0.93
  18   3  20    2.16    1.40
   3  20  18    1.79    1.08
  20   3  18    3.68    1.42
   3  18  20    1.58    1.07
  18  20   3    2.59    0.94
  -3  20  18    3.10    1.00
   4  20  18    0.27    1.02
  18   4  20    0.88    1.36
  20  18   4    0.35    0.86
   4  18  20    1.28    1.06
  20   4  18    0.01    1.27
  18  20   4    0.39    0.88
  -4  20  18   -0.56    0.79
   5  20  18    2.46    1.21
  20  18   5    2.68    1.09
  18   5  20    0.57    1.34
  18  20   5    3.45    1.15
   5  18  20    2.81    1.28
  20   5  18    1.68    1.34
   6  20  18   -0.06    1.05
  18   6  20    2.36    1.50
  20  18   6    0.26    0.95
  20   6  18   -1.62    1.17
  18  20   6   -0.25    0.84
   6  18  20   -0.20    1.05
   7  20  18    2.99    1.22
  20  18   7    4.41    1.21
  18   7  20    1.21    1.37
   7  18  20    1.92    1.21
  20   7  18    1.96    1.36
  18  20   7    5.20    1.29
  18   8  20    3.01    1.47
   8  20  18    1.51    1.23
  20  18   8    1.36    1.10
  20   8  18    2.77    1.40
   8  18  20    2.64    1.31
  18  20   8    2.16    1.14
   9  20  18    1.94    1.28
  18   9  20    2.15    1.49
  20  18   9    1.34    1.05
   9  18  20    2.03    1.35
  20   9  18    3.13    1.46
  18  20   9    1.54    1.12
  18  10  20    0.96    1.35
  10  20  18    1.77    1.24
  20  18  10    0.20    1.03
  20  10  18    1.93    1.35
  18  20  10    1.06    1.11
  10  18  20   -0.99    1.14
  18  11  20    1.65    1.47
  20  18  11    3.59    1.31
  11  20  18    1.54    1.29
  11  18  20    1.90    1.38
  18  20  11    2.00    1.20
  20  11  18    2.40    1.39
  20  18  12    4.59    1.49
  18  12  20    4.13    1.60
  12  20  18    5.58    1.60
  18  20  12    4.06    1.38
  12  18  20    6.52    1.71
  20  12  18    6.57    1.79
  20  18  13   -0.77    1.15
  13  20  18    1.07    1.32
  18  13  20    1.28    1.50
  18  20  13    0.65    1.21
  20  13  18    0.02    1.35
  13  18  20   -0.15    1.23
   0  20  19    0.28    0.89
   0  19  20    0.37    0.91
  20   0  19   -1.08    1.35
  -1  19  20    1.39    0.98
  19   1  20    1.97    1.42
   1  20  19    0.74    0.99
   1  19  20    0.21    0.94
  20   1  19    2.87    1.46
  -1  20  19   -0.13    0.95
   2  20  19    5.42    1.37
  -2  19  20    5.78    1.21
  19   2  20    3.54    1.60
  20   2  19    3.35    1.49
  -2  20  19    6.21    1.27
   2  19  20    5.78    1.39
  20  19   3    2.81    1.07
  -3  19  20    3.91    1.26
  19   3  20    3.37    1.51
   3  20  19    3.87    1.20
  -3  20  19    4.75    1.19
  20   3  19    4.00    1.55
   3  19  20    4.15    1.32
  19   4  20    0.87    1.37
   4  20  19    1.55    1.17
  20  19   4    1.08    0.94
  19  20   4    1.26    0.96
   4  19  20    2.08    1.16
  20   4  19    1.74    1.32
  20  19   5    1.00    0.99
   5  20  19    0.25    1.04
  19   5  20    0.72    1.38
  20   5  19   -0.03    1.35
   5  19  20    0.14    1.05
  19  20   5    0.82    0.92
  19   6  20    1.05    1.43
  20  19   6    3.20    1.20
   6  20  19    2.06    1.20
  19  20   6    2.56    1.12
  20   6  19   -0.14    1.27
   6  19  20    2.73    1.29
  20  19   7    5.88    1.34
   7  20  19    5.24    1.44
  19   7  20    4.38    1.62
  20   7  19    4.21    1.60
  19  20   7    3.21    1.20
   7  19  20    3.94    1.37
  19   8  20    1.99    1.46
   8  20  19    0.35    1.15
  20  19   8    0.33    0.97
  20   8  19    0.04    1.34
   8  19  20    0.49    1.17
  19  20   8   -0.39    1.00
  19   9  20    4.30    1.56
  20  19   9    2.34    1.22
   9  20  19    1.03    1.22
   9  19  20    4.33    1.45
  19  20   9    3.05    1.28
  20   9  19    4.41    1.66
  10  20  19    4.86    1.52
  20  19  10    4.64    1.35
  19  10  20    2.48    1.57
  20  10  19    7.41    1.83
  19  20  10    7.33    1.53
  10  19  20    4.70    1.58
  11  20  19    9.43    1.87
  19  11  20    8.53    1.93
  20  19  11    8.14    1.66
  19  20  11    7.22    1.60
  20  11  19    9.10    1.92
  11  19  20   10.03    1.93
  20  19  12    1.48    1.24
  12  20  19    1.92    1.39
  19  12  20    1.93    1.51
  12  19  20    2.70    1.41
  19  20  12    0.63    1.17
  20  12  19    5.13    1.65
   0  20  20    6.19    1.32
  20   0  20    4.24    1.75
  -1  20  20    0.19    0.93
   1  20  20    0.65    0.97
  20   1  20    1.71    1.42
  -2  20  20    1.50    0.99
   2  20  20    1.04    1.10
  20   2  20    3.86    1.60
   3  20  20    2.27    1.23
  20   3  20   -1.70    1.23
   4  20  20   -0.31    1.03
  20   4  20   -0.77    1.26
  20  20   4   -0.48    0.87
   5  20  20    0.27    1.08
  20   5  20    0.99    1.45
  20  20   5    0.72    0.99
   6  20  20    0.53    1.09
  20   6  20    0.53    1.42
  20  20   6    0.03    0.89
   7  20  20   -0.74    1.07
  20   7  20   -0.75    1.37
  20  20   7   -0.06    0.94
   8  20  20    1.40    1.28
  20   8  20    0.10    1.40
  20  20   8   -0.95    0.90
   9  20  20    2.76    1.43
  20   9  20    2.03    1.57
  20  20   9    1.10    1.12
  10  20  20    4.23    1.56
  20  10  20    8.00    1.93
  20  20  10    6.43    1.51
  21   0   2   14.03    1.56
  21   1   2   50.51    3.65
  21   2   2    2.87    0.68
  21   0   3   24.33    2.04
  21   3   1    3.89    0.71
  21  -1   3    4.16    0.78
  21   1   3    2.39    0.67
  21  -2   3    8.04    1.08
  21   3   2    8.64    1.05
  21   2   3   11.23    1.25
  21   3   3    8.34    1.08
  21   0   4    1.18    0.64
  21   4   1    2.17    0.63
  21  -1   4    1.97    0.70
  21   1   4    1.81    0.68
  21  -2   4   11.22    1.30
  21   4   2   12.21    1.28
  21   2   4   11.08    1.31
  -3   4  21    2.12    0.92
  21  -3   4    2.81    0.75
  21   4   3    4.09    0.83
  21   3   4    3.92    0.83
  21   4   4   -0.04    0.59
  21  -4   4    0.30    0.61
  -4   4  21    0.24    0.73
   0   5  21    4.64    1.14
  21   5   0    3.20    0.70
  21   0   5    4.88    0.90
  21   5   1    3.51    0.72
  21  -1   5    2.04    0.74
  -1   5  21    1.16    0.88
   1   5  21    0.06    0.82
  21   1   5    0.21    0.62
  -2   5  21   33.87    2.84
  21   5   2   32.48    2.60
  21  -2   5   31.76    2.65
   2   5  21   31.21    2.86
  21   2   5   29.94    2.52
  21   5   3    2.92    0.78
  -3   5  21    4.07    0.99
  21  -3   5    4.41    0.91
  21   3   5    2.37    0.76
   3   5  21    0.54    0.99
  21   5   4    2.62    0.77
  -4   5  21    2.10    0.85
  21   4   5    2.73    0.81
  -5   4  21    3.24    0.91
   4   5  21    3.78    1.19
  21   5   5    1.28    0.69
   5   5  21    0.18    0.99
  -5   5  21    1.78    0.82
  21   0   6   11.78    1.43
   0   6  21   10.87    1.55
  21   6   1   27.64    2.42
  -1   6  21   32.27    2.78
  21  -1   6   35.00    2.68
   1   6  21   30.15    2.75
  21   1   6   30.37    2.56
  21  -2   6    3.56    0.88
  -2   6  21    2.96    0.97
  21   6   2    1.72    0.69
  21   2   6    2.47    0.85
   2   6  21    3.72    1.06
  -3   6  21   21.94    2.28
  21  -3   6   27.92    2.39
  21   6   3   27.77    2.25
   3   6  21   22.21    2.41
  21   3   6   22.76    2.13
  -6   3  21   23.98    2.19
  -4   6  21    2.37    0.86
  21   6   4    2.36    0.80
   4   6  21    3.48    1.13
  -6   4  21    1.72    0.79
  21   4   6    2.12    0.81
  -5   6  21   49.88    3.74
   6   5  21   42.89    4.00
   5  21   6   51.81    3.82
  21   6   5   47.57    3.70
  21   5   6   45.79    3.53
  -6   5  21   45.61    3.50
   5   6  21   43.80    3.81
   6  21   6    0.95    0.78
   6   6  21    2.00    1.12
  -6   6  21    2.91    0.84
  21   6   6    2.51    0.83
   0   7  21   27.59    2.39
  21   0   7   24.82    2.18
  21   7   0   18.77    1.89
  21   7   1   14.07    1.34
  21  -1   7    9.43    1.40
  -1   7  21   10.18    1.50
   1   7  21   10.35    1.62
  21   7  -1   15.95    1.48
  21   1   7   11.56    1.56
  21   7   2    4.95    0.91
  21  -2   7    5.07    1.06
  -2   7  21    5.32    1.11
   2   7  21    6.18    1.27
  21   2   7    3.98    0.98
   3  21   7    9.34    1.38
  -3   7  21   11.12    1.43
  21   7   3    9.10    1.25
  21   3   7    7.68    1.23
  -7   3  21    7.59    1.17
   3   7  21    8.17    1.45
  21   7   4   18.11    1.81
  -4   7  21   18.77    1.92
   4  21   7   17.65    1.96
   4   7  21   19.34    2.25
  21   4   7   21.03    2.00
   7   5  21    1.44    1.07
  -5   7  21    0.59    0.75
   5  21   7    2.51    0.90
  21   7   5   -0.08    0.68
  21   5   7    1.03    0.77
   7  21   5    2.86    0.89
   5   7  21    1.35    1.02
  -6   7  21   11.86    1.39
   6  21   7   11.88    1.51
  21   7   6    9.65    1.43
   7   6  21    9.69    1.67
   6   7  21    8.06    1.58
  21   6   7    9.67    1.39
   7  21   6   12.59    1.58
   7  21   7    8.55    1.40
  21   7   7   11.73    1.49
   7   7  21   10.42    1.71
  21   8   0    6.17    0.91
   0   8  21    3.83    1.08
  21   0   8    2.87    0.99
  -1   8  21    2.86    0.98
  21  -1   8    3.76    1.01
  21   8   1    2.21    0.71
  21   8  -1    0.78    0.57
  21   1   8    2.92    0.96
   1   8  21    2.98    1.01
   2  21   8    8.03    1.24
  21  -2   8    6.62    1.29
  -2   8  21    6.62    1.23
  21   8   2    7.92    1.14
  21   2   8    8.98    1.36
   2   8  21    8.35    1.47
  -3   8  21    7.31    1.27
   3  21   8    8.97    1.31
  21   8   3    7.86    1.15
  21   3   8    7.48    1.27
   3   8  21    7.05    1.38
  -4   8  21    0.70    0.77
  21   8   4    0.58    0.68
   4  21   8    2.14    0.84
  21   4   8    0.27    0.76
   4   8  21    0.44    0.92
  -5   8  21    2.33    0.82
   5  21   8    1.87    0.83
   8   5  21    4.10    1.19
  21   8   5    1.14    0.77
   8  21   5    1.75    0.89
  21   5   8    3.46    0.96
   5   8  21    3.08    1.16
   8   6  21    4.21    1.24
   6  21   8    3.94    1.03
  21   8   6    3.15    0.92
   6   8  21    2.14    1.14
   8  21   6    3.70    1.01
  21   6   8    3.23    0.96
   7  21   8    7.80    1.29
   8   7  21    8.96    1.62
  21   8   7    9.70    1.40
   7   8  21    6.59    1.49
  21   7   8    7.58    1.28
   8  21   7    5.69    1.22
   8  21   8   14.18    1.74
  21   8   8   12.34    1.67
   8   8  21   11.47    1.84
   0   9  21    2.99    1.05
  21   0   9    2.93    1.00
  21   9   0    0.80    0.63
  21  -1   9    4.60    1.19
  21   9   1    9.18    1.18
   1  21   9    9.29    1.29
  -1   9  21    6.07    1.23
   1   9  21    5.93    1.27
  21   9  -1    9.04    1.07
  21   1   9    5.52    1.19
  -2   9  21    0.61    0.81
  21   9   2    0.23    0.64
   2  21   9    0.68    0.71
  21   2   9    1.16    0.86
   2   9  21    0.53    0.91
  -3   9  21    8.93    1.31
   3  21   9    7.67    1.25
  21   9   3    6.87    1.11
   3   9  21    6.24    1.31
  21   3   9    4.09    1.09
  -4   9  21    5.75    1.09
   4  21   9    5.71    1.16
  21   9   4    5.77    1.06
  21   4   9    5.20    1.15
   4   9  21    5.21    1.28
   5  21   9    4.06    1.10
   9   5  21    7.19    1.55
  21   9   5    8.39    1.24
  -5   9  21    7.10    1.15
   9  21   5    5.47    1.19
  21   5   9    7.62    1.30
   5   9  21    7.32    1.46
  21   9   6   11.30    1.47
   6  21   9   10.97    1.55
   9   6  21    8.07    1.65
   6   9  21    7.41    1.57
   9  21   6   11.93    1.54
  21   6   9    8.50    1.40
   9   7  21    6.55    1.47
  21   9   7    7.22    1.27
   7  21   9    7.41    1.31
  21   7   9    9.74    1.45
   7   9  21    7.26    1.58
   9  21   7   10.09    1.48
  21   9   8    5.40    1.20
   9   8  21    5.50    1.42
   8  21   9    4.20    1.06
   9  21   8    2.26    1.05
   8   9  21    3.99    1.27
  21   8   9    5.39    1.18
   9   9  21    3.70    1.37
   9  21   9    4.58    1.18
  21   9   9    4.69    1.17
   0  21  10    7.84    1.30
  21   0  10   12.55    1.64
  21  10   0    7.72    1.17
   0  10  21   14.26    1.68
  21  10   1   23.78    2.15
   1  21  10   25.39    2.30
  -1  10  21   25.67    2.43
  21  -1  10   23.12    2.47
  21  10  -1   23.80    2.13
  21   1  10   25.19    2.45
   1  10  21   27.82    2.52
  21  10   2    3.22    0.83
  -2  10  21    4.24    1.06
   2  21  10    3.11    0.92
   2  10  21    6.76    1.35
  21   2  10    7.21    1.32
  21  10   3    2.43    0.80
  -3  10  21    2.17    0.88
   3  21  10    3.43    0.96
  21   3  10    2.92    1.03
   3  10  21    1.90    1.03
  21  10   4    8.07    1.21
  10   4  21   10.56    1.82
  -4  10  21    7.02    1.18
   4  21  10    6.05    1.23
  21   4  10    6.95    1.34
   4  10  21    9.20    1.52
  10  21   4    4.69    1.12
  10   5  21    7.65    1.68
   5  21  10   13.91    1.69
  21  10   5   11.92    1.52
  -5  10  21   12.33    1.48
  21   5  10    8.44    1.45
  10  21   5   10.49    1.48
   5  10  21    8.57    1.58
  10   6  21    3.99    1.36
  21  10   6    4.32    1.06
   6  21  10    4.25    1.11
  21   6  10    3.84    1.10
   6  10  21    3.61    1.20
  10  21   6    1.07    0.87
   7  21  10    4.80    1.16
  21  10   7    6.44    1.21
  10   7  21    5.33    1.43
  10  21   7    4.54    1.17
   7  10  21    3.46    1.31
  21   7  10    4.56    1.16
  10   8  21    4.01    1.34
   8  21  10    4.74    1.19
  21  10   8    4.00    1.11
  21   8  10    5.13    1.19
   8  10  21    2.97    1.25
  10  21   8    3.27    1.10
  10   9  21    5.70    1.47
   9  21  10    5.89    1.26
  21  10   9    5.73    1.25
  21   9  10    5.47    1.24
  10  21   9    6.40    1.30
   9  10  21    5.03    1.43
  10  21  10    1.82    1.00
  21  10  10    2.33    1.03
  10  10  21    2.38    1.28
   0  21  11   12.52    1.63
  21   0  11   14.99    1.90
   0  11  21   15.99    1.86
  21  11   0   14.19    1.55
  -1  11  21    0.11    0.78
  21  11   1    1.60    0.74
   1  21  11    1.06    0.77
  21  -1  11   -0.27    0.89
  21   1  11    1.43    0.96
  21  11  -1    1.24    0.63
   1  11  21    0.60    0.92
  -1  21  11    0.49    0.76
  21  11   2   10.04    1.36
   2  21  11    9.71    1.42
  -2  11  21   10.78    1.49
   2  11  21   13.09    1.76
  21   2  11   10.62    1.66
   3  21  11    9.22    1.46
  21  11   3   12.18    1.46
  -3  11  21    9.50    1.41
  21   3  11    8.27    1.50
   3  11  21   10.56    1.64
  21  11   4    5.25    1.06
  11   4  21    6.56    1.60
   4  21  11    4.04    1.07
  -4  11  21    3.59    1.01
   4  11  21    4.09    1.26
  21   4  11    4.62    1.22
  11  21   4    3.77    1.00
   5  21  11    2.45    1.01
  21  11   5    0.75    0.81
  -5  11  21    3.44    0.92
  11   5  21    4.43    1.30
   5  11  21    3.68    1.18
  11  21   5    1.36    0.82
  21   5  11    3.24    1.06
   6  21  11    3.88    1.10
  21  11   6    3.83    1.02
  11   6  21    3.46    1.34
  11  21   6    2.76    0.96
   6  11  21    3.23    1.18
  21   6  11    3.29    1.11
  11   7  21    5.14    1.47
  21  11   7    7.08    1.29
   7  21  11    3.76    1.15
  11  21   7    6.81    1.36
   7  11  21    7.28    1.54
  21   7  11    8.11    1.44
  11   8  21    3.29    1.32
  21  11   8    2.48    1.02
   8  21  11    1.68    0.96
  11  21   8    2.57    1.02
   8  11  21    3.86    1.33
  21   8  11    3.61    1.11
  21  11   9    7.72    1.39
  11   9  21    7.42    1.68
   9  21  11    6.59    1.38
   9  11  21    7.44    1.58
  11  21   9    4.94    1.30
  21   9  11    6.10    1.37
  10  21  11    1.79    1.08
  21  11  10    0.77    0.98
  11  10  21    1.76    1.23
  21  10  11    2.16    1.12
  10  11  21    1.05    1.15
  11  21  10    1.03    0.93
  21  11  11   17.37    2.11
  11  21  11   13.13    1.93
  11  11  21   17.54    2.28
   0  12  21   11.48    1.58
   0  21  12    9.85    1.40
  21  12   0   10.71    1.32
  21   0  12    8.86    1.60
   1  21  12    1.98    0.88
  -1  12  21    0.67    0.89
  21  12   1    1.67    0.75
  21  -1  12    1.20    1.08
  21  12  -1    2.07    0.69
  -1  21  12    2.15    0.86
   1  12  21   -0.31    0.92
  21   1  12    0.66    1.03
  -2  12  21    2.39    0.96
  21  12   2    2.51    0.87
   2  21  12    1.29    0.86
  -2  21  12    2.24    0.90
   2  12  21    4.02    1.14
  21   2  12    4.97    1.24
   3  21  12    1.61    0.90
  -3  12  21    0.82    0.82
  21  12   3    2.15    0.83
  21   3  12    0.74    1.00
   3  12  21    3.33    1.13
   4  21  12   20.78    2.20
  21  12   4   20.84    2.05
  -4  12  21   21.27    2.08
  12   4  21   18.60    2.43
  21   4  12   22.07    2.49
  12  21   4   23.59    2.31
   4  12  21   23.28    2.49
  21  12   5    0.43    0.79
  12   5  21    0.42    1.13
   5  21  12    1.36    0.88
  12  21   5    1.66    0.88
   5  12  21    0.16    1.00
  21   5  12    2.15    1.07
  21  12   6    2.26    0.92
  12   6  21    1.75    1.29
   6  21  12    2.95    1.05
   6  12  21    2.68    1.18
  12  21   6    4.02    1.11
  21   6  12    2.53    1.14
   7  21  12    3.56    1.11
  21  12   7    2.11    0.94
  12   7  21    1.55    1.31
  12  21   7    3.08    1.04
   7  12  21    1.36    1.15
  21   7  12    1.63    1.08
  21  12   8   19.63    2.15
   8  21  12   16.17    2.09
  12   8  21   17.98    2.39
   8  12  21   18.69    2.34
  21   8  12   20.34    2.32
  12  21   8   17.74    2.18
  21  12   9    2.69    1.09
   9  21  12    3.59    1.16
  12   9  21    3.60    1.38
   9  12  21    2.95    1.31
  12  21   9    2.14    1.05
  21   9  12    1.65    1.07
  21  12  10    1.08    1.01
  10  21  12    1.52    1.05
  12  10  21    1.06    1.10
  10  12  21    1.86    1.29
  21  10  12    1.03    1.06
  12  21  10    0.74    1.01
  21  12  11    4.09    1.31
  11  21  12    6.32    1.34
  12  11  21    5.71    1.55
  21  11  12    5.48    1.43
  12  21  11    5.77    1.37
  11  12  21    6.06    1.58
  21  12  12   11.45    1.81
  12  12  21   11.78    1.98
  12  21  12   10.79    1.78
   0  21  13    8.22    1.27
  21   0  13    2.19    1.18
   0  13  21    6.62    1.30
  21  13   0    8.53    1.15
   1  21  13   15.05    1.84
  21  -1  13   14.96    2.13
  -1  13  21   17.28    1.98
  21  13   1   15.43    1.72
   1  13  21   17.01    2.02
  21   1  13   14.19    2.04
  -1  21  13   17.25    1.86
  21  13   2    3.03    0.93
   2  21  13    2.82    0.98
  -2  13  21    1.97    0.95
   2  13  21    2.32    1.06
  -2  21  13    3.31    0.94
  21   2  13    0.37    1.00
  13   3  21    3.72    1.50
   3  21  13    5.10    1.18
  -3  13  21    6.44    1.19
  21  13   3    7.62    1.22
   3  13  21    5.43    1.34
  -3  21  13    7.17    1.15
  21   3  13    5.90    1.41
  21  13   4    2.54    0.90
   4  21  13    1.45    0.91
  -4  13  21    2.85    0.95
  13   4  21    3.61    1.42
  21   4  13    2.02    1.12
  13  21   4    1.81    0.87
   4  13  21    2.82    1.12
   5  21  13    0.77    0.91
  21  13   5    2.05    0.91
  13   5  21    1.33    1.29
  21   5  13    1.75    1.14
  13  21   5    1.98    0.94
   5  13  21    2.57    1.13
   6  21  13    3.84    1.12
  13   6  21    1.98    1.34
  21  13   6    2.15    0.96
   6  13  21    2.04    1.18
  13  21   6    2.30    0.96
  21   6  13    2.26    1.12
  21  13   7    1.97    0.97
   7  21  13    1.83    1.00
  13   7  21    1.09    1.31
  13  21   7    3.03    1.09
   7  13  21    1.63    1.19
  21   7  13    1.06    1.08
  21  13   8    4.97    1.23
   8  21  13    4.71    1.28
  13   8  21    7.35    1.67
  21   8  13    6.20    1.44
  13  21   8    4.33    1.22
   8  13  21    5.03    1.42
   9  21  13    1.59    1.02
  13   9  21    1.38    1.36
  21  13   9    3.61    1.16
  13  21   9    2.66    1.16
   9  13  21    3.14    1.35
  21   9  13    3.40    1.24
  10  21  13    2.51    1.09
  21  13  10    2.61    1.16
  13  10  21    3.55    1.49
  10  13  21    3.44    1.34
  13  21  10    0.96    1.00
  21  10  13    2.84    1.20
  21  13  11    3.82    1.26
  13  11  21    3.08    1.47
  11  21  13    3.52    1.23
  11  13  21    3.37    1.42
  21  11  13    3.40    1.31
  13  21  11    2.23    1.13
  21  13  12    3.47    1.28
  12  21  13    4.57    1.27
  13  12  21    3.40    1.44
  21  12  13    3.66    1.34
  12  13  21    2.29    1.36
  13  21  12    2.80    1.20
  13  13  21    8.07    1.74
  13  21  13    6.51    1.47
  21  13  13    7.41    1.58
   0  21  14   10.90    1.54
   0  14  21   12.62    1.69
  21  14   0    8.83    1.31
  21   0  14   11.78    1.89
   1  21  14    2.42    0.95
  -1  14  21    2.02    0.93
  21  -1  14    2.23    1.27
  21  14   1    1.58    0.80
  -1  21  14    1.44    0.85
  21   1  14    1.29    1.19
   1  14  21    1.39    1.02
   2  21  14    1.86    0.97
  21  14   2    0.36    0.75
  -2  14  21    0.44    0.85
  -2  21  14    2.58    0.89
  21   2  14    1.92    1.16
   2  14  21    0.32    0.94
  14   3  21    1.64    1.40
  -3  14  21    1.40    0.88
  21  14   3    2.40    0.90
   3  21  14    0.86    0.91
   3  14  21    4.12    1.21
  21   3  14    3.32    1.28
  -3  21  14    1.68    0.83
  21  14   4   17.80    1.94
  14   4  21   15.83    2.28
  -4  14  21   16.42    1.85
   4  21  14   12.51    1.86
   4  14  21   21.40    2.29
  14  21   4   13.41    1.87
  21   4  14   16.76    2.19
   5  21  14    6.50    1.27
  21  14   5    3.95    1.09
  14   5  21    3.41    1.42
  14  21   5    5.17    1.21
   5  14  21    4.23    1.34
  21   5  14    2.10    1.18
  21  14   6    2.16    0.98
   6  21  14    2.42    1.09
  14   6  21    3.26    1.40
   6  14  21    1.73    1.18
  14  21   6    1.92    0.96
  21   6  14    0.11    1.07
   7  21  14    7.01    1.41
  21  14   7    6.64    1.31
  14   7  21    8.66    1.85
  21   7  14    4.87    1.43
  14  21   7    6.71    1.36
   7  14  21    8.39    1.58
   8  21  14    5.07    1.31
  21  14   8    6.78    1.33
  14   8  21    6.62    1.69
   8  14  21    7.99    1.64
  21   8  14    6.55    1.51
  14  21   8    6.50    1.40
  21  14   9    4.98    1.26
   9  21  14    3.13    1.14
  14   9  21    1.97    1.40
   9  14  21    3.45    1.40
  21   9  14    3.97    1.31
  14  21   9    3.48    1.22
  10  21  14    2.06    1.15
  14  10  21    2.46    1.39
  21  14  10    1.70    1.07
  21  10  14    1.87    1.21
  10  14  21    0.09    1.15
  14  21  10    2.15    1.08
  11  21  14    4.98    1.42
  14  11  21    2.50    1.38
  21  14  11    4.03    1.33
  11  14  21    1.90    1.35
  21  11  14    2.45    1.29
  14  21  11    2.99    1.21
  21  14  12    1.06    1.10
  12  21  14   -0.78    0.97
  14  12  21    1.08    1.31
  21  12  14    0.94    1.19
  12  14  21    0.65    1.23
  14  21  12    0.24    1.02
  21  14  13    2.88    1.28
  13  21  14    2.21    1.24
  14  13  21    0.54    1.28
  21  13  14    2.29    1.27
  14  21  13    2.06    1.14
  13  14  21    2.04    1.37
  14  21  14    2.52    1.29
  14  14  21    1.61    1.36
  21  14  14    2.00    1.26
  21   0  15   11.41    1.95
   0  21  15   11.69    1.65
   0  15  21   15.15    1.85
   1  21  15   -0.30    0.80
  -1  15  21    0.45    0.87
  21  15   1    0.80    0.76
   1  15  21    0.71    0.97
  -1  21  15   -0.27    0.81
  21   1  15    1.26    1.21
   2  21  15    2.88    1.01
  21  15   2    2.82    0.92
  -2  15  21    2.34    1.05
   2  15  21    1.43    1.05
  21   2  15    1.42    1.19
  -2  21  15    0.70    0.81
   3  21  15    1.50    0.99
  21  15   3    2.24    0.96
  -3  15  21    1.37    0.91
  15   3  21    3.78    1.52
  -3  21  15    3.53    0.97
   3  15  21    4.46    1.25
  21   3  15    2.95    1.30
  21  15   4   10.21    1.52
   4  21  15   10.68    1.63
  15   4  21    8.35    1.84
  -4  21  15   10.78    1.42
  15  21   4   10.77    1.54
   4  15  21    8.42    1.63
  21   4  15    5.66    1.54
  15   5  21    4.38    1.49
   5  21  15    1.59    1.00
  21  15   5    2.53    1.03
  21   5  15    6.36    1.52
  15  21   5    3.48    1.10
   5  15  21    3.93    1.30
  21  15   6    3.82    1.12
   6  21  15    3.52    1.18
  15   6  21    5.65    1.63
  21   6  15    3.99    1.39
  15  21   6    3.77    1.15
   6  15  21    3.87    1.34
  21  15   7    1.63    1.01
  15   7  21    0.96    1.25
   7  21  15    0.23    0.97
  15  21   7   -0.12    0.91
  21   7  15    0.88    1.21
   7  15  21   -0.93    1.06
  15   8  21    1.16    1.31
  21  15   8    3.19    1.14
   8  21  15    1.04    1.07
  15  21   8    2.05    1.08
   8  15  21    1.71    1.25
  21   8  15    0.17    1.15
  21  15   9    5.22    1.30
   9  21  15    2.66    1.21
  15   9  21    5.80    1.68
   9  15  21    3.66    1.43
  21   9  15    5.45    1.50
  15  21   9    2.84    1.15
  21  15  10    4.13    1.26
  10  21  15    2.82    1.26
  15  10  21    3.10    1.49
  21  10  15    2.60    1.32
  10  15  21    2.73    1.35
  15  21  10    2.52    1.18
  11  21  15   -0.01    1.11
  15  11  21    0.18    1.29
  21  15  11    1.29    1.10
  21  11  15   -0.58    1.07
  15  21  11    1.01    1.06
  11  15  21    0.65    1.27
  12  21  15    6.64    1.62
  21  15  12    7.33    1.56
  15  12  21    5.92    1.70
  21  12  15    3.77    1.45
  12  15  21    3.81    1.55
  15  21  12    4.68    1.32
  21  15  13    2.32    1.33
  15  13  21    2.55    1.44
  13  21  15    4.40    1.51
  15  21  13    2.48    1.24
  13  15  21    3.31    1.58
  21  13  15    3.09    1.43
  21  15  14    0.26    1.16
  15  14  21    2.74    1.49
  14  21  15    3.53    1.47
  15  21  14    5.04    1.53
  14  15  21    1.03    1.41
  21  14  15    1.43    1.28
  21  15  15   -0.71    1.17
  15  15  21    0.07    1.31
  15  21  15    1.21    1.28
   0  16  21    0.41    0.97
   0  21  16    2.07    0.96
  21   0  16   -0.86    1.16
  21  16   1    0.67    0.73
   1  21  16    0.25    0.86
  -1  16  21    0.89    0.93
   1  16  21    0.54    0.94
  -1  21  16   -0.11    0.79
  21   1  16    1.40    1.20
   2  21  16   -0.35    0.81
  21  16   2    0.31    0.80
  -2  16  21    0.88    0.90
  16   2  21    0.30    1.35
  -2  21  16    0.25    0.78
  21   2  16   -1.00    1.04
   2  16  21    0.34    0.95
   3  21  16    0.97    0.99
  16   3  21   -1.00    1.15
  21  16   3    0.32    0.84
  -3  16  21    1.43    0.90
  -3  21  16    1.91    0.85
  21   3  16    0.78    1.16
   3  16  21    1.72    1.12
  21  16   4    2.56    1.01
   4  21  16    2.61    1.09
  16   4  21    4.29    1.54
  21   4  16    2.02    1.29
  -4  21  16    5.08    1.05
  16  21   4    1.68    0.95
   4  16  21    3.70    1.27
   5  21  16    1.36    0.95
  16   5  21   -0.43    1.19
  21  16   5    1.58    0.99
   5  16  21    0.15    1.03
  16  21   5    1.35    0.91
  21   5  16    0.68    1.22
  16   6  21    2.46    1.41
  21  16   6    0.15    0.90
   6  21  16    1.65    1.05
  21   6  16    1.75    1.30
   6  16  21    1.12    1.14
  16  21   6    0.83    0.96
  21  16   7    3.23    1.10
   7  21  16    1.27    1.16
  16   7  21    0.89    1.30
   7  16  21    2.55    1.23
  16  21   7    1.27    1.01
  21   7  16    1.22    1.21
   8  21  16   10.41    1.85
  21  16   8   10.55    1.70
  16   8  21   12.49    2.13
   8  16  21   12.10    1.96
  16  21   8   10.10    1.68
  21   8  16   11.10    1.95
  16   9  21    2.93    1.54
  21  16   9    3.66    1.17
   9  21  16    1.69    1.23
   9  16  21    2.24    1.34
  21   9  16    3.05    1.38
  16  21   9    2.13    1.16
  21  16  10   -0.35    0.96
  16  10  21   -0.29    1.27
  10  21  16    0.38    1.15
  16  21  10    0.59    1.04
  21  10  16    2.38    1.26
  10  16  21   -0.20    1.23
  11  21  16    3.23    1.33
  16  11  21    2.79    1.56
  21  16  11    3.89    1.34
  21  11  16    3.44    1.49
  11  16  21    5.06    1.52
  16  21  11    3.64    1.29
  12  21  16    2.21    1.31
  16  12  21    0.09    1.34
  21  16  12    1.20    1.17
  16  21  12    1.31    1.16
  21  12  16    0.67    1.24
  12  16  21   -0.54    1.29
  16  13  21    2.44    1.56
  21  16  13    6.86    1.57
  13  21  16    5.33    1.58
  21  13  16    2.66    1.45
  16  21  13    2.38    1.22
  13  16  21    5.87    1.68
  16  14  21    1.02    1.39
  21  16  14    0.71    1.20
  14  21  16    2.43    1.34
  16  21  14    1.13    1.16
  21  14  16    0.46    1.29
  14  16  21   -0.35    1.26
  21   0  17    1.30    1.31
   0  21  17    0.07    0.91
   0  17  21   -0.25    0.95
  -1  17  21    6.13    1.28
   1  21  17    3.18    1.11
  -1  21  17    3.87    1.15
   1  17  21    5.80    1.37
  21   1  17    8.29    1.72
   2  21  17    6.80    1.40
  17   2  21    5.32    1.64
  -2  17  21    5.65    1.26
  21  17   2    5.65    1.18
  21   2  17    4.00    1.50
  -2  21  17    6.69    1.31
   2  17  21    6.12    1.44
  -3  17  21    2.70    1.10
  17   3  21    6.48    1.74
   3  21  17    3.65    1.13
  21  17   3    2.14    0.97
  21   3  17    4.45    1.54
  -3  21  17    3.69    1.01
   3  17  21    2.95    1.26
  17   4  21    2.06    1.46
   4  21  17    3.42    1.18
  21  17   4    5.36    1.18
   4  17  21    4.37    1.28
  21   4  17    1.61    1.34
  17  21   4    2.71    1.03
  -4  21  17    3.66    1.01
   5  21  17    0.87    1.06
  17   5  21    0.62    1.28
  21  17   5    0.37    0.93
  21   5  17    1.32    1.35
   5  17  21    1.26    1.09
  17  21   5    1.92    1.02
  17   6  21    3.10    1.54
  21  17   6    2.91    1.14
   6  21  17    4.58    1.35
  21   6  17    2.67    1.43
  17  21   6    4.03    1.15
   6  17  21    1.91    1.21
  21  17   7    4.15    1.27
   7  21  17    4.73    1.42
  17   7  21    5.01    1.71
   7  17  21    4.93    1.45
  17  21   7    3.68    1.24
  21   7  17    5.10    1.57
  17   8  21    1.98    1.41
   8  21  17    1.42    1.17
  21  17   8    2.34    1.07
  17  21   8    0.38    1.03
  21   8  17    2.88    1.37
   8  17  21    1.29    1.20
  17   9  21    1.25    1.44
  21  17   9    4.11    1.27
   9  21  17    1.24    1.24
  21   9  17    2.99    1.43
   9  17  21    1.86    1.34
  17  21   9    2.17    1.19
  17  10  21    3.56    1.60
  10  21  17    0.85    1.19
  21  17  10   -0.30    1.03
  10  17  21    1.48    1.30
  17  21  10    1.19    1.09
  21  10  17    0.52    1.26
  11  21  17    0.18    1.18
  21  17  11    1.68    1.20
  17  11  21    1.04    1.39
  21  11  17    1.12    1.36
  17  21  11    0.86    1.08
  11  17  21   -0.74    1.19
  17  12  21   10.41    2.08
  21  17  12    9.64    1.79
  12  21  17    9.26    1.90
  21  12  17    7.43    1.80
  12  17  21   11.50    2.04
  17  21  12    6.05    1.61
  21  17  13    4.02    1.49
  17  13  21    4.29    1.73
  13  21  17    7.71    1.80
  13  17  21    3.88    1.62
  21  13  17    3.88    1.60
  17  21  13    4.42    1.38
   0  21  18    8.75    1.42
   0  18  21    4.16    1.17
  21   0  18    1.60    1.44
   1  21  18    4.66    1.31
  18   1  21    7.25    1.88
  -1  18  21    5.36    1.28
  21  -1  18    7.34    1.82
  21   1  18    4.92    1.62
  -1  21  18    4.78    1.25
   1  18  21    5.20    1.34
   2  21  18   -0.16    0.88
  18   2  21    1.16    1.37
  -2  18  21   -0.24    0.88
  -2  21  18    0.42    0.90
  21   2  18    0.01    1.21
   2  18  21   -0.05    0.97
   3  21  18    2.27    1.11
  21  18   3    2.15    1.01
  18   3  21    3.71    1.51
  -3  21  18    2.88    1.05
   3  18  21    4.23    1.31
  21   3  18    4.58    1.56
   4  21  18    2.17    1.11
  18   4  21    1.37    1.36
  21  18   4    1.33    0.96
  21   4  18    2.27    1.43
   4  18  21    3.01    1.28
  18  21   4    1.61    0.95
   5  21  18    6.75    1.52
  18   5  21    4.86    1.71
  21  18   5    8.11    1.43
   5  18  21    5.03    1.46
  21   5  18    6.43    1.73
  18  21   5    5.99    1.33
   6  21  18    2.37    1.26
  18   6  21   -0.19    1.36
  21  18   6    2.60    1.08
  21   6  18    2.45    1.48
  18  21   6    1.89    1.07
   6  18  21    1.75    1.20
   7  21  18    7.29    1.66
  18   7  21    8.18    1.91
  21  18   7    7.97    1.52
  21   7  18    6.12    1.71
   7  18  21    5.91    1.56
  18  21   7    5.62    1.36
  21  18   8    7.19    1.47
  18   8  21    3.71    1.67
   8  21  18    6.90    1.61
  21   8  18    2.41    1.47
   8  18  21    4.16    1.47
  18  21   8    6.44    1.46
   9  21  18    1.64    1.28
  21  18   9   -0.80    0.96
  18   9  21    2.77    1.52
   9  18  21    0.75    1.31
  18  21   9    1.75    1.16
  21   9  18    1.33    1.33
  21  18  10    3.27    1.28
  18  10  21    3.12    1.64
  10  21  18    3.28    1.39
  18  21  10    3.14    1.25
  10  18  21    4.93    1.61
  21  10  18    3.04    1.51
  18  11  21    4.50    1.68
  21  18  11    4.22    1.43
  11  21  18    3.71    1.47
  11  18  21    5.09    1.62
  21  11  18    1.74    1.52
  18  21  11    2.97    1.31
  21   0  19   -0.73    1.31
   0  21  19    0.88    0.98
   0  19  21    1.61    1.08
  19   0  21    1.30    1.49
   1  21  19    5.13    1.32
  19   1  21    8.80    1.96
  21  -1  19    6.05    1.87
  -1  19  21    4.72    1.26
  -1  21  19    5.57    1.32
  21   1  19    5.34    1.69
   1  19  21    6.17    1.43
  19   2  21    6.17    1.72
   2  21  19    4.58    1.26
  -2  19  21    5.74    1.26
  21   2  19    3.12    1.55
   2  19  21    3.16    1.27
  -2  21  19    4.94    1.20
  21  19   3    2.38    1.00
   3  21  19    2.54    1.17
  19   3  21    2.28    1.46
  21   3  19    2.25    1.48
   3  19  21    2.37    1.25
   4  21  19   -0.18    1.11
  21  19   4   -0.10    0.88
  19   4  21    0.70    1.39
  21   4  19    0.75    1.34
   4  19  21    0.06    1.08
   5  21  19    1.58    1.19
  21  19   5    1.77    1.03
  19   5  21    0.68    1.41
  19  21   5   -0.17    0.89
  21   5  19    0.77    1.43
   5  19  21    0.63    1.17
  19   6  21    0.64    1.40
  21  19   6   -0.14    0.95
   6  21  19    0.14    1.14
  19  21   6    1.57    1.01
  21   6  19    0.93    1.46
   6  19  21   -0.12    1.09
  19   7  21    3.44    1.65
  21  19   7    3.38    1.21
   7  21  19    4.97    1.45
  21   7  19    2.49    1.54
   7  19  21    3.64    1.40
  19  21   7    4.19    1.26
  21  19   8    6.40    1.50
  19   8  21    8.65    1.97
   8  21  19    7.32    1.72
   8  19  21    7.68    1.74
  19  21   8    6.81    1.57
  21   8  19    6.88    1.87
  21  19   9   -0.42    1.04
  19   9  21    3.10    1.52
   9  21  19    2.28    1.39
  19  21   9    1.58    1.15
  21   9  19    0.83    1.47
   9  19  21    3.25    1.42
  10  21  19    1.77    1.33
  21  19  10   -0.66    1.05
  19  10  21    1.17    1.44
  19  21  10   -0.26    1.07
  10  19  21   -0.32    1.23
  21  10  19    0.16    1.40
   0  20  21   -0.50    0.97
  21   0  20   -0.34    1.36
   0  21  20    0.04    0.92
  20   0  21    2.72    1.59
  21  -1  20   -0.06    1.47
  -1  20  21    0.76    1.01
   1  21  20   -0.68    0.87
  20   1  21    1.34    1.46
   1  20  21    0.04    0.97
  -1  21  20   -0.10    0.95
  21   1  20   -1.71    1.27
   2  21  20    1.02    1.07
  20   2  21    2.04    1.51
   2  20  21    1.08    1.12
  -2  21  20    1.30    1.06
  21   2  20    1.15    1.41
   3  21  20   -0.36    1.07
  20   3  21    1.30    1.42
  21   3  20    0.80    1.43
   3  20  21   -0.57    1.04
   4  21  20   12.81    1.95
  21  20   4    8.89    1.61
  20   4  21   12.76    2.25
  21   4  20   11.20    2.17
   4  20  21   10.65    1.85
  20   5  21    1.48    1.51
   5  21  20    0.21    1.14
  21  20   5   -0.48    0.98
  21   5  20    1.36    1.47
   5  20  21   -0.93    1.08
  20  21   5    0.56    0.97
   6  21  20    3.10    1.34
  20   6  21    1.25    1.48
  21  20   6    1.20    1.08
  20  21   6    1.00    1.00
  21   6  20    0.86    1.43
   6  20  21    1.89    1.32
   7  21  20    1.67    1.26
  21  20   7   -0.64    1.00
  20   7  21    1.34    1.52
   7  20  21   -0.23    1.19
  20  21   7    0.85    1.04
  21   7  20    0.80    1.44
   8  21  20   10.70    1.98
  20   8  21    9.49    2.09
  21  20   8   12.90    1.89
  20  21   8   12.46    1.90
  21   8  20    9.11    2.09
   8  20  21   11.62    2.00
   0  21  21    2.39    1.16
  21   0  21    1.95    1.51
  -1  21  21    1.75    1.11
   1  21  21    1.39    1.11
  21  -1  21    3.85    1.78
  21   1  21    5.31    1.71
   2  21  21    1.35    1.14
  21   2  21    0.64    1.44
   3  21  21    5.74    1.53
  21   3  21    7.13    1.94
   4  21  21    0.64    1.18
  21   4  21    1.28    1.55
  21  21   5    0.74    0.98
  22   2   3   27.03    2.26
  22   3   3    0.76    0.60
  22   0   4   11.38    1.34
  22  -1   4    5.15    1.37
  22   1   4    6.31    1.01
  22   4   2    7.06    1.11
  -2   4  22    5.48    1.24
  22   2   4    8.76    1.18
  22   4   3    4.73    0.86
  -3   4  22    2.00    0.94
  22   3   4    4.66    0.89
  22   4   4    4.42    0.89
  -4   4  22    3.16    0.98
  22   0   5    6.01    1.01
   0   5  22    3.99    1.16
  22  -1   5   14.71    1.67
  -1   5  22   18.18    1.98
   1   5  22   14.06    1.87
  22   1   5   15.12    1.62
  -2   5  22    2.19    0.91
  22  -2   5    1.79    0.76
  22   5   2    1.73    0.65
   2   5  22    1.37    1.01
  22   2   5    1.05    0.69
  22   5   3    1.19    0.63
  22  -3   5   -0.30    0.66
  -3   5  22    0.17    0.79
  22   3   5    1.48    0.70
   3   5  22    0.88    1.04
  22   5   4   12.63    1.51
  -4   5  22   16.22    1.78
   4   5  22   11.59    1.77
  22   4   5   12.35    1.47
  -5   4  22   12.48    1.56
  22   5   5    1.48    0.77
  -5   5  22    0.83    0.80
   5   5  22    1.47    1.07
   0   6  22    2.21    0.96
  22   0   6    0.90    0.74
  -1   6  22    8.59    1.41
  22  -1   6    9.39    1.28
   1   6  22    8.21    1.46
  22   1   6    8.97    1.25
  22  -2   6    1.36    0.78
  22   6   2    1.39    0.64
  -2   6  22    1.22    0.82
  22   2   6    1.21    0.74
   2   6  22    1.08    0.97
  22   6   3    8.17    1.17
  22  -3   6    7.60    1.21
  -3   6  22    7.59    1.28
  22   3   6    7.77    1.17
  -6   3  22    7.55    1.23
   3   6  22    5.87    1.38
  -4   6  22    6.64    1.22
  22  -4   6    7.97    1.27
  22   6   4    7.94    1.15
   4   6  22    6.09    1.42
  -6   4  22    6.92    1.14
  22   4   6    5.70    1.07
   6   5  22    1.34    1.10
  -5   6  22    1.13    0.80
  22   6   5    0.92    0.70
  22   5   6    1.40    0.77
  -6   5  22    1.47    0.82
   5   6  22    1.46    1.09
   6   6  22    3.99    1.27
  22   6   6    3.84    0.98
  22   0   7   17.27    1.91
   0   7  22   20.21    2.17
  -1   7  22    1.00    0.89
  22  -1   7    0.31    0.73
  22   7   1    0.67    0.60
  22   1   7    0.49    0.75
   1   7  22   -0.24    0.83
  -2   7  22   19.07    2.06
  22  -2   7   18.33    1.96
  22   7   2   17.88    1.73
   2   7  22   14.34    1.91
  22   2   7   17.03    1.78
  -3   7  22   13.19    1.64
  22   7   3   11.44    1.39
  22  -3   7   11.59    1.54
   3   7  22   10.26    1.58
  22   3   7    9.16    1.35
  -4   7  22    1.13    0.80
  22   7   4    0.92    0.72
   4   7  22    1.53    1.01
  22   4   7    1.22    0.80
  22   7   5   10.38    1.40
  -5   7  22   11.52    1.48
   7   5  22    8.34    1.72
   5  22   7   11.75    1.52
   5   7  22    8.11    1.55
  22   5   7    9.22    1.34
   7   6  22    1.60    1.16
   6  22   7    1.15    0.88
  22   7   6    2.37    0.84
  22   6   7    3.78    0.99
   6   7  22    0.88    1.05
   7  22   6    2.75    0.92
   7   7  22   -0.91    0.99
   7  22   7    0.20    0.78
  22   7   7   -0.21    0.74
  22   0   8   -0.41    0.73
   0   8  22    0.36    0.87
  22   8   1    8.38    1.16
  22  -1   8    9.08    1.40
  -1   8  22   10.72    1.51
   1   8  22   10.35    1.56
  22   1   8    9.02    1.38
  22   8   2   11.78    1.33
  22  -2   8    8.39    1.38
  -2   8  22    8.91    1.44
  22   2   8    9.52    1.40
   2   8  22   10.14    1.61
  22  -3   8    4.03    1.16
  22   8   3    5.38    1.00
   3  22   8    5.96    1.10
  -3   8  22    4.36    1.08
   3   8  22    2.10    1.12
  22   3   8    4.97    1.08
  22   8   4    9.89    1.32
   4  22   8    8.51    1.39
  -4   8  22    9.49    1.37
   4   8  22    6.25    1.41
  22   4   8    8.69    1.36
  -5   8  22    1.27    0.83
   5  22   8    2.53    0.94
  22   8   5    1.46    0.80
   8   5  22    3.04    1.31
   5   8  22    1.55    1.05
  22   5   8    1.07    0.85
  22   8   6    3.37    0.95
   8   6  22    1.99    1.20
   6  22   8    2.68    0.94
   8  22   6    2.59    0.97
  22   6   8    3.87    1.03
   6   8  22    0.84    1.09
   8   7  22    0.44    1.05
  22   8   7   -0.50    0.75
   7  22   8   -0.27    0.75
   7   8  22    0.36    1.07
  22   7   8    0.70    0.85
   8  22   7    0.02    0.77
   8  22   8    3.35    1.04
  22   8   8    3.66    1.07
   8   8  22    0.65    1.13
  22   9   0   -0.02    0.65
   0   9  22   -0.19    0.83
  22   0   9    0.74    0.85
  22   9   1    0.90    0.68
  22  -1   9    0.02    0.83
  -1   9  22    0.38    0.87
   1   9  22   -0.38    0.92
  22   1   9    0.15    0.76
  22  -2   9    2.63    1.01
  22   9   2    3.32    0.87
   2  22   9    2.84    0.91
  -2   9  22    3.75    1.05
   2   9  22    2.21    1.10
  22   2   9    2.95    1.01
   3  22   9    1.42    0.84
  -3   9  22    1.21    0.84
  22   9   3    0.71    0.74
  22   3   9    0.52    0.85
   3   9  22    0.21    0.92
  22   9   4    1.56    0.78
   9   4  22    2.80    1.38
   4  22   9    1.71    0.89
  -4   9  22    1.85    0.86
   4   9  22    1.73    1.05
  22   4   9    1.06    0.89
   5  22   9    0.65    0.81
  -5   9  22    1.72    0.94
  22   9   5    1.43    0.83
   9   5  22    1.37    1.15
   5   9  22    0.95    1.06
  22   5   9    0.77    0.82
   9   6  22    6.81    1.59
  22   9   6    7.57    1.27
   6  22   9    8.34    1.36
   6   9  22    7.58    1.56
  22   6   9    8.48    1.41
   9  22   6    7.78    1.35
  22   9   7    8.46    1.34
   9   7  22    6.88    1.54
   7  22   9    6.58    1.29
  22   7   9    3.48    1.11
   7   9  22    4.85    1.36
   9  22   7    5.35    1.20
   9   8  22    3.47    1.39
  22   9   8    2.95    1.02
   8  22   9    1.72    0.95
   9  22   8    1.61    0.93
   8   9  22    1.73    1.26
  22   8   9    3.56    1.11
  22   9   9    2.61    1.07
   9  22   9    3.29    1.11
   9   9  22    1.65    1.22
   0  10  22    2.18    1.01
  22  10   0    3.28    0.77
  22   0  10    0.85    0.94
  -1  10  22    1.43    0.96
   1  22  10    2.92    0.90
  22  -1  10    0.01    0.86
  22  10   1    2.47    0.82
  22   1  10    0.59    0.90
   1  10  22    1.09    1.00
  22  -2  10    1.35    1.01
  22  10   2    2.21    0.79
  -2  10  22    1.81    0.93
   2  22  10    1.30    0.86
  22   2  10    1.45    0.96
   2  10  22    0.38    0.92
  -3  10  22    3.14    1.00
   3  22  10    3.12    0.97
  22  10   3    3.63    0.90
   3  10  22    5.48    1.29
  22   3  10    3.56    1.11
   4  22  10    0.31    0.76
  22  10   4    0.47    0.74
  10   4  22    0.46    1.18
  -4  10  22    1.17    0.83
  22   4  10    0.47    0.93
   4  10  22    2.15    1.08
  22  10   5    0.97    0.82
   5  22  10    0.25    0.78
  10   5  22    2.33    1.28
  22   5  10    2.44    1.02
  10  22   5    1.23    0.84
   5  10  22    1.72    1.09
  10   6  22    2.86    1.28
   6  22  10    1.34    0.94
  22  10   6    0.98    0.86
  22   6  10    2.25    1.00
  10  22   6    0.90    0.90
   6  10  22    2.59    1.19
  22  10   7    1.53    0.92
   7  22  10    2.17    1.04
  10   7  22    2.10    1.24
   7  10  22    2.47    1.25
  22   7  10    1.70    1.02
  10  22   7    1.02    0.88
   8  22  10    9.32    1.59
  22  10   8    9.95    1.52
  10   8  22   11.56    2.01
  22   8  10    8.09    1.46
   8  10  22    7.62    1.59
  10  22   8    6.48    1.32
  22  10   9   13.68    1.79
   9  22  10    9.82    1.62
  10   9  22   11.49    1.90
   9  10  22   11.60    1.96
  10  22   9    9.84    1.61
  22   9  10   10.75    1.65
  10  22  10   -0.24    0.89
  10  10  22   -0.12    1.13
  22  10  10    0.40    0.96
   0  22  11   -0.18    0.76
  22   0  11    0.55    0.97
   0  11  22    0.01    0.90
  22  11   0   -0.37    0.57
  -1  11  22    8.24    1.36
  22  -1  11    6.58    1.38
   1  22  11    5.83    1.21
  22  11   1    6.51    1.09
   1  11  22    6.92    1.41
  22   1  11    9.72    1.55
  -2  11  22    7.19    1.35
  22  11   2    8.29    1.26
   2  22  11   10.87    1.44
  22  -2  11    8.54    1.58
   2  11  22    9.90    1.60
  22   2  11    8.03    1.49
  22  11   3    8.66    1.29
   3  22  11    8.19    1.38
  -3  11  22   10.84    1.46
  22   3  11   11.86    1.76
   3  11  22   12.26    1.82
  11   4  22    8.48    1.81
  22  11   4    8.99    1.37
  -4  11  22   10.78    1.47
   4  22  11    9.53    1.48
   4  11  22   11.65    1.79
  22   4  11   11.38    1.69
   5  22  11    6.37    1.32
  11   5  22    5.56    1.59
  22  11   5    6.34    1.20
  11  22   5    8.04    1.34
   5  11  22    7.99    1.60
  22   5  11    9.11    1.55
   6  22  11    1.95    1.01
  22  11   6    2.20    0.96
  11   6  22    1.60    1.29
   6  11  22    2.16    1.15
  22   6  11    1.56    1.02
  11  22   6    2.68    1.06
  11   7  22    6.94    1.67
   7  22  11    6.83    1.33
  22  11   7    6.91    1.31
  11  22   7   10.15    1.48
  22   7  11    6.93    1.44
   7  11  22    5.86    1.51
   8  22  11    9.29    1.57
  22  11   8   11.20    1.61
  11   8  22   10.49    1.90
  22   8  11   11.78    1.76
  11  22   8   10.47    1.60
   8  11  22   14.02    2.06
  22  11   9    5.10    1.18
  11   9  22    2.17    1.29
   9  22  11    3.01    1.14
   9  11  22    1.39    1.21
  22   9  11    2.15    1.10
  11  22   9    1.84    1.04
  22  11  10    1.01    0.99
  10  22  11    1.12    1.04
  11  10  22    0.87    1.16
  11  22  10    1.09    0.96
  10  11  22    1.22    1.25
  22  10  11    1.52    1.09
  22  11  11    5.26    1.31
  11  22  11    5.36    1.34
  11  11  22    3.66    1.47
  22  12   0    2.08    0.78
  22   0  12    0.95    1.09
   0  22  12    2.12    0.92
   0  12  22    1.88    0.99
  -1  12  22    4.32    1.11
   1  22  12    5.10    1.11
  22  -1  12    3.28    1.24
  22  12   1    3.79    0.93
  22   1  12    3.16    1.22
  -1  22  12    6.14    1.14
   1  12  22    5.22    1.24
  22  -2  12    0.10    1.08
  22  12   2    0.55    0.74
   2  22  12    0.63    0.84
  -2  12  22    0.68    0.88
  22   2  12    0.61    1.01
   2  12  22    0.00    0.95
  22  12   3   13.39    1.73
   3  22  12   15.85    1.93
  -3  12  22   17.19    1.93
  22   3  12   11.86    1.86
   3  12  22   16.29    2.02
  -4  12  22    3.11    1.01
  12   4  22    0.95    1.30
  22  12   4    3.82    1.00
   4  22  12    2.12    1.04
  22   4  12    3.98    1.25
   4  12  22    2.46    1.16
   5  22  12    0.93    0.96
  22  12   5    0.59    0.82
  12   5  22    0.03    1.22
  22   5  12    0.01    0.99
  12  22   5    0.75    0.86
   5  12  22    1.04    1.13
   6  22  12    1.54    0.96
  22  12   6    1.42    0.92
  12   6  22    0.43    1.24
  22   6  12    0.59    0.94
   6  12  22    1.18    1.17
  12  22   6    1.10    0.93
   7  22  12   10.27    1.62
  12   7  22    8.37    1.83
  22  12   7    8.94    1.46
  22   7  12    9.27    1.65
   7  12  22    6.86    1.63
  12  22   7    9.27    1.53
   8  22  12    7.08    1.48
  12   8  22    8.79    1.78
  22  12   8    7.43    1.42
   8  12  22    8.95    1.68
  22   8  12    6.88    1.46
  12  22   8    5.62    1.35
  22  12   9    7.35    1.40
   9  22  12    3.69    1.21
  12   9  22    6.68    1.69
   9  12  22    7.73    1.64
  22   9  12    5.14    1.37
  12  22   9    4.38    1.28
  10  22  12    0.99    1.00
  12  10  22    0.42    1.26
  22  12  10    0.19    0.94
  10  12  22   -0.24    1.15
  12  22  10    0.61    0.99
  22  10  12    0.06    1.04
  22  12  11    2.59    1.18
  12  11  22    3.87    1.45
  11  22  12    2.38    1.14
  12  22  11    2.54    1.18
  11  12  22    2.99    1.41
  22  11  12    3.63    1.29
  12  12  22    1.05    1.26
  12  22  12    0.57    1.04
  22  12  12    1.07    1.09
  22  13   0    3.93    0.93
   0  22  13    3.17    0.96
   0  13  22    2.34    1.04
  22   0  13    2.12    1.17
  22  13   1    1.74    0.79
  -1  13  22    2.61    1.05
  22  -1  13   -0.47    0.99
   1  22  13    1.97    0.94
  -1  22  13   -0.85    0.70
   1  13  22   -0.96    0.91
  22   1  13    0.09    1.09
  22  13   2    1.22    0.81
  -2  13  22    0.69    0.91
   2  22  13    1.06    0.94
  22   2  13    0.74    1.06
  -2  22  13    0.51    0.76
   2  13  22    1.06    1.01
  22  13   3    0.89    0.83
  -3  13  22    0.42    0.86
   3  22  13    0.16    0.86
  13   3  22    1.19    1.37
   3  13  22    0.00    0.96
  22   3  13    1.21    1.08
   4  22  13    1.88    1.02
  22  13   4    1.25    0.88
  13   4  22   -0.12    1.14
   4  13  22    2.41    1.15
  22   4  13    1.62    1.11
   5  22  13    5.21    1.23
  22  13   5    1.92    0.93
  13   5  22    1.91    1.32
  22   5  13    2.13    1.19
   5  13  22    1.19    1.08
  13  22   5    2.29    0.95
  13   6  22   -0.29    1.21
   6  22  13    2.27    1.10
  22  13   6    2.66    1.01
  13  22   6    2.78    1.06
  22   6  13    2.63    1.21
   6  13  22    1.03    1.15
   7  22  13    1.19    0.98
  13   7  22    0.57    1.29
  22  13   7    1.73    0.95
  22   7  13    0.39    1.04
  13  22   7    0.58    0.88
   7  13  22    1.44    1.23
  13   8  22   -0.02    1.21
   8  22  13    1.12    1.00
  22  13   8    0.45    0.95
   8  13  22    0.53    1.19
  22   8  13    0.97    1.10
  13  22   8    0.62    0.91
   9  22  13    5.54    1.39
  22  13   9    7.01    1.41
  13   9  22    6.94    1.75
  22   9  13    6.60    1.52
  13  22   9    5.12    1.33
   9  13  22    3.80    1.45
  22  13  10   27.60    2.80
  10  22  13   22.85    2.72
  13  10  22   28.63    3.15
  10  13  22   28.45    3.05
  22  10  13   28.54    2.91
  13  22  10   21.98    2.65
  22  13  11   -0.17    1.00
  11  22  13   -0.90    0.98
  13  11  22   -0.30    1.28
  11  13  22    0.82    1.27
  13  22  11   -0.88    0.99
  22  11  13   -0.21    1.06
  12  22  13    2.35    1.20
  13  12  22    2.19    1.40
  22  13  12    4.41    1.34
  12  13  22    3.50    1.47
  22  12  13    3.30    1.29
  13  22  12    2.99    1.26
  13  22  13   -0.08    1.00
  13  13  22    0.63    1.28
  22  13  13   -0.41    1.05
   0  14  22    2.46    1.09
   0  22  14    2.26    0.95
  22   0  14    2.54    1.27
   1  22  14    1.84    0.94
  22  -1  14    3.00    1.27
  22  14   1    1.24    0.79
  -1  14  22    1.72    1.01
  22   1  14    1.68    1.19
   1  14  22    1.82    1.09
  -1  22  14    1.51    0.88
   2  22  14    3.92    1.14
  22  14   2    3.87    0.99
  -2  14  22    2.26    1.04
  -2  22  14    2.94    0.99
   2  14  22    3.65    1.24
  22   2  14    3.16    1.28
  14   3  22    1.61    1.36
  -3  14  22    1.27    0.90
   3  22  14    1.23    1.01
  22  14   3    0.44    0.80
  22   3  14    0.00    1.04
   3  14  22    0.52    0.99
  14   4  22    3.00    1.48
  22  14   4    4.42    1.10
   4  22  14    3.88    1.19
  22   4  14    2.08    1.20
   4  14  22    2.10    1.15
   5  22  14    0.90    0.98
  22  14   5    2.54    1.00
  14   5  22    1.04    1.29
  22   5  14    0.44    1.12
   5  14  22    1.22    1.13
  14  22   5    1.69    0.93
  22  14   6    2.64    1.03
   6  22  14    1.39    1.03
  14   6  22    1.43    1.34
  22   6  14    1.39    1.18
  14  22   6    2.08    1.01
   6  14  22    1.56    1.21
  22  14   7    5.55    1.25
   7  22  14    5.82    1.35
  14   7  22    7.09    1.82
   7  14  22    6.77    1.60
  14  22   7    4.19    1.18
  22   7  14    7.14    1.59
   8  22  14    1.95    1.11
  14   8  22   -0.17    1.23
  22  14   8    0.25    0.92
  14  22   8    1.20    1.01
   8  14  22   -0.91    1.12
  22   8  14    1.72    1.19
  14   9  22   12.19    2.09
  22  14   9   10.37    1.70
   9  22  14   10.44    1.76
  22   9  14   10.51    1.82
   9  14  22   11.91    1.97
  14  22   9   10.03    1.70
  10  22  14    2.01    1.16
  14  10  22    1.23    1.39
  22  14  10    4.01    1.29
  22  10  14    3.17    1.34
  14  22  10    2.73    1.20
  10  14  22    1.80    1.34
  11  22  14   -1.13    0.98
  14  11  22    0.67    1.28
  22  14  11    0.52    1.07
  11  14  22    1.07    1.27
  14  22  11    0.87    1.02
  22  11  14    0.92    1.14
  12  22  14    2.15    1.15
  22  14  12    0.63    1.14
  14  12  22    2.08    1.50
  12  14  22    1.12    1.32
  14  22  12    3.30    1.27
  22  12  14   -0.07    1.13
  13  22  14    4.23    1.34
  22  14  13    6.03    1.54
  14  13  22    4.71    1.66
  22  13  14    2.74    1.31
  14  22  13    0.99    1.13
  13  14  22    3.79    1.61
  14  22  14   10.14    1.81
  22  14  14    9.49    1.79
  14  14  22    7.14    1.88
   0  22  15   -0.03    0.83
  22   0  15    1.61    1.26
   0  15  22   -0.51    0.95
   1  22  15   10.68    1.65
  -1  15  22   11.12    1.62
  22  -1  15   10.93    1.96
  22  15   1    9.73    1.44
   1  15  22    8.67    1.54
  -1  22  15    8.37    1.41
  22   1  15    8.61    1.74
   2  22  15    3.20    1.11
  22  15   2    4.89    1.08
  -2  15  22    6.04    1.26
  15   2  22    4.42    1.64
   2  15  22    5.35    1.31
  -2  22  15    3.02    1.00
  22   2  15    4.79    1.42
  15   3  22    0.97    1.36
  -3  15  22    2.11    1.03
  22  15   3    2.74    1.01
   3  22  15    3.69    1.15
  -3  22  15    3.12    0.98
  22   3  15    3.06    1.32
   3  15  22    2.61    1.23
  15   4  22    1.70    1.47
   4  22  15    2.10    1.03
  22  15   4    1.95    0.94
  22   4  15    2.47    1.29
   4  15  22    3.12    1.31
  22  15   5    9.00    1.45
   5  22  15    4.67    1.32
  15   5  22    6.18    1.71
  22   5  15    7.11    1.66
  15  22   5    7.88    1.45
   5  15  22    8.78    1.67
  22  15   6    2.33    1.06
   6  22  15    2.66    1.18
  15   6  22    2.78    1.50
  22   6  15    3.08    1.36
  15  22   6    2.80    1.09
   6  15  22    3.87    1.36
   7  22  15    2.59    1.13
  22  15   7    2.34    1.09
  15   7  22   -0.82    1.25
   7  15  22    2.13    1.28
  22   7  15    0.99    1.16
  15  22   7    2.41    1.10
  15   8  22    2.30    1.48
  22  15   8    1.76    1.06
   8  22  15    1.01    1.09
  15  22   8    1.07    1.00
  22   8  15    1.30    1.24
   8  15  22    0.16    1.20
  15   9  22    5.97    1.75
   9  22  15    7.33    1.55
  22  15   9    8.20    1.54
  22   9  15    5.81    1.50
   9  15  22    3.23    1.47
  15  22   9    6.41    1.44
  10  22  15    1.20    1.11
  15  10  22   -0.33    1.27
  22  15  10   -0.20    0.98
  22  10  15    1.50    1.29
  15  22  10    0.55    1.04
  10  15  22    0.62    1.28
  11  22  15    0.12    1.07
  15  11  22    2.54    1.50
  22  15  11    1.65    1.17
  15  22  11    1.95    1.15
  22  11  15    0.82    1.22
  11  15  22    0.29    1.26
  12  22  15   -0.11    1.06
  22  15  12   -1.25    1.00
  15  12  22    0.16    1.32
  15  22  12    0.24    1.07
  22  12  15    0.80    1.25
  12  15  22    0.33    1.31
  22  15  13    0.44    1.16
  15  13  22    0.86    1.40
  13  22  15    0.82    1.10
  22  13  15    1.80    1.29
  13  15  22    1.17    1.50
  15  22  13    0.55    1.16
  15  14  22    6.46    1.81
  14  22  15    7.40    1.60
  22  15  14    2.56    1.45
  14  15  22    5.33    1.71
  15  22  14    4.69    1.50
  22  14  15    4.73    1.56
   0  22  16   15.18    1.93
  22   0  16   17.20    2.38
   0  16  22   15.77    2.03
  22  -1  16    4.70    1.54
   1  22  16    5.93    1.32
  -1  16  22    4.70    1.25
   1  16  22    4.42    1.28
  -1  22  16    6.47    1.26
  22   1  16    3.07    1.37
  22  16   2    1.37    0.80
   2  22  16    0.38    0.94
  16   2  22   -1.12    1.31
  -2  16  22   -0.65    0.85
  -2  22  16   -1.02    0.76
  22   2  16    0.79    1.27
   2  16  22    0.25    1.01
  16   3  22    2.16    1.47
   3  22  16    5.18    1.28
  22  16   3    4.69    1.16
   3  16  22    6.10    1.51
  -3  22  16    9.75    1.39
  22   3  16    4.62    1.57
  22  16   4    6.77    1.33
  16   4  22    5.89    1.79
   4  22  16    7.35    1.46
   4  16  22    8.60    1.62
  22   4  16    6.78    1.68
  22  16   5    0.93    0.92
   5  22  16   -0.40    0.93
  16   5  22    0.82    1.33
  16  22   5    1.75    0.99
  22   5  16   -1.62    1.08
   5  16  22    0.88    1.10
   6  22  16    5.37    1.38
  16   6  22    4.81    1.64
  22  16   6    4.61    1.22
   6  16  22    4.82    1.40
  16  22   6    4.71    1.26
  22   6  16    5.18    1.53
  16   7  22    2.03    1.47
  22  16   7    0.82    0.96
   7  22  16    0.56    1.08
   7  16  22    0.07    1.19
  22   7  16    0.72    1.24
  16  22   7    1.64    1.04
  22  16   8    6.65    1.39
   8  22  16    5.27    1.39
  16   8  22    6.65    1.80
  16  22   8    6.45    1.47
   8  16  22    5.11    1.53
  22   8  16    5.85    1.60
   9  22  16    5.57    1.43
  22  16   9    7.13    1.48
  16   9  22    5.50    1.70
  22   9  16    5.87    1.60
   9  16  22    6.16    1.66
  16  22   9    5.05    1.37
  10  22  16    3.66    1.35
  22  16  10    4.21    1.29
  16  10  22    2.85    1.57
  16  22  10    1.09    1.08
  10  16  22    2.80    1.45
  22  10  16    2.41    1.38
  22  16  11   -0.47    1.05
  16  11  22    0.62    1.47
  11  22  16    1.28    1.11
  16  22  11    0.54    1.05
  22  11  16   -1.59    1.11
  11  16  22   -0.38    1.27
  22  16  12    0.58    1.15
  12  22  16   -0.55    1.04
  16  12  22   -1.56    1.25
  22  12  16   -0.01    1.28
  16  22  12    0.76    1.14
  12  16  22   -0.19    1.25
  22   0  17    0.42    1.29
   0  22  17    1.58    1.02
   0  17  22    0.71    1.03
  22  -1  17    5.03    1.59
  17   1  22    4.92    1.73
   1  22  17    3.52    1.20
  -1  17  22    2.69    1.11
  -1  22  17    2.78    1.08
   1  17  22    4.37    1.26
  22   1  17    3.55    1.46
   2  22  17    1.21    1.01
  17   2  22    0.54    1.34
  22  17   2    0.24    0.81
  -2  17  22   -0.14    0.91
   2  17  22    1.50    1.14
  22   2  17   -0.11    1.17
  -2  22  17    0.26    0.87
  17   3  22    3.16    1.59
   3  22  17    5.73    1.36
  22  17   3    5.54    1.24
   3  17  22    4.29    1.37
  22   3  17    4.22    1.51
  -3  22  17    5.86    1.20
  22  17   4    3.39    1.12
  17   4  22    2.03    1.48
   4  22  17    2.74    1.21
   4  17  22    1.68    1.19
  -4  22  17    4.14    1.56
  22   4  17    0.25    1.23
  22  17   5    6.94    1.41
   5  22  17    8.38    1.61
  17   5  22    7.46    1.88
  22   5  17    6.07    1.69
   5  17  22    7.40    1.58
  17  22   5    7.89    1.42
  22  17   6    0.09    0.91
  17   6  22    2.34    1.51
   6  22  17    1.02    1.10
  17  22   6    0.66    0.96
   6  17  22    0.65    1.20
  22   6  17    1.10    1.31
  17   7  22    1.68    1.54
  22  17   7    2.12    1.06
   7  22  17    1.87    1.18
   7  17  22    2.53    1.31
  22   7  17    1.63    1.32
  17  22   7    2.15    1.11
  22  17   8    1.16    1.07
   8  22  17   -0.10    1.07
  17   8  22    1.14    1.47
   8  17  22    0.56    1.23
  22   8  17    1.21    1.31
  17  22   8    1.87    1.10
  22  17   9    6.52    1.48
   9  22  17    7.95    1.66
  17   9  22    5.31    1.80
   9  17  22    4.15    1.53
  22   9  17    3.03    1.44
  17  22   9    3.93    1.33
  22  17  10    1.58    1.20
  10  22  17    2.90    1.36
  17  10  22    2.58    1.59
  10  17  22    4.75    1.55
  22  10  17    0.28    1.28
  17  22  10    1.22    1.16
  17  11  22    2.23    1.55
  22  17  11    0.84    1.09
  11  22  17    1.58    1.27
  17  22  11    0.62    1.12
  22  11  17    0.28    1.26
  11  17  22   -0.06    1.26
   0  18  22    3.72    1.23
  22   0  18    2.79    1.52
   0  22  18    3.17    1.18
  -1  18  22    0.57    0.99
   1  22  18    0.51    1.05
  22  -1  18   -1.21    1.27
  18   1  22    0.25    1.44
  -1  22  18    0.67    0.98
   1  18  22    0.47    1.02
  22   1  18   -0.35    1.22
   2  22  18    0.88    1.03
  18   2  22    1.87    1.51
  -2  22  18    0.76    0.90
  22   2  18    0.39    1.37
   2  18  22    0.88    1.07
   3  22  18    1.02    1.04
  18   3  22   -1.33    1.26
  22  18   3   -0.35    0.83
  -3  22  18    1.75    0.96
   3  18  22   -0.44    0.99
  22   3  18    0.88    1.38
   4  22  18    1.40    1.13
  22  18   4    1.67    1.03
  18   4  22    1.98    1.47
  22   4  18    2.64    1.39
   4  18  22    1.32    1.18
  22  18   5    0.19    0.89
   5  22  18    0.35    1.08
  18   5  22    0.51    1.44
  22   5  18    1.68    1.40
   5  18  22    0.56    1.16
  18  22   5    0.78    0.91
   6  22  18    1.70    1.14
  18   6  22    2.04    1.48
  22  18   6    2.24    1.10
  18  22   6   -0.10    0.97
  22   6  18    1.96    1.44
   6  18  22    1.13    1.27
  18   7  22    1.30    1.47
  22  18   7    1.54    1.12
   7  22  18    2.14    1.22
   7  18  22   -0.28    1.21
  18  22   7   -1.03    0.91
  22   7  18    0.47    1.35
  18   8  22   -0.40    1.32
  22  18   8    0.33    1.02
   8  22  18    0.25    1.18
  18  22   8   -0.79    0.94
   8  18  22    0.87    1.31
  22   8  18   -0.82    1.29
   9  22  18    4.21    1.52
  18   9  22    4.17    1.81
  22  18   9    5.51    1.47
   9  18  22    5.28    1.61
  18  22   9    3.81    1.35
  22   9  18    5.46    1.69
  22  18  10    2.42    1.23
  18  22  10    5.96    1.49
  22   0  19    2.05    1.52
   0  19  22    1.48    1.10
   0  22  19    1.13    1.05
  19   0  22    2.94    1.69
  22  -1  19    2.62    1.56
   1  22  19    2.62    1.24
  -1  19  22    3.86    1.23
  19   1  22    4.01    1.65
  22   1  19    3.31    1.62
   1  19  22    2.69    1.24
  -1  22  19    3.88    1.23
   2  22  19    0.94    1.01
  22  -2  19    2.08    1.54
  19   2  22    0.09    1.45
   2  19  22    1.71    1.16
  22   2  19    0.75    1.39
  -2  22  19    1.06    0.99
  19   3  22    5.24    1.76
   3  22  19    4.06    1.32
  22   3  19    3.29    1.53
   3  19  22    3.46    1.35
  22  19   4    1.72    1.00
   4  22  19    1.13    1.16
  19   4  22    0.28    1.46
  22   4  19    1.72    1.45
   4  19  22    2.56    1.31
  19   5  22    3.51    1.73
  22  19   5    4.99    1.29
   5  22  19    6.11    1.48
  22   5  19    3.59    1.64
   5  19  22    6.05    1.51
  19   6  22    8.89    2.00
   6  22  19    7.63    1.64
  22  19   6    5.42    1.35
  22   6  19    8.42    1.93
  19  22   6    5.12    1.39
   6  19  22    7.95    1.74
  19   7  22   -0.33    1.46
  22  19   7    1.74    1.15
   7  22  19    2.34    1.33
  19  22   7    1.26    1.06
   7  19  22    1.25    1.32
  22   7  19    0.46    1.44
  20   0  22    9.56    2.19
   0  22  20   13.45    1.85
  22   0  20   10.73    2.17
   0  20  22   10.71    1.72
   1  22  20    0.11    1.01
  20   1  22    1.22    1.59
  -1  20  22    0.39    1.51
  22  -1  20    0.25    1.42
  22   1  20    0.13    1.43
   1  20  22    1.93    1.12
  -1  22  20    1.64    1.10
  20  -1  22   -0.72    1.50
   2  22  20    6.28    1.51
  22  -2  20    6.48    1.90
  20   2  22    7.78    2.00
  22   2  20    8.83    2.00
   2  20  22    5.81    1.52
   3  22  20    3.82    1.29
  20   3  22    2.42    1.60
   3  20  22    3.09    1.38
  22   3  20    0.61    1.55
   4  22  20    3.65    1.36
  20   4  22    2.53    1.67
  22   4  20    4.79    1.74
   4  20  22    2.96    1.33
   0   4  23   12.55    1.85
  -1   4  23   10.28    1.61
  -2   4  23    1.53    0.93
  -3   4  23    8.29    1.42
  -4   4  23    4.81    1.12
  23   4   4    6.97    1.13
   0   5  23   23.56    2.48
  -1   5  23    5.28    1.24
   1   5  23    3.02    1.10
  -2   5  23    4.80    1.17
   2   5  23    3.19    1.17
  23   2   5    3.58    0.88
  -3   5  23    1.77    0.89
  23   3   5    1.62    0.75
  -5   3  23    0.19    0.85
   3   5  23    1.11    1.03
  -4   5  23   -0.26    0.82
  23   5   4    1.12    0.71
  -5   4  23    0.61    0.79
  23   4   5    0.39    0.69
   4   5  23   -0.45    1.02
  -5   5  23   -0.05    0.78
  23   5   5   -0.14    0.63
   5   5  23   -0.21    1.00
  23   0   6    0.31    0.68
   0   6  23    1.21    0.94
  23  -1   6    8.74    1.42
  -1   6  23    7.85    1.40
   1   6  23   10.46    1.58
  23   1   6    7.63    1.21
  -2   6  23   13.42    1.75
   2   6  23   12.91    1.83
  23   2   6   12.39    1.52
  -3   6  23    6.85    1.27
  23   6   3    5.94    1.52
   3   6  23    4.31    1.25
  23   3   6    3.49    0.91
  -4   6  23    2.28    0.97
  23   6   4    2.62    0.82
   4   6  23    1.51    1.10
  23   4   6    2.33    0.85
  23   6   5    3.97    0.90
   6   5  23    2.83    1.27
  -5   6  23    3.22    0.99
   5   6  23    3.93    1.27
  23   5   6    4.07    0.99
  23   6   6    1.82    0.81
   6   6  23    0.11    1.05
   0   7  23    5.11    1.21
  23   0   7    4.06    1.00
  -1   7  23    5.44    1.27
  23  -1   7    5.01    1.07
  23   1   7    4.79    1.07
   1   7  23    4.88    1.25
  23  -2   7    6.05    1.18
  -2   7  23    6.79    1.29
  23   2   7    5.69    1.16
   2   7  23    8.04    1.47
  -3   7  23    5.97    1.22
  23   7   3    3.70    0.88
  23  -3   7    5.30    1.24
  23   3   7    5.58    1.12
   3   7  23    6.64    1.38
  -4   7  23    6.69    1.23
   7   4  23    7.15    1.64
  23   7   4    7.28    1.18
  23   4   7    4.84    1.06
   4   7  23    4.65    1.32
  23   7   5    7.86    1.21
   7   5  23    6.72    1.57
  23   5   7    6.50    1.22
   5   7  23    6.96    1.50
  23   7   6    3.53    0.97
   7   6  23    5.87    1.42
   6   7  23    4.28    1.36
  23   6   7    3.43    1.03
   7   7  23   -0.65    0.98
   7  23   7    0.41    0.81
  23   7   7    0.11    0.78
   0   8  23   31.67    2.96
  23   0   8   31.06    2.77
  23  -1   8   11.79    1.56
  -1   8  23    9.75    1.56
  23   1   8   13.13    1.62
   1   8  23   11.30    1.72
  23  -2   8    3.33    1.02
  -2   8  23    3.01    1.05
  23   2   8    2.15    0.90
   2   8  23    2.01    1.11
  23  -3   8   12.59    1.66
  23   8   3   12.62    1.48
  -3   8  23   11.96    1.65
   3   8  23   13.11    1.90
  23   3   8   14.87    1.76
  -4   8  23    4.58    1.11
  23   8   4    4.38    0.96
  23  -4   8    4.20    1.15
   8   4  23    4.97    1.45
  23   4   8    4.13    1.08
   4   8  23    4.19    1.27
   8   5  23    0.80    1.15
  23   8   5    2.78    0.93
   5  23   8    2.34    0.90
   5   8  23    2.44    1.22
  23   5   8    0.48    0.82
  23   8   6    0.38    0.76
   6  23   8    0.97    0.83
   8   6  23    0.74    1.13
   6   8  23    1.36    1.16
  23   6   8    0.54    0.82
   7  23   8    6.44    1.31
   8   7  23    4.91    1.44
  23   8   7    5.92    1.21
   7   8  23    6.46    1.56
   8  23   7    8.96    1.41
  23   7   8    6.91    1.32
   8  23   8    0.65    0.92
  23   8   8    1.43    0.92
   8   8  23    1.08    1.19
   0   9  23   -1.43    0.86
  23   0   9   -0.38    0.80
  23  -1   9    7.10    1.31
  -1   9  23    4.74    1.23
   1   9  23    7.83    1.46
  23   1   9    6.16    1.27
  -2   9  23   14.92    1.83
  23   9   2   14.77    1.76
  23  -2   9   10.49    1.65
   2   9  23   15.78    1.99
  23   2   9   13.07    1.78
  23   9   3    1.56    0.77
  23  -3   9    2.39    1.03
  -3   9  23    3.05    1.01
  23   3   9    1.85    0.96
   3   9  23    3.23    1.19
  -4   9  23    0.83    0.85
   9   4  23    0.69    1.28
   4  23   9    1.59    0.94
  23   9   4    1.29    0.77
   4   9  23    2.60    1.18
  23   4   9    1.85    0.95
   9   5  23   22.72    2.58
   5  23   9   16.59    2.10
  23   9   5   19.22    1.99
  23   5   9   19.88    2.16
   5   9  23   16.80    2.29
   9   6  23    1.03    1.18
   6  23   9    0.56    0.86
  23   9   6    0.31    0.84
   6   9  23   -0.05    1.10
  23   6   9    0.88    0.92
   7  23   9    1.29    0.92
  23   9   7    2.22    0.92
   9   7  23    0.37    1.18
  23   7   9    1.40    0.94
   7   9  23    1.30    1.21
   9  23   7    0.49    0.86
   9   8  23    1.11    1.30
   8  23   9    2.17    1.04
  23   9   8    3.11    1.07
  23   8   9    1.02    0.97
   9  23   8    2.77    1.04
   8   9  23    1.08    1.24
   9   9  23   10.32    1.87
   9  23   9    9.03    1.53
  23   9   9   10.58    1.61
   0  10  23   -0.09    0.92
  23   0  10    1.71    0.98
  -1  10  23    0.68    0.94
  23  -1  10   -0.59    0.83
  23   1  10    0.48    0.90
   1  10  23    1.01    0.97
  23  -2  10    2.09    1.03
  -2  10  23    1.31    0.92
  23  10   2    0.87    0.75
   2  23  10    1.08    0.82
   2  10  23    1.84    1.08
  23   2  10    0.76    0.95
  23  -3  10   -0.11    0.99
  -3  10  23    2.88    1.03
   3  23  10    0.97    0.85
  23  10   3    2.42    0.83
  23   3  10    2.01    0.99
   3  10  23    1.15    1.06
  10   4  23    6.44    1.64
  -4  10  23    3.62    1.17
   4  23  10    4.05    1.11
  23  10   4    4.02    1.02
  23   4  10    4.73    1.20
   4  10  23    5.76    1.42
  10   5  23    0.28    1.19
   5  23  10    3.91    1.07
  23  10   5    2.46    0.96
   5  10  23    3.05    1.27
  23   5  10    2.37    1.01
  23  10   6    7.20    1.24
  10   6  23    2.41    1.33
   6  23  10    4.59    1.19
   6  10  23    4.44    1.37
  23   6  10    5.38    1.25
  10  23   6    4.34    1.09
  23  10   7    8.73    1.43
   7  23  10    5.28    1.28
  10   7  23   11.98    1.95
  10  23   7    6.99    1.42
  23   7  10    9.19    1.51
   7  10  23    7.71    1.67
  10   8  23    1.93    1.35
  23  10   8    1.58    0.95
   8  23  10    3.32    1.13
  10  23   8    4.43    1.19
   8  10  23    2.38    1.32
  23   8  10    1.18    1.00
  10   9  23    2.64    1.39
   9  23  10   -0.08    0.89
  23  10   9    0.57    0.92
  10  23   9    0.04    0.88
  23   9  10    0.37    1.02
   9  10  23    0.12    1.15
  10  23  10   14.32    1.93
  10  10  23   10.22    2.00
  23  10  10   11.53    1.77
  23   0  11    0.13    0.97
   0  11  23    0.91    0.97
   1  23  11    4.79    1.03
  23  -1  11    0.26    0.99
  -1  11  23    2.13    1.02
  23   1  11    1.75    1.07
   1  11  23    0.56    1.01
  -2  11  23    3.48    1.08
   2  23  11    1.10    0.91
  23  -2  11    2.65    1.15
  23  11   2    2.11    0.82
   2  11  23    2.74    1.18
  23   2  11    1.33    1.07
  -3  11  23    7.64    1.40
   3  23  11    9.14    1.45
  23  11   3    8.79    1.31
  23  -3  11    7.66    1.57
  23   3  11    5.26    1.28
   3  11  23    5.07    1.38
  23  11   4    2.28    0.88
   4  23  11    1.00    0.94
  11   4  23    1.23    1.30
   4  11  23    2.05    1.18
  23   4  11    1.08    1.00
  23  11   5    5.16    1.13
  11   5  23    1.47    1.30
   5  23  11    5.01    1.22
  23   5  11    4.40    1.23
   5  11  23    5.54    1.44
   6  23  11    2.75    1.08
  23  11   6    5.69    1.18
  11   6  23    5.19    1.52
   6  11  23    2.74    1.30
  11  23   6    3.13    1.05
  23   6  11    2.90    1.13
  11   7  23    6.50    1.69
   7  23  11    7.88    1.46
  23  11   7   10.70    1.53
  23   7  11    8.05    1.50
   7  11  23    7.39    1.64
  11  23   7   10.20    1.61
   8  23  11    4.19    1.21
  23  11   8    2.25    1.06
  11   8  23    1.24    1.30
   8  11  23    2.40    1.28
  11  23   8    1.86    1.07
  23   8  11    2.60    1.12
  23  11   9    0.14    0.95
  11   9  23   -0.48    1.23
   9  23  11    0.13    0.96
  11  23   9    0.24    0.92
  23   9  11    1.11    1.03
   9  11  23    0.48    1.20
  10  23  11    5.45    1.38
  23  11  10    5.60    1.31
  11  10  23    6.54    1.69
  23  10  11    5.04    1.37
  11  23  10    4.26    1.30
  10  11  23    5.40    1.60
  11  23  11    4.62    1.36
  23  11  11    5.47    1.41
  11  11  23    5.31    1.65
  23   0  12    9.21    1.58
   0  12  23    9.80    1.53
   0  23  12    4.49    1.10
  23  12   1    4.17    1.51
   1  23  12    5.24    1.13
  23  -1  12    1.50    1.15
  -1  12  23    3.44    1.15
  23   1  12    2.82    1.17
   1  12  23    1.52    1.09
  23  12   2   15.68    1.77
   2  23  12   13.34    1.85
  23  -2  12   17.41    2.16
  -2  12  23   16.59    1.94
   2  12  23   14.37    1.92
  23   2  12   11.70    1.84
  12   3  23   -0.46    1.30
  23  12   3    0.59    0.76
   3  23  12    0.25    0.87
  -3  12  23    0.49    0.89
  23  -3  12    0.02    1.04
  23   3  12    0.62    1.00
   3  12  23    0.93    1.08
  23  12   4    3.38    0.98
   4  23  12    1.28    0.99
  12   4  23    2.98    1.45
   4  12  23    2.99    1.24
  23   4  12    3.49    1.23
  12   5  23   11.40    1.97
  23  12   5    8.25    1.40
   5  23  12    8.30    1.50
  23   5  12    9.53    1.61
   5  12  23    6.86    1.56
   6  23  12    8.25    1.53
  23  12   6    9.45    1.48
  12   6  23   10.13    1.93
  12  23   6    8.26    1.42
  23   6  12    9.93    1.66
   6  12  23    9.31    1.73
  23  12   7    3.00    1.07
  12   7  23    3.57    1.52
   7  23  12    5.73    1.30
  12  23   7    3.31    1.13
  23   7  12    4.90    1.32
   7  12  23    2.53    1.31
   8  23  12    1.76    1.11
  12   8  23    2.09    1.39
  23  12   8    1.63    0.97
  12  23   8    1.08    0.99
  23   8  12    1.09    1.08
   8  12  23    0.74    1.23
   9  23  12    4.33    1.26
  23  12   9    2.57    1.14
  12   9  23    3.07    1.47
  23   9  12    2.21    1.22
   9  12  23    2.39    1.36
  12  23   9    2.81    1.18
  23  12  10    3.48    1.25
  10  23  12    3.22    1.20
  12  10  23    2.16    1.43
  23  10  12    3.16    1.28
  12  23  10    3.03    1.20
  10  12  23    3.39    1.43
  23  12  11    1.39    1.13
  11  23  12    1.39    1.06
  12  11  23    1.20    1.38
  12  23  11    0.44    0.99
  23  11  12    0.52    1.10
  11  12  23   -0.53    1.30
  23  12  12   -0.45    0.99
  12  12  23    0.17    1.31
  12  23  12   -0.42    1.01
  23   0  13    0.62    1.07
   0  13  23    0.21    0.98
   0  23  13    1.32    0.90
  23  13   1    5.02    1.08
   1  23  13    4.98    1.15
  23  -1  13    5.71    1.45
  -1  13  23    2.89    1.18
   1  13  23    3.03    1.19
  23   1  13    3.16    1.26
  23  13   2    5.48    1.12
  -2  13  23    5.65    1.29
   2  23  13    6.18    1.26
  23  -2  13    5.78    1.44
   2  13  23    3.15    1.23
  23   2  13    4.42    1.36
  23  13   3    1.84    0.88
  -3  13  23    1.87    1.08
  13   3  23    1.00    1.36
   3  23  13   -0.57    0.81
  23   3  13   -0.32    1.04
   3  13  23    1.09    1.08
   4  23  13    1.40    1.00
  13   4  23    3.26    1.52
  23  13   4    1.81    0.95
   4  13  23    2.39    1.21
  23   4  13    1.90    1.16
   5  23  13    2.41    1.10
  13   5  23    1.07    1.34
  23  13   5    2.09    0.97
  23   5  13    2.79    1.27
   5  13  23    2.73    1.27
  23  13   6    1.82    0.97
  13   6  23    2.45    1.49
   6  23  13    1.88    1.11
  13  23   6    2.31    1.08
  23   6  13    3.46    1.31
   6  13  23    4.37    1.39
   7  23  13    1.31    1.07
  13   7  23    1.37    1.37
  23  13   7    0.88    0.95
   7  13  23    1.02    1.17
  23   7  13   -0.25    1.09
  13  23   7    1.38    1.00
  23  13   8    4.92    1.23
   8  23  13    3.71    1.24
  13   8  23    3.61    1.53
  13  23   8    3.44    1.19
  23   8  13    3.36    1.26
   8  13  23    6.05    1.55
   9  23  13    9.67    1.75
  13   9  23   10.47    2.07
  23  13   9    9.29    1.64
  13  23   9    7.37    1.51
   9  13  23    9.71    1.86
  23   9  13    7.44    1.62
  10  23  13    4.18    1.30
  23  13  10    4.64    1.27
  13  10  23    2.34    1.45
  23  10  13    4.68    1.40
  10  13  23    5.33    1.58
  13  23  10    4.12    1.34
  23  13  11    3.59    1.36
  13  11  23    5.08    1.62
  11  23  13    3.71    1.33
  13  23  11    4.04    1.28
  11  13  23    4.30    1.58
  23  11  13    3.66    1.39
  13  12  23    3.29    1.55
  23  13  12    1.77    1.21
  12  23  13    1.17    1.15
  12  13  23    1.97    1.41
  13  23  12    3.75    1.28
  23  12  13    2.90    1.33
  13  23  13   -0.69    1.01
  23  13  13    1.03    1.13
  13  13  23   -0.18    1.27
  23   0  14    2.10    1.32
   0  14  23    3.28    1.17
   0  23  14    2.13    1.03
   1  23  14   -0.32    0.82
  -1  14  23    0.39    0.91
  23  14   1   -0.10    0.70
  23  -1  14    0.81    1.15
  23   1  14    0.26    1.10
  -1  23  14    0.26    0.84
   1  14  23    0.61    1.01
  23  -2  14    3.75    1.38
   2  23  14    2.59    1.03
  -2  14  23    2.43    1.09
  23  14   2    1.31    0.86
   2  14  23    2.47    1.19
  23   2  14    1.94    1.27
  23  14   3    4.81    1.13
  14   3  23    5.93    1.69
   3  23  14    5.16    1.29
  23   3  14    8.98    1.68
   3  14  23    3.72    1.40
  14   4  23    1.71    1.40
   4  23  14    1.70    1.08
  23  14   4    0.89    0.88
   4  14  23    2.32    1.23
  23   4  14    1.93    1.26
  23  14   5    1.02    0.92
  14   5  23   -0.25    1.31
   5  23  14    0.80    1.02
   5  14  23    1.31    1.20
  23   5  14    0.46    1.10
  14   6  23    3.84    1.55
   6  23  14    4.90    1.31
  23  14   6    4.20    1.19
   6  14  23    6.34    1.58
  14  23   6    6.62    1.37
  23   6  14    4.87    1.45
   7  23  14    1.46    1.13
  23  14   7    3.40    1.12
  14   7  23    3.65    1.58
  23   7  14    1.89    1.21
  14  23   7    2.02    1.09
   7  14  23    2.54    1.36
  14   8  23    1.89    1.44
   8  23  14    0.95    1.11
  23  14   8    1.77    1.10
  14  23   8   -0.24    0.92
  23   8  14   -0.39    1.06
   8  14  23    2.53    1.40
  14   9  23    2.29    1.48
  23  14   9    0.69    1.05
   9  23  14    1.31    1.11
  23   9  14    1.69    1.25
  14  23   9    0.50    0.99
   9  14  23    4.32    1.53
  23  14  10    1.42    1.16
  14  10  23    2.29    1.50
  10  23  14    1.71    1.17
  14  23  10    3.13    1.26
  23  10  14    0.71    1.24
  10  14  23    1.58    1.37
  14  11  23    0.69    1.45
  11  23  14    0.03    1.08
  23  14  11    1.03    1.12
  11  14  23    2.64    1.51
  14  23  11    1.79    1.17
  23  11  14    2.60    1.35
  14  12  23    0.72    1.36
  23  14  12   -0.05    1.14
  12  23  14    0.72    1.09
  12  14  23    1.75    1.43
  14  23  12   -0.17    1.02
  23  12  14    0.70    1.15
  13  23  14    6.98    1.59
  23  14  13    6.19    1.64
  14  13  23    8.25    1.89
  23  13  14    7.24    1.64
  14  23  13    6.24    1.55
  13  14  23    7.26    1.88
   0  23  15    7.60    1.36
   0  15  23    7.39    1.48
  23   0  15    4.52    1.53
  -1  15  23    2.55    1.12
   1  23  15    2.10    1.02
  23  -1  15    3.25    1.39
  23  15   1    2.02    0.85
  -1  23  15    0.95    0.92
  23   1  15    5.89    1.55
   1  15  23    2.97    1.17
  23  -2  15    2.88    1.42
  -2  15  23    3.15    1.12
  15   2  23    2.91    1.63
   2  23  15    2.22    1.05
  23  15   2    1.77    0.89
   2  15  23    3.57    1.26
  -2  23  15    2.16    0.91
  23   2  15    1.39    1.28
  23  15   3    5.91    1.22
   3  23  15    5.92    1.37
  15   3  23    3.24    1.59
   3  15  23    5.17    1.48
  23   3  15    4.83    1.50
   4  23  15    1.45    1.04
  15   4  23    0.64    1.37
  23  15   4    1.01    0.91
   4  15  23    0.41    1.11
  23   4  15    2.43    1.29
   5  23  15    1.86    1.12
  15   5  23    1.07    1.40
  23  15   5    1.95    0.98
   5  15  23    1.30    1.27
  23   5  15    0.50    1.16
  15   6  23    1.43    1.48
   6  23  15    2.22    1.18
  23  15   6    4.31    1.20
  15  23   6    3.26    1.15
  23   6  15    3.53    1.42
   6  15  23    2.87    1.39
   7  23  15    1.39    1.13
  23  15   7    2.36    1.07
  15   7  23    0.83    1.43
   7  15  23    1.05    1.26
  15  23   7    1.42    1.06
  23   7  15    0.97    1.26
  15   8  23    0.10    1.33
   8  23  15    0.41    1.05
  23  15   8    0.70    1.00
  23   8  15    0.74    1.22
   8  15  23    0.71    1.33
  15  23   8    2.20    1.12
  23  15   9   -0.13    0.93
   9  23  15   -0.40    1.04
  15   9  23    1.18    1.45
  15  23   9    0.97    1.07
  23   9  15    1.39    1.25
   9  15  23    1.24    1.33
  23  15  10    6.74    1.49
  15  10  23    8.25    1.97
  10  23  15    6.60    1.53
  10  15  23   10.17    1.99
  23  10  15    9.83    1.84
  15  23  10    5.19    1.48
  23  15  11    5.02    1.45
  15  11  23    2.29    1.55
  11  23  15    6.39    1.50
  23  11  15    2.81    1.39
  15  23  11    4.88    1.44
  11  15  23    3.61    1.58
  15  12  23    0.94    1.47
  23  15  12    1.07    1.20
  12  23  15    0.00    1.10
  15  23  12    1.96    1.26
  23  12  15    1.91    1.39
  12  15  23    1.31    1.43
   0  16  23    0.10    1.03
   0  23  16   -0.52    0.85
  23   0  16   -1.75    1.05
  -1  16  23    4.16    1.24
   1  23  16    3.00    1.13
  23  -1  16    3.89    1.48
  -1  23  16    0.80    0.90
   1  16  23    2.44    1.18
  23   1  16    2.63    1.37
  23  -2  16   10.18    2.04
  16   2  23    8.53    2.05
   2  23  16   16.54    1.99
  23  16   2   13.65    1.70
   2  16  23   11.09    1.85
  23   2  16   10.29    1.97
  -2  23  16   13.01    1.69
  23  16   3    0.15    0.79
   3  23  16    0.72    1.01
  16   3  23    1.00    1.40
   3  16  23    0.38    1.09
  23   3  16    0.76    1.23
   4  23  16    1.95    1.17
  23  16   4    0.53    0.89
  16   4  23    1.82    1.46
  23   4  16    0.98    1.31
   4  16  23    0.64    1.16
  16   5  23    4.48    1.68
  23  16   5    5.72    1.25
   5  23  16    5.82    1.46
   5  16  23    8.03    1.66
  23   5  16    6.36    1.65
  23  16   6    8.44    1.54
   6  23  16    9.78    1.68
  16   6  23    8.05    1.92
  16  23   6    9.02    1.52
   6  16  23    7.60    1.76
  23   6  16    9.31    1.87
   7  23  16    0.36    1.08
  16   7  23    4.20    1.64
  23  16   7    2.96    1.14
   7  16  23    0.43    1.20
  23   7  16    1.43    1.31
  16  23   7    0.52    0.97
  16   8  23   -0.02    1.40
   8  23  16    0.80    1.13
  23  16   8    0.72    1.02
  16  23   8    1.34    1.05
   8  16  23    0.76    1.31
  23   8  16    0.53    1.20
  16   9  23    6.26    1.89
  23  16   9    7.55    1.54
   9  23  16    5.82    1.52
  16  23   9    8.76    1.62
   9  16  23    5.46    1.74
  23   9  16    7.46    1.70
  16  10  23    1.20    1.50
  10  23  16   -0.06    1.14
  23  16  10   -0.53    0.96
  23  10  16    0.90    1.28
  10  16  23    1.01    1.37
  16  23  10   -0.73    1.01
  11  23  16    0.08    1.15
  23  16  11   -0.50    1.08
  16  11  23    0.69    1.44
  16  23  11    0.96    1.18
  23  11  16    1.80    1.43
  11  16  23    0.62    1.37
  23   0  17   -0.13    1.32
   0  23  17   -0.48    0.90
   0  17  23    0.27    0.99
   1  23  17   12.49    1.78
  -1  17  23   12.40    1.74
  17   1  23    9.13    2.20
  23  -1  17    7.29    1.83
  23   1  17    8.25    1.87
   1  17  23    9.57    1.73
  -1  23  17   10.98    1.61
  23  -2  17    1.26    1.45
  17   2  23    1.82    1.52
   2  23  17   -0.04    1.03
   2  17  23    1.64    1.14
  23   2  17    1.18    1.33
  -2  23  17    0.97    0.96
   3  23  17    5.87    1.46
  17   3  23    7.39    1.91
  23  17   3    5.92    1.28
  -3  23  17    4.32    1.11
  23   3  17    5.53    1.65
   3  17  23    7.11    1.57
  17   4  23    1.45    1.46
   4  23  17    2.30    1.24
  23  17   4    3.04    1.06
   4  17  23    1.06    1.18
  23   4  17   -1.11    1.23
  17   5  23    2.72    1.57
   5  23  17    1.48    1.16
  23  17   5    2.69    1.08
  23   5  17    2.82    1.50
   5  17  23    3.76    1.38
   6  23  17    0.41    1.09
  17   6  23    0.16    1.40
  23  17   6   -0.02    0.95
   6  17  23    0.86    1.30
  23   6  17    0.65    1.34
  17  23   6   -0.58    0.88
  17   7  23    2.53    1.56
   7  23  17    2.63    1.26
  23  17   7    3.11    1.22
  17  23   7    4.28    1.31
   7  17  23    4.06    1.44
  23   7  17    3.17    1.54
   8  23  17    2.60    1.33
  17   8  23    1.35    1.50
  23  17   8    0.78    1.10
   8  17  23    2.21    1.37
  23   8  17    2.04    1.37
  17  23   8    1.24    1.11
  23  17   9    0.33    1.01
   9  23  17    1.96    1.26
  17   9  23   -1.22    1.34
   9  17  23    0.28    1.33
  23   9  17    0.62    1.28
  17  23   9    0.00    1.01
   0  23  18    9.40    1.55
  23   0  18    6.69    1.85
   0  18  23    6.80    1.53
  -1  18  23    3.20    1.37
  18   1  23    6.97    1.91
  23  -1  18    3.02    1.51
   1  23  18    1.21    1.12
  23   1  18    5.08    1.65
   1  18  23    3.05    1.25
  -1  23  18    1.11    0.98
  23  -2  18    2.72    1.66
  18   2  23    5.26    1.73
   2  23  18    4.11    1.29
  -2  23  18    7.01    1.34
   2  18  23    3.52    1.35
  23   2  18    5.89    1.77
   3  23  18    0.77    1.09
  23  18   3    0.55    0.84
  18   3  23    3.48    1.69
   3  18  23    0.45    1.18
  23   3  18    2.58    1.46
   4  23  18   -0.07    1.09
  18   4  23   -0.83    1.39
  23  18   4    0.25    0.94
  23   4  18    1.05    1.38
   4  18  23    0.17    1.13
  18   5  23    0.76    1.52
  23  18   5    1.23    1.02
   5  23  18    0.29    1.11
  23   5  18   -1.13    1.25
   5  18  23    1.04    1.22
   6  23  18    4.42    1.43
  18   6  23    5.26    1.81
  23  18   6    7.86    1.54
   6  18  23    3.73    1.51
  18  23   6    6.42    1.35
  23   6  18    2.95    1.64
   7  23  18    3.71    1.39
  18   7  23    2.89    1.68
  23  18   7   -0.03    0.96
  18  23   7    1.64    1.13
  23   7  18    1.63    1.41
   7  18  23    5.41    1.60
   0  23  19    1.41    1.15
  23   0  19    6.39    1.85
   0  19  23    1.13    1.13
  19   0  23    3.71    1.79
  19   1  23    6.33    1.92
   1  23  19    7.70    1.57
  23  -1  19    7.51    1.90
  23   1  19    6.33    1.84
  -1  23  19    6.86    1.43
   1  19  23    5.01    1.39
  19   2  23   -0.03    1.49
  23  -2  19    1.51    1.44
   2  23  19    2.83    1.27
  23   2  19    1.80    1.51
  -2  23  19    0.86    1.56
   2  19  23    1.30    1.20
   3  23  19    0.30    1.15
  19   3  23    2.47    1.61
  23   3  19    0.07    1.40
   3  19  23    1.01    1.16
  23  19   4    1.10    0.96
   4  23  19    1.09    1.16
   4  19  23    0.48    1.18
   0   4  24   -0.75    0.96
  -1   4  24   11.54    1.73
   1   4  24    9.34    1.71
  -2   4  24    8.51    1.47
   2   4  24   11.23    1.86
  -3   4  24    6.55    1.30
  -4   3  24    8.22    1.43
   3   4  24    8.43    1.70
  -4   4  24    0.77    0.84
   4   4  24    0.08    1.13
   0   5  24   21.98    2.47
  -1   5  24    0.93    0.97
   1   5  24    1.25    1.11
  -2   5  24    3.18    1.09
   2   5  24    3.16    1.24
  -3   5  24    8.26    1.40
  -5   3  24    5.68    1.25
   3   5  24    7.18    1.53
  -4   5  24    8.82    1.42
   5   4  24    8.77    1.78
   4   5  24    7.73    1.57
  -5   4  24   10.01    1.93
   5   5  24   -0.11    1.05
   0   6  24    0.49    0.94
  -1   6  24    9.74    1.55
   1   6  24    8.73    1.51
  -2   6  24    0.51    0.91
   2   6  24   -0.13    0.96
  -3   6  24    3.04    1.05
   3   6  24    2.55    1.16
   6   4  24    6.05    1.61
  -4   6  24    7.68    1.35
  24   4   6    7.02    1.38
   4   6  24    9.12    1.64
   6   5  24    1.39    1.17
   5   6  24    0.19    1.05
  24   5   6    2.37    0.86
  24   6   6    1.82    0.85
   6   6  24    1.48    1.20
   0   7  24    0.45    0.95
  -1   7  24    0.90    1.00
   1   7  24    1.27    1.02
  -2   7  24   -0.63    0.83
   2   7  24   -0.20    1.00
  24   2   7    0.83    0.78
  -3   7  24    1.27    0.96
   3   7  24    2.77    1.21
  24   3   7    2.45    0.94
  -4   7  24    1.20    0.96
   7   4  24    0.05    1.26
  24   4   7    0.74    0.79
   4   7  24    0.84    1.10
  24   7   5    2.22    0.89
   7   5  24    0.53    1.15
  24   5   7    2.03    0.91
   5   7  24    0.26    1.09
   7   6  24    5.46    1.51
  24   7   6    5.78    1.13
   6   7  24    4.73    1.40
  24   6   7    4.62    1.10
  24   7   7    7.58    1.32
   7   7  24    6.75    1.61
   0   8  24    0.03    0.94
  24   0   8    0.26    0.80
  -1   8  24    1.27    1.02
  24  -1   8   -0.29    1.33
   1   8  24    1.04    1.04
  24   1   8    0.76    0.85
  -2   8  24    7.30    1.43
   2   8  24    7.10    1.52
  24   2   8    9.08    1.39
  -3   8  24    2.38    1.03
   3   8  24    4.12    1.26
  24   3   8    3.38    1.03
   8   4  24    1.18    1.25
   4   8  24    3.26    1.26
  24   4   8    1.20    0.85
   8   5  24    8.26    1.77
  24   8   5    8.08    1.27
  24   5   8   11.63    1.58
   5   8  24    9.27    1.72
  24   8   6    2.62    0.94
   8   6  24    1.30    1.27
   6   8  24    0.52    1.17
  24   6   8    0.53    0.88
  24   8   7    2.01    0.94
   8   7  24    3.07    1.35
  24   7   8    4.35    1.13
   7   8  24    2.95    1.38
   8   8  24    3.76    1.39
  24   8   8    2.62    1.01
   8  24   8    1.84    0.95
  24   0   9    3.00    1.06
   0   9  24    1.67    1.06
  24  -1   9    9.95    1.50
  -1   9  24    9.53    1.57
  24   1   9   11.61    1.66
   1   9  24   11.69    1.80
  24  -2   9    2.80    1.03
  -2   9  24    2.51    1.10
   2   9  24    3.46    1.29
  24   2   9    4.74    1.17
  24  -3   9   27.03    3.50
  -3   9  24   24.71    2.50
  24   3   9   24.58    2.47
   3   9  24   24.99    2.72
  24   9   4    9.10    1.99
   9   4  24   10.33    1.95
  24   4   9    8.68    1.49
   4   9  24   10.18    1.75
   9   5  24    0.07    1.20
  24   9   5    0.40    0.76
  24   5   9    1.53    0.93
   5   9  24    1.32    1.19
  24   9   6    1.87    0.92
   9   6  24    0.98    1.26
   6  24   9    1.82    0.96
  24   6   9    2.17    1.02
   6   9  24    2.12    1.24
  24   9   7    6.32    1.26
   9   7  24    4.82    1.54
   7  24   9    5.73    1.27
  24   7   9    5.14    1.30
   7   9  24    6.45    1.58
  24   9   8   -0.03    0.83
   9   8  24   -0.62    1.20
   8  24   9    0.19    0.92
  24   8   9   -0.40    0.88
   8   9  24   -0.06    1.21
   9  24   8    0.21    0.91
   9  24   9    0.05    0.93
   9   9  24   -0.33    1.18
  24   9   9    0.22    0.92
   0  10  24    3.23    1.18
  24   0  10    1.58    1.05
  24  -1  10    6.52    1.33
  -1  10  24    6.37    1.40
  24   1  10    7.59    1.45
   1  10  24    8.62    1.59
  -2  10  24    3.53    1.16
  24  -2  10    5.07    1.25
  24   2  10    4.56    1.22
   2  10  24    3.77    1.27
  -3  10  24    3.37    1.08
  24  -3  10    3.23    1.13
   3  10  24    4.31    1.36
  24   3  10    4.76    1.18
  24  10   4    1.62    0.86
  24  -4  10    1.27    1.11
   4  24  10    2.85    1.02
  10   4  24    2.96    1.43
   4  10  24    0.92    1.10
  24   4  10    2.44    1.06
  24  10   5    2.97    1.00
  10   5  24    1.00    1.28
   5  24  10    3.71    1.13
   5  10  24    3.26    1.32
  24   5  10    2.79    1.13
  24  10   6    3.07    1.00
  10   6  24    2.36    1.39
   6  24  10    3.24    1.08
  24   6  10    3.30    1.10
   6  10  24    2.42    1.26
   7  24  10    4.48    1.21
  10   7  24    5.39    1.60
  24  10   7    4.60    1.21
   7  10  24    3.42    1.44
  24   7  10    4.79    1.27
  10   8  24    2.48    1.45
   8  24  10    4.48    1.21
  24  10   8    4.62    1.20
  24   8  10    3.34    1.21
  10  24   8    4.06    1.17
   8  10  24    4.46    1.49
   9  24  10    6.35    1.41
  10   9  24    6.86    1.78
  24  10   9    3.69    1.21
  10  24   9    5.67    1.39
  24   9  10    6.91    1.41
   9  10  24    6.87    1.66
  24  10  10    9.47    1.58
  10  10  24    7.49    1.86
  10  24  10    7.00    1.49
  24   0  11    2.07    1.10
   0  11  24    2.68    1.12
  -1  11  24    4.76    1.28
  24  -1  11    8.56    1.52
   1  11  24    3.34    1.23
  24   1  11    3.96    1.21
  -2  11  24    2.37    1.06
  24  -2  11    3.12    1.20
  24   2  11    2.13    1.14
   2  11  24    5.44    1.36
  11   3  24    0.67    1.41
  -3  11  24    2.06    1.57
   3  24  11    0.82    0.85
  24  -3  11   -0.39    0.98
  24   3  11    0.19    0.96
   3  11  24   -0.03    1.06
   4  24  11    1.33    0.97
  11   4  24    1.04    1.30
  24  -4  11    1.01    1.16
  24  11   4    1.73    0.89
   4  11  24    0.91    1.09
  24   4  11   -0.41    0.91
  11   5  24    0.70    1.31
   5  24  11    1.45    0.97
  24  11   5    0.94    0.87
   5  11  24    0.43    1.14
  24   5  11    0.61    1.00
   6  24  11    2.33    1.06
  24  11   6    1.98    0.97
  11   6  24    0.18    1.30
  24   6  11    0.34    1.04
   6  11  24    2.13    1.29
   7  24  11    2.03    1.06
  11   7  24    2.11    1.37
  24  11   7    0.56    0.90
  24   7  11    1.64    1.08
   7  11  24    3.06    1.39
  11  24   7    0.90    0.91
   8  24  11    6.61    1.44
  24  11   8    7.44    1.40
  11   8  24    4.67    1.58
   8  11  24    7.83    1.69
  24   8  11    4.78    1.34
  11  24   8    5.85    1.34
  24  11   9    0.41    1.01
   9  24  11    0.45    0.99
  11   9  24    1.84    1.43
  24   9  11    0.57    1.08
  11  24   9    0.22    0.98
   9  11  24    0.85    1.30
  24  11  10    2.52    1.18
  11  10  24    2.84    1.50
  10  24  11    2.81    1.20
  11  24  10    2.52    1.12
  10  11  24    1.71    1.42
  24  10  11    0.72    1.12
  24  11  11    0.68    1.05
  11  24  11    1.69    1.13
  11  11  24   -0.01    1.25
   0  12  24    4.01    1.22
  24   0  12    6.16    1.42
  24  -1  12    4.01    1.29
  -1  12  24    1.85    1.12
   1  12  24    4.45    1.29
  24   1  12    1.97    1.12
  -2  12  24    1.68    1.02
   2  24  12    2.07    0.98
  24  -2  12   -0.05    1.06
  24   2  12    0.95    1.09
   2  12  24    1.77    1.11
  12   3  24    1.03    1.43
   3  24  12    1.68    1.00
  24  -3  12    2.67    1.27
  24   3  12    3.62    1.24
   3  12  24    2.70    1.26
   4  24  12    0.85    0.94
  12   4  24    2.42    1.39
  24  -4  12    2.78    1.28
  24  12   4    0.74    0.85
  24   4  12    1.12    1.12
   4  12  24    1.24    1.22
   5  24  12    2.92    1.10
  12   5  24    2.97    1.49
  24  12   5    2.27    0.98
   5  12  24    1.58    1.24
  24   5  12    1.22    1.08
   6  24  12    3.62    1.17
  24  12   6    2.32    1.01
  12   6  24    3.66    1.47
  24   6  12    2.88    1.16
   6  12  24    1.64    1.24
   7  24  12    2.18    1.09
  24  12   7    3.23    1.10
  12   7  24    2.42    1.48
   7  12  24    1.58    1.31
  12  24   7    1.35    1.02
  24   7  12    2.82    1.22
  12   8  24    1.36    1.38
  24  12   8    0.42    0.95
   8  24  12    0.98    1.07
  24   8  12    1.64    1.17
  12  24   8    1.56    1.09
   8  12  24    0.59    1.27
   9  24  12    2.62    1.20
  12   9  24    2.84    1.50
  24  12   9    3.22    1.18
  24   9  12    2.49    1.22
  12  24   9    2.78    1.17
   9  12  24    2.66    1.51
  12  10  24    6.06    1.81
  10  24  12    5.93    1.47
  24  12  10    5.44    1.42
  12  24  10    5.44    1.38
  24  10  12    5.38    1.45
  10  12  24    5.21    1.67
  12  11  24   10.91    2.12
  24  12  11   11.60    1.87
  11  24  12   11.26    1.84
  11  12  24   14.55    2.30
  24  11  12   13.24    2.03
  12  24  11   14.46    2.01
  12  12  24    1.37    1.40
  12  24  12    0.40    1.10
  24  12  12    2.66    1.28
   0  13  24   -0.76    0.91
  24   0  13   -0.50    1.07
  24  -1  13    2.22    1.23
   1  24  13    7.04    1.27
  -1  13  24    3.54    1.22
  24   1  13    3.68    1.38
   1  13  24    5.43    1.36
   2  24  13    0.35    0.91
  24  -2  13   -0.16    1.04
  -2  13  24   -0.52    0.89
  24   2  13    0.09    1.05
   2  13  24    0.63    1.06
   3  24  13    9.96    1.60
  24  -3  13    9.14    1.72
  24  13   3    9.94    2.07
  13   3  24    6.07    1.82
   3  13  24    7.03    1.61
  24   3  13    8.98    1.70
   4  24  13    2.23    1.03
  24  13   4    0.81    0.88
  13   4  24    0.61    1.36
  24   4  13    1.47    1.18
   4  13  24    1.24    1.11
  13   5  24   -0.13    1.30
   5  24  13    1.49    1.09
  24  13   5    2.24    0.99
  24   5  13    1.57    1.13
   5  13  24    1.03    1.19
  13   6  24    5.00    1.62
  24  13   6    4.19    1.15
   6  24  13    1.97    1.13
  24   6  13    4.29    1.34
   6  13  24    4.61    1.46
   7  24  13    3.41    1.26
  13   7  24    3.76    1.62
  24  13   7    3.03    1.13
  13  24   7    2.64    1.12
   7  13  24    1.85    1.32
  24   7  13    2.71    1.22
  24  13   8    1.81    1.05
  13   8  24    0.42    1.33
   8  24  13    1.09    1.08
  24   8  13    1.68    1.25
  13  24   8    0.92    1.00
   8  13  24    1.47    1.33
   9  24  13    1.23    1.13
  24  13   9    2.22    1.11
  13   9  24    1.28    1.47
  13  24   9    2.41    1.16
   9  13  24    1.55    1.40
  24   9  13    0.92    1.21
  24  13  10   -0.30    1.01
  13  10  24   -0.39    1.31
  10  24  13    2.60    1.23
  13  24  10    1.00    1.07
  24  10  13    1.59    1.27
  10  13  24    1.19    1.37
  13  11  24    3.67    1.68
  11  24  13    5.69    1.50
  24  13  11    5.13    1.42
  24  11  13    5.25    1.52
  13  24  11    6.09    1.46
  11  13  24    4.16    1.65
  13  12  24    1.12    1.43
  12  24  13    0.32    1.04
  24  13  12    0.48    1.20
  24  12  13    1.48    1.20
  12  13  24    0.71    1.38
  13  24  12    0.96    1.13
   0  24  14    1.86    0.94
  24   0  14    0.17    1.13
   0  14  24    0.13    1.07
   1  24  14    0.50    0.96
  24  -1  14   -0.14    1.13
  -1  14  24    1.75    1.05
  24   1  14    1.23    1.16
   1  14  24    0.64    1.05
  24  -2  14    5.91    1.58
   2  24  14    8.13    1.49
  14   2  24    7.77    1.97
  24   2  14    7.77    1.63
   2  14  24    6.85    1.55
  24  14   3    1.45    1.00
  24  -3  14    0.18    1.19
  14   3  24   -0.73    1.25
   3  24  14   -0.01    0.95
   3  14  24    0.89    1.14
  24   3  14    0.23    1.09
  14   4  24    1.20    1.38
  24  14   4    1.48    0.97
   4  24  14    2.01    1.10
  24   4  14    2.77    1.30
   4  14  24    1.48    1.23
   5  24  14    3.08    1.21
  14   5  24    2.27    1.55
  24  14   5    3.54    1.11
   5  14  24    2.70    1.27
  24   5  14    1.90    1.30
  14   6  24    8.51    1.92
   6  24  14    6.33    1.47
  24  14   6    4.71    1.26
   6  14  24    4.81    1.53
  24   6  14    5.14    1.49
   7  24  14    0.24    1.05
  14   7  24    1.05    1.46
  24  14   7    1.16    1.00
   7  14  24    1.28    1.28
  24   7  14    0.87    1.22
  14  24   7    1.46    0.96
   8  24  14    1.36    1.13
  24  14   8    0.83    1.01
  14   8  24    0.62    1.40
  24   8  14    1.80    1.27
  14  24   8    1.52    1.06
   8  14  24    1.26    1.33
   9  24  14    0.88    1.12
  14   9  24    1.88    1.49
  24  14   9    1.21    1.08
   9  14  24    1.54    1.43
  24   9  14    1.40    1.26
  14  24   9    1.29    1.06
  14  10  24    0.44    1.39
  24  14  10    2.45    1.17
  10  24  14    1.23    1.14
  14  24  10    1.59    1.11
  24  10  14    1.70    1.29
  10  14  24    1.06    1.45
  24  14  11    1.11    1.14
  14  11  24    3.05    1.58
  11  24  14    1.74    1.27
  24  11  14    2.89    1.33
  11  14  24    1.55    1.44
  14  24  11    0.80    1.09
   0  24  15    1.04    1.01
  24   0  15    2.26    1.34
   0  15  24    2.26    1.18
  24  -1  15   -0.39    1.19
   1  24  15    1.19    0.98
  -1  15  24    1.53    1.06
   1  15  24    3.41    1.30
  24   1  15    2.21    1.34
  24  -2  15    0.72    1.23
   2  24  15    0.58    0.98
  15   2  24    0.22    1.44
  24   2  15    0.27    1.18
   2  15  24    0.50    1.12
   3  24  15    3.38    1.25
  15   3  24    6.08    1.84
  24  15   3    5.84    1.18
  24  -3  15    2.99    1.47
   3  15  24    5.74    1.53
  24   3  15    6.08    1.62
  15   4  24    0.20    1.36
  24  15   4    0.89    0.93
   4  24  15   -0.64    0.94
  24   4  15    0.37    1.22
   4  15  24    0.68    1.24
  15   5  24   -1.20    1.34
  24  15   5    0.53    0.96
   5  24  15    0.44    1.06
  24   5  15   -0.25    1.12
   5  15  24   -0.24    1.21
   6  24  15    1.31    1.14
  24  15   6    0.60    0.94
  15   6  24    2.16    1.52
  24   6  15    1.22    1.25
   6  15  24    2.70    1.35
  15   7  24    2.13    1.52
  24  15   7    1.95    1.04
   7  24  15    0.72    1.09
   7  15  24    1.00    1.29
  24   7  15    1.02    1.19
  15  24   7    2.35    1.10
  24  15   8    0.57    1.01
  15   8  24    3.29    1.58
   8  24  15    0.92    1.14
   8  15  24    1.47    1.37
  24   8  15    2.68    1.32
  15  24   8    1.57    1.07
  15   9  24   -1.08    1.44
  24  15   9    0.46    1.09
   9  24  15    0.77    1.16
  24   9  15    1.40    1.29
  15  24   9    0.68    1.02
   9  15  24   -0.09    1.27
  10  24  15    3.74    1.38
  24  15  10    3.60    1.32
  15  10  24    4.04    1.74
  10  15  24    5.87    1.72
  15  24  10    1.87    1.17
  24  10  15    2.34    1.35
  24   0  16    0.05    1.31
   0  16  24    0.58    1.07
   0  24  16    3.07    1.16
  16   1  24    2.11    1.66
   1  24  16    0.72    1.02
  -1  16  24    0.44    1.02
  24  -1  16    2.21    1.40
  24   1  16    0.80    1.31
   1  16  24    1.90    1.18
  -1  24  16    1.14    0.93
  24  -2  16    1.94    1.42
  16   2  24    1.64    1.53
   2  24  16   -0.33    0.96
   2  16  24   -0.06    1.11
  24   2  16    1.42    1.30
  16   3  24    1.43    1.57
  24  16   3    1.24    0.94
  24  -3  16    1.49    1.38
   3  24  16    0.91    1.03
  24   3  16    1.81    1.37
   3  16  24    0.51    1.15
  16   4  24   -0.52    1.38
   4  24  16    0.30    1.06
  24  16   4    0.76    0.91
  24   4  16   -0.83    1.22
   4  16  24   -0.56    1.18
   5  24  16    1.24    1.13
  16   5  24    1.50    1.46
  24  16   5    2.00    1.04
   5  16  24    0.31    1.20
  24   5  16    1.28    1.31
  16   6  24    0.21    1.47
  24  16   6    2.53    1.07
   6  24  16    0.30    1.16
   6  16  24    1.19    1.29
  24   6  16    0.81    1.32
  24  16   7    5.17    1.35
  16   7  24    5.95    1.85
   7  24  16    4.47    1.48
  16  24   7    6.93    1.44
   7  16  24    7.60    1.73
  24   7  16    7.20    1.79
   8  24  16    2.97    1.33
  24  16   8    2.01    1.18
  16   8  24    3.13    1.66
  16  24   8    1.50    1.06
   8  16  24    4.16    1.60
  24   8  16    2.36    1.37
  24   0  17    0.80    1.33
   0  17  24    0.00    1.05
   0  24  17   -1.01    0.83
  24  -1  17    2.99    1.54
   1  24  17    4.96    1.27
  17   1  24    7.35    1.99
   1  17  24    3.82    1.40
  24   1  17    6.62    1.72
  -1  24  17    4.83    1.29
  24  -2  17    4.10    1.61
  17   2  24    3.86    1.72
   2  24  17    2.28    1.17
   2  17  24    2.10    1.26
  24   2  17    4.72    1.61
  24  17   3    7.70    1.41
   3  24  17    8.53    1.62
  17   3  24    4.52    1.79
  24  -3  17    7.45    1.87
   3  17  24    8.04    1.67
  24   3  17    8.93    1.92
   4  24  17    0.45    1.09
  17   4  24    2.81    1.63
  24  17   4    0.14    0.86
   4  17  24    1.34    1.16
  24   4  17    0.04    1.33
  17   5  24    1.38    1.54
   5  24  17    1.22    1.13
  24  17   5    1.24    0.99
   5  17  24    1.78    1.31
  24   5  17    1.13    1.44
  24  17   6    3.07    1.18
   6  24  17    6.02    1.51
  17   6  24    3.01    1.72
  24   6  17    4.52    1.59
   6  17  24    3.85    1.53
  24   0  18    1.40    1.44
  18   0  24    3.68    1.81
   0  24  18    1.37    1.10
   0  18  24    0.65    1.16
  24  -1  18    2.05    1.49
  18   1  24    3.26    1.68
   1  24  18    3.85    1.30
   1  18  24    2.74    1.25
  24   1  18    4.03    1.66
  -1  24  18    3.43    1.22
  24  -2  18    7.71    1.94
  18   2  24    8.37    2.11
   2  24  18   10.52    1.73
  -2  24  18   12.02    1.72
  24   2  18    8.29    1.99
   2  18  24   10.43    1.85
  -3   3  25    3.97    1.23
   0   4  25    3.05    1.17
  -1   4  25    0.06    0.98
   1   4  25    0.78    1.08
  -2   4  25    0.22    0.94
   2   4  25    0.52    1.09
  -3   4  25    7.69    1.45
  -4   3  25    5.48    1.28
   3   4  25    4.92    1.50
   4   4  25    1.41    1.29
  -4   4  25    3.10    1.10
   0   5  25    0.69    1.06
  -1   5  25    7.33    1.46
   1   5  25    5.35    1.38
  -2   5  25    5.64    1.29
   2   5  25    3.95    1.31
  -3   5  25    3.34    1.12
   3   5  25    4.19    1.40
   5   4  25    0.60    1.23
  -4   5  25    1.15    1.41
   4   5  25    1.32    1.17
   5   5  25    0.91    1.16
   0   6  25    9.37    1.63
  -1   6  25    9.71    1.63
   1   6  25    9.33    1.69
  -2   6  25    9.79    1.58
   2   6  25   10.04    1.71
  -3   6  25    5.28    1.28
   3   6  25    5.48    1.47
   6   4  25    0.04    1.16
   4   6  25    0.31    1.09
   6   5  25    0.97    1.25
   5   6  25    0.60    1.11
   6   6  25    1.65    1.24
   0   7  25   10.51    1.72
  -1   7  25    0.74    1.02
   1   7  25    0.89    1.04
  -2   7  25    2.52    1.08
   2   7  25    1.64    1.17
  -3   7  25    3.41    1.15
   3   7  25    3.79    1.36
   7   4  25    6.06    1.68
   4   7  25    9.07    1.70
   7   5  25   -0.24    1.14
   5   7  25    0.56    1.10
   7   6  25    1.61    1.25
   6   7  25    2.99    1.31
   7   7  25    2.75    1.39
  25   7   7    4.96    1.78
   0   8  25   -0.78    0.96
  -1   8  25    2.14    1.13
   1   8  25    1.21    1.13
  -2   8  25    3.08    1.13
   2   8  25    2.69    1.25
  -3   8  25    1.13    1.01
   3   8  25    1.38    1.18
   8   4  25    2.30    1.39
   4   8  25    1.31    1.21
   8   5  25    0.66    1.27
   5   8  25    0.84    1.15
  25   5   8   -0.25    0.89
   8   6  25   -1.42    1.11
   6   8  25    0.91    1.20
  25   6   8    0.57    0.87
  25   8   7    0.44    0.92
   8   7  25    0.27    1.23
  25   7   8    1.31    0.92
   7   8  25   -0.12    1.15
   8   8  25    2.54    1.41
  25   8   8    2.88    1.06
   0   9  25    5.53    1.37
  -1   9  25    1.38    1.06
   1   9  25    1.84    1.15
  -2   9  25    1.65    1.10
   2   9  25    1.78    1.17
  25   2   9    2.34    1.67
   9   3  25    1.10    1.34
  25   3   9    0.38    0.94
   3   9  25   -0.35    1.10
   9   4  25    2.74    1.35
   4   9  25    0.82    1.17
  25   4   9    1.78    1.00
   9   5  25    1.67    1.37
  25   5   9    1.82    1.01
   5   9  25    2.67    1.34
   9   6  25   -0.89    1.20
  25   6   9    0.66    0.93
   6   9  25    0.30    1.20
   9   7  25    1.69    1.36
  25   9   7    0.34    0.87
   7   9  25    0.51    1.24
  25   7   9    0.27    0.94
   9   8  25   10.77    2.00
  25   9   8   10.34    1.62
  25   8   9    9.60    1.62
   8   9  25   11.24    2.01
   9  25   9    1.28    0.96
   9   9  25    3.48    1.46
  25   9   9    2.23    1.06
  25   0  10    9.80    2.45
   0  10  25   15.18    1.97
  -1  10  25    2.59    1.16
  25   1  10    2.77    1.10
   1  10  25    3.14    1.27
  -2  10  25   11.23    1.69
   2  10  25   13.46    1.97
  25   2  10   11.14    1.72
  10   3  25    1.17    1.44
   3  10  25    0.52    1.11
  25   3  10   -0.02    0.88
  10   4  25    5.51    1.69
   4  10  25    8.83    1.75
  25   4  10    7.61    1.45
  10   5  25    4.28    1.59
   5  10  25    4.98    1.53
  25   5  10    6.11    1.35
  10   6  25    7.45    1.81
   6  10  25    6.49    1.66
  25   6  10    4.22    1.26
  10   7  25    1.50    1.43
  25  10   7    2.94    1.05
   7  25  10    2.39    1.07
  25   7  10    4.71    1.32
   7  10  25    3.69    1.52
  10   8  25   -0.74    1.18
   8  25  10    1.67    1.06
  25  10   8    1.19    0.99
   8  10  25    1.49    1.34
  25   8  10    0.87    1.02
   9  25  10    3.90    1.23
  10   9  25    3.98    1.55
  25  10   9    4.43    1.26
  25   9  10    4.44    1.30
   9  10  25    3.55    1.62
  10  25   9    5.99    1.33
  25  10  10    2.28    1.12
  10  10  25    4.32    1.66
  10  25  10    1.30    1.09
  25   0  11    3.33    1.21
   0  11  25    4.92    1.36
  25  -1  11    2.16    1.12
  -1  11  25    3.98    1.23
   1  11  25    2.95    1.24
  25   1  11    2.97    1.19
  25  -2  11    1.97    1.83
  -2  11  25    0.18    0.89
   2  11  25    0.68    1.10
  25   2  11   -0.92    0.91
  11   3  25    3.30    1.57
   3  11  25    6.73    1.55
  25   3  11    4.80    1.31
  11   4  25    0.56    1.31
  25   4  11    0.63    1.05
   4  11  25    0.34    1.13
  11   5  25    1.58    1.45
   5  25  11    2.86    1.04
  25   5  11    2.75    1.18
   5  11  25   -0.02    1.18
  11   6  25    5.05    1.61
  25  11   6    2.83    1.19
   6  25  11    3.16    1.17
  25   6  11    3.81    1.26
   6  11  25    2.73    1.38
  25  11   7    6.55    1.32
   7  25  11    8.07    1.54
  11   7  25    3.76    1.64
   7  11  25    4.00    1.50
  25   7  11    4.24    1.30
   8  25  11    2.53    1.15
  11   8  25    1.70    1.48
  25  11   8    1.08    1.03
   8  11  25    1.75    1.36
  25   8  11    1.93    1.18
   9  25  11    0.46    1.03
  11   9  25   -1.03    1.22
  25  11   9    0.01    0.96
  11  25   9    0.49    0.95
  25   9  11    0.63    1.08
   9  11  25   -1.52    1.27
  11  10  25    0.27    1.37
  25  11  10    1.40    1.13
  10  25  11    0.76    1.06
  25  10  11   -0.18    0.99
  10  11  25   -0.61    1.34
  11  25  10    0.55    1.05
  11  25  11    4.16    1.28
  11  11  25    3.99    1.67
  25  11  11    4.25    1.36
  25   0  12    1.70    1.18
   0  12  25   -0.56    1.01
  -1  12  25    3.78    1.26
  25  -1  12    2.86    1.22
   1  12  25    1.05    1.14
  25   1  12    2.33    1.21
  25  -2  12    3.67    1.29
   2  12  25    3.13    1.30
  25   2  12    3.49    1.33
  12   3  25    1.38    1.51
  25  -3  12    2.05    1.21
   3  12  25    2.89    1.31
  25   3  12    3.11    1.19
   4  25  12    1.01    0.98
  12   4  25    3.26    1.55
  25   4  12    2.15    1.18
   4  12  25    2.82    1.39
   5  25  12    0.60    1.03
  12   5  25   -1.01    1.30
   5  12  25    0.46    1.17
  25   5  12    1.79    1.18
  25  12   6    2.31    1.03
   6  25  12    0.82    1.08
  12   6  25    1.27    1.45
   6  12  25    1.44    1.28
  25   6  12    1.16    1.13
   7  25  12    1.42    1.07
  12   7  25   -0.55    1.33
  25  12   7    1.32    0.92
  25   7  12   -0.15    1.08
   7  12  25    2.96    1.46
  25  12   8    3.97    1.23
   8  25  12    2.92    1.16
  12   8  25    2.36    1.59
  25   8  12    2.65    1.28
   8  12  25   -0.10    1.24
   9  25  12   11.77    1.89
  12   9  25   12.27    2.19
  25  12   9   12.19    1.79
   9  12  25   12.22    2.08
  12  25   9    9.14    1.61
  25   9  12   10.62    1.86
  12  10  25    2.16    1.57
  25  12  10    2.52    1.19
  10  25  12    1.36    1.11
  10  12  25    2.48    1.49
  12  25  10    2.58    1.19
  25  10  12    0.95    1.14
  11  25  12    1.12    1.11
  25  12  11   -0.47    1.07
  12  11  25    1.48    1.51
  25  11  12    3.44    1.29
  11  12  25    0.94    1.42
  12  25  11    2.77    1.23
  25   0  13   -1.26    1.01
   0  13  25   -0.62    1.02
  -1  13  25    3.59    1.24
  25  -1  13    1.14    1.22
   1  13  25    4.93    1.42
  25   1  13    3.34    1.28
  25  -2  13    0.17    1.12
  13   2  25   -0.39    1.44
  25   2  13   -0.05    1.07
   2  13  25   -0.32    1.06
  13   3  25    0.96    1.42
  25  -3  13    0.22    1.13
   3  25  13    1.80    1.01
  25   3  13    1.70    1.18
   3  13  25   -0.09    1.12
  25  -4  13   10.95    1.83
  13   4  25    8.51    1.98
   4  25  13    8.35    1.59
   4  13  25   10.43    1.86
  25   4  13    9.06    1.74
  13   5  25    1.09    1.47
   5  25  13    0.29    1.05
   5  13  25   -0.46    1.19
  25   5  13   -0.28    1.09
  13   6  25    1.67    1.49
  25  13   6    1.62    0.98
   6  25  13   -0.57    0.96
   6  13  25    0.13    1.25
  25   6  13    1.30    1.18
   7  25  13    4.91    1.36
  13   7  25    4.07    1.68
  25  13   7    5.26    1.27
   7  13  25    7.25    1.69
  25   7  13    4.05    1.37
  25  13   8    3.52    1.19
  13   8  25    3.24    1.60
   8  25  13    1.34    1.10
  25   8  13    2.99    1.33
   8  13  25    2.57    1.40
  13   9  25    2.88    1.64
  25  13   9    0.23    1.01
   9  25  13    0.40    1.10
  25   9  13    0.41    1.13
  13  25   9    3.53    1.22
   9  13  25    2.06    1.45
  10  25  13    1.02    1.15
  13  10  25    3.61    1.61
  25  13  10    1.31    1.18
  13  25  10    2.78    1.20
  25  10  13    1.59    1.27
  10  13  25    3.81    1.54
  25   0  14   11.97    1.99
   0  14  25   14.49    1.98
  -1  14  25    2.31    1.25
  25  -1  14    3.60    1.42
  25   1  14    2.16    1.26
   1  14  25    1.61    1.27
  25  -2  14    1.33    1.31
  14   2  25    2.66    1.60
   2  25  14    2.27    1.09
  25   2  14    0.78    1.23
   2  14  25    1.98    1.30
  25  -3  14    3.09    1.41
   3  25  14    5.41    1.35
  14   3  25    6.44    1.78
   3  14  25    6.15    1.57
  25   3  14    5.30    1.51
  25  -4  14    6.75    1.69
  14   4  25    7.04    1.87
   4  25  14    8.69    1.62
  25   4  14    7.39    1.67
   4  14  25    7.16    1.66
  14   5  25    2.01    1.51
   5  25  14    0.18    0.97
  25   5  14    5.11    1.50
   5  14  25    2.06    1.32
  14   6  25    4.86    1.70
   6  25  14    4.81    1.32
  25  14   6    2.99    1.21
   6  14  25    4.38    1.58
  25   6  14    4.79    1.50
  14   7  25    4.91    1.66
  25  14   7    5.21    1.28
   7  25  14    2.07    1.23
  25   7  14    3.42    1.39
   7  14  25    3.28    1.51
  25  14   8    0.96    1.05
  14   8  25    3.24    1.68
   8  25  14    1.20    1.14
   8  14  25    0.35    1.30
  25   8  14    0.65    1.18
  14  25   8    1.51    0.98
   9  25  14   -1.38    1.02
  25  14   9    1.07    1.09
  14   9  25    1.89    1.52
  25   9  14    1.00    1.25
   9  14  25   -1.31    1.29
  14  25   9    0.10    1.06
   0  15  25    0.77    1.12
  25   0  15    1.89    1.36
  25  -1  15    8.68    1.75
  15   1  25    8.79    2.18
   1  25  15    6.32    1.40
  25   1  15    6.91    1.66
   1  15  25    6.98    1.54
   2  25  15    0.84    1.11
  25  -2  15   -0.36    1.19
  15   2  25    1.02    1.45
  25   2  15    1.76    1.27
   2  15  25    1.37    1.21
  25  -3  15   10.80    1.97
   3  25  15   12.24    1.82
  15   3  25    9.73    2.13
   3  15  25    8.74    1.81
  25   3  15   11.11    1.94
  15   4  25    0.95    1.43
   4  25  15    0.80    1.01
  25  -4  15    1.31    1.36
   4  15  25    0.54    1.29
  25   4  15    0.98    1.29
  15   5  25    5.16    1.77
   5  25  15    9.98    1.69
   5  15  25    9.23    1.89
  25   5  15    7.32    1.74
   6  25  15    0.01    1.07
  15   6  25    0.96    1.51
  25  15   6    0.45    1.00
   6  15  25    0.68    1.30
  25   6  15    2.22    1.33
  15   7  25    3.65    1.74
  25  15   7    2.59    1.19
   7  25  15    3.72    1.35
  25   7  15    2.84    1.38
   7  15  25    2.05    1.42
  25   0  16   -1.18    1.22
   0  16  25   -0.28    1.08
   1  25  16    4.12    1.28
  16   1  25    4.78    1.93
  25  -1  16    5.40    1.59
   1  16  25    4.14    1.32
  25   1  16    4.12    1.59
  25  -2  16    4.32    1.55
  16   2  25    3.87    1.68
   2  25  16    3.05    1.23
   2  16  25    2.12    1.31
  25   2  16    1.89    1.41
   3  25  16    3.64    1.31
  16   3  25    5.85    1.88
  25  -3  16    5.74    1.65
  25   3  16    3.23    1.54
   3  16  25    4.23    1.47
   4  25  16    0.16    1.07
  16   4  25    0.35    1.40
  25  -4  16    0.03    1.33
  25   4  16    0.49    1.25
   4  16  25   -0.05    1.22
   5  25  16    2.95    1.26
  25   5  16    1.91    1.38
   5  16  25    2.76    1.40
   0   3  26    0.71    1.14
  -1   3  26    0.75    1.16
  -2   3  26    9.81    1.73
  -3   3  26    0.69    0.99
   0   4  26    0.53    1.00
  -1   4  26    0.88    1.04
   1   4  26    0.34    1.06
  -2   4  26   -0.22    0.88
   2   4  26    0.51    1.14
  -3   4  26    6.24    1.38
   3   4  26   10.13    1.88
   4   4  26    2.67    1.35
   0   5  26    0.52    1.06
  -1   5  26    2.67    1.18
   1   5  26    3.71    1.30
  -2   5  26   -0.08    0.99
   2   5  26   -0.33    1.03
  -3   5  26    0.05    0.97
   3   5  26   -0.32    1.10
   5   4  26    5.51    1.56
   4   5  26    6.07    1.53
   5   5  26   -0.14    1.11
   0   6  26    2.40    1.20
  -1   6  26    2.07    1.14
   1   6  26    2.93    1.22
  -2   6  26    9.38    1.62
   2   6  26    8.98    1.72
  -3   6  26   13.95    2.70
   3   6  26   13.39    2.03
   6   4  26    1.23    1.30
   4   6  26    1.24    1.19
   6   5  26    2.01    1.34
   5   6  26    0.60    1.19
   6   6  26   -0.20    1.17
   0   7  26    0.04    1.01
  -1   7  26   12.18    1.85
   1   7  26   13.98    2.05
  -2   7  26    6.37    1.43
   2   7  26    2.39    1.27
   7   3  26    5.66    1.73
   3   7  26    7.08    1.63
   7   4  26    0.44    1.22
   4   7  26    2.16    1.27
   7   5  26   13.02    2.14
   5   7  26   11.95    2.03
   7   6  26    0.84    1.34
   6   7  26    2.53    1.34
   7   7  26    0.03    1.26
   0   8  26    1.43    1.20
  -1   8  26    1.72    1.15
   1   8  26    2.50    1.26
  -2   8  26    0.66    1.03
   2   8  26    1.13    1.17
   8   3  26    4.52    1.66
   3   8  26    1.61    1.20
   8   4  26    0.59    1.33
   4   8  26    2.19    1.33
   8   5  26    1.32    1.29
   5   8  26    2.16    1.30
   8   6  26    3.84    1.53
   6   8  26    6.69    1.67
   8   7  26   -0.47    1.25
   7   8  26    1.50    1.38
   8   8  26    9.24    1.94
   0   9  26    1.81    1.19
  -1   9  26    2.56    1.19
   1   9  26    1.10    1.17
  -2   9  26    1.89    1.33
   2   9  26    2.09    1.28
   9   3  26   -0.14    1.43
   3   9  26   -0.29    1.16
   9   4  26    1.57    1.41
   4   9  26   -0.79    1.10
   9   5  26    2.56    1.50
   5   9  26    3.63    1.47
   9   6  26    1.36    1.39
   6   9  26    1.44    1.30
   9   7  26   -0.45    1.25
   7   9  26    1.71    1.40
   9   8  26   -0.52    1.28
   8   9  26    1.16    1.33
   9   9  26   -0.18    1.34
   0  10  26    0.30    1.05
  -1  10  26    0.68    1.08
   1  10  26    2.00    1.23
   2  10  26   -0.17    1.15
  10   3  26    4.27    1.68
   3  10  26    5.64    1.53
  10   4  26    0.99    1.36
   4  10  26    4.69    1.53
  10   5  26    4.96    1.66
   5  10  26    4.95    1.56
  10   6  26   -0.18    1.33
   6  10  26    0.76    1.29
  26   6  10    0.64    1.68
  10   7  26    2.96    1.57
   7  10  26    1.15    1.37
  26   7  10    1.34    1.15
  10   8  26    9.95    2.07
   8  10  26   14.17    2.29
  26   8  10   15.15    2.02
  26  10   9    0.23    1.14
  10   9  26    2.66    1.54
   9  10  26    1.97    1.47
  26   9  10    2.98    1.19
  26  10  10   -0.12    0.99
  10  10  26    0.80    1.51
   0  11  26   -0.34    1.04
  -1  11  26    6.82    1.44
   1  11  26    5.01    1.46
   2  11  26    4.09    1.43
  11   3  26    9.22    2.06
   3  11  26    9.80    1.84
  11   4  26    2.35    1.55
  26   4  11    2.23    1.32
   4  11  26    2.18    1.33
  11   5  26    6.67    1.80
   5  11  26    6.32    1.70
  26   5  11    6.24    1.41
  11   6  26   -0.10    1.33
   6  11  26   -0.01    1.20
  26   6  11    1.10    1.08
  11   7  26    1.52    1.52
   7  11  26    0.73    1.22
  26   7  11    1.24    1.12
   8  26  11    0.87    1.01
  11   8  26    1.51    1.45
  26   8  11    0.47    1.07
   8  11  26    0.08    1.33
   9  26  11    0.20    0.97
  11   9  26   -0.41    1.37
  26  11   9    0.45    1.04
   9  11  26    0.65    1.32
  26   9  11    2.74    1.22
  26  11  10    1.03    1.10
  11  10  26    1.81    1.52
  10  26  11   -0.87    0.99
  11  26  10    0.20    0.98
  10  11  26    2.60    1.54
  26  10  11   -0.07    1.01
   0  12  26    0.46    1.12
  -1  12  26   -0.70    1.64
   1  12  26   -0.24    1.05
  12   2  26   -0.59    1.41
   2  12  26   -0.88    1.08
  26   2  12   -0.32    1.16
  12   3  26    2.70    1.59
   3  12  26   -0.54    1.11
  26   3  12    1.49    1.15
  12   4  26    4.94    1.78
  26   4  12    6.61    1.54
   4  12  26    8.42    1.76
  12   5  26    1.19    1.52
  26   5  12    2.07    1.15
   5  12  26    2.32    1.35
   6  26  12    0.92    0.97
  12   6  26    1.85    1.50
  26   6  12    0.60    1.08
   6  12  26    0.21    1.24
  12   7  26    0.19    1.39
   7  26  12    0.38    1.04
  26   7  12    1.80    1.15
   7  12  26    1.08    1.36
  12   8  26    2.46    1.56
   8  26  12    4.06    1.27
   8  12  26    4.72    1.56
  26   8  12    2.59    1.31
  12   9  26    2.96    1.62
  26  12   9    1.68    1.13
   9  26  12    0.92    1.11
   9  12  26    3.48    1.57
  26   9  12    2.90    1.30
  26   0  13    5.13    2.09
   0  13  26    6.41    1.49
   1  13  26    2.22    1.28
  26   1  13    1.42    1.22
  13   2  26    1.33    1.49
  26   2  13    4.24    1.40
   2  13  26    3.30    1.41
  13   3  26    2.28    1.56
  26   3  13    0.99    1.15
   3  13  26    1.53    1.30
  13   4  26    1.36    1.55
   4  13  26    2.30    1.31
  26   4  13    2.34    1.23
  13   5  26    1.82    1.58
   5  26  13    2.54    1.13
   5  13  26    2.00    1.39
  26   5  13    0.52    1.13
  13   6  26    0.21    1.46
   6  26  13    1.10    1.06
   6  13  26    0.85    1.30
  26   6  13    1.08    1.17
  13   7  26   -0.85    1.33
   7  26  13    0.18    1.06
   7  13  26    1.45    1.36
  26   7  13   -0.27    1.17
  26   0  14    3.48    1.44
   0  14  26    5.17    1.46
  26  -1  14    3.20    1.38
  26   1  14    1.48    1.26
   1  14  26    1.20    1.15
  14   2  26    0.09    1.46
  26   2  14    1.56    1.28
   2  14  26    2.40    1.36
  14   3  26    1.45    1.51
  26   3  14    1.29    1.30
   3  14  26    0.74    1.24
   4  26  14    2.15    1.08
  14   4  26    1.54    1.47
   4  14  26    1.82    1.36
  26   4  14    1.69    1.29
   5  26  14    0.28    1.05
  14   5  26   -0.32    1.41
  26   5  14    0.02    1.15
   5  14  26    0.78    1.35
   6  26  14   -0.58    1.02
  26   0  15    0.14    1.23
  15   1  26   20.31    2.83
  26  -1  15   12.72    2.18
  26   1  15   15.58    2.32
   1  15  26   14.39    2.11
  26  -2  15    1.31    1.36
  15   2  26    0.85    1.50
  26   2  15    1.06    1.28
   2  15  26    0.46    1.20
   0   3  27    4.10    1.45
  -1   3  27    5.84    1.44
   1   3  27    4.41    1.50
  -2   3  27    3.84    1.26
   2   3  27    4.45    1.48
   3   3  27    2.27    1.45
  -3   3  27    0.95    1.90
   0   4  27    2.77    1.28
  -1   4  27    1.65    1.16
   1   4  27   -0.33    1.04
  -2   4  27    1.64    1.15
   2   4  27    1.47    1.19
   4   3  27    1.16    1.43
   3   4  27    1.65    1.31
   4   4  27    8.25    1.81
   0   5  27   11.37    1.88
  -1   5  27    0.27    1.09
   1   5  27   -0.25    1.09
  -2   5  27    2.26    1.15
   2   5  27    1.08    1.16
   5   3  27    1.81    1.51
   3   5  27    1.13    1.26
   5   4  27    0.26    1.27
   4   5  27    1.58    1.32
   5   5  27   -0.04    1.23
   0   6  27    0.65    1.17
  -1   6  27    4.68    1.37
   1   6  27    5.44    1.53
  -2   6  27   -0.07    1.11
   2   6  27    0.03    1.15
   6   3  27    0.51    1.36
   3   6  27    0.97    1.25
   6   4  27    2.16    1.36
   4   6  27    0.75    1.25
   6   5  27    4.37    1.53
   5   6  27    5.68    1.65
   6   6  27    0.73    1.38
   0   7  27    2.02    1.22
  -1   7  27    0.54    1.05
   1   7  27    1.13    1.22
   2   7  27    6.60    1.64
   7   3  27    1.90    1.52
   3   7  27    1.32    1.31
   7   4  27    0.13    1.32
   4   7  27    1.72    1.29
   7   5  27    4.66    1.59
   5   7  27    4.53    1.55
   7   6  27    2.09    1.41
   6   7  27    3.60    1.55
   7   7  27    1.45    1.35
   0   8  27   11.41    1.88
  -1   8  27    4.51    1.37
   1   8  27    3.72    1.42
   2   8  27    4.80    1.53
   8   3  27   -0.14    1.38
   3   8  27    0.16    1.22
   8   4  27   10.49    2.06
   4   8  27   10.19    1.92
   8   5  27    0.98    1.34
   5   8  27    1.39    1.34
   8   6  27    4.98    1.71
   6   8  27    5.48    1.65
   8   7  27    2.19    1.51
   7   8  27    1.75    1.48
   8   8  27    1.92    1.44
   0   9  27    3.02    1.31
  -1   9  27    1.91    1.21
   1   9  27    1.55    1.23
   2   9  27    2.53    1.32
   9   3  27    4.20    1.62
   3   9  27    3.88    1.47
   9   4  27    0.75    1.34
   4   9  27    1.70    1.30
   9   5  27    4.99    1.66
   5   9  27    3.96    1.52
   9   6  27    1.39    1.37
   6   9  27    1.32    1.41
   9   7  27    0.80    1.38
   7   9  27    1.82    1.48
   9   8  27   -0.32    1.26
   8   9  27   -2.05    1.28
   9   9  27    1.38    1.50
   0  10  27   -0.54    1.05
   1  10  27   -0.44    1.09
  10   2  27    5.76    1.86
   2  10  27    1.79    1.25
  10   3  27    1.30    1.52
   3  10  27    0.77    1.28
  10   4  27   -0.11    1.38
   4  10  27    1.40    1.31
  10   5  27    0.29    1.37
   5  10  27    1.26    1.31
  10   6  27    0.04    1.35
   6  10  27   -0.25    1.32
  10   7  27    7.01    1.84
   7  10  27    1.88    1.43
  10   8  27    0.77    1.47
   8  10  27    3.30    1.59
   0  11  27   -0.97    1.07
   1  11  27    1.51    1.19
  11   2  27    2.44    1.60
   2  11  27    1.11    1.18
  11   3  27    0.97    1.40
   3  11  27    1.72    1.30
  11   4  27    4.52    1.79
   4  11  27    4.82    1.56
  11   5  27    0.37    1.44
   5  11  27   -0.04    1.27
  11   6  27    0.68    1.48
   6  11  27    2.78    1.48
  11   7  27    1.09    1.50
   7  11  27    3.29    1.55
   0  12  27   10.86    2.01
   1  12  27    0.23    1.07
  12   2  27    3.52    1.73
   2  12  27    0.57    1.20
  12   3  27    0.52    1.43
   3  12  27    0.09    1.25
  12   4  27    2.64    1.60
   4  12  27    1.25    1.30
  12   5  27    3.28    1.65
   5  12  27    4.02    1.57
  13   1  27    8.55    2.18
   1  13  27    8.49    1.74
  13   2  27   -0.70    1.43
   2  13  27    0.20    1.20
  -1   2  28    1.38    1.29
  -2   2  28    0.60    1.15
   0   3  28    0.18    1.20
  -1   3  28    0.37    1.11
   1   3  28    0.51    1.16
  -2   3  28    0.40    1.14
   2   3  28   -0.16    1.25
   3   3  28    5.21    1.59
   0   4  28   10.00    1.80
  -1   4  28    1.96    1.24
   1   4  28    3.11    1.37
   2   4  28    3.59    1.46
   4   3  28    0.87    1.34
   3   4  28   -1.52    1.05
   4   4  28    3.75    1.52
   0   5  28    3.18    1.35
  -1   5  28    8.89    1.73
   1   5  28    6.52    1.59
   2   5  28    0.40    1.20
   5   3  28    2.79    1.51
   3   5  28    3.77    1.45
   5   4  28    0.75    1.36
   4   5  28    2.00    1.43
   5   5  28    4.68    1.66
   0   6  28    1.72    1.27
  -1   6  28    1.56    1.24
   1   6  28    2.29    1.35
   2   6  28    1.73    1.30
   6   3  28    3.21    1.60
   3   6  28    1.85    1.30
   6   4  28    0.15    1.28
   4   6  28    0.02    1.26
   6   5  28    3.19    1.54
   5   6  28    0.90    1.33
   6   6  28    1.35    1.35
   0   7  28    0.35    1.18
   1   7  28    0.20    1.24
   2   7  28    0.52    1.22
   7   3  28    0.71    1.40
   3   7  28    0.96    1.32
   7   4  28    1.94    1.53
   4   7  28    0.41    1.34
   7   5  28    1.50    1.46
   5   7  28    0.79    1.33
   7   6  28   -0.02    1.37
   6   7  28   -0.01    1.35
   7   7  28   15.16    2.38
   0   8  28    4.77    1.49
   1   8  28    7.41    1.67
   8   2  28    1.59    1.56
   2   8  28    1.11    1.23
   8   3  28    1.19    1.44
   3   8  28   -0.27    1.15
   8   4  28    0.43    1.36
   4   8  28    1.98    1.36
   8   5  28    8.18    1.91
   5   8  28    7.91    1.86
   8   6  28    2.48    1.55
   6   8  28    4.30    1.61
   8   7  28    1.75    1.54
   7   8  28    1.45    1.44
   0   9  28    7.26    1.61
   1   9  28    5.69    1.58
   9   2  28    0.98    1.61
   2   9  28    0.73    1.22
   9   3  28    8.05    1.92
   3   9  28   10.33    1.92
   9   4  28    1.56    1.53
   4   9  28    0.19    1.24
   9   5  28    2.14    1.59
   5   9  28    1.89    1.39
   9   6  28    2.23    1.56
   6   9  28    3.10    1.57
   1  10  28    0.55    1.19
  10   2  28    3.11    1.72
   2  10  28    2.87    1.39
  10   3  28    3.06    1.63
   3  10  28    5.78    1.66
  10   4  28    7.87    1.95
   4  10  28    5.11    1.60
   1  11  28   -0.33    1.10
   0   2  29   -0.46    1.21
  -1   2  29    1.00    1.32
   1   2  29    1.73    1.41
   2   2  29    3.83    1.62
   0   3  29    3.28    1.41
  -1   3  29    3.60    1.36
   1   3  29    3.96    1.46
   3   2  29    0.84    1.44
   2   3  29    0.45    1.25
   3   3  29    4.77    1.64
   0   4  29   -0.71    1.16
   1   4  29    0.65    1.18
   4   2  29    4.37    1.69
   2   4  29    1.92    1.32
   4   3  29    2.25    1.49
   3   4  29    2.93    1.47
   4   4  29    6.17    1.75
   0   5  29    1.79    1.25
   1   5  29    2.17    1.35
   5   2  29    1.56    1.48
   2   5  29    0.44    1.23
   5   3  29    3.75    1.60
   3   5  29    2.81    1.45
   5   4  29    1.75    1.44
   4   5  29    2.33    1.40
   5   5  29    0.62    1.39
   0   6  29    1.33    1.24
   1   6  29    0.16    1.24
   6   2  29    7.21    1.88
   2   6  29   10.64    2.01
   6   3  29    1.68    1.50
   3   6  29    0.92    1.23
   6   4  29    2.02    1.51
   4   6  29    2.41    1.44
   6   5  29    3.90    1.64
   5   6  29    1.03    1.40
   0   7  29    0.75    1.52
   1   7  29    1.63    1.24
   7   2  29    0.65    1.57
   2   7  29    1.92    1.40
   7   3  29    2.78    1.62
   3   7  29    1.91    1.42
   0   2  30    0.26    1.24
   1   2  30    0.35    1.23
   0   0   0    0.00    0.00
;
_shelx_hkl_checksum              94147
loop_
_space_group_symop_operation_xyz
'x, y, z'
'-x+1/2, -y, z+1/2'
'-x, y+1/2, -z+1/2'
'x+1/2, -y+1/2, -z'
'z, x, y'
'z+1/2, -x+1/2, -y'
'-z+1/2, -x, y+1/2'
'-z, x+1/2, -y+1/2'
'y, z, x'
'-y, z+1/2, -x+1/2'
'y+1/2, -z+1/2, -x'
'-y+1/2, -z, x+1/2'
'y+1/4, x+3/4, -z+3/4'
'-y+1/4, -x+1/4, -z+1/4'
'y+3/4, -x+3/4, z+1/4'
'-y+3/4, x+1/4, z+3/4'
'x+1/4, z+3/4, -y+3/4'
'-x+3/4, z+1/4, y+3/4'
'-x+1/4, -z+1/4, -y+1/4'
'x+3/4, -z+3/4, y+1/4'
'z+1/4, y+3/4, -x+3/4'
'z+3/4, -y+3/4, x+1/4'
'-z+3/4, y+1/4, x+3/4'
'-z+1/4, -y+1/4, -x+1/4'
loop_
_atom_site_label
_atom_site_type_symbol
_atom_site_fract_x
_atom_site_fract_y
_atom_site_fract_z
_atom_site_U_iso_or_equiv
_atom_site_adp_type
_atom_site_occupancy
_atom_site_site_symmetry_order
_atom_site_calc_flag
_atom_site_refinement_flags_posn
_atom_site_refinement_flags_adp
_atom_site_refinement_flags_occupancy
_atom_site_disorder_assembly
_atom_site_disorder_group
Cu01 Cu 0.6250 0.09341(2) 0.15659(2) 0.02627(12) Uani 1 2 d S TU P . .
O1 O 0.39239(13) 0.18256(13) 0.28601(13) 0.0396(6) Uani 1 1 d . U . . .
O2 O 0.34681(15) 0.16153(13) 0.18813(14) 0.0501(7) Uani 1 1 d . U . . .
N1 N 0.42989(11) 0.30645(12) 0.25374(13) 0.0227(5) Uani 1 1 d . U . . .
N2 N 0.50698(12) 0.33393(12) 0.32417(12) 0.0219(5) Uani 1 1 d . U . . .
N3 N 0.46281(13) 0.38662(12) 0.31977(13) 0.0267(5) Uani 1 1 d . U . . .
N4 N 0.57220(13) 0.17427(13) 0.13846(13) 0.0305(6) Uani 1 1 d . U . . .
N5 N 0.54209(15) 0.27687(14) 0.12120(15) 0.0335(6) Uani 1 1 d . U . . .
H5 H 0.5448 0.3197 0.1134 0.040 Uiso 1 1 calc R U . . .
C1 C 0.38904(15) 0.27006(15) 0.20558(16) 0.0264(6) Uani 1 1 d . U . . .
H1 H 0.3451 0.2930 0.2038 0.032 Uiso 1 1 calc R U . . .
C2 C 0.48624(14) 0.28686(14) 0.28433(15) 0.0240(6) Uani 1 1 d . U . . .
H2 H 0.5076 0.2454 0.2779 0.029 Uiso 1 1 calc R U . . .
C3 C 0.41803(15) 0.36802(14) 0.27684(15) 0.0250(6) Uani 1 1 d . U . . .
H3 H 0.3815 0.3946 0.2635 0.030 Uiso 1 1 calc R U . . .
C4 C 0.41878(16) 0.27415(16) 0.13590(16) 0.0310(7) Uani 1 1 d . U . . .
H4A H 0.3885 0.2522 0.1041 0.037 Uiso 1 1 calc R U . . .
H4B H 0.4228 0.3213 0.1228 0.037 Uiso 1 1 calc R U . . .
C5 C 0.48528(16) 0.24217(16) 0.13199(16) 0.0285(6) Uani 1 1 d . U . . .
C6 C 0.50461(17) 0.17853(17) 0.14294(16) 0.0307(7) Uani 1 1 d . U . . .
H6 H 0.4757 0.1426 0.1523 0.037 Uiso 1 1 calc R U . . .
C7 C 0.59307(19) 0.23473(16) 0.12447(18) 0.0347(7) Uani 1 1 d . U . . .
H7 H 0.6381 0.2466 0.1177 0.042 Uiso 1 1 calc R U . . .
C8 C 0.37574(15) 0.19850(16) 0.22981(17) 0.0288(6) Uani 1 1 d . U . . .
O1W O 0.64264(17) 0.27284(16) 0.28624(17) 0.0587(8) Uani 1 1 d D U . . .
H1WA H 0.653(2) 0.2335(6) 0.275(2) 0.088 Uiso 1 1 d D U . . .
H1WB H 0.6703(15) 0.2975(11) 0.2657(18) 0.088 Uiso 1 1 d D U . . .
O2W O 0.7529(8) 0.2805(10) 0.1961(7) 0.100(5) Uani 0.25 1 d D U P . 1
H2WA H 0.7668(6) 0.2668(6) 0.2332(6) 0.150 Uiso 0.75 3 d DS U P A 1
H2WB H 0.7846(15) 0.3031(19) 0.1799(15) 0.150 Uiso 0.25 1 d D U P B 1
O3W O 0.7898(12) 0.2499(11) 0.1510(12) 0.108(6) Uani 0.1667 1 d D U P C -2
H3WA H 0.8154(16) 0.2796(18) 0.1665(19) 0.162 Uiso 0.1667 1 d D U P D -2
H3WB H 0.7673(16) 0.269(2) 0.1211(15) 0.162 Uiso 0.1667 1 d D U P E -2
O4W O 0.2468(9) 0.2202(12) 0.1035(8) 0.110(5) Uani 0.25 1 d D U P F 1
H4WA H 0.249(2) 0.224(7) 0.1455(10) 0.165 Uiso 0.25 1 d D U P G 1
H4WB H 0.2063(12) 0.211(5) 0.0954(19) 0.165 Uiso 0.25 1 d D U P H 1
O5W O 0.2194(11) 0.2053(11) 0.1345(8) 0.122(5) Uani 0.25 1 d D U P I 2
H5WA H 0.215(3) 0.205(4) 0.1765(9) 0.182 Uiso 0.25 1 d D U P J 2
H5WB H 0.1887(17) 0.180(2) 0.1205(17) 0.182 Uiso 0.25 1 d D U P K 2
O6W O 0.2508(13) 0.1666(15) 0.102(2) 0.117(6) Uani 0.0833 1 d D U P L 3
H6WA H 0.2223(13) 0.150(3) 0.128(2) 0.175 Uiso 0.0833 1 d D U P M 3
H6WB H 0.2811(13) 0.1375(19) 0.098(3) 0.175 Uiso 0.0833 1 d D U P N 3
O7W O 0.4301(19) 0.0832(12) 0.0237(12) 0.073(9) Uani 0.0833 1 d D U P O 1
H7WA H 0.442(3) 0.0438(11) 0.014(3) 0.109 Uiso 0.0833 1 d D U P P 1
H7WB H 0.413(3) 0.0983(17) -0.0120(15) 0.109 Uiso 0.0833 1 d D U P Q 1
O8W O 0.7520(7) 0.2910(9) 0.0451(9) 0.115(9) Uani 0.1667 1 d D U P R -3
H8WA H 0.7925(7) 0.3012(19) 0.051(3) 0.173 Uiso 0.1667 1 d D U P S -3
H8WB H 0.7434(17) 0.2631(11) 0.0755(10) 0.173 Uiso 0.1667 1 d D U P T -3
O9W O 0.3537(7) 0.1261(8) 0.0484(10) 0.075(7) Uani 0.0833 1 d D U P U -4
H9WA H 0.3927(6) 0.1108(9) 0.044(2) 0.112 Uiso 0.0833 1 d D U P V -4
H9WB H 0.3526(12) 0.1602(7) 0.0237(11) 0.112 Uiso 0.0833 1 d D U P W -4
loop_
_atom_site_aniso_label
_atom_site_aniso_U_11
_atom_site_aniso_U_22
_atom_site_aniso_U_33
_atom_site_aniso_U_23
_atom_site_aniso_U_13
_atom_site_aniso_U_12
Cu01 0.0305(3) 0.02418(15) 0.02418(15) 0.00543(19) 0.01025(15) 0.01025(15)
O1 0.0457(15) 0.0362(13) 0.0369(14) 0.0011(10) 0.0024(11) -0.0054(11)
O2 0.0597(17) 0.0330(13) 0.0576(17) -0.0059(12) -0.0191(14) -0.0084(12)
N1 0.0189(11) 0.0205(11) 0.0287(12) -0.0021(9) -0.0037(9) 0.0041(8)
N2 0.0202(11) 0.0211(11) 0.0243(12) 0.0030(9) -0.0028(8) 0.0025(8)
N3 0.0270(12) 0.0221(12) 0.0309(13) -0.0012(10) -0.0027(9) 0.0039(9)
N4 0.0317(14) 0.0294(13) 0.0304(14) 0.0051(10) 0.0080(10) 0.0093(10)
N5 0.0382(15) 0.0243(13) 0.0379(15) 0.0047(11) 0.0055(12) 0.0059(11)
C1 0.0226(14) 0.0245(14) 0.0319(15) -0.0067(11) -0.0071(11) 0.0060(10)
C2 0.0228(14) 0.0201(13) 0.0291(14) 0.0008(10) -0.0034(11) 0.0036(10)
C3 0.0230(14) 0.0209(13) 0.0311(14) 0.0013(11) -0.0005(10) 0.0048(10)
C4 0.0354(17) 0.0273(15) 0.0304(16) -0.0014(12) -0.0111(12) 0.0117(12)
C5 0.0352(16) 0.0263(15) 0.0240(14) -0.0006(11) -0.0005(12) 0.0096(11)
C6 0.0342(16) 0.0267(15) 0.0312(16) 0.0024(12) 0.0029(12) 0.0098(12)
C7 0.0384(18) 0.0277(15) 0.0381(17) 0.0058(13) 0.0097(14) 0.0075(13)
C8 0.0201(13) 0.0247(14) 0.0417(17) -0.0066(12) 0.0024(12) 0.0027(11)
O1W 0.061(2) 0.0561(19) 0.0587(19) -0.0105(15) 0.0088(15) 0.0034(16)
O2W 0.098(7) 0.098(7) 0.104(7) 0.002(5) 0.011(5) -0.012(5)
O3W 0.108(10) 0.108(10) 0.108(10) -0.003(8) 0.009(8) -0.013(8)
O4W 0.110(8) 0.110(8) 0.111(8) 0.000(7) -0.014(7) 0.004(7)
O5W 0.123(8) 0.121(8) 0.121(8) -0.004(7) -0.008(7) 0.007(7)
O6W 0.117(9) 0.116(9) 0.117(9) -0.004(8) -0.010(8) 0.004(8)
O7W 0.072(13) 0.075(13) 0.072(13) 0.002(10) 0.001(10) 0.001(10)
O8W 0.126(14) 0.103(13) 0.117(13) -0.009(11) 0.002(11) -0.005(11)
O9W 0.076(8) 0.075(8) 0.073(8) -0.004(5) -0.003(5) -0.001(5)
loop_
_atom_type_symbol
_atom_type_description
_atom_type_scat_dispersion_real
_atom_type_scat_dispersion_imag
_atom_type_scat_source
C C 0.0033 0.0016 'International Tables Vol C Tables 4.2.6.8 and 6.1.1.4'
H H 0.0000 0.0000 'International Tables Vol C Tables 4.2.6.8 and 6.1.1.4'
N N 0.0061 0.0033 'International Tables Vol C Tables 4.2.6.8 and 6.1.1.4'
O O 0.0106 0.0060 'International Tables Vol C Tables 4.2.6.8 and 6.1.1.4'
Cu Cu 0.3201 1.2651 'International Tables Vol C Tables 4.2.6.8 and 6.1.1.4'
loop_
_geom_angle_atom_site_label_1
_geom_angle_atom_site_label_2
_geom_angle_atom_site_label_3
_geom_angle
_geom_angle_site_symmetry_1
_geom_angle_site_symmetry_3
N4 Cu01 N4 89.14(15) 19_655 .
N4 Cu01 N2 174.13(11) 19_655 21_545
N4 Cu01 N2 87.97(10) . 21_545
N4 Cu01 N2 87.98(10) 19_655 8_645
N4 Cu01 N2 174.13(11) . 8_645
N2 Cu01 N2 95.34(14) 21_545 8_645
C3 N1 C2 105.1(2) . .
C3 N1 C1 126.1(2) . .
C2 N1 C1 128.8(2) . .
C2 N2 N3 108.0(2) . .
C2 N2 Cu01 130.6(2) . 11_556
N3 N2 Cu01 120.69(18) . 11_556
C3 N3 N2 105.4(2) . .
C7 N4 C6 105.9(3) . .
C7 N4 Cu01 128.9(2) . .
C6 N4 Cu01 125.1(2) . .
C7 N5 C5 108.3(3) . .
N1 C1 C4 111.1(3) . .
N1 C1 C8 110.7(3) . .
C4 C1 C8 114.1(2) . .
N2 C2 N1 109.6(2) . .
N3 C3 N1 111.8(2) . .
C5 C4 C1 112.2(2) . .
C6 C5 N5 105.7(3) . .
C6 C5 C4 131.1(3) . .
N5 C5 C4 123.0(3) . .
C5 C6 N4 109.5(3) . .
N4 C7 N5 110.7(3) . .
O1 C8 O2 125.9(3) . .
O1 C8 C1 119.3(3) . .
O2 C8 C1 114.8(3) . .
O7W O2W O2W 146(2) 23_554 8_645
O7W O2W O2W 95(3) 23_554 11_556
O2W O2W O2W 60.004(3) 8_645 11_556
loop_
_geom_bond_atom_site_label_1
_geom_bond_atom_site_label_2
_geom_bond_distance
_geom_bond_site_symmetry_2
Cu01 N4 1.982(3) 19_655
Cu01 N4 1.982(3) .
Cu01 N2 2.032(2) 21_545
Cu01 N2 2.032(2) 8_645
O1 C8 1.225(4) .
O2 C8 1.267(4) .
N1 C3 1.348(4) .
N1 C2 1.352(4) .
N1 C1 1.470(4) .
N2 C2 1.312(4) .
N2 N3 1.390(3) .
N2 Cu01 2.032(2) 11_556
N3 C3 1.307(4) .
N4 C7 1.321(4) .
N4 C6 1.369(4) .
N5 C7 1.336(4) .
N5 C5 1.360(5) .
C1 C4 1.530(5) .
C1 C8 1.547(5) .
C4 C5 1.491(4) .
C5 C6 1.360(4) .
O2W O7W 1.23(3) 23_554
O2W O2W 1.26(2) 8_645
O2W O2W 1.26(2) 11_556
O7W O2W 1.23(3) 21_545
loop_
_geom_torsion_atom_site_label_1
_geom_torsion_atom_site_label_2
_geom_torsion_atom_site_label_3
_geom_torsion_atom_site_label_4
_geom_torsion
_geom_torsion_site_symmetry_1
C2 N2 N3 C3 -0.4(3) .
Cu01 N2 N3 C3 171.2(2) 11_556
C3 N1 C1 C4 99.6(3) .
C2 N1 C1 C4 -80.5(4) .
C3 N1 C1 C8 -132.5(3) .
C2 N1 C1 C8 47.4(4) .
N3 N2 C2 N1 -0.1(3) .
Cu01 N2 C2 N1 -170.5(2) 11_556
C3 N1 C2 N2 0.5(3) .
C1 N1 C2 N2 -179.5(3) .
N2 N3 C3 N1 0.7(3) .
C2 N1 C3 N3 -0.7(4) .
C1 N1 C3 N3 179.2(3) .
N1 C1 C4 C5 63.2(3) .
C8 C1 C4 C5 -62.9(3) .
C7 N5 C5 C6 1.1(4) .
C7 N5 C5 C4 176.3(3) .
C1 C4 C5 C6 61.1(5) .
C1 C4 C5 N5 -112.6(3) .
N5 C5 C6 N4 -0.4(4) .
C4 C5 C6 N4 -175.0(3) .
C7 N4 C6 C5 -0.5(4) .
Cu01 N4 C6 C5 175.5(2) .
C6 N4 C7 N5 1.2(4) .
Cu01 N4 C7 N5 -174.6(2) .
C5 N5 C7 N4 -1.5(4) .
N1 C1 C8 O1 8.1(4) .
C4 C1 C8 O1 134.4(3) .
N1 C1 C8 O2 -172.9(3) .
C4 C1 C8 O2 -46.7(4) .
