#------------------------------------------------------------------------------
#$Date: 2019-11-03 12:51:02 +0200 (Sun, 03 Nov 2019) $
#$Revision: 221447 $
#$URL: file:///home/coder/svn-repositories/cod/cif/4/12/83/4128324.cif $
#------------------------------------------------------------------------------
#
# This file is available in the Crystallography Open Database (COD),
# http://www.crystallography.net/
#
# All data on this site have been placed in the public domain by the
# contributors.
#
data_4128324
loop_
_publ_author_name
'Kusaka, Shinpei'
'Kiyose, Atsushi'
'Sato, Hiroshi'
'Hijikata, Yuh'
'Hori, Akihiro'
'Ma, Yunsheng'
'Matsuda, Ryotaro'
_publ_section_title
;
 Dynamic Topochemical Reaction Tuned by Guest Molecules in the Nanospace
 of a Metal-Organic Framework.
;
_journal_issue                   40
_journal_name_full               'Journal of the American Chemical Society'
_journal_page_first              15742
_journal_page_last               15746
_journal_paper_doi               10.1021/jacs.9b07682
_journal_volume                  141
_journal_year                    2019
_chemical_formula_moiety         'C32 H36 N2 O5 Zn'
_chemical_formula_sum            'C32 H36 N2 O5 Zn'
_chemical_formula_weight         594.03
_space_group_crystal_system      triclinic
_space_group_IT_number           2
_space_group_name_Hall           '-P 1'
_space_group_name_H-M_alt        'P -1'
_symmetry_space_group_name_Hall  '-P 1'
_symmetry_space_group_name_H-M   'P -1'
_atom_sites_solution_hydrogens   geom
_atom_sites_solution_primary     direct
_atom_sites_solution_secondary   difmap
_cell_angle_alpha                67.442(8)
_cell_angle_beta                 74.816(7)
_cell_angle_gamma                87.306(7)
_cell_formula_units_Z            2
_cell_length_a                   8.5536(7)
_cell_length_b                   12.1855(11)
_cell_length_c                   15.0843(13)
_cell_measurement_reflns_used    8809
_cell_measurement_temperature    93
_cell_measurement_theta_max      28.95
_cell_measurement_theta_min      2.43
_cell_volume                     1398.7(2)
_computing_cell_refinement       'CrysAlisPro 1.171.39.9b (Rigaku OD, 2015)'
_computing_data_collection       'CrysAlisPro 1.171.39.9b (Rigaku OD, 2015)'
_computing_data_reduction        'CrysAlisPro 1.171.39.9b (Rigaku OD, 2015)'
_computing_molecular_graphics    'CrystalStructure 4.2.2'
_computing_publication_material  'CrystalStructure 4.2.2 (Rigaku, 2016)'
_computing_structure_refinement  'SHELXL Version 2014/7 (Sheldrick, 2008)'
_computing_structure_solution    'SHELXT Version 2014/5 (Sheldrick, 2014)'
_diffrn_ambient_temperature      93
_diffrn_detector_area_resol_mean 5.811
_diffrn_measured_fraction_theta_full 0.999
_diffrn_measured_fraction_theta_max 0.879
_diffrn_measurement_device_type  'Rigaku XtaLAB P200'
_diffrn_measurement_method       \w
_diffrn_radiation_type           'Mo K\a'
_diffrn_radiation_wavelength     0.71075
_diffrn_reflns_av_R_equivalents  0.0575
_diffrn_reflns_Laue_measured_fraction_full 0.999
_diffrn_reflns_Laue_measured_fraction_max 0.879
_diffrn_reflns_limit_h_max       12
_diffrn_reflns_limit_h_min       -12
_diffrn_reflns_limit_k_max       16
_diffrn_reflns_limit_k_min       -14
_diffrn_reflns_limit_l_max       20
_diffrn_reflns_limit_l_min       -21
_diffrn_reflns_number            26354
_diffrn_reflns_point_group_measured_fraction_full 0.999
_diffrn_reflns_point_group_measured_fraction_max 0.879
_diffrn_reflns_theta_full        25.242
_diffrn_reflns_theta_max         30.191
_diffrn_reflns_theta_min         2.472
_diffrn_standards_number         0
_exptl_absorpt_coefficient_mu    0.923
_exptl_absorpt_correction_T_max  1.000
_exptl_absorpt_correction_T_min  0.789
_exptl_absorpt_correction_type   multi-scan
_exptl_absorpt_process_details
;
CrysAlisPro 1.171.39.9b (Rigaku Oxford Diffraction, 2015)
Empirical absorption correction using spherical harmonics,
 implemented in SCALE3 ABSPACK scaling algorithm.
;
_exptl_crystal_colour            nONE
_exptl_crystal_density_diffrn    1.410
_exptl_crystal_density_method    'not measured'
_exptl_crystal_description       nONE
_exptl_crystal_F_000             624.00
_refine_diff_density_max         2.77
_refine_diff_density_min         -1.31
_refine_ls_extinction_method     none
_refine_ls_goodness_of_fit_ref   1.031
_refine_ls_hydrogen_treatment    refxyz
_refine_ls_number_parameters     482
_refine_ls_number_reflns         7297
_refine_ls_number_restraints     278
_refine_ls_R_factor_all          0.1066
_refine_ls_R_factor_gt           0.0856
_refine_ls_shift/su_max          0.000
_refine_ls_structure_factor_coef Fsqd
_refine_ls_weighting_details
'w = 1/[\s^2^(Fo^2^)+(0.1727P)^2^+2.3165P] where P=(Fo^2^+2Fc^2^)/3'
_refine_ls_weighting_scheme      calc
_refine_ls_wR_factor_gt          0.2426
_refine_ls_wR_factor_ref         0.2587
_reflns_Friedel_coverage         0.000
_reflns_number_gt                5550
_reflns_number_total             7297
_reflns_threshold_expression     F^2^>2.0\s(F^2^)
_cod_data_source_file            ja9b07682_si_005.cif
_cod_data_source_block           xcalibur
_cod_database_code               4128324
_shelx_res_file
;

    shelxl.res created by SHELXL-2014/7

TITL xcalibur
CELL 0.71075 8.5536 12.1855 15.0843 67.442 74.816 87.306
ZERR 2 0.0007 0.0011 0.0013 0.008 0.007 0.007
LATT 1
SFAC C H N O Zn
UNIT 64 72 4 10 2
EQIV $1 2-X,-Y,2-Z
DFIX 1.39 0.01 C20 C21 C21 C22 C22 C23 C23 C24
DFIX 1.39 0.01 C27 C28 C28 C29 C29 C30
DFIX 1.39 0.01 C30 C31 C31 C32 C32 C27
DFIX 1.37 0.01 N2 C24 N2 C20
DFIX 1.58 0.01 C39 C40_$1
DFIX 1.58 0.01 C38 C39 C39 C40 C40 C41
DFIX 1.39 0.01 C42 C43 C43 C44 C44 C45
DFIX 1.48 C41 C42 C44 C45
DFIX 1.39 0.01 C33 C34 C34 C35 C35 C36 C36 C37
DFIX 2.41 C33 C35 C34 C36 C35 C37
DFIX 2.36 N2 C36 C34 N2
DFIX 1.37 0.01 N2 C37 N2 C33
DFIX 0.01 1.37 N3 C33 N3 C37
SADI 0.01 N1 C16 N1 C18
FLAT C2 C3 C4 C5 C6 C7
SIMU 0.01 0.02 2 C27 C28 C29 C30 C31 C32
SIMU 0.01 0.02 2 C25 C26
SIMU 0.01 0.02 2 N2 C20 C21 C22 C23 C24
SIMU 0.01 0.02 2 C38 C39 C40 C45
SIMU 0.01 0.02 2 C41 > C44
SIMU 0.01 0.02 2 C1 C2 C5
SIMU 0.001 0.002 2 C2 C3 C4 C5 C6 C7
SIMU 0.01 0.02 2 N3 C33 C34 C35 C36 C37
SIMU 0.01 0.02 2 N2 N3
RIGU 0.001 0.001 C2 C3 C4 C5 C6 C7
ISOR 0.03 0.06 N3
EADP C16 C18
EADP C19 C17

L.S. 100
PLAN  10
TEMP -180
CONN 4 C40
WPDB -2
HTAB
BOND $H
CONF
LIST 4
fmap 2
acta
REM <olex2.extras>
REM <HklSrc "%.\\shelxl.hkl">
REM </olex2.extras>

WGHT    0.172700    2.316500
FVAR       0.37587   0.56655
ZN1   5    0.604961    0.410652    0.551162    11.00000    0.03040    0.03810 =
         0.02306   -0.01918   -0.00097   -0.00646
O1    4    0.295748    0.423330    0.480993    11.00000    0.05086    0.04277 =
         0.04528   -0.01665   -0.01361   -0.01515
O2    4    0.451502    0.286761    0.554152    11.00000    0.08429    0.04337 =
         0.08979   -0.02046   -0.05384   -0.01427
O3    4    0.274500    0.572907    0.589441    11.00000    0.07811    0.08337 =
         0.03024   -0.03651   -0.00171    0.01602
O4    4    0.429840    0.433513    0.663227    11.00000    0.03388    0.10432 =
         0.03156   -0.03977    0.00442    0.00142
C1    1    0.335057    0.319182    0.516734    11.00000    0.06009    0.04408 =
         0.04318   -0.01068   -0.01981   -0.02438
C2    1    0.234617    0.223299    0.512830    11.00000    0.08240    0.04807 =
         0.07259   -0.00990   -0.04455   -0.02530
C3    1    0.301439    0.104892    0.529882     0.65533    0.08312    0.04839 =
         0.07426   -0.00974   -0.04490   -0.02478
AFIX  43
H3    2    0.400647    0.088881    0.548363     0.90511   -1.20000
AFIX   0
C4    1    0.219996    0.017575    0.519007     0.61113    0.08363    0.04847 =
         0.07485   -0.00968   -0.04507   -0.02483
AFIX  43
H4    2    0.265667   -0.055921    0.521924     0.96844   -1.20000
AFIX   0
C5    1    0.051463    0.046619    0.501951    11.00000    0.08390    0.04887 =
         0.07471   -0.00920   -0.04507   -0.02523
C6    1    0.012471    0.164222    0.467861    11.00000    0.08198    0.04820 =
         0.07229   -0.01057   -0.04418   -0.02534
AFIX  43
H6    2   -0.077503    0.185650    0.440059    11.00000   -1.20000
AFIX   0
C7    1    0.102513    0.250701    0.473723    11.00000    0.08153    0.04778 =
         0.07160   -0.01071   -0.04354   -0.02496
AFIX  43
H7    2    0.072978    0.330910    0.450330    11.00000   -1.20000
AFIX   0
C8    1    0.316389    0.502031    0.663850    11.00000    0.03712    0.08192 =
         0.02857   -0.03643    0.00638   -0.01535
C9    1    0.221312    0.500265    0.763795    11.00000    0.03364    0.08703 =
         0.02953   -0.03874    0.00533   -0.00684
C10   1    0.250075    0.418774    0.850847    11.00000    0.04144    0.08509 =
         0.03586   -0.03726    0.00591   -0.00787
AFIX  43
H10   2    0.329324    0.362149    0.847618    11.00000   -1.20000
AFIX   0
C11   1    0.164128    0.418764    0.943267    11.00000    0.04825    0.08571 =
         0.02652   -0.03158    0.00569   -0.00823
AFIX  43
H11   2    0.185994    0.362525    1.002199    11.00000   -1.20000
AFIX   0
C12   1    0.046909    0.500164    0.949970    11.00000    0.03446    0.09428 =
         0.03158   -0.04056    0.00707   -0.00937
C13   1    0.018236    0.581420    0.863439    11.00000    0.05489    0.13189 =
         0.03730   -0.05182   -0.00456    0.02433
AFIX  43
H13   2   -0.060640    0.638301    0.866616    11.00000   -1.20000
AFIX   0
C14   1    0.104699    0.580916    0.770430    11.00000    0.06467    0.13542 =
         0.03406   -0.05165   -0.00900    0.02762
AFIX  43
H14   2    0.082504    0.636806    0.711466    11.00000   -1.20000
AFIX   0
PART 1
N3    3    0.747942    0.312127    0.638624   -21.00000    0.03093    0.04803 =
         0.02161   -0.01380   -0.01758   -0.00485
C33   1    0.709619    0.198799    0.698114   -21.00000    0.04287    0.05180 =
         0.03808   -0.00780   -0.01278   -0.00912
AFIX  43
H33   2    0.620208    0.157680    0.695652   -21.00000   -1.20000
AFIX   0
C34   1    0.801522    0.141058    0.763911   -21.00000    0.05338    0.05004 =
         0.04587   -0.01184   -0.01320   -0.00720
AFIX  43
H34   2    0.783055    0.057678    0.800891   -21.00000   -1.20000
AFIX   0
C35   1    0.920684    0.203505    0.776648   -21.00000    0.04254    0.05215 =
         0.04441   -0.02219   -0.01465   -0.00362
C36   1    0.952261    0.323068    0.715257   -21.00000    0.03989    0.04895 =
         0.04319   -0.00945   -0.01668   -0.00857
AFIX  43
H36   2    1.022737    0.371641    0.726255   -21.00000   -1.20000
AFIX   0
C37   1    0.879443    0.370707    0.637557   -21.00000    0.03014    0.05275 =
         0.02301   -0.00714   -0.00680   -0.01286
AFIX  43
H37   2    0.921559    0.443886    0.584012   -21.00000   -1.20000
AFIX   0
C38   1    1.014380    0.151972    0.853190   -21.00000    0.04683    0.05016 =
         0.05843    0.00469   -0.03222   -0.00895
AFIX  13
H38   2    1.131119    0.181090    0.823969   -21.00000   -1.20000
AFIX   0
C39   1    0.998983    0.013602    0.912465   -21.00000    0.03899    0.04499 =
         0.04809   -0.00868   -0.02956   -0.00464
AFIX  13
H39   2    0.954553   -0.041108    0.888511   -21.00000   -1.20000
AFIX   0
C40   1    1.099285   -0.033381    0.990416   -21.00000    0.05266    0.06521 =
         0.06645   -0.00238   -0.01984    0.00128
C41   1    1.056593   -0.171566    1.045866   -21.00000    0.07548    0.07741 =
         0.05643   -0.02423   -0.03190   -0.00448
AFIX  13
H41   2    0.967580   -0.196215    1.024401   -21.00000   -1.20000
AFIX   0
C42   1    1.188110   -0.253037    1.046394   -21.00000    0.07140    0.07365 =
         0.05170   -0.02822   -0.02419    0.00693
AFIX  43
H42   2    1.161407   -0.335997    1.070500   -21.00000   -1.20000
AFIX   0
C43   1    1.350232   -0.213237    1.012922   -21.00000    0.06650    0.07254 =
         0.06711   -0.02124   -0.02713    0.00171
AFIX  43
H43   2    1.432370   -0.268680    1.021363   -21.00000   -1.20000
AFIX   0
C44   1    1.391989   -0.091574    0.966873   -21.00000    0.05857    0.06434 =
         0.07908   -0.02269   -0.03425   -0.00330
AFIX  43
H44   2    1.503778   -0.066064    0.943476   -21.00000   -1.20000
AFIX   0
C45   1    1.276488   -0.004344    0.953254   -21.00000    0.04687    0.07107 =
         0.07414    0.00170   -0.02063    0.00439
AFIX  43
H45   2    1.314212    0.076918    0.918577   -21.00000   -1.20000
AFIX   0

PART 0
O5    4   -0.228493    0.807913    0.830972    11.00000    0.09725    0.09181 =
         0.13548   -0.05685   -0.01979   -0.01638
N1    3   -0.427121    0.759703    0.769189    11.00000    0.20362    0.08087 =
         0.08648   -0.01223   -0.06428   -0.05095
C15   1   -0.309357    0.827435    0.772498    11.00000    0.24522    0.09203 =
         0.08341   -0.01268   -0.03964   -0.08271
AFIX  43
H15   2   -0.286436    0.903531    0.719594    11.00000   -1.20000
AFIX   0
C16   1   -0.444802    0.629816    0.840940    11.00000    0.15725    0.10122 =
         0.07950   -0.02615   -0.05106   -0.03271
AFIX  23
H16A  2   -0.401305    0.623193    0.897379    11.00000   -1.20000
H16B  2   -0.561594    0.604180    0.868027    11.00000   -1.20000
AFIX   0
C17   1   -0.359604    0.547728    0.794388    11.00000    0.10721    0.17087 =
         0.13406   -0.08758   -0.04994    0.00512
AFIX 137
H17A  2   -0.405807    0.550482    0.740638    11.00000   -1.50000
H17B  2   -0.373247    0.466341    0.844725    11.00000   -1.50000
H17C  2   -0.243810    0.572453    0.767231    11.00000   -1.50000
AFIX   0
C18   1   -0.559219    0.805874    0.709483    11.00000    0.15725    0.10122 =
         0.07950   -0.02615   -0.05106   -0.03271
AFIX  23
H18A  2   -0.516422    0.881803    0.652960    11.00000   -1.20000
H18B  2   -0.576660    0.747515    0.681468    11.00000   -1.20000
AFIX   0
C19   1   -0.723027    0.825867    0.770764    11.00000    0.10721    0.17087 =
         0.13406   -0.08758   -0.04994    0.00512
AFIX 137
H19A  2   -0.807025    0.826723    0.737106    11.00000   -1.50000
H19B  2   -0.716663    0.902245    0.777549    11.00000   -1.50000
H19C  2   -0.750354    0.761445    0.836902    11.00000   -1.50000
AFIX   0

PART 2
N2    3    0.748911    0.313906    0.634297    21.00000    0.04231    0.05147 =
         0.04294   -0.02486    0.00037    0.00028

C31   1    1.258289   -0.243587    0.993137    21.00000    0.08594    0.08814 =
         0.13751   -0.01816   -0.03139    0.00794
AFIX  43
H31   2    1.243065   -0.327705    1.026119    21.00000   -1.20000
AFIX   0

C20   1    0.738317    0.192686    0.678011    21.00000    0.05367    0.05847 =
         0.04909   -0.02456   -0.00802   -0.00081
AFIX  43
H20   2    0.659142    0.153523    0.664660    21.00000   -1.20000
AFIX   0

C21   1    0.828402    0.118948    0.739613    21.00000    0.06453    0.06775 =
         0.05481   -0.02320   -0.01544    0.00723
AFIX  43
H21   2    0.805267    0.035244    0.770238    21.00000   -1.20000
AFIX   0

C22   1    0.952954    0.172310    0.754506    21.00000    0.05995    0.06772 =
         0.06023   -0.03104   -0.01933    0.01654
C23   1    0.980139    0.293829    0.704118    21.00000    0.05175    0.06842 =
         0.06119   -0.02902   -0.01902    0.00606
AFIX  43
H23   2    1.076342    0.332427    0.701264    21.00000   -1.20000
AFIX   0

C32   1    1.129936   -0.176218    0.966384    21.00000    0.07342    0.07074 =
         0.11826   -0.03020   -0.03210    0.00461
AFIX  43
H32   2    1.027616   -0.213966    0.978209    21.00000   -1.20000
AFIX   0

C24   1    0.867364    0.359530    0.657731    21.00000    0.04817    0.06984 =
         0.05284   -0.02125   -0.01431   -0.00588
AFIX  43
H24   2    0.873022    0.443047    0.640908    21.00000   -1.20000
AFIX   0

C25   1    1.064218    0.113518    0.818051    21.00000    0.07319    0.07227 =
         0.14024   -0.04310   -0.03459   -0.00438
AFIX  43
H25   2    1.152058    0.156888    0.819767    21.00000   -1.20000
AFIX   0

C26   1    1.038639    0.013141    0.864902    21.00000    0.09386    0.09447 =
         0.16358   -0.03216   -0.02156   -0.01716
AFIX  43
H26   2    0.944455   -0.026963    0.866830    21.00000   -1.20000
AFIX   0

C27   1    1.153366   -0.053357    0.922272    21.00000    0.07062    0.07014 =
         0.09776   -0.03186   -0.03952    0.01076
C28   1    1.305027   -0.000599    0.903839    21.00000    0.08433    0.07481 =
         0.10543   -0.03084   -0.03138    0.00076
AFIX  43
H28   2    1.321381    0.083315    0.869522    21.00000   -1.20000
AFIX   0

C29   1    1.434008   -0.064362    0.933058    21.00000    0.08965    0.08221 =
         0.12017   -0.03218   -0.02551    0.00348
AFIX  43
H29   2    1.532829   -0.026417    0.927215    21.00000   -1.20000
AFIX   0

C30   1    1.408858   -0.187015    0.971295    21.00000    0.08541    0.08780 =
         0.13330   -0.02434   -0.02696    0.01229
AFIX  43
H30   2    1.498323   -0.234476    0.983089    21.00000   -1.20000
AFIX   0
HKLF 4

REM  xcalibur
REM R1 =  0.0856 for    5550 Fo > 4sig(Fo)  and  0.1066 for all    7297 data
REM    482 parameters refined using    278 restraints

END

WGHT      0.1683      2.4629

REM Instructions for potential hydrogen bonds
EQIV $2 -x+1, -y+1, -z+1
HTAB C37 O1_$2
EQIV $3 x+1, y-1, z
HTAB C21 O5_$3
HTAB C24 O1_$2

REM Highest difference peak  2.774,  deepest hole -1.308,  1-sigma level  0.155
Q1    1   0.2002  0.1131  0.5933  11.00000  0.05    2.77
Q2    1   0.1003  0.0269  0.5890  11.00000  0.05    2.75
Q3    1   0.6423  0.3703  0.5973  11.00000  0.05    1.39
Q4    1  -0.0145  0.0605  0.5325  11.00000  0.05    1.38
Q5    1  -0.4298  0.7945  0.6698  11.00000  0.05    1.37
Q6    1   0.6217  0.4789  0.5415  11.00000  0.05    1.19
Q7    1   0.5736  0.4453  0.5032  11.00000  0.05    1.08
Q8    1   0.5791  0.3460  0.5615  11.00000  0.05    0.94
Q9    1   0.1678  0.2340  0.5394  11.00000  0.05    0.91
Q10   1   0.1123  0.0336  0.4784  11.00000  0.05    0.85
;
_shelx_res_checksum              13251
_shelx_hkl_file
;
  -1   0   0   74.89    3.35
   1   0   1   25.94    2.40
   1   0   1  128.37    2.47
   0  -1   1  623.83   27.04
   0   1  -1  618.94   26.83
   1   1   1  231.95   10.09
   0  -1  -2  868.86   37.00
   0   1   2  811.94   35.79
   0   1   2  845.04   35.81
   0  -1  -2  832.80   37.02
   1  -1   0  539.92   24.01
   1  -1   0  559.31   23.99
   1  -1   0  555.22   23.97
  -1   1   0  565.90   24.54
   0   0  -2  768.69   33.31
   0   0   2  699.82   31.36
   0   0   2  737.29   31.33
  -1  -1   0 1011.87   43.86
   1   1   0  984.07   42.66
  -1   0   1 1074.03   46.53
   1   0  -1 1086.94   47.09
   1   1   2  400.41   17.38
  -1  -1  -2  410.27   17.80
  -1   1   1  110.60    5.46
  -1   1   1  153.80    5.54
   1  -1  -1  117.83    5.64
   1  -1  -1  144.95    5.68
   0   2   1   17.88    0.84
   0  -2  -1   18.01    0.85
   0  -2  -1   14.87    0.84
   0   2   1   15.72    0.83
  -1   1  -1 2651.57  119.37
  -1   1  -1 2902.26  119.38
  -1   1  -1 2726.85  119.41
   1  -1   1 2929.83  126.83
   1   0   2   38.25    1.76
   1   0   2   40.11    1.82
  -1   0  -2   33.32    1.74
  -1   0  -2   39.48    1.70
   0   2   0  131.69    5.80
   0  -2   0  122.57    5.55
   0  -2   0  129.80    5.55
   0   2   2 1231.95   53.87
   0  -2  -2 1237.82   53.63
   0   2   2 1278.52   53.94
   1   1  -1  907.23   39.38
  -1  -1   1  935.63   40.62
   1   2   1 5956.84  257.88
   0   1  -2  511.71   22.23
   0  -1   2  556.47   24.16
   1   2   2  125.75    5.55
  -1  -2  -2  127.66    5.63
   0   1   3  574.00   24.86
   0  -1  -3  563.64   24.47
   0   1   3  570.69   24.85
   1  -1  -2 1780.63   77.25
  -1   1   2 1850.03   80.16
   1  -1  -2 1784.47   77.24
  -1   2   0   47.78    2.30
  -1   2   0   49.32    2.25
   1  -2   0   49.62    2.31
   1  -2   0   51.46    2.49
   1  -2   0   50.71    2.42
   1  -2  -1  330.14   15.13
  -1   2   1  375.55   15.35
  -1   2   1  338.83   15.30
   1  -2  -1  383.45   15.19
   1   1   3   60.10    2.54
   1   1   3   51.76    2.52
  -1  -1  -3   54.16    2.47
   1  -1   2   18.32    0.89
   1  -1   2   18.76    0.92
  -1   1  -2   11.54    1.05
  -1   1  -2   12.02    0.67
   1  -1   2   12.74    1.19
  -1   0   2  295.96   12.92
   1   0  -2  299.49   13.04
   0   2  -1  119.67    5.29
   0  -2   1  116.21    5.13
  -1  -2   0    3.04    0.95
   1   2   0    3.50    0.90
   0   0   3  839.03   37.21
   0   0   3  865.90   37.15
   0   0  -3  951.08   38.93
   0   0  -3  834.22   38.94
   0   0  -3  903.66   38.95
   1   0   3   91.80    4.47
   1   0   3  104.37    4.41
  -1   0  -3  100.19    3.94
  -1   0  -3   85.49    3.96
  -1   0  -3   82.45    3.88
   0   2   3  774.79   35.63
   0   2   3  924.71   35.70
   0  -2  -3  876.72   35.55
   0  -2  -3  981.65   35.63
  -1  -2  -3  215.21    9.69
   1   2   3  211.71    9.58
   1   2   3  226.95    9.59
  -1  -2  -3  228.36    9.70
  -1   2  -1    4.59    1.05
   1  -2   1    6.00    1.04
  -1   2  -1    5.94    0.73
  -1   2  -1    5.46    1.00
   1  -2   1    5.85    0.60
   1  -2   1    5.95    0.73
  -1   2  -1    5.76    0.57
  -2   0  -1  152.21    6.85
  -2   0  -1  164.33    6.91
   2   0   1  156.38    6.87
   1  -2  -2   30.48    1.26
   1  -2  -2   12.07    1.03
  -1   2   2   11.96    0.83
  -2   0   0   48.80    2.43
   2   0   0   43.66    2.10
   2   0   0   51.88    2.27
  -2   0   0   53.89    2.51
   2   1   1   65.50    3.17
  -2  -1  -1   63.90    2.91
   2   1   1   77.92    3.22
   0   3   1   12.60    0.72
   0  -3  -1    5.01    1.06
   0   3   1    7.98    0.71
   0  -3  -1    7.51    0.86
  -2   0  -2  158.15    6.47
  -2   0  -2  152.35    6.50
  -2   0  -2  136.48    6.45
   2   0   2  135.67    5.98
   2   1   2  549.09   22.90
   2   1   2  499.98   22.93
  -2  -1  -2  511.11   22.20
   2   1   2  532.81   22.88
   2   1   2  516.43   22.92
   0   3   2  203.60    7.61
   0   3   2  156.40    7.56
   0  -3  -2  189.41    7.56
   0  -3  -2  160.17    7.53
   2  -1   0    1.37    0.37
   2  -1   0    0.83    0.55
  -2   1   0    0.26    0.59
  -2   1   0    0.28    1.00
   2  -1   0    0.67    0.65
   2  -1   0    1.63    0.48
   2  -1   1  352.36   14.98
   2  -1   1  339.11   14.89
  -2   1  -1  355.35   15.22
  -2   1  -1  342.94   15.24
   1   1  -2   12.04    1.06
  -1  -1   2   15.53    0.94
   2   1   0   17.05    1.13
  -2  -1   0   20.36    1.21
  -1  -2   1    1.27    0.94
   1   2  -1    1.60    1.04
  -1   1   3 9876.01  427.48
   1  -1  -3 9999.00  432.81
   0   3   0  186.15    8.54
   0  -3   0  199.44    8.32
   0   3   0  202.80    8.54
   0  -3   0  179.61    8.30
   1   3   2  252.01   11.71
   1   3   2  275.96   11.73
   1   3   2  274.95   11.69
  -1  -3  -2  284.03   11.72
  -1  -3  -2  251.39   11.73
   1  -1   3   77.62    3.50
  -1   1  -3   74.68    3.49
  -1   1  -3   72.99    3.29
   1  -1   3   80.41    3.67
  -1  -1  -4   39.33    2.28
  -1  -1  -4   41.32    2.22
   1   1   4   66.44    2.40
   1   1   4   38.28    2.35
   0  -1   3  112.72    5.02
   0   1  -3  105.27    4.70
   2   0  -1    4.08    0.70
  -2   0   1   11.35    1.03
   2   0  -1    9.08    1.04
   2  -1  -1   14.85    1.03
   2  -1  -1   20.33    1.49
  -2   1   1   23.60    1.46
  -2   1   1   23.16    1.20
  -2   1   1   15.64    1.07
   2  -1  -1   18.89    1.18
   0   2  -2   38.14    1.94
   0   2  -2   40.74    1.88
   0   3   3   33.06    2.56
   0   3   3   39.33    2.34
   0  -3  -3  100.06    4.48
   2   1   3   93.36    3.67
   2   1   3   77.43    3.73
   2   1   3   87.63    3.66
   2   1   3   73.96    3.64
  -2  -1  -3   80.80    3.77
  -2  -1  -3   84.67    3.69
   1   3   1  829.72   36.11
   0   1   4  131.81    5.88
   0  -1  -4  119.16    5.41
   0  -1  -4  122.98    5.41
   0   1   4  130.72    5.89
   0   1   4  135.55    5.89
  -1   2  -2  203.30    9.60
   1  -2   2  215.02    9.44
   1  -2   2  228.91    9.67
  -1   2  -2  210.21    9.42
  -1   2  -2  220.76    9.56
  -1   2  -2  219.30    9.44
  -1   2  -2  225.59    9.45
   1  -3  -1   40.45    1.79
   1  -3  -1   40.31    1.95
  -1   3   1   40.35    1.86
  -1   3   1   36.37    2.18
  -1   3   1   45.13    1.91
   1  -3  -1   30.38    2.15
  -1   3   1   41.97    2.06
   1  -2  -3   30.07    1.54
   1  -2  -3   12.74    1.13
  -1   2   3   12.07    1.07
  -1   2   3   26.35    1.37
   2  -1   2  108.61    4.92
   2  -1   2  111.28    4.84
  -2   1  -2  118.12    5.32
   2  -1   2  109.32    4.94
   1   2   4  103.47    4.49
  -1  -2  -4  103.11    4.66
  -1  -2  -4  104.74    4.65
   1   2   4   96.97    4.46
   2   2   2 2331.47  101.51
   2   2   2 2358.56  101.53
   1   0  -3   52.61    2.66
  -1   0   3   60.12    2.83
   1   0  -3   62.45    2.73
   0  -2  -4  281.73   11.40
   0  -2  -4  258.64   11.33
   0  -2  -4  240.69   11.38
   0   2   4  255.69   11.70
   0   2   4  268.27   11.74
   0   2   4  286.37   11.76
   1   3   3   10.33    0.90
   1   3   3   10.46    0.90
  -1  -3  -3   11.61    0.86
  -1  -3  -3   10.32    0.97
  -1  -3  -3   13.69    0.92
   2   0   3   66.71    3.03
  -2   0  -3   60.06    3.02
   2   0   3   57.71    2.96
   2   0   3   74.86    2.91
  -2   0  -3   58.00    2.98
   2   0   3   57.81    2.92
  -2   0  -3   74.52    2.94
   2   2   1  131.11    5.71
  -2  -2  -1  131.26    5.86
   2   2   1  126.04    5.72
  -1   3   0   71.34    3.49
  -1   3   0   80.95    3.58
  -1   3   0   82.06    3.60
   1  -3   0   83.56    3.47
   1  -3   0   66.63    3.26
   1  -3  -2  383.75   18.60
  -1   3   2  461.36   19.66
  -1   3   2  439.27   19.69
   1  -3  -2  442.23   18.67
   1  -3  -2  442.21   18.55
   1   0   4  184.51    7.98
  -1   0  -4  180.17    7.26
   1   0   4  176.25    8.07
  -1   0  -4  179.24    7.23
  -1   0  -4  153.60    7.16
   2  -2   0    6.88    0.82
  -2   2   0    8.10    0.83
   2  -2   0    7.40    0.97
   2  -2   0    5.99    0.65
   2  -2   0    7.90    1.22
  -2   2   0    8.15    0.67
   2  -2   0    8.36    0.60
   2   2   3    1.34    0.68
   2   2   3    1.23    0.61
  -2  -2  -3    1.19    0.61
   0   0  -4  827.06   35.11
   0   0  -4  829.94   35.08
   0   0  -4  812.72   35.06
   0   0  -4  780.47   35.04
   0   0   4  826.55   34.03
   0   0   4  764.35   33.94
  -2  -1   1  146.64    6.47
  -2  -1   1  143.50    6.40
  -1  -3   0   15.39    1.38
   1   3   0   13.85    1.36
   2  -2  -1  190.56    7.99
   2  -2  -1  178.49    7.92
  -2   2   1  193.45    7.99
   2  -2  -1  171.05    7.87
  -2   2   1  177.15    7.94
   2  -2  -1  178.88    7.84
  -2   2   1  172.30    8.07
   2  -2   1  315.57   14.37
  -2   2  -1  325.65   14.27
  -2   2  -1  326.77   14.25
   2  -2   1  342.56   14.49
   2  -2   1  350.65   14.45
  -2   2  -1  331.83   14.35
   0  -3   1  243.81   10.68
   0   3  -1  251.36   10.06
   0   3  -1  207.54   10.06
   2  -1  -2  794.91   34.99
  -2   1   2  784.10   36.29
  -2   1   2  880.25   36.27
   2  -1  -2  741.38   35.02
   2   2   0    2.65    0.87
  -2  -2   0    2.92    0.92
  -1  -3  -4    1.57    0.71
   1   3   4    1.89    0.80
   1   3   4    1.77    0.82
  -1  -3  -4    1.41    0.80
  -1   3  -1  483.80   19.78
  -1   3  -1  431.20   19.69
   1  -3   1  460.17   19.70
   1  -3   1  440.09   19.77
  -1   3  -1  459.43   19.72
   0  -3  -4  662.07   33.83
   0   3   4  789.29   33.65
   0  -3  -4  791.22   33.78
   0   3   4  875.87   33.68
   2   1   4   77.10    3.28
  -2  -1  -4   68.52    3.40
  -2  -1  -4   77.84    3.32
   2   1   4   68.42    3.23
   2   1   4   69.71    3.19
  -2   0   2   20.53    1.30
   2   0  -2    7.07    0.93
   2   0  -2   21.06    1.19
  -1   3   3  723.02   28.32
  -1   3   3  555.08   28.36
   1  -3  -3  703.72   29.59
   1  -3  -3  653.49   29.62
  -2   1  -3   56.22    2.51
   2  -1   3   56.39    2.74
  -2   1  -3   59.35    2.66
  -2   1  -3   51.56    2.60
   2  -1   3   51.68    2.65
   2  -1   3   55.69    2.49
  -2   1  -3   54.21    2.70
   1   2  -2    6.92    0.77
   1   2  -2    9.27    1.25
  -1  -2   2    9.22    1.21
  -1  -1   3  153.57    6.81
   1   1  -3  171.41    6.93
   1   1  -3  140.00    6.93
  -2  -2  -4  256.92   11.22
   2   2   4  249.17   10.69
   2   2   4  237.80   10.73
  -2   2   2  128.39    5.77
   2  -2  -2  123.05    5.34
   2  -2  -2  110.95    5.50
   2  -2  -2  120.10    5.38
  -2   2   2  132.54    5.74
  -2   2   2  123.56    5.87
   0  -4  -2    3.84    1.24
   0  -4  -2    1.31    0.61
   0   4   2    1.42    0.62
   0   4   2    2.12    0.56
  -1   1   4 1339.94   59.51
  -1   1   4 1398.67   59.49
   1  -1  -4 1455.51   63.13
  -2   2  -2 1281.70   55.17
   2  -2   2 1239.78   45.82
  -2   2  -2 1265.28   55.08
  -2   2  -2 1272.73   55.24
  -2   2  -2 1311.80   55.15
   2  -2   2 1293.63   45.89
  -2   2  -2 1211.77   55.23
  -2   0  -4  540.07   22.22
  -2   0  -4  605.52   22.21
   2   0   4  584.91   25.12
   2   0   4  619.85   25.07
  -1   2  -3  129.58    5.26
  -1   2  -3  132.34    5.51
  -1   2  -3  112.80    5.19
   1  -2   3  122.52    5.44
   1  -2   3  126.03    5.69
   2   3   2 2747.46  118.13
   2   3   2 2702.94  118.15
   1  -2  -4 1379.98   61.77
  -1   2   4 1368.56   59.39
   1  -2  -4 1474.00   61.80
   1  -1   4  429.22   19.46
  -1   1  -4  443.90   18.99
  -1   1  -4  420.34   19.11
   1  -1   4  451.32   19.33
   0  -4  -1  404.27   17.97
   0   4   1  360.16   16.76
   0   4   1  400.64   16.72
   0  -4  -1  416.59   17.94
   0  -2   3  186.70    8.21
   0   2  -3  192.37    8.47
   1   2   5    1.68    0.69
   1   2   5    1.97    0.75
   1   2   5    2.06    0.87
  -1  -2  -5    2.85    0.85
   1   2   5    2.44    0.83
   1   1   5   62.04    3.00
   1   1   5   60.13    3.17
  -1  -1  -5   69.03    3.10
  -1  -1  -5   73.68    3.02
  -1  -1  -5   80.35    3.07
   1   1   5   69.86    3.12
  -2  -3  -3   20.86    1.27
   2   3   3   20.69    1.25
   0  -4  -3    0.88    0.60
   0   4   3    4.14    0.68
   0  -4  -3    4.07    0.66
   1   3  -1   70.32    3.46
  -1  -3   1   72.21    2.79
  -1  -3   1   47.25    2.20
   0   1  -4   17.72    1.01
   0  -1   4   28.61    1.52
   0   1  -4   27.30    1.29
   1   4   2   78.05    3.77
   1   4   2   87.10    3.76
  -2  -3  -1   99.00    4.58
   2   3   1   88.23    4.11
   0   2   5  177.29    8.55
   0  -2  -5  197.46    8.57
   0  -2  -5  189.79    8.62
   0  -2  -5  194.87    8.61
   0   2   5  209.33    8.56
   2   1  -2   76.26    3.47
  -2  -1   2   77.82    3.37
  -2  -1   2   65.94    3.19
   0   1   5    2.10    0.80
   0   1   5    1.70    0.82
   0   1   5    1.87    0.74
   0  -1  -5    1.59    0.85
   0  -1  -5    1.81    0.89
   0   1   5    0.95    0.73
  -1  -4  -3   42.22    2.01
  -1  -4  -3   38.33    1.97
   1   4   3   40.46    2.00
   1   4   3   41.33    2.11
   1   4   3   43.19    2.05
  -2  -2   1   63.61    2.94
   2   2  -1   63.10    3.07
  -2  -2   1   72.39    3.22
   2  -3  -1  174.47    7.72
   2  -3  -1  171.96    7.92
   2  -3  -1  186.30    7.88
   2  -3  -1  174.21    7.80
  -2   3   1  182.31    8.04
  -2   3   1  174.05    7.98
  -2   3   1  183.57    7.91
  -2   3   0  379.44   15.94
   2  -3   0  344.87   14.15
   2  -3   0  392.03   14.25
  -2   3   0  345.66   15.89
   2  -3   0  351.79   14.29
  -2   3   0  363.48   16.05
  -2   3   0  391.46   15.99
   2  -3   0  368.45   14.28
   1   0  -4  152.70    7.10
  -1   0   4  202.06    7.97
  -1   0   4  162.72    7.90
   1   0  -4  170.57    7.16
  -3   0  -1  217.84   10.21
   3   0   1  231.19    9.84
  -3   0  -1  240.77   10.28
   3   0   1  218.90    9.80
   0   3  -2  615.89   26.36
   0   3  -2  598.05   26.35
  -1   3  -2  114.75    5.06
  -1   3  -2  115.21    4.93
  -1   3  -2  109.11    4.84
  -1   3  -2  108.83    4.91
  -1   3  -2  102.37    5.19
   1  -3   2  122.74    5.71
   3   0   2  284.52   12.47
  -3   0  -2  275.00   12.35
  -3   0  -2  280.33   12.37
  -3   0  -2  298.25   12.40
  -1   4   1  382.45   16.20
  -1   4   1  361.51   16.05
   1  -4  -1  353.87   15.82
   1  -4  -1  368.66   15.90
   1  -4  -1  389.81   15.99
  -1   4   1  371.68   16.17
  -1   4   1  367.68   16.04
  -1   4   1  378.69   16.15
   0   4   0   31.47    1.68
   0   4   0   29.74    2.06
   0  -4   0   27.82    1.71
   0  -4   0   30.90    1.62
   1   4   1  367.40   15.97
   1   4   1  361.59   16.12
   2   3   4    2.96    0.80
   2   3   4    3.79    0.90
  -2  -3  -4    2.68    0.73
   1  -4  -2  727.16   29.05
   1  -4  -2  762.08   29.12
  -1   4   2  667.58   29.08
  -1   4   2  623.56   28.96
   2  -1  -3    8.05    1.15
   2  -1  -3    8.42    1.20
   2  -1  -3    7.07    1.04
  -2   1   3    7.17    1.16
  -2   1   3    4.67    0.85
   2  -1  -3    4.08    0.89
   3   1   2    9.54    0.99
   3   1   2    8.45    0.95
  -3  -1  -2    7.17    0.84
   3   1   2    5.94    0.77
  -1  -3  -5   13.90    1.13
  -1  -3  -5   13.65    1.02
   1   3   5   14.42    1.11
   1   3   5   13.30    1.15
   1  -3  -4   11.33    1.53
  -1   3   4   27.54    1.29
   1  -3  -4   13.31    1.42
  -1   3   4   11.03    1.43
  -1   0  -5   36.89    1.70
  -1   0  -5   31.59    1.68
  -1   0  -5   29.18    1.53
  -1   0  -5   34.35    1.83
   1   0   5   32.29    1.92
   1   0   5   34.37    1.74
  -3  -1  -1  449.64   19.55
   3   1   1  497.26   21.27
   3   1   1  480.75   21.22
  -3   0   0  449.49   19.28
   3   0   0  428.96   18.67
  -3   0   0  433.36   19.24
  -3   1  -1  354.22   15.37
  -3   1  -1  362.77   15.55
  -3   1  -1  348.97   15.34
   3  -1   1  351.72   15.22
   3  -1   1  346.78   15.25
   2  -3  -2   33.62    2.12
   2  -3  -2   46.59    2.01
  -2   3   2   35.14    1.98
  -2   3   2   25.84    2.18
   0  -3  -5    5.58    0.91
   0   3   5    5.34    0.80
   0  -3  -5    5.32    1.16
   0  -3  -5    5.19    1.08
   0   3   5    3.89    1.07
   0  -3  -5    5.45    0.75
   0   3   5    5.43    0.94
   2  -2  -3   48.78    1.99
  -2   2   3   50.74    2.12
  -2   2   3   45.89    1.98
   2  -2  -3   41.32    1.77
  -2   2   3   51.11    2.12
   2  -3   1  168.88    7.24
   2  -3   1  162.08    7.34
  -2   3  -1  167.63    7.30
  -2   3  -1  163.58    7.48
  -2   3  -1  153.58    7.47
  -2   3  -1  167.84    7.36
  -2   3  -1  173.61    7.44
   2  -3   1  156.93    7.45
  -2   3  -1  164.15    7.31
   0   4   4   12.75    1.28
   0  -4  -4    1.19    0.75
   0   4   4   10.92    0.74
  -1  -4  -4  115.43    5.77
  -1  -4  -4  138.08    5.75
   1   4   4  130.74    6.13
   1   4   4  140.05    6.16
   1   4   4  140.19    6.10
  -1  -4  -4  133.82    5.81
  -2  -1  -5  392.70   16.84
   2   1   5  410.42   16.54
   2   1   5  365.86   16.53
   2   1   5  368.77   16.46
  -2  -1  -5  381.48   16.77
  -2   1  -4  473.60   18.18
   2  -1   4  431.68   19.16
  -2   1  -4  455.18   18.07
  -2   1  -4  447.08   18.22
  -2   1  -4  450.48   18.08
   2  -1   4  461.24   19.30
  -2  -2  -5   32.33    1.62
   2   2   5   33.94    1.69
   2   2   5   30.79    1.65
  -2  -2  -5   31.49    1.68
  -2  -2  -5   31.99    1.75
   3   1   3   47.05    2.11
  -3  -1  -3   40.89    1.96
  -3  -1  -3   39.34    2.01
   3   1   3   38.67    2.08
   3   1   3   41.62    1.96
   3   1   3   42.32    2.15
  -1   4   0  102.67    4.41
  -1   4   0   95.22    4.26
  -1   4   0   98.13    4.49
  -1   4   0   96.18    4.46
   1  -4   0  102.54    4.59
   1  -4   0  100.10    4.73
   3  -1   0  237.56   10.05
   3  -1   0  233.40   10.02
   3  -1   0  211.56   10.03
   3  -1   0  222.10   10.23
   3  -1   0  233.84    9.99
  -3   1   0  260.40   11.55
  -2   2  -3  467.59   21.08
  -2   2  -3  471.09   20.89
  -2   2  -3  511.42   20.99
   2  -2   3  508.14   20.76
   2  -2   3  451.68   20.54
   2  -2   3  494.60   20.57
  -2   2  -3  535.58   21.02
  -2   2  -3  461.81   20.89
  -2   2  -3  517.51   21.11
  -2   0   3  142.60    6.42
   2   0  -3  142.79    6.37
  -2  -3   0    4.53    1.20
   2   3   0    4.64    1.05
   0   0  -5   40.08    1.82
   0   0  -5   38.46    1.73
   0   0   5   22.43    1.36
   0   0  -5   38.45    1.87
   0   0   5   21.41    1.53
  -1   4   3    4.10    0.42
   1  -4  -3    5.87    0.55
   1  -4  -3    5.64    1.00
   1  -4  -3    6.44    0.75
  -1   4   3    3.89    0.98
  -1   4   3    4.00    1.32
  -1   4   3    7.61    0.75
  -3   0  -3  530.09   21.75
   3   0   3  501.28   21.83
  -3   0  -3  512.51   21.78
  -3   0  -3  470.02   21.72
  -3   1  -2  217.60    9.67
   3  -1   2  199.82    8.80
   3  -1   2  207.44    8.94
  -3   1  -2  220.89    9.63
   1   2  -3    2.63    0.75
   1   2  -3    3.58    1.15
   3   1   0    2.34    0.67
  -3  -1   0    1.84    0.76
  -3  -1   0    4.08    1.06
   3   1   0    3.32    0.94
   3   2   2  124.48    6.17
   3   2   2  191.22    6.31
  -3  -2  -2  194.38    8.58
   1   4   0   14.56    1.54
  -1  -4   0    6.68    0.93
  -1  -4   0   14.14    1.41
   3   2   3   22.10    1.25
  -3  -2  -3   22.53    1.32
   3   2   3   19.31    1.42
   3   2   3   25.82    1.36
  -2   0  -5  158.85    7.91
  -2   0  -5  190.83    7.84
   2   0   5  152.42    7.06
   2   0   5  173.33    7.20
   3  -1  -1    1.14    0.84
  -3   1   1    1.71    1.09
   3  -1  -1    2.34    0.67
   3  -1  -1    1.60    1.27
  -3   1   1    1.81    1.20
   1   1  -4   38.61    2.14
  -1  -1   4   53.42    2.57
   1   1  -4   47.11    2.21
  -2  -3  -5    0.84    0.71
  -2  -3  -5    0.94    0.82
   2   3   5    0.92    0.79
   2   3   5    1.18    0.92
   1   3  -2  387.82   16.19
  -1  -3   2  397.35   17.52
   1   3  -2  357.10   15.98
   3   0  -1   54.00    2.86
  -3   0   1   87.86    4.11
   3   0  -1   76.75    3.12
   0  -4   1    9.44    1.10
   0   4  -1   10.66    1.09
   0   4  -1   11.30    1.01
  -3  -2  -1   55.71    2.65
   3   2   1   44.41    2.31
   3   2   1   48.43    2.27
  -1   2  -4  186.92    8.55
  -1   2  -4  190.49    8.34
   1  -2   4  189.25    8.42
   1  -2   4  185.48    8.21
   2  -3  -3   75.70    3.31
  -2   3   3   74.00    3.42
  -2   3   3   78.35    3.37
   2  -3  -3   71.31    3.41
   2  -3  -3   61.60    3.52
  -2   3   3   59.71    3.51
  -1   2   5 1147.57   49.83
   1  -2  -5 1077.06   49.72
   1  -2  -5 1216.10   49.73
   3   1   4   97.28    4.66
  -3  -1  -4  110.98    5.00
   3   1   4  109.59    4.73
   3   1   4  113.57    4.80
   3   1   4  109.35    4.67
   2   4   3  381.39   16.68
  -2  -4  -3  391.86   17.22
  -2  -4  -3  396.44   17.23
  -2   3  -2  332.60   14.72
  -2   3  -2  322.37   14.67
  -2   3  -2  344.47   14.59
   2  -3   2  344.44   15.48
   2  -3   2  359.20   15.41
  -2   3  -2  337.41   14.56
  -2   3  -2  317.76   14.77
  -3   2   0  256.29   11.69
  -3   2   0  265.22   11.50
   3  -2   0  247.36   10.99
   3  -2   0  241.74   10.96
   3  -2   0  248.97   11.13
   3  -2   0  276.18   11.09
  -2  -2   2    5.33    1.14
   2   2  -2    3.93    0.99
   1  -4   1  404.84   16.57
   1  -4   1  360.51   16.48
  -1   4  -1  381.49   14.97
  -1   4  -1  360.24   14.95
  -3   2  -1  472.66   20.00
  -3   2  -1  436.27   20.04
   3  -2   1  427.72   19.39
  -3   2  -1  465.36   20.04
   3  -2   1  459.57   19.52
   3  -2   1  474.72   19.47
   3  -2   1  439.54   19.38
   1  -1  -5  849.44   36.93
  -1   1   5  804.25   34.91
  -1   1   5  801.31   34.89
   2   4   2  775.17   32.77
   2   4   2  733.99   32.84
   2   4   2  744.43   32.78
   1   2   6   28.24    1.61
  -1  -2  -6   28.54    1.60
  -1  -2  -6   30.26    1.67
   1   2   6   28.32    1.66
   1   2   6   30.87    1.64
  -3   1  -3  472.52   19.94
   3  -1   3  446.59   19.76
   3  -1   3  464.34   19.71
  -3   1  -3  440.66   19.95
   3  -1   3  442.30   19.77
  -1  -4  -5   14.31    1.03
   1   4   5   13.86    1.24
  -1  -4  -5   11.54    1.14
   1   4   5   13.63    1.11
   0  -2   4  110.43    4.97
   0   2  -4  102.25    4.62
  -1   1  -5  106.65    5.00
   1  -1   5  113.04    5.12
   1  -1   5  115.93    5.33
  -1   1  -5  108.89    4.86
   1  -4  -4   48.73    2.44
  -1   4   4   55.04    2.42
  -1   4   4   49.88    2.68
  -1   4   4   47.06    2.20
   1  -4  -4   56.56    2.79
   3   2   4   53.86    2.47
   3   2   4   51.26    2.56
  -3  -2  -4   50.45    2.42
   0  -4  -5   66.39    3.44
   0   4   5   82.60    3.78
   0  -4  -5   78.75    3.35
   0   4   5   76.95    3.65
   0   4   5   78.52    3.72
   2   1  -3  115.57    5.42
   2   1  -3  120.93    5.29
  -2  -1   3   98.18    4.61
  -1   3  -3  289.03   12.82
  -1   3  -3  295.15   12.69
  -1   3  -3  291.05   12.69
   1  -3   3  290.49   12.72
  -1   3  -3  288.72   12.72
  -1   3  -3  284.78   12.95
   1  -3   3  298.89   13.04
   3   0   4  891.92   38.34
  -3   0  -4  847.59   38.45
  -3   0  -4  927.85   38.47
   3   0   4  843.96   38.38
  -3   0  -4  887.26   38.49
   3   0   4  906.95   38.36
  -3   0  -4  887.09   38.41
   1   1   6    2.19    0.56
   1   1   6    2.13    0.76
  -1  -1  -6    2.10    0.81
  -1  -1  -6    2.83    0.94
   1   1   6    2.70    0.77
  -1  -1  -6    2.00    0.83
   2   4   4  501.21   21.37
   2   4   4  478.19   21.39
  -2  -4  -4  493.23   21.03
  -2  -4  -4  503.46   21.04
  -2  -4  -4  446.33   21.06
   3  -2  -1   94.86    4.47
   3  -2  -1   94.41    4.23
   3  -2  -1  102.20    4.35
   3  -2  -1   98.52    4.38
   3  -2  -1   98.08    4.26
  -3   2   1  104.22    4.86
  -3   2   1  101.87    4.64
   3  -2  -1   80.75    4.58
   0   3  -3  150.81    6.48
   0   3  -3  140.76    6.47
   1  -3  -5  452.35   20.65
   1  -3  -5  509.39   20.80
   1  -3  -5  459.55   20.82
   1  -3  -5  511.86   20.78
  -1   3   5  420.96   20.09
  -1   3   5  497.50   20.09
  -2  -3   1   96.89    4.58
   2   3  -1   94.21    4.47
   1   3   6   11.02    1.01
   1   3   6   10.40    1.06
   1   3   6    9.54    1.06
  -1  -3  -6   12.35    1.14
  -1  -3  -6   11.78    1.04
   0  -5  -2  127.56    5.81
   0   5   2  128.03    5.76
   0  -5  -2  137.81    6.00
   0  -5  -2  130.03    5.88
   0   5   2  130.65    5.74
  -3  -1   1    1.49    0.97
  -3  -1   1    0.98    0.87
   3   1  -1    0.44    1.00
   0   2   6    2.78    1.00
   0  -2  -6    3.59    0.86
   0   2   6    3.85    0.95
   0  -2  -6    3.29    1.03
   0  -2  -6    3.77    1.07
   2  -4  -1   66.12    3.18
  -2   4   1   58.28    2.77
   2  -4  -1   64.46    2.96
   2  -4  -1   66.14    3.08
   2  -4  -1   66.24    3.23
  -2   4   1   67.16    3.07
  -2   4   1   63.48    3.19
   2  -4  -1   58.05    2.78
  -2   4   1   64.47    2.95
  -3   2  -2  188.83    8.67
   3  -2   2  214.30    8.48
   3  -2   2  181.42    8.34
  -3   2  -2  195.69    8.48
   3  -2   2  182.91    8.33
   3  -2   2  196.75    8.44
   3  -2   2  209.17    8.53
   2  -1  -4  691.47   29.51
   2  -1  -4  631.11   29.51
  -2   1   4  679.44   29.62
   2  -1  -4  710.41   29.52
   0  -5  -3   90.51    4.15
   0  -5  -3   92.42    4.14
   0   5   3   92.95    4.21
   0   5   3   95.53    4.26
   2  -2  -4   38.76    1.86
   2  -2  -4   28.60    1.74
   2  -2  -4   39.02    1.98
  -2   2   4   40.54    1.78
  -2   2   4   20.78    1.61
   2   4   1  295.49   13.18
   2   4   1  299.42   13.09
   0   1  -5   80.30    3.81
   0   1  -5   90.56    3.98
   0   1  -5   96.00    3.93
   0  -1   5   88.17    3.96
   0  -1   5   81.82    4.17
  -3  -2   0   10.65    1.10
   3   2   0    5.37    0.92
  -2   4   0  193.48    8.44
   2  -4   0  181.09    7.58
  -2   4   0  189.40    8.39
   2  -4   0  185.21    7.69
  -2   4   0  188.41    8.51
  -2   4   0  183.87    8.52
   2  -4  -2  158.44    7.09
  -2   4   2  171.15    7.40
  -2   4   2  158.85    7.55
   2  -4  -2  154.08    7.16
  -2   4   2  169.09    7.50
   2  -4  -2  159.97    6.98
   3   3   3  100.19    4.42
   3   3   3  100.36    4.42
   3   3   3   92.14    4.37
   2   2   6   45.93    2.09
   2   2   6   37.05    1.87
   2   2   6   44.99    2.03
   2   2   6   43.49    2.16
  -2  -2  -6   42.11    2.22
  -2  -2  -6   46.84    2.31
  -2  -2  -6   46.09    2.19
  -2   2  -4  554.10   24.26
  -2   2  -4  548.97   24.47
  -2   2  -4  612.03   24.41
   2  -2   4  572.80   24.92
   2  -2   4  574.23   24.69
   2  -2   4  562.19   24.68
  -2   2  -4  548.50   24.24
   0   1   6   67.97    3.54
   0   1   6   72.84    3.55
   0   1   6   75.89    3.58
   0  -1  -6   93.66    3.94
   0  -1  -6   75.50    3.88
  -1   0   5    4.51    0.91
   1   0  -5    3.70    0.89
   1   0  -5    3.44    1.01
   1   0  -5    2.97    1.00
   3  -1  -2   40.97    1.91
  -3   1   2   46.18    2.47
   3  -1  -2   43.24    2.10
  -1  -4   1   18.79    1.07
  -1  -4   1   12.78    1.65
   1   4  -1   11.76    1.47
   0   5   1   90.55    4.59
   0   5   1   90.94    4.23
   0  -5  -1  100.99    4.87
   0  -5  -1  115.66    4.96
   0   5   1  101.11    4.34
  -1  -5  -3   25.38    1.62
   1   5   3   41.25    1.81
   1   5   3   29.36    1.81
  -1  -5  -3   35.65    1.66
   3   3   2   94.96    4.15
   3   3   2   90.97    4.16
   3   3   2   86.52    4.13
   0  -3  -6  182.13    8.14
   0   3   6  177.05    7.48
   0   3   6  156.63    7.48
   0  -3  -6  181.70    8.15
   2  -1   5  991.96   42.04
  -2   1  -5  892.90   39.01
  -2   1  -5  916.54   39.21
   2  -1   5  924.62   42.16
  -2   1  -5  904.44   39.06
   1   5   2  102.81    5.23
   1   5   2  109.73    5.02
   1   5   2  115.67    5.00
   2   1   6   80.35    4.04
   2   1   6   72.75    3.96
  -2  -1  -6   73.75    3.79
  -2  -1  -6   88.16    3.72
   3   0  -2    2.70    1.19
   3   0  -2    7.62    0.93
  -3   0   2    2.70    1.08
   0   5   4    0.34    0.68
   0   5   4    2.03    1.27
   0  -5  -4    2.25    0.72
   0  -5  -4    1.81    0.68
   0   5   4    1.34    0.69
  -2  -4  -5  132.91    6.08
   2   4   5  138.01    6.53
   2   4   5  153.49    6.53
  -2  -4  -5  139.84    6.10
   1   0   6   59.39    2.88
  -1   0  -6   59.94    2.85
  -1   0  -6   64.16    2.95
  -1   0  -6   60.74    2.96
  -1   0  -6   65.94    3.06
   1   0   6   49.57    2.47
   1   0   6   64.83    2.66
   3   3   4    6.70    0.83
   3   3   4    5.60    0.89
   3   1   5    5.68    0.60
   3   1   5    5.01    0.77
   3   1   5    4.87    0.81
   3   1   5    6.81    1.04
  -3  -1  -5    5.42    0.49
  -3  -1  -5    5.19    0.81
   2   0  -4  477.60   21.18
   2   0  -4  500.08   21.29
  -2   0   4  507.92   22.19
  -1  -5  -4   52.20    2.48
   1   5   4   54.25    2.63
  -1  -5  -4   49.86    2.50
   1   5   4   53.57    2.70
  -3   2   2  231.08    9.80
   3  -2  -2  224.97    9.72
   3  -2  -2  208.54    9.86
  -3   2   2  226.94    9.89
  -3   2   2  211.09    9.75
   3  -2  -2  222.17    9.75
   1  -5  -2   99.78    4.65
   1  -5  -2   95.28    4.48
  -1   5   2  103.63    4.74
  -1   5   2   93.61    4.78
  -1   5   2  102.33    4.55
   1  -5  -2   97.63    4.35
  -1   5   2  108.08    4.60
  -3  -2  -5   49.21    2.38
   3   2   5   43.77    2.23
  -3  -2  -5   55.14    2.53
   3   2   5   52.13    2.34
  -2   3   4    4.97    0.89
   2  -3  -4    8.97    1.45
   2  -3  -4    4.53    0.93
   2  -3  -4    9.01    1.35
   2  -3  -4    7.14    1.15
  -2   3   4    9.97    1.25
  -2   3   4    7.70    1.06
  -2  -3  -6   84.99    3.83
   2   3   6   80.18    3.53
   2   3   6   70.53    3.51
  -2  -3  -6   80.40    3.80
  -3   1  -4  613.84   27.51
  -3   1  -4  640.37   27.42
   3  -1   4  654.27   28.44
   3  -1   4  644.38   28.52
   3  -1   4  660.52   28.54
   3  -1   4  657.85   28.45
  -2   3  -3  338.79   12.71
   2  -3   3  359.74   13.07
  -2   3  -3  370.03   12.96
  -2   3  -3  331.21   12.99
   2  -3   3  364.47   12.80
  -1   4  -2  406.36   17.38
   1  -4   2  422.10   17.91
   1  -4   2  394.38   17.74
  -1   4  -2  385.94   17.36
  -1   4  -2  418.87   17.46
  -1   4  -2  393.95   17.30
   0   4  -2    1.81    0.85
   0   4  -2    1.73    0.56
   0  -4   2    4.05    1.04
   0   4  -2    2.41    0.90
  -1   5   1    9.45    0.67
  -1   5   1    8.81    1.06
   1  -5  -1    8.57    0.94
  -1   5   1    9.32    1.22
  -1   5   1   10.15    1.17
   1  -5  -1    8.00    0.68
   1  -5  -1    8.97    1.45
   3   3   1  336.52   14.10
  -3  -3  -1  364.75   16.02
   3   3   1  305.44   14.10
  -2   4  -1  172.41    7.78
   2  -4   1  158.92    7.30
  -2   4  -1  178.69    7.84
  -2   4  -1  163.50    7.99
   2  -4   1  174.18    7.52
  -2   4  -1  180.08    7.97
  -2   4  -1  187.72    7.98
   2  -4   1  169.19    7.38
   3  -3   0  603.94   26.21
   3  -3   0  587.38   26.16
   3  -3   0  602.45   26.35
   3  -3   0  637.30   26.31
  -3   3   0  616.89   25.87
  -3   3   0  581.48   25.80
   2  -4  -3  204.55    9.08
   2  -4  -3  207.70    9.16
  -2   4   3  209.64    9.28
  -2   4   3  211.89    9.37
   3  -2   3  966.69   39.41
  -3   2  -3  930.26   30.97
   3  -2   3  993.65   39.51
  -3   2  -3  681.61   30.68
   3  -2   3 1049.90   39.49
   3  -2   3 1031.13   39.53
   1  -5  -3    0.49    0.54
  -1   5   3    0.55    0.67
   1  -5  -3    0.89    1.42
  -1   5   3    1.35    1.02
   1  -5  -3    0.89    0.96
   1  -5  -3    0.90    0.64
   1   5   1    3.13    0.79
  -1  -5  -1    2.88    1.11
   1   5   1    3.13    1.43
  -1  -4  -6   57.14    2.68
  -1  -4  -6   52.80    2.74
  -1  -4  -6   57.98    2.76
   1   4   6   53.62    2.79
   1   4   6   57.00    2.76
  -2  -4   0   88.32    4.32
   2   4   0   79.93    3.88
   1  -4  -5   23.73    1.84
  -1   4   5   20.82    1.78
  -1   4   5   18.97    1.80
   1  -4  -5   19.99    1.22
   3  -3  -1  125.12    5.46
   3  -3  -1  114.35    5.29
   3  -3  -1  118.68    5.38
   3  -3  -1  136.22    5.59
  -3   3   1  130.03    5.95
  -3   3   1  126.81    5.75
   3  -3  -1  132.23    5.68
  -1  -2   4   83.99    3.88
   1   2  -4   72.40    3.79
   1   2  -4   82.75    3.68
   0   5   0  830.23   34.61
   0   5   0  745.44   34.84
   0   5   0  777.38   34.65
   0  -5   0  724.19   32.20
   0  -5   0  755.56   32.20
   3  -3   1  249.21   10.39
  -3   3  -1  268.69   11.72
   3  -3   1  278.08   10.52
   3  -3   1  280.02   10.62
  -3   3  -1  266.23   11.87
  -3   0  -5  657.73   26.92
   3   0   5  738.84   28.00
   3   0   5  672.70   28.05
  -3   0  -5  564.60   26.81
   3   0   5  697.85   28.03
   0   0  -6   22.64    1.49
   0   0   6   23.21    1.40
   0   0   6   21.12    1.62
   0   0  -6   24.10    1.51
   0   0  -6   23.65    1.46
  -1  -3   3   36.29    2.30
   1   3  -3   40.09    2.04
   1   3  -3   40.87    2.40
  -2   0  -6   94.78    3.84
   2   0   6   88.22    4.42
   2   0   6   96.51    4.27
  -2   0  -6   76.25    3.76
  -3  -2   1  166.64    7.35
  -3  -2   1  165.19    7.48
   0   4   6   76.77    3.81
   0  -4  -6   74.74    3.89
   0   4   6   83.59    3.95
   0  -4  -6   82.58    3.78
   0   4   6   93.54    3.92
   0   4   6   76.58    3.73
   0   4   6   84.81    3.87
   0  -4  -6   94.92    4.05
   0  -4  -6   86.23    3.97
  -2  -2   3   54.95    2.92
   2   2  -3   51.42    2.61
   2   2  -3   53.09    2.59
  -3  -1   2   24.85    1.50
  -3  -1   2   25.68    1.61
  -3  -3  -5   23.95    1.63
   3   3   5   32.74    1.61
  -3  -3  -5   32.86    1.56
   3   3   5   25.00    1.61
  -1  -5  -5    8.71    0.96
   1   5   5    4.70    1.14
  -1  -5  -5   11.98    1.04
   1   5   5    6.60    0.95
  -1  -5  -5    8.43    1.20
   1  -5   0    9.01    1.01
  -1   5   0   13.77    1.29
   1  -5   0   11.52    1.44
  -1   5   0   11.60    1.12
  -1   5   0    8.40    0.64
  -1   5   0    9.59    1.03
   0  -5  -5    2.34    0.69
   0  -5  -5    1.90    0.79
   0   5   5    1.87    1.32
   0   5   5    1.25    0.78
   0   5   5    2.65    0.72
  -1   2  -5   66.19    3.00
   1  -2   5   58.80    3.16
  -1   2  -5   58.05    3.28
   1  -2   5   60.58    2.83
   2   3  -2   81.69    3.63
   2   3  -2   68.48    3.40
  -2  -3   2   72.31    3.63
   1  -2  -6 1262.93   57.93
  -1   2   6 1337.02   57.88
  -1   2   6 1316.74   57.85
   1  -2  -6 1410.36   57.94
  -1   2   6 1346.03   57.87
   1   1  -5    9.16    0.94
   1   1  -5    8.25    1.09
  -1  -1   5    8.24    0.94
   1   1  -5    7.72    1.02
   1  -5  -4   96.46    4.62
  -1   5   4   90.00    4.80
  -1   5   4  100.00    4.43
   1  -5  -4   99.34    4.50
   1  -5  -4  102.96    4.41
   1  -5  -4   87.57    4.75
  -1   5   4  108.33    4.58
   3  -3  -2  190.88    8.29
   3  -3  -2  173.45    7.90
   3  -3  -2  190.93    8.06
  -3   3   2  209.74    8.59
   3  -3  -2  198.23    8.12
  -3   3   2  193.57    8.72
  -3   3   2  181.86    8.50
   3  -3  -2  203.50    8.29
  -1   3  -4  250.37    9.02
   1  -3   4  226.64   10.23
  -1   3  -4  218.21    8.84
   1  -3   4  225.42    9.90
  -1   3  -4  234.90    9.19
   3  -1  -3    1.25    1.25
   3  -1  -3    0.31    1.10
  -3   1   3    0.88    0.80
   3  -1  -3    1.16    0.97
  -3   1   3    0.81    1.18
   3  -1  -3    1.16    0.87
   2   5   3 1061.27   44.93
   2   5   3 1001.08   44.97
   2   5   3 1068.70   44.97
   2   5   3  990.59   45.03
  -2  -5  -3 1085.64   47.18
  -3  -3   0  237.93   10.57
   3   3   0  221.38    9.84
  -1  -2  -7   31.93    1.80
   1   2   7   31.08    1.73
   1   2   7   29.25    1.71
  -1  -2  -7   32.06    1.78
  -1  -2  -7   33.32    1.70
  -1  -2  -7   25.71    1.74
  -2  -4  -6   51.84    2.49
   2   4   6   54.28    2.61
   2   4   6   49.09    2.55
  -2  -4  -6   48.58    2.48
   3  -3   2  238.94   11.56
   3  -3   2  389.19   11.67
  -3   3  -2  381.52   16.69
  -3   3  -2  374.86   16.90
  -3   3  -2  398.24   16.95
  -3   3  -2  385.31   16.84
   3  -3   2  408.58   11.85
   3  -3   2  244.35   11.57
  -3   3  -2  382.12   16.75
  -2  -1   4   78.49    3.90
  -2  -1   4   79.87    3.72
   2   1  -4   79.63    3.88
   2   1  -4   82.55    3.72
   2   5   4  695.52   29.36
  -2  -5  -4  713.00   30.04
   2   5   4  676.53   29.30
  -2  -5  -4  700.61   30.03
   2   5   4  647.21   29.35
  -2  -5  -4  651.83   30.06
  -1   3   6 1104.09   52.45
   1  -3  -6 1353.78   53.21
  -1   3   6 1203.99   52.45
   1  -3  -6 1244.81   53.04
  -3   2   3   68.30    3.42
   3  -2  -3   68.29    3.16
   3  -2  -3   64.30    3.20
  -3   2   3   64.59    3.19
   3  -2  -3   62.59    3.36
  -3   2   3   71.61    3.27
   1  -1  -6 1541.63   64.83
   1  -1  -6 1442.98   64.85
  -1   1   6 1612.35   69.97
  -2   4  -2  224.17    9.48
   2  -4   2  200.49    8.94
   2  -4   2  209.54    9.17
  -2   4  -2  206.35    9.29
  -2   4  -2  216.96    9.27
  -2   4  -2  188.57    9.53
   1   4  -2  281.37   12.01
   1   4  -2  261.71   11.73
  -1  -4   2  287.64   12.90
   1   5   0  119.43    5.71
  -1  -5   0  116.00    5.24
  -4   0  -2   23.74    1.33
  -4   0  -2   21.04    1.91
   4   0   2   21.40    1.40
  -4   0  -2   23.70    1.48
   2  -4  -4   29.32    1.87
   2  -4  -4   33.78    1.69
   2  -4  -4   22.77    2.17
  -2   4   4   35.12    1.80
  -2   4   4   30.64    1.95
   3   4   3 2413.49  102.24
   3   4   3 2301.38  102.25
   2  -2  -5 1444.50   60.96
  -2   2   5 1395.30   60.43
  -2   2   5 1386.39   60.45
   2  -2  -5 1311.50   60.94
   2  -2  -5 1461.58   60.96
   1   3   7   11.30    1.12
   1   3   7   11.38    1.11
  -1  -3  -7   11.52    1.22
   0   3  -4    4.03    1.01
   0   3  -4    3.05    0.75
   0  -3   4    2.21    0.65
   0  -2   5   89.68    4.13
   0   2  -5   83.88    3.88
   2   5   2 1340.22   57.56
   2   5   2 1300.72   57.46
   2   5   2 1300.68   57.45
   2   5   2 1350.72   57.42
  -4   0  -1   91.83    4.58
  -4   0  -1   96.93    4.43
   4   0   1   91.48    4.32
   4   0   1   97.04    4.28
  -4  -1  -2   10.11    0.62
   4   1   2   14.14    1.04
   4   1   2   14.16    1.27
  -4  -1  -2   15.22    1.01
   4   1   2   14.17    1.35
  -1   1  -6  172.55    7.63
   1  -1   6  178.43    8.00
  -1   1  -6  172.46    7.67
   1  -1   6  173.25    7.78
   3   2   6  374.81   14.98
  -3  -2  -6  364.04   17.06
   3   2   6  394.77   15.11
  -3  -2  -6  403.47   16.97
   3   4   4  399.42   17.48
  -2   1   5 1276.67   55.47
   2  -1  -5 1317.23   55.92
   2  -1  -5 1260.43   55.90
  -3   0   3    1.32    1.05
   3   0  -3    0.87    1.02
   3   0  -3    1.81    1.21
   3   0  -3    1.52    0.87
   4   1   3  315.53   13.18
   4   1   3  316.61   13.16
  -4  -1  -3  295.49   12.95
  -1  -1  -7   97.96    4.49
   1   1   7   94.46    4.23
  -1  -1  -7   98.47    4.42
  -1  -1  -7   92.58    4.45
   1   1   7   82.62    4.11
   1   1   7   99.14    4.17
   3   1   6  317.62   12.36
  -3  -1  -6  285.19   12.80
   3   1   6  304.22   12.37
  -3  -1  -6  320.44   12.94
  -2   2  -5  645.49   25.88
  -2   2  -5  572.41   25.72
  -2   2  -5  582.54   25.93
   2  -2   5  542.43   21.15
   2  -2   5  565.54   20.90
   3   4   2  529.71   23.53
   3   4   2  547.33   23.53
  -4   0  -3   14.69    1.00
  -4   0  -3   13.37    0.85
  -4   0  -3   14.11    1.15
   4   0   3   13.65    1.24
   4   0   3   16.62    1.11
  -4   0  -3   15.70    1.15
  -3   2  -4   12.24    1.12
  -3   2  -4   10.08    0.73
  -3   2  -4    8.85    1.28
   3  -2   4   10.70    1.30
  -3   2  -4   11.32    1.59
   3  -2   4    9.68    0.98
  -3   2  -4   10.24    1.13
   3  -2   4    9.49    0.71
  -2  -2  -7   77.95    3.80
  -2  -2  -7   86.95    3.86
   2   2   7   72.50    3.65
   2   2   7   81.02    3.63
   2   2   7   77.15    3.59
   3  -1   5  108.82    5.03
  -3   1  -5  107.36    5.06
   3  -1   5  107.47    4.96
  -3   1  -5  116.42    5.04
  -3   1  -5  106.54    4.88
   3  -1   5  106.69    4.82
   0  -5   1   12.18    1.30
   0   5  -1   11.65    1.19
   0   5  -1   11.27    1.65
   0   5  -1   12.71    1.09
  -4   1  -1  367.77   16.01
   4  -1   1  335.46   14.62
  -4   1  -1  356.90   15.90
   4  -1   1  333.41   14.64
   4   1   1   72.27    3.45
  -4  -1  -1   65.47    3.18
  -4  -1  -1   83.06    3.57
   4   1   1   78.55    3.64
  -2  -4   1   22.34    1.87
   2   4  -1   19.76    1.63
   0   2   7  457.47   20.16
   0   2   7  475.19   20.15
   0  -2  -7  505.47   21.67
   0   2   7  450.65   20.14
   0  -2  -7  485.19   21.68
   2  -3  -5  176.72    7.80
   2  -3  -5  160.26    7.66
  -2   3   5  163.32    7.70
  -2   3   5  183.03    7.78
   2  -3  -5  173.08    7.80
   2  -3  -5  189.37    7.80
   2  -3  -5  163.01    7.70
  -4   1  -2  277.27   12.62
  -4   1  -2  284.24   12.59
   4  -1   2  276.10   12.06
  -4   1  -2  310.03   12.90
  -4   1  -2  302.59   12.73
  -1   5  -1   19.10    1.51
  -1   5  -1   18.47    1.00
  -1   5  -1   18.65    1.29
   1  -5   1   19.54    1.31
   1  -5   1   19.57    1.64
  -1   5  -1   20.66    1.36
   1  -4   3   90.18    4.50
  -1   4  -3   78.94    4.26
  -1   4  -3   84.54    3.86
  -1   4  -3   86.07    3.90
  -1   4  -3   83.77    3.81
  -1   4  -3   91.09    4.08
  -2  -5  -5  764.96   33.02
  -2  -5  -5  772.61   33.04
   2   5   5  796.22   33.29
   2   5   5  762.55   33.33
   2   5   5  728.74   33.33
  -2  -5  -5  735.33   33.07
   2  -5  -1  216.40    8.20
  -2   5   1  243.94    8.86
   2  -5  -1  234.59    8.44
  -2   5   1  232.61    8.86
  -2   5   1  178.21    8.48
  -2   5   1  219.62    8.68
  -2   5   1  184.33    8.45
  -2   5   1  223.40    8.73
   2  -3   4   30.21    1.47
  -2   3  -4   30.30    1.48
  -2   3  -4   37.36    2.06
  -2   3  -4   27.81    1.93
   2  -3   4   30.89    2.12
  -2   3  -4   27.83    1.41
   2  -5  -2   23.12    1.32
  -2   5   2   25.72    1.51
  -2   5   2   34.16    1.82
  -2   5   2   37.93    1.94
   2  -5  -2   28.11    1.66
   2   3   7   18.99    1.32
   2   3   7   18.65    1.22
  -2  -3  -7   20.41    1.34
  -2  -3  -7   17.08    1.35
   2   3   7   20.59    1.44
  -2  -3  -7   22.86    1.43
   2   3   7   21.41    1.38
   0   3   7  424.41   18.63
   0   3   7  425.80   18.65
   0  -3  -7  407.42   18.47
   0  -3  -7  437.85   18.47
   0  -3  -7  418.33   18.40
  -4   0   0    7.13    1.41
  -4   0   0    8.20    1.23
   4   0   0    5.87    0.81
   1   5   6  162.40    7.20
  -1  -5  -6  176.25    7.57
   1   5   6  137.48    7.20
  -1  -5  -6  161.16    7.58
   1   5   6  151.17    7.08
   2  -1   6  122.36    5.69
  -2   1  -6  119.28    6.01
  -2   1  -6  122.26    5.89
   2  -1   6  121.81    5.49
  -3  -3  -6  113.81    5.12
   3   3   6  112.46    4.89
   3   3   6  101.60    4.80
  -3  -3  -6  109.34    5.10
  -3  -3  -6  112.39    5.01
   0   4  -3  179.22    7.41
   0   4  -3  154.48    7.41
   0  -1   6   63.87    3.42
   0   1  -6   68.44    3.08
   0  -1   6   66.73    3.16
   0   1  -6   68.36    3.03
   0   1  -6   58.94    2.87
   2   1   7  672.63   27.70
   2   1   7  616.69   27.60
   2   1   7  628.34   27.76
  -2  -1  -7  615.85   27.29
  -2  -1  -7  685.64   27.27
  -2  -1  -7  592.08   27.19
   4  -1   0   91.73    4.21
   4  -1   0   91.99    4.22
   4  -1   0   92.41    4.15
  -4   1   0  100.51    4.81
   4  -1   0   93.57    4.24
  -4   1   0   98.67    4.69
  -3   3   3  245.98   10.98
  -3   3   3  248.63   11.14
   3  -3  -3  231.68   10.21
  -3   3   3  253.15   11.02
   3  -3  -3  233.75   10.54
   3  -3  -3  234.92   10.42
   3  -3  -3  249.11   10.40
   4   2   3  232.19   10.39
  -4  -2  -3  239.76   10.57
   4   2   3  235.36   10.42
   4   2   3  237.08   10.40
  -3  -4  -5    9.03    0.97
   3   4   5    9.66    1.03
   3   4   5    8.87    1.20
   2   5   1  134.30    5.98
   2   5   1  129.29    6.18
  -4  -1  -4  215.47    9.27
  -4  -1  -4  203.66    9.31
   4   1   4  210.29    9.31
   4   1   4  217.46    9.44
   4   1   4  213.30    9.45
   1  -5  -5   37.09    2.29
  -1   5   5   35.88    1.87
  -1   5   5   35.73    2.19
  -1   5   5   32.67    1.61
   1  -5  -5   33.74    1.88
   4   2   2   49.13    2.66
   4   2   2   66.23    2.85
  -4  -2  -2   43.37    2.04
   1   4   7    7.53    1.11
   1   4   7    7.75    1.01
   1   4   7    6.90    1.15
  -1  -4  -7    6.84    0.99
  -1  -4  -7    7.08    1.11
   1  -4  -6  345.08   16.86
   1  -4  -6  413.01   16.80
  -1   4   6  313.13   15.85
  -1   4   6  409.85   15.86
   1   0  -6   79.75    3.69
   1   0  -6   71.96    3.59
   1   0  -6   87.40    3.73
   1   0  -6   70.25    3.69
  -1   0   6  100.27    4.67
   3  -4  -1    8.55    1.53
   3  -4  -1    7.92    1.39
  -3   4   1    6.09    0.65
  -3   4   1    8.57    1.04
   3  -4  -1    6.76    0.72
  -3   4   1    7.83    0.60
  -3   4   1   10.09    1.31
   3  -4  -1    9.22    1.04
  -3  -2   2  126.21    6.12
  -3  -2   2  134.91    5.88
   0   6   3  225.83    9.61
   0   6   3  209.74    9.65
   0  -6  -3  217.51    9.51
   0  -6  -3  193.66    9.42
   0   1   7   18.81    1.19
   0   1   7   10.61    1.22
   0  -1  -7   15.66    1.34
   0   1   7   17.48    1.18
   0  -1  -7   16.30    1.32
   0  -1  -7   10.59    1.18
  -3   4   0  258.94   10.88
   3  -4   0  235.78    9.33
   3  -4   0  224.53    9.35
   3  -4   0  250.07    9.25
   3  -4   0  216.13    9.08
  -3   4   0  246.05   10.96
  -3   4   0  234.83   10.79
   2  -5   0   28.64    1.56
  -2   5   0   27.66    1.31
   2  -5   0   24.56    2.03
  -2   5   0   24.53    1.72
  -2   5   0   27.73    1.69
  -2   5   0   25.36    1.44
   0   5   6   81.16    4.08
   0  -5  -6   86.63    4.03
   0   5   6   79.36    3.99
   0   5   6   88.11    3.92
  -3   3  -3    1.46    1.29
  -3   3  -3    1.10    0.84
  -3   3  -3    1.18    0.54
  -3   3  -3    0.56    1.42
   3  -3   3    2.42    0.95
   3  -3   3    2.06    0.27
  -3   3  -3    1.62    1.07
   2   0  -5  838.67   34.26
   2   0  -5  781.71   34.22
  -2   0   5  786.24   34.25
   2   0  -5  732.79   34.30
  -3  -4  -1  675.89   29.53
   3   4   1  639.25   27.93
   3   0   6  344.34   15.63
   3   0   6  388.61   15.66
   3   0   6  341.90   15.56
  -3   0  -6  337.67   12.50
  -3   0  -6  272.23   12.34
   2  -5  -3   60.49    2.78
   2  -5  -3   56.62    2.98
  -2   5   3   61.99    3.01
  -2   5   3   54.80    3.06
  -2   5   3   60.80    2.83
   0  -6  -2  520.13   22.42
   0   6   2  508.67   22.21
   0  -6  -2  504.82   22.35
   0   6   2  510.08   22.31
   0   6   2  510.96   22.22
   4  -1   3  184.53    8.06
  -4   1  -3  193.89    8.79
   4  -1   3  223.55    8.03
  -4   1  -3  200.26    8.80
  -4   1  -3  195.19    9.05
   4  -1   3  161.20    7.89
  -4   1  -3  200.78    8.76
   4  -1   3  200.44    8.14
   4   0   4  259.29   10.81
   4   0   4  241.50   10.65
  -4   0  -4  256.06   10.89
  -4   0  -4  269.39   10.85
   4   1   0  159.94    6.99
  -4  -1   0  146.87    6.74
   4   1   0  149.54    6.84
  -4  -1   0  158.07    6.89
   4   2   4   15.69    1.34
   4   2   4   15.03    1.18
  -4  -2  -4   15.30    1.12
   4   2   4   15.53    1.21
   4   2   4   15.18    1.03
  -3  -3   1   50.91    2.97
  -3  -3   1   60.56    2.70
   3   3  -1   50.63    2.61
   0  -6  -4   48.84    2.39
   0   6   4   48.75    2.39
   0  -6  -4   48.86    2.36
   1   6   3   17.94    1.30
   1   6   3   23.99    1.32
  -3  -1   3  148.84    6.30
  -3  -1   3  127.37    6.45
   3   1  -3  147.28    6.59
  -1   0  -7  261.32   12.40
   1   0   7  262.70   10.23
  -1   0  -7  303.15   12.49
   1   0   7  277.80   10.45
  -1   0  -7  286.04   12.37
   4  -2   1  201.45    9.23
  -4   2  -1  209.33    9.15
  -4   2  -1  204.10    9.18
   4  -2   1  219.22    9.46
   4  -2   1  216.07    9.26
  -4   2  -1  225.64    9.52
   3  -4  -2  193.83    8.51
   3  -4  -2  184.92    8.29
  -3   4   2  186.32    8.22
  -3   4   2  187.94    8.32
  -3   4   2  172.48    8.47
  -3   4   2  195.29    8.40
   3  -4  -2  187.42    8.38
   3  -4  -2  186.78    8.57
   4   2   1   28.31    1.75
   4   2   1   25.50    1.54
  -4  -2  -1   24.69    1.45
  -1  -6  -4    7.41    0.91
   1   6   4    7.86    0.94
   1   6   4    4.92    0.84
  -1  -6  -4    3.85    0.90
  -1  -5   1  479.65   19.07
  -1  -5   1  416.15   18.70
   1   5  -1  438.46   19.34
   1   5  -1  447.18   19.54
   0   4   7  556.09   24.69
   0  -4  -7  633.31   26.63
   0  -4  -7  586.31   26.49
   0   4   7  586.81   24.79
   0  -4  -7  628.51   26.61
   0   4   7  528.51   24.77
   0  -4  -7  607.63   26.60
   0   4   7  607.13   24.81
  -3   4  -1    6.76    0.87
   3  -4   1    6.61    0.87
   3  -4   1    7.35    1.59
  -3   4  -1    8.00    1.61
  -3   4  -1    7.34    1.42
   3  -4   1    6.09    1.20
  -3   4  -1    7.24    0.93
   4  -2   0   18.98    2.00
   4  -2   0   17.74    1.17
  -4   2   0   24.75    2.02
   4  -2   0   23.79    1.60
   4  -2   0   19.53    1.24
   4  -2   0   22.09    1.38
   2   4   7   18.09    1.36
   2   4   7   16.74    1.35
  -2  -4  -7   19.41    1.31
  -2  -4  -7   15.30    1.26
  -2   4  -3    0.57    1.29
  -2   4  -3   -0.90    0.75
  -2   4  -3    0.46    0.65
  -2   4  -3    0.03    1.20
  -2   4  -3    0.00    0.20
   4  -1  -1  241.85   10.05
   4  -1  -1  233.24   10.22
  -4   1   1  242.06   11.17
  -4   1   1  262.44   11.24
   4  -1  -1  224.07    9.95
   4  -1  -1  213.91   10.02
   1   3  -4   15.30    1.56
  -1  -3   4   13.47    1.60
   1   3  -4   11.81    0.73
   1   3  -4   15.42    1.15
   2   5   6  644.32   27.59
  -2  -5  -6  629.91   26.89
  -2  -5  -6  611.06   26.91
  -2  -5  -6  607.13   26.94
   2   5   6  619.28   27.64
  -1  -6  -2   47.10    2.60
   1   6   2   71.72    3.06
   1   6   2   58.87    3.37
   1   6   2   57.78    2.99
   2  -4  -5   97.45    5.08
  -2   4   5   95.54    4.85
   2  -4  -5  101.74    5.05
  -2   4   5   97.74    4.83
   2  -4  -5  103.70    4.91
  -2   4   5  113.94    4.77
   2  -4  -5  112.52    4.82
   2  -4  -5   99.70    4.97
   0   6   1  124.38    6.23
   0   6   1  137.83    5.88
   0  -6  -1  137.58    5.99
   0   6   1  125.13    5.97
   0  -6  -1  125.08    6.05
  -4   0   1   59.68    3.09
  -4   0   1   58.46    2.99
   4   0  -1   65.94    3.16
   4  -2   2   21.03    1.22
  -4   2  -2   18.99    1.09
   4  -2   2   20.74    1.73
   4  -2   2   21.20    1.37
  -4   2  -2   20.69    1.21
  -3   2   4    3.62    1.40
   3  -2  -4    5.04    1.46
   3  -2  -4    6.18    1.17
   3  -2  -4    3.60    1.25
   3  -2  -4    8.03    1.04
  -3   2   4    6.94    1.40
  -3   2   4    6.80    0.95
  -3   1   4  124.02    5.23
  -3   1   4  102.89    5.11
   3  -1  -4  126.41    5.51
   3  -1  -4  116.87    5.46
   3  -1  -4  135.40    5.53
   1   2  -5  125.23    5.71
  -1  -2   5  120.40    5.47
   2   3  -3    0.15    0.88
   2   3  -3   -0.32    1.21
  -2  -3   3   -0.09    1.32
   1  -6  -2   96.39    4.78
   1  -6  -2  108.12    4.67
  -1   6   2  109.69    4.75
   1  -6  -2  106.10    5.00
  -1   6   2  105.75    4.73
  -1   6   2   96.84    4.98
  -1   6   2  107.64    4.94
   2   2  -4  105.43    3.69
   2   2  -4   99.83    3.66
  -2  -2   4  106.53    5.15
   2   0   7  246.35   10.94
   2   0   7  248.74   11.09
  -2   0  -7  226.17   10.60
  -2   0  -7  251.43   10.55
  -1   6   3   35.17    2.30
  -1   6   3   42.13    2.00
  -1   6   3   40.30    2.29
   1  -6  -3   34.99    2.08
   1  -6  -3   38.51    1.90
   1  -6  -3   39.65    2.44
   2  -5   1   16.80    1.27
  -2   5  -1   18.65    1.46
  -2   5  -1   27.77    1.79
  -2   5  -1   24.42    1.81
  -2   5  -1   16.95    1.84
   2  -5   1   25.23    1.78
  -2   5  -1   26.71    1.57
   3   4   6   25.11    1.75
  -3  -4  -6   30.19    1.66
   3   4   6   31.95    1.72
   3   4   6   28.52    1.66
   4   1   5   55.76    2.59
   4   1   5   50.82    2.37
  -4  -1  -5   63.13    3.08
  -2   5   4  132.37    5.57
   2  -5  -4  129.45    5.79
   2  -5  -4  122.11    5.62
  -2   5   4  111.21    5.78
  -2   5   4  118.72    5.67
  -4  -3  -3    5.80    1.01
   4   3   3    3.68    0.51
   4   3   3    8.16    1.18
   4   3   3    5.02    0.89
   4   3   3    6.07    0.95
   4   3   3    8.49    1.08
   1   6   5  214.19    9.65
  -1  -6  -5  221.49    9.21
  -1  -6  -5  192.76    9.24
   1   6   5  216.64    9.72
   1   6   5  219.82    9.58
   4   2   5  283.32   11.74
  -4  -2  -5  261.23   11.50
   4   2   5  270.75   11.64
   4   2   5  260.86   11.59
   4   2   5  248.48   11.70
  -2  -5   0   54.48    3.03
   2   5   0   49.16    2.77
  -1   5  -2    7.05    0.61
  -1   5  -2    6.24    0.91
   1  -5   2    9.60    1.47
  -1   5  -2    9.68    1.33
  -1   5  -2    6.71    0.90
   0  -6  -5    6.33    0.81
   0   6   5    7.90    0.93
   0   6   5    5.03    0.81
   0  -6  -5    8.83    0.90
   0   6   5    3.95    1.49
   4  -1   4   13.48    1.05
   4  -1   4   17.32    1.30
   4  -1   4   21.29    1.42
  -4   1  -4   19.41    1.29
  -4   1  -4   13.76    1.21
   0   5  -2  141.09    6.18
   0   5  -2  128.79    6.09
   0   5  -2  147.91    6.21
   0  -5   2  140.22    6.34
   4  -2  -1  230.74    9.88
   4  -2  -1  222.09    9.78
   4  -2  -1  206.39    9.96
   4  -2  -1  212.11    9.67
   4  -2  -1  227.71    9.64
   4  -2  -1  217.72    9.75
  -4   2   1  245.37   11.02
   0   0   7    3.17    0.94
   0   0   7    2.78    1.28
   0   0  -7    1.50    1.00
   0   0  -7    3.59    1.01
   0   0  -7    1.70    1.04
  -3  -2  -7   68.08    3.34
  -3  -2  -7   83.52    3.50
   3   2   7   81.60    3.51
   3   2   7   67.99    3.39
   3   2   7   74.85    3.50
   1  -6  -1   39.49    2.32
   1  -6  -1   56.69    2.69
  -1   6   1   45.42    2.10
  -1   6   1   41.37    2.03
  -1   6   1   50.70    2.23
  -1  -4   3  196.61    9.03
   1   4  -3  196.49    8.71
   1   4  -3  196.30    8.99
  -1   3  -5    5.26    0.78
   1  -3   5    2.96    1.34
   1  -3   5    5.07    0.75
  -1   3  -5    4.36    1.40
   4   3   4    3.20    0.81
   4   3   4    2.73    0.90
   4   3   4    2.05    1.08
  -4  -3  -4    3.11    0.95
   3  -2   5    1.15    1.26
  -3   2  -5    1.43    1.15
  -3   2  -5    1.49    0.93
   3  -2   5    2.05    0.59
   3  -2   5    1.06    0.77
  -3   2  -5    0.91    1.02
  -3   2  -5    1.08    0.53
  -3   2  -5    0.66    0.29
   3   4   0  471.80   20.73
  -3  -4   0  497.99   21.92
  -3   4   3  375.38   15.66
  -3   4   3  339.25   15.58
   3  -4  -3  339.08   15.10
  -3   4   3  362.31   15.77
   3  -4  -3  338.67   15.03
   3  -4  -3  356.62   15.24
   4   3   2   93.33    4.16
   4   3   2   85.31    4.20
  -4  -3  -2   98.54    4.48
   1  -2   6  107.06    4.79
  -1   2  -6   99.86    4.93
  -1   2  -6  104.49    4.71
   1  -2   6  100.64    5.04
  -3   3   4  118.92    5.43
  -3   3   4  111.38    5.52
  -3   3   4  120.02    5.37
   3  -3  -4  112.82    5.31
   3  -3  -4  106.08    5.44
   3  -3  -4  121.12    5.26
  -1   2   7  197.19    8.90
  -1   2   7  208.11    8.95
  -1   2   7  195.00    8.93
   1  -2  -7  208.51    9.12
   1  -2  -7  199.02    9.15
   1  -6  -4  108.16    4.65
   1  -6  -4   93.90    4.17
  -1   6   4   96.33    4.41
   1  -6  -4   92.94    4.37
  -1   6   4   90.87    4.54
   1  -6  -4   85.85    4.22
  -1   6   4   89.95    4.21
  -4  -2   0   56.70    2.91
   4   2   0   55.30    2.81
   4   2   0   62.14    2.98
  -4  -2   0   62.82    3.02
   1   6   1  121.36    5.82
   1   6   1  120.36    5.47
  -1  -6  -1  143.81    6.53
   3  -4   2   24.19    1.34
  -3   4  -2   23.41    1.84
   3  -4   2   23.14    2.07
   3  -4   2   26.67    1.74
  -3   4  -2   29.19    2.01
  -3   4  -2   25.26    1.49
  -3   4  -2   23.95    1.42
  -3   4  -2   25.99    1.82
   2   4  -2   19.59    1.77
   2   4  -2   20.64    1.34
  -2  -4   2   18.69    1.77
  -4  -1   1   47.86    2.28
  -4  -1   1   33.14    2.06
   4   1  -1   34.55    2.00
   4   1  -1   43.22    2.27
   3   0  -4  374.22   16.02
   3   0  -4  376.94   16.05
   3   0  -4  352.90   16.12
  -3   0   4  377.17   16.59
   3   0  -4  350.49   16.06
   4   0   5   22.73    1.57
  -4   0  -5   23.05    1.29
  -4   0  -5   21.54    1.27
   4   0   5   26.37    1.40
   4   0   5   20.78    1.49
  -4   0  -5   23.63    1.53
   1   5   7  322.97   13.42
   1   5   7  292.83   13.41
   1   5   7  295.16   13.42
  -1  -5  -7  307.13   13.50
  -1  -5  -7  298.05   13.40
  -1  -5  -7  316.36   13.50
   3   5   4  279.59   12.16
  -3  -5  -4  272.82   12.06
   3   5   4  270.40   12.20
  -3  -3  -7   13.53    1.20
   3   3   7   15.12    1.17
   3   3   7   13.49    1.16
  -3  -3  -7   17.74    1.34
  -3  -3  -7   15.15    1.08
   3   1   7   77.17    3.79
  -3  -1  -7   79.52    3.48
  -3  -1  -7   73.09    3.60
   3   1   7   79.44    3.56
   3   1   7   78.85    3.70
   1  -3  -7  283.10   11.62
   1  -3  -7  261.17   11.48
  -1   3   7  256.44   11.50
   1  -3  -7  244.90   11.60
   1  -3  -7  254.77   11.64
  -1   3   7  262.13   11.51
  -4   2  -3   13.06    1.08
   4  -2   3   17.95    0.94
  -4   2  -3   15.63    1.42
   4  -2   3   14.67    1.47
   4  -2   3   12.41    0.77
   4  -2   3   14.62    1.22
   3   5   3 1091.96   47.03
   3   5   3 1098.50   47.09
   3   5   3 1055.02   47.06
   3  -1   6   11.87    0.96
  -3   1  -6   14.03    1.26
   3  -1   6   13.04    1.38
  -3   1  -6   17.03    1.30
  -3   1  -6   12.52    0.87
  -3   1  -6    8.31    0.56
   2  -2  -6 1198.62   50.27
  -2   2   6 1018.93   47.80
   2  -2  -6 1276.27   50.31
  -2   2   6 1194.53   47.85
   2   1  -5  369.00   16.67
   2   1  -5  381.55   16.54
   2   1  -5  383.84   16.69
  -2  -1   5  426.16   18.02
  -2  -1   5  394.74   17.84
   1  -5  -6    4.14    1.03
  -1   5   6   27.09    1.65
  -1   5   6   23.05    1.68
   1  -5  -6   22.44    1.71
   1   1  -6   45.92    2.57
  -1  -1   6   82.50    3.90
   1   1  -6   46.57    2.70
  -1  -2  -8   41.90    2.19
  -1  -2  -8   39.56    2.22
  -1  -2  -8   39.19    2.18
   1   2   8   37.91    1.92
   1   2   8   42.39    2.16
   1   2   8   40.86    2.06
  -1  -2  -8   40.98    2.13
   1   2   8   33.09    2.00
  -1  -3  -8   36.13    2.06
   1   3   8   34.51    1.98
  -1  -3  -8   36.45    2.00
   1   3   8   33.31    1.95
   1   3   8   37.86    1.99
  -3   3  -4   12.72    1.10
   3  -3   4    8.37    0.58
   3  -3   4   12.03    1.05
  -3   3  -4   11.56    1.20
  -3   3  -4   11.90    1.58
  -3   3  -4    9.11    0.62
  -3   3  -4   11.87    0.73
  -3   3  -4   10.38    1.42
   0   6   0  132.45    6.04
   0   6   0  139.56    6.16
   0  -6   0  159.36    7.23
   0   6   0  136.58    6.50
   0  -3   5  147.86    6.62
   0   3  -5  149.84    6.72
  -2   3   6  130.82    6.87
   2  -3  -6  155.92    7.15
  -2   3   6  176.53    6.93
   2  -3  -6  128.17    7.11
   1  -4   4   66.89    3.64
  -1   4  -4   78.34    3.43
  -1   4  -4   70.88    3.15
  -1   4  -4   63.57    3.17
  -1   4  -4   70.68    3.69
  -1   4  -4   66.56    3.24
   2   6   4   43.75    2.16
   2   6   4   42.57    2.29
  -2  -6  -4   43.85    2.22
   2   6   4   38.73    2.25
  -2  -6  -4   39.57    2.25
   4  -1  -2  217.98    9.17
  -4   1   2  198.65    9.41
   4  -1  -2  201.06    9.16
   4  -1  -2  194.95    9.27
  -4   1   2  221.62    9.43
   2  -2   6    9.92    1.48
  -2   2  -6    9.61    1.34
  -2   2  -6   12.79    1.40
   2  -2   6   12.47    0.98
  -2   2  -6   12.50    0.91
  -4  -3  -5   85.94    3.98
   4   3   5   78.49    3.96
   4   3   5   87.74    3.87
   2   6   3   31.67    1.67
   2   6   3   21.58    1.70
   2   6   3   30.89    1.77
   2   6   3   28.84    2.04
  -3  -5  -5  140.22    6.37
  -3  -5  -5  142.40    6.38
   3   5   5  154.35    6.72
   3   5   5  143.17    6.70
  -2   3  -5    2.37    1.38
  -2   3  -5    3.16    0.61
  -2   3  -5    2.07    0.58
   2  -3   5    3.63    0.64
   2  -3   5    3.34    1.53
  -2   3  -5    3.86    1.22
   2  -1  -6  202.82    8.79
  -2   1   6  179.47    8.10
   2  -1  -6  188.98    8.74
  -1   1   7  316.89   14.31
   1  -1  -7  337.65   14.30
   1  -1  -7  310.14   14.33
  -1   1   7  329.07   14.26
   0  -5  -7  491.90   20.68
   0   5   7  492.85   20.67
   0  -5  -7  428.80   20.77
   0   5   7  462.03   20.51
   0   5   7  467.93   20.65
   0  -5  -7  496.82   20.84
   0   5   7  485.57   20.66
   0   5   7  456.27   20.62
  -4   3   0   26.09    2.16
   4  -3   0   27.76    2.09
   4  -3   0   24.69    1.42
   4  -3   0   28.07    1.81
   4  -3   0   25.29    1.43
   4  -3   0   28.40    1.61
  -4   3   0   27.83    1.59
   4  -3   0   21.61    2.17
   1  -6   0  168.06    7.62
  -1   6   0  159.22    7.30
   1  -6   0  166.07    7.48
  -1   6   0  164.15    7.36
  -1   6   0  172.43    7.30
  -1   6   0  158.53    7.12
  -2  -2  -8   54.74    2.63
  -2  -2  -8   49.96    2.58
   2   2   8   53.92    2.40
   2   2   8   55.37    2.24
   2   2   8   55.62    2.33
   0  -2   6  202.50   10.41
   0  -2   6  245.02   10.21
   0   2  -6  222.90    7.86
   0   2  -6  163.63    7.61
   3   5   2  167.91    7.72
   3   5   2  172.04    7.66
  -4   3  -1    0.82    0.69
  -4   3  -1    1.85    0.78
   4  -3   1    1.40    0.84
   4  -3   1    1.01    1.39
   4  -3   1    1.80    0.57
   4  -3   1    1.28    0.84
  -4   3  -1    1.64    0.45
   4  -3   1    0.69    1.17
  -4  -3  -1  113.60    5.21
   4   3   1  110.16    5.07
   4   3   1  111.41    5.13
   2   3   8   59.05    2.82
   2   3   8   54.02    2.87
  -2  -3  -8   57.28    2.91
   2   3   8   57.59    2.85
  -2  -3  -8   58.89    2.98
  -2  -3  -8   63.71    2.98
   1   6   6  340.88   15.37
   1   6   6  353.29   15.44
  -1  -6  -6  333.68   14.69
   1   6   6  353.13   15.29
  -1  -6  -6  318.44   14.66
  -1  -6  -6  343.45   14.60
   1  -1   7  277.92   12.25
  -1   1  -7  275.20   12.19
   1  -1   7  276.57   12.48
  -1   1  -7  272.32   12.27
  -1   1  -7  287.81   12.24
  -3  -2   3  155.52    7.17
   2   5   7  197.53    9.06
   2   5   7  206.41    9.01
  -2  -5  -7  177.89    7.97
   4   0  -2  119.72    5.63
   4   0  -2  119.69    5.74
  -4   0   2  133.42    6.12
   4   0  -2  130.56    5.66
   4  -2  -2  163.40    7.33
  -4   2   2  181.14    8.01
  -4   2   2  169.80    7.98
   4  -2  -2  167.86    7.37
   4  -2  -2  155.76    7.53
  -3  -3   2  329.42   10.10
  -3  -3   2  208.66    9.59
   3   3  -2  317.36   14.23
   3   3  -2  325.30   14.18
   0   4  -4   37.48    1.86
   0   4  -4   33.47    1.95
   2   6   5  244.87   10.99
  -2  -6  -5  267.77   11.68
   2   6   5  248.96   10.99
  -2  -6  -5  255.19   11.63
  -2  -6  -5  266.21   11.62
   2   6   5  247.45   10.92
  -2   5  -2   14.63    1.57
  -2   5  -2   15.86    1.75
  -2   5  -2   16.35    1.14
   2  -5   2   15.93    1.69
  -2   5  -2   16.15    1.26
   1  -4  -7  538.71   19.55
   1  -4  -7  383.55   19.39
  -1   4   7  470.76   19.55
  -1   4   7  484.99   19.56
  -1  -1  -8  102.11    5.11
  -1  -1  -8  118.22    5.20
   1   1   8  104.05    4.95
  -1  -1  -8  115.08    5.11
   1   1   8  103.72    4.80
   1   1   8  103.19    4.69
   1   4   8  184.43    8.30
  -1  -4  -8  195.48    8.65
  -1  -4  -8  190.38    8.56
   1   4   8  188.40    8.36
  -4   3   1  150.58    6.75
  -4   3   1  149.80    7.03
   4  -3  -1  141.49    6.45
   4  -3  -1  133.03    6.71
   4  -3  -1  157.18    6.61
   4  -3  -1  148.04    6.70
   4  -3  -1  138.78    6.38
   0  -6  -6   14.45    1.23
   0  -6  -6   19.34    1.12
   0   6   6   26.30    1.88
   0   6   6   25.88    1.31
   4   2   6  278.56   12.83
   4   2   6  306.19   12.87
  -4  -2  -6  316.51   13.95
   4   2   6  305.03   12.98
   4   2   6  296.05   12.85
   1  -6  -5  204.10    9.29
  -1   6   5  212.81    8.89
  -1   6   5  201.69    9.07
   1  -6  -5  202.10    9.15
   1  -6  -5  192.52    8.96
   1  -6  -5  228.68    9.08
  -1   6   5  194.56    8.73
   2   6   2  111.27    5.40
   2   6   2  124.64    5.39
   2   6   2  117.33    5.67
   1   5  -2   61.45    2.95
  -1  -5   2   66.43    3.67
   1   5  -2   64.21    3.38
   2  -5  -5  287.71   13.05
   2  -5  -5  300.51   13.29
  -2   5   5  297.30   13.38
   2  -5  -5  305.24   13.15
  -2   5   5  305.77   13.31
   4   1   6   32.56    1.66
   4   1   6   25.88    1.38
   4   1   6   32.46    1.62
  -4  -1  -6   36.99    2.01
  -4  -1  -6   33.01    1.87
   4   1   6   34.36    1.84
   3   4   7   16.76    1.36
   3   4   7   19.41    1.38
   3   4   7   15.43    1.43
  -3  -4  -7   14.44    1.35
  -3  -4  -7   17.30    1.17
   0  -3  -8   58.35    2.89
   0   3   8   54.44    2.91
   0   3   8   60.43    2.95
   0  -3  -8   57.91    3.04
   0  -3  -8   59.34    3.03
  -3   0  -7    1.00    0.74
   3   0   7    2.13    1.11
   3   0   7    1.35    1.10
   3   0   7    1.23    0.78
  -3   0  -7    1.48    0.52
  -2   1  -7    0.65    0.74
   2  -1   7    0.34    1.24
   2  -1   7   -0.07    0.72
  -2   1  -7    1.96    0.79
   0  -2  -8   20.77    1.61
   0   2   8   20.09    1.46
   0   2   8   20.37    1.45
   0  -2  -8   20.60    1.50
   0   2   8   19.99    1.44
   0   2   8   18.53    1.44
   3  -5  -1    5.92    1.42
  -3   5   1    7.44    0.60
  -3   5   1    6.43    1.30
   3  -5  -1    6.15    1.57
   3  -5  -1    6.24    1.69
   3  -5  -1    7.73    1.10
   3  -5  -1    8.24    0.64
  -3   5   1    6.74    1.59
  -3   5   1    7.45    1.12
   4  -3   2   49.18    2.34
   4  -3   2   48.36    2.27
  -4   3  -2   50.73    2.66
   4  -3   2   44.32    2.44
  -4   3  -2   49.65    2.29
  -4   3  -2   44.89    2.35
   4  -3   2   48.09    2.60
   4  -3   2   54.23    2.30
   4  -3   2   48.40    2.73
   2   1   8  482.03   20.98
   2   1   8  473.01   20.88
  -2  -1  -8  490.93   20.31
  -2  -1  -8  454.33   20.36
  -2  -1  -8  450.22   20.24
   2   1   8  487.85   21.09
   4  -1   5   66.84    2.97
  -4   1  -5   61.12    2.95
   4  -1   5   59.78    3.02
   4  -1   5   59.47    3.12
  -4   1  -5   57.42    2.94
  -2   4  -4    3.29    0.68
  -2   4  -4    3.59    1.36
  -2   4  -4    3.63    1.35
   2  -4   4    5.01    1.50
  -2   4  -4    3.48    0.43
   1   6   0  368.96   16.18
   1   6   0  358.78   15.95
  -1  -6   0  321.17   14.10
  -3   4   4  158.81    7.10
   3  -4  -4  152.07    6.79
  -3   4   4  157.35    7.16
   3  -4  -4  146.01    6.88
   3  -4  -4  154.15    7.05
  -3   4   4  156.15    7.29
  -2   6   2   59.96    3.12
   2  -6  -2   57.35    2.57
  -2   6   2   54.54    2.59
   2  -6  -2   60.55    2.98
   2  -6  -2   44.46    2.30
  -2   6   2   53.61    2.87
  -2   6   2   60.07    2.98
   2  -4  -6  246.76   11.13
  -2   4   6  307.33   12.02
   2  -4  -6  241.69   11.19
  -2   4   6  236.64   11.98
   2  -4  -6  233.29   10.83
   2  -4  -6  235.61   11.17
   2  -4  -6  253.87   11.10
  -4   2  -4    0.18    0.91
   4  -2   4   -0.78    0.98
   4  -2   4    0.51    0.59
   4  -2   4    0.08    1.14
  -4   2  -4    0.51    1.07
  -3  -5  -6    5.67    1.01
   3   5   6    5.60    1.12
   3   5   6    5.30    1.05
  -3  -5  -6    4.17    0.97
  -2  -5   1    7.34    0.61
  -2  -5   1   12.82    1.72
   2   5  -1   14.06    1.69
  -3  -1   4  426.98   18.85
   3   1  -4  422.37   19.54
   3   1  -4  455.52   19.39
   2   4   8    8.32    1.12
  -2  -4  -8    9.80    1.13
   2   4   8    9.03    1.17
  -2  -4  -8    7.57    1.11
   2   4   8   10.18    1.12
  -3   5   2   74.56    2.71
  -3   5   2   72.93    2.89
   3  -5  -2   67.05    3.07
   3  -5  -2   72.40    3.32
  -3   5   2   56.97    2.24
   3  -5  -2   53.85    2.83
   3  -5  -2   68.35    3.45
  -3   5   2   73.03    2.56
   3  -5   0   25.49    1.98
  -3   5   0   27.72    2.13
   3  -5   0   23.87    1.69
  -3   5   0   28.08    1.69
  -3   5   0   28.74    2.14
   3  -5   0   26.91    1.35
  -3   5   0   26.66    1.48
  -3   5   0   28.40    1.82
   3  -5   0   18.30    0.92
  -3   4  -3   29.44    1.96
  -3   4  -3   22.59    1.97
  -3   4  -3   28.66    1.62
  -3   4  -3   23.24    1.79
  -3   4  -3   26.93    1.41
   3  -4   3   24.77    1.66
   4   2  -1   57.19    2.99
  -4  -2   1   58.70    3.06
  -4  -2   1   61.89    3.02
   2  -6  -1    1.69    0.92
  -2   6   1    0.80    0.50
  -2   6   1   -0.34    0.48
  -2   6   1    0.68    1.25
   2  -6  -1    1.54    1.56
  -2   6   1    0.33    1.58
   2  -6  -1    0.40    0.43
  -2   6   1    1.08    1.06
  -2   6   1    2.15    1.49
   4   4   4  105.07    4.44
   4   4   4   87.84    4.22
  -4  -4  -4   96.94    4.50
   4   4   4   90.16    4.32
   4   4   4   95.84    4.33
   4   4   3   82.34    3.69
   4   4   3   73.09    3.60
   4   4   3   79.17    3.69
   0   1  -7  177.92    8.28
   0   1  -7  187.27    8.25
   0  -1   7  170.84    8.22
   0   1  -7  188.13    8.23
   0  -1   7  181.26    7.98
  -3  -4   1  233.56   10.42
  -3  -4   1  273.09   10.84
   3   4  -1  292.85   13.06
  -2   6   3    5.21    1.36
  -2   6   3    5.80    1.20
   2  -6  -3    8.95    0.79
  -2   6   3    9.21    0.82
   2  -6  -3    6.83    1.17
   2  -6  -3    6.43    1.71
  -4  -3  -6  298.39   12.70
   4   3   6  273.04   12.02
   4   3   6  270.08   11.91
  -4  -3  -6  278.54   12.61
   3  -2  -5   77.74    4.16
   3  -2  -5   92.84    4.11
  -3   2   5   91.21    4.07
   3  -2  -5   83.18    4.16
   3  -2  -5   86.00    4.15
  -3   2   5   76.88    4.16
  -2   0   6   25.63    1.85
   2   0  -6   27.00    1.74
   2   0  -6   28.72    1.77
   2   0  -6   28.19    1.95
   3   5   1   73.19    3.52
   3   5   1   72.01    3.62
  -3  -5  -1   75.96    3.82
   0  -4  -8   91.26    4.28
   0   4   8   87.64    4.26
   0   4   8   89.72    4.26
   0  -4  -8   82.13    4.23
   0  -4  -8   96.64    4.35
  -2  -6  -6  274.42   12.35
   2   6   6  281.22   12.42
   2   6   6  270.25   12.49
   2   6   6  295.66   12.52
  -2  -6  -6  284.19   12.42
  -2  -6  -6  283.52   12.38
  -1   5  -3    0.26    0.82
  -1   5  -3    0.36    1.27
  -1   5  -3   -0.96    0.80
  -1   5  -3   -0.24    0.55
   1  -5   3    1.21    1.52
  -4  -1   2   27.52    1.80
  -4  -1   2   30.14    1.83
   4   1  -2   29.39    1.76
   4   1  -2   31.12    2.06
   1   0  -7    1.20    0.99
   1   0  -7    2.60    1.18
   1   0  -7    1.65    1.18
   1   0  -7    1.55    0.96
  -1   0   7    2.97    1.03
   4   0   6   29.18    1.71
  -4   0  -6   36.31    1.91
   4   0   6   30.64    1.85
   4   0   6   32.26    1.64
  -4   0  -6   27.57    1.66
   4   0   6   33.85    1.93
   4  -3  -2  377.28   16.18
   4  -3  -2  359.29   16.44
   4  -3  -2  332.50   16.49
   4  -3  -2  385.19   16.55
  -4   3   2  379.99   16.53
  -4   3   2  370.30   16.68
   4  -3  -2  379.24   16.38
   4  -3  -2  399.93   16.34
   4  -3  -2  363.01   16.20
   3  -1  -5   64.94    3.34
   3  -1  -5   61.61    3.32
   3  -1  -5   71.72    3.34
  -3   1   5   66.06    3.29
  -3   1   5   67.98    3.38
   3  -1  -5   68.49    3.38
   0   6  -1  374.50   16.09
   0  -6   1  337.40   14.85
   0   6  -1  348.81   16.35
   0  -1  -8   27.83    1.76
   0  -1  -8   29.33    1.82
   0  -1  -8   22.61    1.68
   0   1   8   24.40    1.69
   0   1   8   29.86    1.59
   4   3   0  212.06    9.82
   4   3   0  233.08    9.90
  -4  -3   0  269.23   10.85
  -4  -3   0  218.22   10.86
  -1   6  -1  121.62    5.29
   1  -6   1  115.14    5.40
  -1   6  -1  115.43    5.17
  -1   6  -1  108.93    4.98
  -1   6  -1  110.89    5.17
   4   4   5   18.02    1.26
   4   4   5   17.67    1.14
   4   4   5   19.17    1.39
   0   5  -3  253.40   11.36
   0   5  -3  263.41   11.34
   0   5  -3  256.19   11.42
   2   6   1    6.23    0.98
   2   6   1    5.28    1.44
   3  -3  -5   25.06    1.94
   3  -3  -5   22.99    1.95
   3  -3  -5   24.46    1.81
   3  -3  -5   23.43    1.60
  -3   3   5   25.26    1.75
  -3   3   5   24.95    1.65
   2   3  -4    1.83    1.18
   2   3  -4    1.91    0.94
  -2  -3   4    2.97    1.43
   4   4   2   32.20    1.89
   4   4   2   35.37    1.91
  -3   5   3  253.21   12.31
  -3   5   3  277.43   12.26
   3  -5  -3  275.71   11.62
  -3   5   3  290.25   12.17
   3  -5  -3  262.85   11.70
   3  -5  -3  237.93   11.73
   3  -5   1   23.76    2.17
  -3   5  -1   27.61    2.23
  -3   5  -1   32.74    2.08
   3  -5   1   26.72    1.92
  -3   5  -1   27.43    1.89
  -3   5  -1   26.62    2.10
  -3   5  -1   32.14    1.68
   3  -5   1   31.61    1.61
  -3   5  -1   30.78    1.73
  -2   6   0   23.04    1.90
  -2   6   0   24.09    1.94
   2  -6   0   23.07    1.97
   2  -6   0   24.85    1.51
  -2   6   0   25.62    1.46
  -2   6   0   23.37    1.82
  -2   6   0   17.09    0.89
  -2   6   0   22.40    1.57
   1   3  -5   17.08    1.28
   1   3  -5   16.02    1.65
   4  -3   3   43.52    2.12
  -4   3  -3   50.21    2.54
   4  -3   3   47.99    2.12
  -4   3  -3   41.24    2.00
   4  -3   3   48.90    2.49
   4  -3   3   46.09    2.60
  -4   1   3  142.31    6.56
   4  -1  -3  140.64    6.29
   4  -1  -3  149.31    6.32
   4  -1  -3  122.56    6.37
   4  -1  -3  135.69    6.37
   3   2   8    2.46    0.93
  -3  -2  -8    5.18    1.20
  -3  -2  -8    2.12    0.88
  -3  -2  -8    4.21    0.78
   3   2   8    4.73    0.87
   3   2   8    1.37    1.01
   0  -7  -3  370.02   16.34
   0   7   3  371.17   16.18
   0  -7  -3  355.29   16.28
   0   7   3  382.46   16.08
   0   7   3  353.02   16.02
   0  -7  -3  406.33   16.49
  -1   0  -8  520.51   22.76
   1   0   8  506.06   18.15
  -1   0  -8  521.78   22.86
   1   0   8  526.28   17.93
  -1   0  -8  521.32   22.81
   3  -2   6    0.12    1.25
   3  -2   6    0.23    0.70
  -3   2  -6    0.96    1.13
  -3   2  -6    1.39    1.14
  -3   2  -6    0.68    0.38
  -3   2  -6    0.78    0.92
  -3   2  -6    0.00    0.58
  -3   2  -6   -0.01    0.41
   3  -2   6    0.19    0.68
  -1  -6  -7  240.57   11.20
  -1  -6  -7  260.36   11.12
   1   6   7  281.27   11.97
   1   6   7  262.59   12.09
   1   6   7  274.59   12.14
   1   6   7  264.40   12.06
  -1  -6  -7  252.93   11.22
   1   5   8  360.94   16.17
  -1  -5  -8  363.17   15.82
   1   5   8  365.62   16.09
  -1  -5  -8  370.79   15.73
  -1  -5  -8  336.89   15.83
   1   5   8  374.14   16.17
   1  -5  -7   37.07    2.10
  -1   5   7   33.27    2.63
  -1   5   7   61.76    2.60
   1  -5  -7   37.16    2.67
   3   3   8  164.74    6.26
  -3  -3  -8  184.81    7.72
   3   3   8  158.85    6.38
  -3  -3  -8  170.10    7.70
  -3  -3  -8  164.15    7.59
  -2   6   4   51.15    2.52
   2  -6  -4   51.06    2.68
   2  -6  -4   49.46    2.44
  -2   6   4   52.85    2.78
  -2  -2   5    2.02    1.39
   2   2  -5    1.78    1.17
   2   2  -5    1.74    0.53
   2   2  -5    1.70    0.96
   4  -2  -3  236.61   11.48
  -4   2   3  280.91   12.53
   4  -2  -3  265.07   11.39
   4  -2  -3  262.35   11.38
   0  -7  -4  122.20    5.69
   0   7   4  122.93    5.57
   0  -7  -4  137.92    6.00
   0  -7  -4  123.30    5.77
  -3   3  -5   32.12    2.24
   3  -3   5   32.20    1.58
  -3   3  -5   31.11    1.63
  -3   3  -5   37.73    1.64
  -3   3  -5   31.74    1.98
   3  -3   5   32.05    1.74
  -3   3  -5   37.19    2.04
  -3   3  -5   33.52    2.16
   3  -3   5   32.63    2.24
  -2  -4   3   65.34    3.55
   2   4  -3   68.81    3.43
   2   4  -3   79.73    3.78
  -1  -4   4   20.45    1.88
   1   4  -4   23.26    1.24
   1   4  -4   22.24    1.82
  -1   6   6   39.00    1.95
   1  -6  -6   45.71    2.34
  -1   6   6   36.06    2.48
  -1   6   6   49.73    2.26
  -1   6   6   42.33    2.59
   2   0   8  148.52    6.70
  -2   0  -8  147.16    6.59
  -2   0  -8  150.71    6.66
  -2   0  -8  143.12    6.75
   2   0   8  147.71    6.90
  -1  -2   6    4.46    0.88
   1   2  -6   12.56    1.19
   1   2  -6    5.06    1.03
   1   7   4   70.81    3.48
  -1  -7  -4   72.23    3.46
   1   7   4   74.91    3.44
   0   7   2  138.22    6.04
   0   7   2  121.57    6.41
   0   7   2  136.43    6.03
   0  -7  -2  120.18    5.89
   0   7   2  132.58    6.17
   0  -7  -2  129.75    5.78
  -1  -7  -3  210.46    9.49
   1   7   3  193.70    8.84
   1   7   3  206.90    8.89
   4  -4   0  132.40    5.75
   4  -4   0  127.39    5.92
  -4   4   0  132.19    5.49
  -4   4   0  115.11    5.36
   4  -4   0  125.49    6.05
   4  -4   0  123.31    5.62
  -2   5  -3   12.09    0.94
  -2   5  -3    7.43    0.44
  -2   5  -3    8.81    0.91
  -2   5  -3    9.50    1.55
  -2   5  -3   12.00    1.59
   0   6   7  153.09    6.43
   0   6   7  138.40    6.49
   0  -6  -7  158.62    7.19
   0   6   7  127.48    6.51
   5   0   2   16.26    1.34
  -5   0  -2   17.69    1.41
  -5   0  -2   16.72    1.91
   5   0   2   17.16    1.16
   3   5   7    1.65    1.03
   3   5   7    0.97    1.14
  -3  -5  -7    0.81    0.90
  -3  -5  -7    1.98    0.89
   3   0  -5  117.41    5.48
   3   0  -5  121.47    5.54
  -3   0   5  117.03    5.44
   4   0  -3   32.03    1.76
  -4   0   3   24.85    1.80
   4   0  -3   26.17    1.77
   4   0  -3   21.07    1.89
   3   1   8   28.43    1.90
   3   1   8   27.42    1.69
   3   1   8   30.39    1.53
  -3  -1  -8   27.59    1.62
  -3  -1  -8   28.06    1.50
  -3   1  -7   61.59    2.70
  -3   1  -7   63.70    3.00
  -3   1  -7   68.32    2.85
   3  -1   7   68.36    3.16
   3  -1   7   63.55    3.43
  -3   1  -7   74.15    3.12
  -3   1  -7   50.68    2.68
  -2  -5  -8   50.26    2.60
   2   5   8   44.95    2.50
  -2  -5  -8   50.08    2.57
   2   5   8   49.27    2.53
   4   2   7  143.46    6.28
  -4  -2  -7  133.69    6.28
   4   2   7  131.79    6.10
  -4  -2  -7  140.53    6.12
   4   2   7  141.39    6.17
   1  -3   6    0.60    0.76
  -1   3  -6    0.51    0.81
   1  -3   6   -0.52    1.39
  -1   3  -6   -0.28    1.40
   5   1   3  187.92    8.42
  -5  -1  -3  188.43    8.37
   4   4   6   27.36    1.63
   4   4   6   28.64    1.73
   4  -4  -1   85.87    3.96
   4  -4  -1   80.22    4.26
  -4   4   1   89.65    4.09
  -4   4   1   82.62    4.40
   4  -4  -1   82.06    3.82
   4  -4  -1   85.84    4.14
   5   0   3    9.60    1.02
   5   0   3   10.76    0.89
  -5   0  -3   11.23    1.86
  -5   0  -3    9.23    0.72
  -5   0  -3   12.17    0.97
   5   0   3   11.01    1.24
  -5   0  -3   10.97    1.14
   5   1   2  202.32    9.03
   5   1   2  205.35    9.08
  -5  -1  -2  155.73    7.16
  -5  -1  -2  205.56    7.67
  -2   5   6   80.52    3.94
   2  -5  -6   76.45    3.79
   2  -5  -6   79.72    3.93
   2  -5  -6   80.84    4.16
  -2   5   6   76.92    3.75
   2  -5  -6   82.80    4.15
  -1  -7  -5   23.36    1.40
   1   7   5   20.53    1.44
  -1  -7  -5   18.13    1.40
   0  -7  -5  141.73    6.15
   0  -7  -5  134.32    6.09
   0   7   5  118.93    6.36
   0   7   5  145.12    6.15
   0  -7  -5  127.49    6.39
   0  -5  -8  102.49    4.68
   0   5   8   90.13    4.30
   0  -5  -8   93.56    4.69
   0  -5  -8   88.48    4.41
   0   5   8   95.47    4.49
   0   5   8   77.66    4.48
   0  -5  -8  111.34    4.60
  -4   4  -1   31.25    1.54
   4  -4   1   27.52    2.15
   4  -4   1   31.01    1.48
   4  -4   1   31.28    1.69
   4  -4   1   26.76    2.01
  -4   4  -1   23.97    1.20
  -4   4  -1   27.68    1.45
   1   6  -1  101.10    4.79
   1   6  -1  105.01    5.11
  -1  -6   1  109.36    5.35
  -1  -6   1  106.17    4.88
  -4  -4  -1   62.20    3.17
   4   4   1   58.67    2.81
   4   4   1   53.31    2.81
   5   0   1    2.86    0.90
   5   0   1    2.52    0.80
  -5   0  -1    3.82    1.16
  -5   0  -1    3.51    1.56
   5   0   1    3.28    1.04
   2   6   7  160.41    7.07
  -2  -6  -7  161.15    7.19
  -2  -6  -7  154.64    7.14
  -2  -6  -7  159.15    7.10
   2   6   7  154.29    7.16
   2   6   7  155.17    7.13
   3   6   4  349.53   15.55
   3   6   4  354.00   15.47
   3   6   4  350.20   15.43
   3   6   4  349.40   15.50
  -3  -5   0   26.14    2.02
   3   5   0   24.73    1.87
   4   1   7   47.79    1.83
   4   1   7   46.96    2.06
   4   1   7   31.71    1.50
   4   1   7   24.82    1.46
  -4  -1  -7   50.61    2.53
   4   1   7   48.77    1.89
  -1   7   3    0.94    0.66
  -1   7   3    0.77    1.15
   1  -7  -3    1.62    0.71
  -1   7   3    0.78    1.29
   1  -7  -3    1.03    1.02
  -1   7   3    1.02    0.61
   1  -7  -3    1.43    1.55
   4  -2   5   38.97    1.91
  -4   2  -5   40.88    2.28
  -4   2  -5   37.29    2.64
  -3  -4  -8   18.62    1.41
   3   4   8   14.38    1.25
  -3  -4  -8   13.26    1.31
  -3  -4  -8   17.50    1.23
   3   4   8   17.03    1.31
  -3   4   5   25.29    1.75
   3  -4  -5   24.70    1.51
   3  -4  -5   22.87    1.99
  -3   4   5   24.57    1.61
  -3   4   5   24.77    1.89
   3  -4  -5   23.44    1.74
   3  -4  -5   18.39    0.97
   3  -4  -5   23.02    2.02
   2  -2  -7  668.31   25.39
   2  -2  -7  618.36   25.33
  -2   2   7  675.49   29.53
  -1   3   8  213.48    9.12
  -1   3   8  193.77    9.07
   1  -3  -8  204.40    9.08
   1  -3  -8  198.41    9.21
   1  -3  -8  208.63    9.21
   4  -3  -3  302.62   13.97
   4  -3  -3  303.83   13.63
   4  -3  -3  320.87   13.80
  -4   3   3  338.80   14.36
   4  -3  -3  341.21   13.86
  -4   3   3  309.54   14.30
  -4   3   3  335.05   14.52
  -1   4  -5    2.48    1.28
  -1   4  -5    3.94    1.53
  -1   4  -5    3.28    0.72
   1  -4   5    3.92    1.50
  -1   4  -5    1.40    0.42
  -4  -3  -7  223.12   10.30
  -4  -3  -7  235.78   10.16
   4   3   7  215.11    9.68
   4   3   7  217.14    9.56
   1   7   2  146.26    7.11
   1   7   2  145.43    6.76
   1   7   2  157.11    6.77
  -1  -7  -2  160.00    6.93
  -1  -7  -2  143.27    6.87
  -1   2  -7   31.45    2.03
   1  -2   7   33.23    1.83
  -1   2  -7   28.77    1.69
   1  -2   7   31.51    2.23
  -2   3   7  400.29   18.84
   2  -3  -7  463.70   19.60
   2  -3  -7  453.46   19.57
  -2   3   7  455.48   18.83
   2  -3  -7  418.26   19.56
  -4   1  -6    1.70    0.71
   4  -1   6    1.66    1.10
  -4   1  -6    2.09    1.04
   4  -1   6    1.75    1.10
   4  -1   6    1.99    0.72
   5  -1   2   13.37    1.09
  -5   1  -2   15.31    1.90
  -5   1  -2   13.02    0.97
  -5   1  -2   16.18    1.40
   5  -1   2   13.96    1.25
  -1   7   2  170.77    7.46
  -1   7   2  183.89    7.50
   1  -7  -2  169.88    8.00
  -1   7   2  166.62    7.25
   1  -7  -2  193.68    8.22
  -1   7   2  150.28    7.25
   3   3  -3  190.09    8.53
  -3  -3   3  202.63    9.27
   0   0  -8   73.03    3.50
   0   0   8   69.14    3.68
   0   0   8   70.08    3.43
   0   0  -8   69.60    3.47
   3   6   5  214.15    9.11
  -3  -6  -5  202.02    9.04
   3   6   5  198.58    9.18
   3   6   5  198.03    9.15
  -3  -6  -5  202.15    9.03
   1  -2  -8   96.80    4.24
  -1   2   8   83.37    4.02
   1  -2  -8   79.84    4.29
  -1   2   8   86.70    4.07
  -3   5   4  160.84    6.85
   3  -5  -4  151.79    6.92
  -3   5   4  148.36    6.95
   3  -5  -4  156.66    6.81
   3  -5  -4  138.18    7.09
  -3   5   4  140.33    7.07
  -2   6  -1   58.67    3.11
   2  -6   1   62.69    2.96
  -2   6  -1   58.98    3.25
   2  -6   1   57.90    3.28
  -2   6  -1   65.85    3.05
  -2   6  -1   65.00    3.53
   5   1   4   30.23    1.91
   5   1   4   29.88    1.77
  -5  -1  -4   30.01    1.68
  -3   5  -2   83.28    3.74
   3  -5   2   69.16    3.45
   3  -5   2   72.44    3.30
   3  -5   2   67.39    3.74
  -3   5  -2   79.30    3.69
  -3   5  -2   77.97    3.96
  -3   5  -2   77.40    4.03
  -3   5  -2   75.81    3.76
  -3   5  -2   80.36    4.08
   3   6   3  369.70   16.45
   3   6   3  392.93   16.50
   3   6   3  359.78   16.51
   3   6   3  376.60   16.61
  -5   1  -1   10.01    1.34
   5  -1   1   10.03    1.08
  -5   1  -1    9.40    1.71
   5  -1   1   11.20    1.17
  -2   3  -6  121.05    5.77
   2  -3   6  110.34    5.95
   2  -3   6  129.97    5.60
  -2   3  -6  120.25    5.39
  -3   4  -4   61.74    2.79
  -3   4  -4   52.35    2.55
  -3   4  -4   53.92    2.83
  -3   4  -4   54.07    3.03
  -3   4  -4   53.31    2.99
   3  -4   4   53.86    2.65
  -2  -1   6   48.66    2.48
   2   1  -6   34.38    1.96
  -2  -1   6   44.09    2.79
   2   1  -6   47.53    2.18
   2   1  -6   34.84    2.22
   2   1  -6   34.86    2.05
   1   3   9   15.25    1.41
  -1  -3  -9   16.65    1.49
  -1  -3  -9   16.50    1.41
   1   3   9   19.86    1.46
   1   3   9   20.35    1.50
  -1  -3  -9   19.32    1.39
   0  -7  -1  244.97   11.21
   0  -7  -1  261.31   11.28
   0   7   1  220.25   10.02
   0   7   1  241.34   10.18
   0   7   1  225.20   10.44
  -4  -2   2  324.45   14.27
  -4  -2   2  319.47   14.08
  -1   7   4   98.18    4.60
  -1   7   4  101.38    4.40
  -1   7   4   91.38    4.76
   1  -7  -4   95.02    4.70
   1  -7  -4   87.09    4.42
   1  -7  -4   96.42    4.28
  -1   7   4   85.51    4.60
  -3  -2   4  528.32   23.31
   3   2  -4  519.58   22.81
   5   1   1   10.56    1.51
   5   1   1   10.83    1.02
  -5  -1  -1   10.29    0.96
  -5  -1  -1   11.40    1.68
   5   1   1   10.64    1.24
   2   6   0   74.37    3.90
  -2  -6   0   75.46    4.34
  -2  -6   0   87.84    3.92
   1   5  -3   39.37    2.07
   1   5  -3   41.94    2.65
  -1  -5   3   42.60    2.86
   5   2   3  256.35   11.27
  -5  -2  -3  251.58   11.12
   5   2   3  251.44   11.32
  -4   4   2  121.99    5.57
   4  -4  -2   92.26    4.51
   4  -4  -2  111.28    4.97
   4  -4  -2  129.48    4.89
   4  -4  -2  125.88    5.04
   4  -4  -2  110.44    4.67
  -4   4   2  119.96    5.80
   4  -4  -2   89.74    4.35
  -5   0  -4   10.17    1.11
   5   0   4   12.64    1.05
  -5   0  -4   11.58    1.07
  -5   0  -4    7.66    0.63
  -5   0  -4   10.65    0.92
   5   0   4    9.66    0.80
   2  -2   7    0.74    1.27
  -2   2  -7   -0.08    1.19
   2  -2   7    0.56    0.72
  -2   2  -7   -0.11    0.74
  -2   6   5   98.80    5.39
   2  -6  -5  117.68    5.28
   2  -6  -5  102.98    5.44
  -2   6   5  115.05    5.26
   2  -6  -5  119.56    5.12
   2  -6  -5  108.72    4.94
  -2   6   5  116.81    5.14
  -2  -5   2   31.03    2.32
   2   5  -2   31.29    1.80
   2   5  -2   33.97    2.29
   4   3  -1  266.91   11.90
  -4  -3   1  214.64   11.40
  -4  -3   1  282.76   11.28
   0  -3   6   94.93    4.39
   0   3  -6   92.08    4.30
   1   2   9  102.52    4.45
  -1  -2  -9  100.47    4.12
   1   2   9   93.13    4.40
   1   2   9  106.93    4.35
  -1  -2  -9   90.70    4.19
  -1  -2  -9   92.68    4.24
  -2  -3  -9   71.29    3.35
  -2  -3  -9   63.01    3.35
   2   3   9   70.04    3.13
   2   3   9   64.17    3.21
   2   3   9   57.29    3.16
  -2  -3  -9   70.41    3.37
  -5   1  -3  115.47    5.20
  -5   1  -3  113.22    5.28
  -5   1  -3  117.55    5.13
   5  -1   3  109.16    4.91
  -5   1  -3  113.51    5.65
   5  -1   3  110.96    5.01
  -5   1  -3  110.17    5.20
   1   1  -7  110.71    4.77
   1   1  -7  106.15    4.90
   1   1  -7   91.37    4.87
  -1  -1   7   96.31    4.53
   1   1  -7  108.49    4.90
  -4   3  -4    5.57    0.46
  -4   3  -4   10.80    1.78
  -4   3  -4   11.73    1.37
   4  -3   4   10.23    0.68
   4  -3   4    8.92    1.19
   5   2   4  146.10    6.36
  -5  -2  -4  146.28    6.59
   5   2   4  151.54    6.36
   5   2   4  126.69    6.32
   5   2   4  134.67    6.20
   1  -4  -8  122.58    5.63
  -1   4   8  121.21    5.55
   1  -4  -8  127.04    5.51
  -1   4   8  116.66    5.54
   1  -4  -8  114.03    5.54
   1  -4  -8  112.30    5.32
  -1   4   8  118.47    5.55
  -1   6  -2    6.25    1.33
  -1   6  -2    6.95    1.02
  -1   6  -2    5.51    0.62
   1  -6   2    6.95    1.45
  -1   6  -2    5.29    0.99
   4  -4   2   88.46    2.99
   4  -4   2   57.21    2.81
  -4   4  -2   91.98    4.17
  -4   4  -2   93.30    4.51
   4  -4   2   88.58    3.35
   4  -4   2   60.98    2.81
  -4   4  -2   87.38    4.69
   3   4  -2  161.13    7.27
   3   4  -2  160.18    7.41
  -3  -4   2  151.23    7.09
   2   2   9  279.43   11.27
   2   2   9  236.04   11.15
  -2  -2  -9  224.59   10.86
  -2  -2  -9  276.51   10.96
   5   2   2  131.88    5.79
   5   2   2  124.29    5.85
  -5  -2  -2  112.58    5.01
   5   2   2  123.27    5.72
  -2   1   7  158.35    7.22
   2  -1  -7  155.19    7.25
   2  -1  -7  164.18    7.25
   0   4  -5    6.08    1.05
   0   4  -5    4.76    0.88
  -2   4  -5    5.14    1.51
  -2   4  -5    8.09    0.68
  -2   4  -5    7.20    0.81
   2  -4   5    8.27    1.71
   2  -4   5    7.23    0.65
  -2   4  -5    7.79    1.56
   5   0   0  169.98    7.49
  -5   0   0  177.08    8.08
   5   0   0  164.21    7.45
  -5   0   0  174.35    7.94
   5   0   0  161.52    7.52
   5   0   0  173.77    7.51
  -1  -7  -6    3.34    0.94
  -1  -7  -6    2.90    0.95
  -1  -7  -6    2.61    1.16
   1   7   6    3.80    1.30
   1   7   6    4.19    0.95
   1   7   6    3.07    0.96
   1  -7  -1  102.09    4.84
  -1   7   1  107.40    4.51
   1  -7  -1  107.22    5.05
  -1   7   1   92.17    4.72
  -1   7   1   97.37    4.55
  -1   7   1   98.41    4.75
   0  -6   2  123.29    5.68
   0   6  -2  117.45    5.38
   0   6  -2  112.69    5.24
   0   6  -2  117.95    5.73
   0   6  -2  121.79    5.34
  -1  -4  -9    1.86    1.05
   1   4   9    1.76    1.10
   1   4   9    1.89    1.01
  -1  -4  -9    1.02    1.22
   5  -1   0   37.91    2.04
   5  -1   0   38.86    1.94
   5  -1   0   37.22    2.05
  -5   1   0   37.49    2.30
  -5   1   0   40.45    2.62
   5  -1   0   39.01    2.09
   4   5   4  215.69    9.50
   4   5   4  210.84    9.48
  -2   4   7   16.48    1.35
   2  -4  -7    9.09    0.95
   2  -4  -7    7.48    1.79
  -2   4   7    5.58    1.41
   2  -4  -7    5.27    1.74
   2  -4  -7    7.39    1.56
  -3  -6  -6  121.79    5.71
   3   6   6  119.75    5.71
  -3  -6  -6  120.93    5.78
  -3  -6  -6  131.17    5.71
   3   6   6  133.56    5.68
   3   6   6  116.73    5.71
  -4  -1   3  137.27    5.86
   4   1  -3  122.98    5.69
  -4  -1   3  116.52    5.94
   3   0   8   41.58    2.15
  -3   0  -8   45.66    2.10
   3   0   8   39.85    2.43
  -3   0  -8   36.25    1.93
  -2  -7  -4   21.51    1.59
   2   7   4   22.06    1.58
   2   7   4   21.94    1.44
   2   7   4   17.96    1.47
   1  -1  -8   98.31    5.02
  -1   1   8  110.57    5.18
   1  -1  -8  107.69    5.05
  -1   1   8  114.95    5.27
   1  -1  -8  112.18    4.95
  -4   0  -7    4.87    1.22
  -4   0  -7    4.07    0.82
   4   0   7    3.83    0.84
   4   0   7    4.02    1.18
   4   0   7    4.04    1.14
   0   7   6    1.25    0.90
   0  -7  -6    1.03    0.86
   0  -7  -6    1.39    0.80
   0   7   6    1.08    1.52
   0   7   6    1.63    0.79
   3   6   2   40.95    2.59
   3   6   2   47.90    2.38
   3   6   2   44.41    2.41
   3   6   2   41.95    2.42
   0   2  -7  201.06    6.88
   0   2  -7  186.89    6.93
   0  -2   7  197.62    8.67
   0  -2   7  185.29    8.96
   4   5   5   -0.55    0.97
   4   5   5    0.32    0.92
  -2  -4  -9    0.86    1.05
  -2  -4  -9    0.23    1.12
   2   4   9    1.15    1.06
   2   4   9   -0.16    0.94
   2   4   9    0.06    1.06
   4   5   3   13.20    1.24
   4   5   3   13.91    1.30
   5   1   5   36.64    2.20
   5   1   5   44.00    1.99
  -5  -1  -5   43.35    2.24
  -5  -1  -5   45.74    2.36
   1   7   1  313.87   14.73
   1   7   1  331.59   15.01
  -1  -7  -1  304.97   13.48
   1   7   1  351.50   14.69
   2   7   5   31.01    1.86
  -2  -7  -5   33.30    1.94
   2   7   5   24.66    1.68
  -2  -7  -5   30.63    1.84
  -1   7   5  289.23   13.60
  -1   7   5  300.13   13.25
   1  -7  -5  307.78   13.58
  -1   7   5  321.95   13.39
  -1   7   5  302.37   13.50
   1  -7  -5  307.24   13.50
   1  -7  -5  312.74   13.85
   1  -7  -5  309.54   13.67
  -4  -4  -7  214.02    9.37
  -4  -4  -7  208.36    9.49
   4   4   7  202.23    9.07
   4   4   7  201.52    8.98
  -1   5  -4   36.54    2.10
   1  -5   4   36.41    2.53
  -1   5  -4   30.82    2.41
  -1   5  -4   35.68    1.86
  -1   5  -4   31.92    1.78
  -1   5  -4   33.43    1.72
  -1   1  -8  247.79   11.36
  -1   1  -8  270.01   11.33
   1  -1   8  260.57   11.48
  -1   1  -8  251.69   11.26
   1  -1   8  254.72   11.73
  -5   2  -1   95.27    4.80
   5  -2   1   89.46    4.69
   5  -2   1   97.54    4.40
  -5   2  -1   93.89    4.55
   5  -2   1   95.91    4.36
  -1  -6  -8  819.25   36.46
   1   6   8  874.76   37.28
   1   6   8  827.90   37.28
   1   6   8  861.46   37.29
  -1  -6  -8  852.43   36.46
   2   7   3    9.50    1.64
   2   7   3    9.29    1.07
   2   7   3    8.01    1.11
   3   1  -5  102.51    4.76
   3   1  -5  106.39    5.02
  -3  -1   5   98.58    4.85
   3  -2  -6    2.61    1.48
  -3   2   6    2.28    1.31
  -3   2   6    6.16    1.14
   3  -2  -6    1.96    1.35
   3  -2  -6    3.38    1.47
   3  -2  -6    5.39    1.20
   5   2   5  312.72   13.54
   5   2   5  322.33   13.58
  -5  -2  -5  321.21   14.12
   5   2   5  298.60   13.56
   5   2   5  300.03   13.41
   4  -2  -4   81.06    4.38
   4  -2  -4   91.02    4.36
  -4   2   4   87.52    4.21
   4  -2  -4   89.13    4.19
  -4   2   4   91.68    4.37
   4  -2  -4   87.78    4.24
  -5   2  -2   10.84    1.92
  -5   2  -2   11.47    1.07
   5  -2   2   12.54    1.06
   5  -2   2   13.04    1.19
   5  -2   2   11.93    1.71
  -5   2  -2   15.27    0.95
   0  -3  -9    6.84    1.18
   0   3   9    5.59    1.20
   0   3   9    6.27    1.14
   0  -3  -9    6.59    1.37
   0   3   9    7.16    1.18
   0  -3  -9    6.71    1.31
   5   1   0  118.13    5.34
  -5  -1   0  120.88    5.03
  -5  -1   0   94.96    4.74
   5   1   0  107.20    5.07
  -1   6   7    5.30    1.56
   1  -6  -7    7.13    1.68
  -1   6   7    6.23    1.56
   1  -6  -7   10.94    1.16
   4  -1  -4  147.04    7.18
   4  -1  -4  165.51    7.21
   4  -1  -4  154.76    7.14
  -4   1   4  171.88    7.79
   4  -1  -4  159.34    7.14
  -5   1  -4   41.29    2.20
   5  -1   4   43.50    2.19
   5  -1   4   41.78    2.00
  -5   1  -4   39.76    2.14
  -5   1  -4   42.18    2.21
   5  -1   4   45.41    1.85
  -5   1  -4   41.05    2.84
  -5   1  -4   42.42    2.05
   4   4   0   70.16    3.57
   4   4   0   75.99    3.54
  -4  -4   0   77.19    3.89
  -2   1  -8    1.08    0.64
   2  -1   8    1.11    1.33
  -2   1  -8    1.11    0.87
  -2   1  -8    0.95    0.81
   2  -1   8    0.62    0.85
  -3   6   1   90.65    4.05
  -3   6   1   91.67    4.28
  -3   6   1   73.54    3.64
  -3   6   1   86.66    3.72
   3  -6  -1   90.19    3.94
   3  -6  -1   86.95    4.34
   3  -6  -1   80.55    3.69
  -3   6   1   93.31    3.94
  -3   6   1   88.93    4.29
   1   1   9  293.92   11.13
  -1  -1  -9  273.77   13.06
   1   1   9  295.12   11.30
  -1  -1  -9  289.81   13.01
   3  -6  -2    7.76    1.38
  -3   6   2    7.47    1.23
  -3   6   2    8.31    1.43
   3  -6  -2    6.15    1.84
   3  -6  -2    4.64    0.68
   3  -6  -2    6.26    1.15
  -3   6   2    8.62    1.74
  -3   6   2    5.72    0.74
   5   2   1   14.71    1.21
   5   2   1   16.13    1.53
  -5  -2  -1   14.93    1.19
  -5  -2  -1   16.53    1.78
  -3   3   6   42.93    3.26
  -3   3   6   52.51    3.16
   3  -3  -6   46.98    3.31
   3  -3  -6   57.04    3.28
   3  -3  -6   53.31    3.33
   3   5   8    1.68    1.16
  -3  -5  -8    1.84    0.93
  -3  -5  -8    1.74    1.06
   3   5   8    1.76    1.13
  -2  -1  -9  273.29    9.20
   2   1   9  243.92   10.90
  -2  -1  -9  257.45    9.01
   2   1   9  244.81   11.05
  -5   2   0   25.42    2.16
   5  -2   0   25.89    1.81
   5  -2   0   21.56    1.36
   5  -2   0   21.64    1.49
  -5   2   0   22.79    1.88
   5  -2   0   16.19    1.31
  -5   0  -5    8.90    0.93
   5   0   5    9.12    1.20
   5   0   5    6.66    0.40
   5   0   5    4.47    0.45
  -5   0  -5    7.17    1.11
  -5   0  -5    7.98    0.88
  -5   0  -5    5.69    0.63
   5   0   5    7.37    0.90
  -4   4   3  318.64   13.58
   4  -4  -3  307.38   10.83
   4  -4  -3  310.36   10.93
   4  -4  -3  299.83   11.14
  -4   4   3  326.28   13.80
   4  -4  -3  325.53   11.18
  -4   4   3  290.52   13.49
   0   7   0  172.98    8.14
   0   7   0  165.72    7.72
   0  -7   0  176.37    8.01
   0   7   0  174.04    7.61
   0  -2  -9    0.66    1.22
   0  -2  -9    0.36    1.12
   0   2   9    0.42    1.05
   0   2   9    1.14    1.07
   0   2   9    0.77    1.00
   0   2   9    1.28    0.97
   0  -2  -9    0.77    1.09
   0   5  -4   31.82    2.03
   0   5  -4   41.60    1.96
   5   3   4  165.86    7.89
   5   3   4  189.61    8.02
   5   3   4  167.60    8.01
   5   3   4  193.18    8.02
  -5  -3  -4  185.49    8.30
   5   3   3   92.21    4.15
   5   3   3   83.41    4.07
   5   3   3   85.79    4.17
   4   5   6    9.21    1.34
   4   5   6    7.93    1.11
   3  -1  -6   58.25    3.45
  -3   1   6   77.60    3.86
   3  -1  -6   74.01    3.51
   3  -1  -6   77.46    3.55
   0  -4  -9   23.29    1.81
   0   4   9   21.58    1.61
   0   4   9   20.15    1.73
   0  -4  -9   21.21    1.74
   4   5   2   84.50    4.13
   4   5   2   85.96    4.11
   4   5   2   86.65    4.07
   2   6   8  140.00    6.18
  -2  -6  -8  130.78    5.90
  -2  -6  -8  125.42    5.92
  -2  -6  -8  128.61    5.82
   2   6   8  133.32    6.25
   2   6   8  136.25    6.27
   2   6   8  131.94    6.26
   2  -6   2  125.50    5.99
  -2   6  -2  133.01    6.25
  -2   6  -2  134.16    6.43
  -2   6  -2  145.98    6.25
  -2   6  -2  136.27    6.67
  -2  -7  -6   19.37    1.36
   2   7   6   22.26    1.44
   2   7   6   15.15    1.44
   2   7   6   18.81    1.63
  -2  -7  -6   20.19    1.48
  -2  -7  -6   14.26    1.36
  -3   5   5  267.94   11.82
   3  -5  -5  291.32   12.32
   3  -5  -5  272.99   12.22
   3  -5  -5  260.31   12.41
  -3   5   5  264.69   11.88
  -5   1   1  104.35    5.03
   5  -1  -1  102.98    4.76
   5  -1  -1   97.28    4.73
   5  -1  -1  102.32    4.68
   5  -1  -1  104.48    4.64
  -5   1   1   99.76    4.84
  -1   7   0   14.39    1.30
  -1   7   0   16.61    1.45
  -1   7   0   11.43    0.88
   1  -7   0   15.36    1.37
   1  -7   0   18.63    1.83
  -1   7   0   17.70    1.49
  -3   6   0   48.33    2.30
   3  -6   0   38.17    2.81
  -3   6   0   42.57    2.79
  -3   6   0   41.27    2.82
   3  -6   0   49.12    2.38
  -3   6   0   50.30    2.46
  -3   6   0   43.27    2.57
  -3   5  -3  104.72    5.21
  -3   5  -3  107.40    5.26
  -3   5  -3  111.63    4.95
  -3   5  -3  108.30    4.85
  -3   5  -3   98.61    5.08
   0   6   8   70.62    3.15
   0  -6  -8   63.39    3.09
   0  -6  -8   75.47    2.83
   0   6   8   79.63    3.49
   0   6   8   84.40    3.56
   0   6   8   71.76    3.43
  -1   5   8   54.95    3.16
   1  -5  -8   70.96    3.10
   1  -5  -8   72.42    3.56
  -1   5   8   69.24    3.30
  -1   5   8   69.75    3.34
   4  -3  -4  245.84   11.09
  -4   3   4  232.87   10.64
  -4   3   4  250.44   10.82
   4  -3  -4  247.38   11.25
   4  -3  -4  253.95   11.13
   1   5   9  103.01    4.85
  -1  -5  -9  105.70    4.93
  -1  -5  -9  109.76    5.07
   1   5   9  107.78    4.97
  -3   6   3   20.49    1.62
   3  -6  -3   19.39    1.22
   3  -6  -3   19.31    2.04
  -3   6   3   19.09    1.22
   3  -6  -3   19.45    1.74
  -3   6   3   21.91    1.84
   3  -6  -3   22.03    1.61
  -4   4  -3   35.58    2.25
  -4   4  -3   36.55    1.87
  -4   4  -3   42.56    2.49
   4  -4   3   35.90    1.77
  -4   4  -3   39.24    2.68
   4  -4   3   34.78    2.10
  -3  -5   1    9.33    1.70
   3   5  -1    8.16    1.47
  -5   2  -3   17.85    1.10
  -5   2  -3   17.64    2.06
  -5   2  -3   19.38    1.51
   5  -2   3   17.95    1.69
   5  -2   3   18.10    1.38
   5  -2   3   19.24    1.15
   5  -2   3   15.35    1.06
  -5   2  -3   17.07    1.29
  -2   5  -4   56.19    3.09
  -2   5  -4   52.93    2.65
   2  -5   4   58.66    3.35
  -2   5  -4   54.86    2.52
  -2   5  -4   60.45    3.24
  -2   5  -4   59.98    2.70
   2   7   2  107.00    5.58
   2   7   2  106.69    5.22
   2   7   2  125.64    5.28
  -2   0   7    0.40    1.04
   2   0  -7    1.87    1.16
   2   0  -7    0.21    1.17
  -2   0   7    0.55    1.34
   2   0  -7    1.75    1.27
  -3  -3  -9  168.95    7.66
  -3  -3  -9  183.33    7.80
   3   3   9  169.52    7.85
  -3  -3  -9  166.34    7.76
   3   3   9  185.19    7.77
   3   3   9  162.13    7.85
   3  -3   6   53.32    2.95
  -3   3  -6   57.72    3.01
  -3   3  -6   41.00    3.02
  -3   3  -6   46.90    2.74
  -3   3  -6   52.96    2.87
  -3   3  -6   63.03    2.56
   3  -3   6   58.56    2.34
  -3   3  -6   53.43    2.52
  -5   0   1   63.74    3.25
   5   0  -1   61.96    3.00
   5   0  -1   56.67    2.93
   5   0  -1   58.92    2.85
  -5   0   1   56.33    3.07
  -4  -2  -8    5.91    0.70
   4   2   8    8.35    1.09
  -4  -2  -8    9.61    1.05
   4   2   8    6.45    0.88
   4   2   8    9.11    1.02
  -3  -6  -7    6.07    1.07
   3   6   7    4.97    1.13
  -3  -6  -7    3.78    1.08
   3   6   7    6.77    1.21
  -3  -6  -7    5.47    0.99
  -2   7   2    0.44    0.51
  -2   7   2    1.56    1.69
  -2   7   2   -1.23    1.50
   2  -7  -2    0.69    1.05
  -2   7   2   -1.10    1.37
  -2   7   2    0.47    1.26
  -2   7   2    1.05    0.65
   2  -7  -2   -0.40    1.66
   2  -7  -2    0.44    0.60
   3  -2   7   11.00    0.76
   3  -2   7   11.85    0.97
   3  -2   7   13.20    1.63
  -3   2  -7   12.59    1.14
  -3   2  -7   12.86    0.87
  -3   2  -7   13.04    1.42
  -3   2  -7   14.09    1.42
  -3   2  -7   13.30    1.01
   3   2   9   45.53    2.61
   3   2   9   46.35    2.35
   3   2   9   47.93    2.58
   3   2   9   48.98    2.46
  -3  -2  -9   45.66    2.38
  -3  -2  -9   51.94    2.52
  -3  -2  -9   48.62    2.64
   1   7   7   49.44    2.94
   1   7   7   49.99    2.67
  -1  -7  -7   49.04    2.66
  -1  -7  -7   50.52    2.48
   1   7   7   50.31    2.83
  -1  -7  -7   47.69    2.57
   1   7   7   53.53    2.56
   2  -7  -3   19.56    1.19
   2  -7  -3   21.01    1.56
  -2   7   3   22.19    1.69
   2  -7  -3   21.87    2.13
  -2   7   3   20.90    1.26
  -2   7   3   22.48    1.88
   4   0  -4    1.23    1.05
  -4   0   4    2.13    1.23
  -4   0   4    1.51    1.21
   4   0  -4    1.86    1.21
   4   0  -4    1.11    1.31
   1   6  -2  212.75    9.66
   1   6  -2  206.26    9.37
  -1  -6   2  228.74    9.51
  -1  -6   2  196.58    8.97
   1   6  -2  209.85    9.28
  -2  -3   5   38.64    2.56
   2   3  -5   38.16    2.23
   2   3  -5   40.45    2.20
   5   3   5  250.42   11.10
   5   3   5  257.44   11.14
  -5  -3  -5  258.21   11.43
   5   3   5  249.59   11.15
   5   3   5  245.32   11.01
  -2   6   6  110.87    4.63
   2  -6  -6  102.18    4.98
   2  -6  -6   89.40    5.14
   2  -6  -6  111.97    4.83
  -2   6   6   98.59    4.71
   4   3   8  100.78    4.47
   4   3   8  102.86    4.48
   4   3   8   93.16    4.35
   4   3   8   97.36    4.58
  -4  -3  -8  105.62    4.69
  -4  -3  -8  101.21    4.87
   3   6   1   97.81    4.58
   3   6   1   94.71    4.73
   5   3   2   66.76    3.38
  -5  -3  -2   66.61    3.16
   5   3   2   65.93    3.23
   4  -2   6    9.58    1.41
  -4   2  -6    6.75    0.77
   4  -2   6    7.21    0.78
  -4   2  -6    7.88    1.30
  -2  -5  -9  211.97    9.31
   2   5   9  187.58    8.98
   2   5   9  210.08    9.02
  -2  -5  -9  204.62    9.28
   2   5   9  208.91    9.05
   0  -1   8  194.84    8.62
   0  -1   8  184.87    8.88
   0   1  -8  199.29    8.66
   0   1  -8  202.31    8.71
   0   1  -8  181.15    8.60
   2  -5  -7   60.30    2.98
   2  -5  -7   71.05    3.68
   2  -5  -7   62.79    3.61
  -2   5   7   87.49    3.81
  -2   5   7   66.14    3.87
   2   4  -4  133.93    6.41
   2   4  -4  135.88    6.18
  -2  -4   4  129.96    6.28
  -2  -6   1  163.76    7.61
  -2  -6   1  243.46    8.33
   2   6  -1  243.44   11.09
   5  -2  -1  177.41    8.10
  -5   2   1  184.76    8.85
   5  -2  -1  180.13    8.05
   5  -2  -1  190.63    8.22
   5  -2  -1  183.71    8.18
   5  -2  -1  196.91    8.36
  -5   2   1  207.48    8.97
   5  -2  -1  173.25    8.45
   3  -4  -6   57.47    2.73
   3  -4  -6   65.75    3.49
  -3   4   6   69.05    3.31
   3  -4  -6   60.07    3.22
  -3   4   6   56.10    3.11
   3  -4  -6   65.46    3.39
  -3   4   6   64.11    3.24
   3  -4  -6   55.27    3.06
   3  -4  -6   70.62    3.44
  -4   5   1   62.32    2.72
   4  -5  -1   62.10    2.86
   4  -5  -1   60.95    3.03
  -4   5   1   49.97    2.41
   4  -5  -1   56.74    3.45
   4  -5  -1   59.22    3.29
   1   0  -8   16.77    1.50
   1   0  -8   13.56    1.46
   1   0  -8   16.88    1.38
  -1   0   8   13.83    1.33
   1  -7  -6  162.93    7.32
   1  -7  -6  171.94    7.46
  -1   7   6  166.46    7.30
   1  -7  -6  156.69    7.55
  -1   7   6  153.20    7.53
   1  -7  -6  174.50    7.77
   5   2   6  114.86    5.26
   5   2   6  115.00    5.45
   5   2   6  130.07    5.54
  -5  -2  -6  132.69    5.93
  -5  -2  -6  126.69    5.85
  -4   5   0   69.19    3.16
   4  -5   0   64.02    3.32
   4  -5   0   51.05    3.52
   4  -5   0   59.31    2.79
   4  -5   0   62.68    3.46
   4  -5   0   67.94    3.01
  -4   5   0   61.91    2.99
   5   1   6   11.58    0.76
  -5  -1  -6   16.05    1.19
   5   1   6   17.03    1.16
  -5  -1  -6   15.30    1.42
  -2   7   1   16.19    0.94
  -2   7   1   15.43    1.73
  -2   7   1   17.18    1.46
  -2   7   1   17.29    1.01
  -2   7   1   13.47    1.66
   2  -7  -1   16.36    1.37
   2  -7  -1   17.26    1.97
  -2   7   1   15.68    1.88
  -4  -1  -8   69.15    3.21
  -4  -1  -8   86.26    3.49
   4   1   8   81.27    3.32
   4   1   8   71.25    3.37
   4   1   8   88.86    3.27
   0  -7  -7    4.91    0.97
   0   7   7    5.09    1.01
   0  -7  -7    3.37    0.84
   0   7   7    2.99    1.60
  -1  -3   6  130.11    5.94
   1   3  -6  127.09    5.74
   1   3  -6  120.51    5.92
   0   1   9  104.43    4.90
   0   1   9   93.25    4.51
   0  -1  -9  104.66    5.01
   0  -1  -9  103.79    4.99
   0  -1  -9  109.52    5.01
   0   1   9  107.37    4.72
  -4   3  -5   58.80    3.42
  -4   3  -5   64.37    3.19
  -4   3  -5   62.71    3.00
   4  -3   5   61.44    2.79
   4  -3   5   60.20    3.00
  -4   3  -5   52.65    2.93
   3   4   9   73.60    3.54
   3   4   9   76.79    3.54
   3   4   9   79.33    3.48
  -3  -4  -9   72.15    3.50
  -3  -4  -9   76.91    3.61
  -3  -4  -9   73.02    3.60
   3   4   9   62.92    3.32
   1   4  -5  116.70    3.74
  -1  -4   5  106.46    5.34
   1   4  -5  114.35    4.20
   4  -1   7    1.66    1.20
   4  -1   7    2.31    0.73
  -4   1  -7    1.92    1.03
  -4   1  -7    2.47    0.77
   1   7   0   80.77    3.80
   1   7   0   75.84    3.68
   1   7   0   74.85    4.16
  -1  -7   0   85.55    4.08
  -3   4  -5   21.47    2.03
  -3   4  -5   26.18    1.75
  -3   4  -5   29.53    1.71
  -3   4  -5   25.95    1.89
   3  -4   5   25.30    1.96
   3  -4   5   20.63    1.06
  -3   4  -5   23.58    1.30
  -3   4  -5   22.61    1.14
  -5  -2   0   25.21    1.92
  -5  -2   0   24.95    1.63
   5   2   0   23.56    1.53
   5   2   0   22.36    1.84
  -2   7   4   27.56    1.33
  -2   7   4   39.28    2.21
  -2   7   4   25.45    1.59
   2  -7  -4   22.22    1.53
  -2   7   4   34.83    2.01
   2  -7  -4   30.79    1.88
  -4  -3   2  414.62   18.21
  -4  -3   2  427.62   18.51
   2   2  -6   21.73    1.40
  -2  -2   6   41.53    2.68
   2   2  -6   26.38    1.83
  -2  -2   6   40.68    2.25
   5  -1   5  122.84    5.75
  -5   1  -5  119.57    5.68
   5  -1   5  120.88    5.60
  -5   1  -5  131.17    5.68
   5  -1   5  130.86    5.73
  -5   1  -5  124.39    5.72
  -4  -2   3  538.97   23.37
  -4  -2   3  526.57   23.08
  -3   6  -1   73.23    3.35
  -3   6  -1   67.48    3.26
  -3   6  -1   64.43    3.65
   3  -6   1   67.38    3.18
   3  -6   1   63.04    3.66
  -3   6  -1   67.13    3.72
  -3   6  -1   69.08    3.41
  -3   6  -1   64.38    3.64
   5  -3   1  130.32    5.73
   5  -3   1  122.49    5.67
   5  -3   1  123.31    5.72
   5  -3   1  130.50    6.09
   5  -3   1  132.20    5.94
  -5   3  -1  130.28    6.32
  -5  -1   1   69.61    3.66
   5   1  -1   70.46    3.52
   5   1  -1   78.78    3.76
   5   1  -1   69.55    3.43
  -5  -1   1   85.01    3.86
   4  -5  -2   12.81    1.44
   4  -5  -2   10.96    1.71
   4  -5  -2   11.44    1.92
  -4   5   2   10.07    1.84
  -4   5   2   12.39    1.30
   4  -5  -2   13.71    1.06
   0  -5  -9  151.90    6.49
   0   5   9  149.83    6.59
   0   5   9  129.82    6.56
   0   5   9  149.13    6.62
   0  -5  -9  161.48    6.74
   0  -5  -9  143.25    6.68
   3  -1   8   45.58    2.26
   3  -1   8   39.88    2.59
  -3   1  -8   41.16    1.69
  -3   1  -8   47.78    1.86
   3  -6  -4   93.03    4.55
   3  -6  -4  104.68    4.78
  -3   6   4  111.75    4.86
  -3   6   4   96.42    4.69
   3  -6  -4  108.53    4.93
   3   0  -6  137.79    6.12
   3   0  -6  127.10    6.02
  -3   0   6  123.48    5.87
  -3  -1  -9   18.46    1.33
  -3  -1  -9   15.59    1.19
   3   1   9   17.51    1.33
   3   1   9   17.43    1.65
   4   5   7   36.42    2.07
   4   5   7   29.43    1.92
   4   5   7   31.97    1.90
  -4  -5  -7   33.48    1.87
  -1   6  -3    3.01    1.27
   1  -6   3    3.43    1.69
  -1   6  -3    4.20    0.99
  -1   6  -3    5.30    0.67
  -1   6  -3    3.17    0.90
   4  -5   1   84.83    4.08
  -4   5  -1   87.69    4.52
   4  -5   1   80.70    3.78
  -4   5  -1   83.23    4.30
   4  -5   1   76.72    4.30
  -4   5  -1   85.69    3.99
   2   7   7  127.37    5.73
   2   7   7  123.49    5.85
  -2  -7  -7  123.56    5.71
   2   7   7  124.71    5.81
  -2  -7  -7  126.34    5.66
  -2  -7  -7  121.02    5.73
   5  -3   0    3.91    1.69
   5  -3   0    2.82    0.83
  -5   3   0    3.25    1.78
   5  -3   0    3.05    1.42
   5  -3   0    2.11    1.83
   5  -3   0    2.82    0.83
   5  -3   0    2.52    1.05
  -1   0  -9  382.60   16.64
   1   0   9  383.50   16.44
   1   0   9  354.81   16.64
  -1   0  -9  364.69   16.67
  -1   0  -9  390.64   16.77
  -4  -5  -1  146.90    6.81
   4   5   1  138.83    6.28
   4   5   1  135.52    6.36
  -5   2  -4   34.08    2.07
  -5   2  -4   38.03    2.02
   5  -2   4   35.25    1.40
   5  -2   4   37.61    1.96
   5  -2   4   36.91    1.72
  -4  -4  -8  171.90    7.53
   4   4   8  173.53    7.91
  -4  -4  -8  165.11    7.39
  -4  -4  -8  161.39    7.54
   4   4   8  173.63    7.80
  -2   0  -9   28.44    1.75
   2   0   9   31.05    2.04
   2   0   9   30.40    1.56
  -2   0  -9   32.24    1.80
  -2   0  -9   28.51    2.00
   3   3  -4  195.18    8.91
  -3  -3   4  193.06    8.94
   3   3  -4  200.29    8.94
   5   3   6  280.92   12.89
   5   3   6  293.37   12.94
   5   3   6  329.57   13.08
  -5  -3  -6  296.24   13.06
   5   3   6  285.31   13.03
   5   0   6   54.14    2.98
  -5   0  -6   55.29    2.83
   5   0   6   54.64    2.87
   5   0   6   62.05    2.84
   5  -3   2   37.72    2.30
   5  -3   2   37.22    2.05
   5  -3   2   39.96    2.48
  -5   3  -2   33.90    2.63
  -5   3  -2   33.66    1.88
   5  -3   2   34.39    1.84
  -5   3  -2   37.48    1.75
   5  -3   2   39.88    1.95
   2   5  -3   80.44    3.94
   2   5  -3   91.87    4.37
  -2  -5   3   85.69    4.52
  -4   4   4  367.00   15.71
   4  -4  -4  338.28   13.50
  -4   4   4  356.67   15.64
  -4   4   4  338.85   15.81
   4  -4  -4  379.66   13.29
   4  -4  -4  353.78   13.34
   5   3   1   42.86    2.42
   5   3   1   38.16    2.17
  -5  -3  -1   43.74    2.44
  -5  -3  -1   37.77    2.17
   1   2  -7   59.96    2.90
  -1  -2   7   65.38    3.22
   1   2  -7   58.96    3.14
   1   2  -7   65.75    3.12
  -2  -7  -1   21.99    1.63
   2   7   1   23.40    2.12
   2   7   1   23.76    1.62
   2   7   1   25.97    1.66
   0   6  -3   87.09    4.00
   0   6  -3   85.26    4.04
   0   6  -3   82.86    3.91
  -1   3  -7    1.17    1.48
  -1   3  -7   -0.06    0.90
   1  -3   7    0.22    1.39
   1  -3   7    0.05    0.81
   4   4  -1  165.58    7.54
  -4  -4   1  192.84    8.34
  -4  -4   1  177.89    8.64
   3   4  -3  108.01    5.25
   3   4  -3  110.07    5.09
  -3  -4   3  109.78    5.41
  -2   7   0   32.94    2.39
  -2   7   0   30.10    1.45
  -2   7   0   43.63    2.62
  -2   7   0   38.60    1.98
  -2   7   0   31.41    2.27
   2  -7   0   38.29    2.02
  -2   7   0   30.43    2.10
   2  -7   0   28.18    2.41
   1   5  -4  200.25    9.43
  -1  -5   4  182.22    8.61
   1   5  -4  204.48    9.07
   5  -1  -2   96.58    4.51
  -5   1   2   93.48    4.72
  -5   1   2   98.36    4.67
   5  -1  -2   99.73    4.51
   5  -1  -2   94.79    4.35
   5  -1  -2   84.68    4.74
   0   7  -1  111.87    5.10
   0   7  -1  109.36    4.97
   0  -7   1  115.62    5.39
   0   7  -1  102.67    5.52
  -1   4  -6   12.79    1.86
   1  -4   6   11.95    1.74
  -1   4  -6   10.84    1.51
  -1   4  -6   10.88    1.01
   1  -4   6   11.96    0.98
  -1   7  -1   26.15    1.67
  -1   7  -1   22.33    1.60
  -1   7  -1   26.22    1.84
   1  -7   1   26.18    2.00
  -1   7  -1   20.45    1.22
   2  -3  -8  557.14   24.39
   2  -3  -8  535.33   24.35
  -2   3   8  555.71   23.40
   2  -3  -8  572.91   24.38
  -2   3   8  528.84   23.45
  -2   3   8  517.78   23.40
  -2   3   8  530.51   23.45
   5   4   4   77.15    3.51
   5   4   4   67.89    3.43
   5   4   4   61.09    3.48
   5   4   4   70.23    3.44
   5   4   4   80.89    3.57
   0  -8  -4  109.55    5.19
   0  -8  -4  104.45    4.88
   0   8   4   99.51    4.59
   0   8   4  100.10    4.86
   0   8   4  103.08    4.64
   0  -8  -4  100.55    4.77
   3   2  -5  109.88    4.36
   3   2  -5   99.59    4.34
  -3  -2   5  106.75    5.26
   5  -3  -1   28.53    1.67
   5  -3  -1   26.73    2.29
   5  -3  -1   25.07    2.39
   5  -3  -1   28.84    2.04
   5  -3  -1   28.22    1.80
  -5   3   1   28.88    2.38
   4   1  -4  117.54    5.44
  -4  -1   4  143.73    6.74
  -2   3  -7   55.69    3.15
   2  -3   7   58.07    2.72
   2  -3   7   49.76    3.23
  -2   3  -7   54.14    2.63
   0   8   3  127.65    5.94
   0  -8  -3  133.01    6.20
   0   8   3  134.71    6.17
   0  -8  -3  137.12    6.42
   0   8   3  137.08    6.01
  -2   2   8  304.16   13.50
   2  -2  -8  321.76   14.19
   2  -2  -8  296.02   14.18
   2  -2  -8  345.31   14.26
  -4   4  -4  251.66   10.27
  -4   4  -4  245.67   10.56
  -4   4  -4  240.18   10.47
  -4   4  -4  241.06   10.33
  -4   4  -4  214.57   10.07
   4  -4   4  242.75   10.78
  -1   3   9   68.80    3.53
  -1   3   9   74.09    3.59
   1  -3  -9   67.20    3.54
   1  -3  -9   70.74    3.38
   1  -3  -9   66.30    3.54
  -1   3   9   71.43    3.57
   3   6   8    4.55    1.20
   3   6   8    3.65    1.20
  -3  -6  -8    5.06    1.01
  -3  -6  -8    5.81    1.04
   3   7   5  130.57    6.30
   3   7   5  127.30    6.39
   3   7   5  143.52    6.33
  -3  -7  -5  145.94    6.69
   3   7   5  142.42    6.23
   5  -2  -2  181.34    7.67
   5  -2  -2  175.51    7.67
  -5   2   2  177.61    8.24
   5  -2  -2  170.64    7.51
  -5   2   2  179.92    8.20
   5  -2  -2  154.91    7.88
   5  -2  -2  162.04    7.49
   3   7   4  207.47    8.88
   3   7   4  197.61    8.93
   3   7   4  191.04    8.95
   3   7   4  193.38    9.09
  -2   7   5   99.32    5.51
  -2   7   5  107.80    5.32
   2  -7  -5  112.09    4.92
   2  -7  -5  112.55    5.06
   2  -7  -5  100.08    5.46
   2  -7  -5  107.97    5.25
  -2   7   5  120.85    5.16
   4   0   8  110.90    5.59
   4   0   8  127.89    5.63
  -4   0  -8  115.45    5.27
   4   0   8  119.82    5.45
   5   4   3   25.29    1.62
   5   4   3   26.93    1.77
   5   4   3   24.57    1.63
   5   4   5   57.13    3.17
   5   4   5   68.69    3.24
  -5  -4  -5   65.05    3.22
   5   4   5   62.59    3.05
   5   4   5   62.69    3.11
  -1  -6  -9  541.57   23.40
  -1  -6  -9  537.84   23.28
   1   6   9  522.19   23.74
  -1  -6  -9  517.10   23.39
   1   6   9  539.98   23.64
   1   6   9  540.66   23.74
   1   6   9  562.61   23.76
   5   0  -2   55.01    2.87
   5   0  -2   56.42    2.91
  -5   0   2   58.84    3.09
  -5   0   2   54.50    3.00
   4  -5  -3  164.55    7.56
   4  -5  -3  155.75    7.20
   4  -5  -3  163.82    7.33
  -4   5   3  161.40    7.18
  -4   5   3  159.33    6.90
   4  -5  -3  165.49    7.51
   4  -5  -3  153.94    7.60
  -4   5   3  142.23    6.75
   1   8   4  135.45    6.23
  -1  -8  -4  140.41    6.64
   1   8   4  137.58    6.17
   4  -2  -5   37.28    2.18
  -4   2   5   32.06    2.03
  -4   2   5   21.33    1.64
   4  -2  -5   36.20    2.26
   4  -2  -5   28.05    2.03
   2  -4   6  115.68    5.83
   2  -4   6  117.34    5.25
  -2   4  -6  118.57    5.29
  -2   4  -6  110.52    5.61
  -2   4  -6  119.17    5.32
  -2   4  -6  121.30    5.79
   1  -6  -8    1.41    1.06
   1  -6  -8    1.23    1.64
   1  -6  -8    0.60    0.77
  -1   6   8    2.23    1.04
  -1   6   8    1.24    1.52
  -3  -5  -9   20.51    1.44
  -3  -5  -9   21.38    1.59
   3   5   9   20.05    1.53
   3   5   9   21.02    1.53
   3   5   9   18.19    1.52
  -3  -6   0   65.68    3.64
   3   6   0   63.12    3.44
   0   8   5  123.48    5.43
   0  -8  -5  106.74    5.28
   0   8   5  107.38    5.73
   0  -8  -5  119.62    5.20
   0  -8  -5  108.05    5.52
  -2   6  -3   83.49    3.57
  -2   6  -3   54.35    2.61
  -2   6  -3   54.20    2.60
  -2   6  -3   85.10    2.99
  -2   6  -3   83.39    3.40
  -2   6  -3   78.33    2.94
   4   6   4  436.10   19.46
   4   6   4  448.26   19.44
   1  -2   8   33.40    2.44
   1  -2   8   35.64    1.99
  -1   2  -8   29.20    1.78
  -1   2  -8   25.84    1.67
  -1   2  -8   34.24    1.78
   4   6   5   34.47    2.25
   4   6   5   44.27    2.28
   4   6   5   37.04    2.20
   1   7   8  356.75   16.07
  -1  -7  -8  344.52   15.56
   1   7   8  371.21   15.91
   1   7   8  357.84   16.03
  -1  -7  -8  353.71   15.47
  -1  -7  -8  358.36   15.58
   1   7   8  359.30   16.11
  -1  -8  -5  124.63    5.73
   1   8   5  127.16    5.85
  -4   5  -2   45.92    2.72
   4  -5   2   42.64    2.17
  -4   5  -2   41.09    2.85
  -4   5  -2   42.10    2.22
   4  -5   2   47.02    2.61
  -4   5  -2   43.01    2.18
  -4   5  -2   38.54    2.60
   2  -4  -8   78.98    3.78
   2  -4  -8   83.82    4.02
   2  -4  -8   83.01    4.23
   2  -4  -8   81.23    4.17
  -2   4   8   81.09    4.13
   2  -4  -8   83.95    4.10
  -2   4   8   86.34    4.10
   1   3  10   61.44    2.79
  -1  -3 -10   53.05    2.87
   1   3  10   58.06    2.90
  -1  -3 -10   54.23    2.88
   1   3  10   56.28    2.95
  -1  -3 -10   54.14    2.87
   1   3  10   48.27    2.87
  -1  -3 -10   56.24    2.79
  -2  -3 -10  197.95    9.51
   2   3  10  211.85    8.73
   2   3  10  230.79    8.81
  -2  -3 -10  233.39    9.60
   2   1  -7    7.95    1.14
   2   1  -7    7.77    1.36
   2   1  -7    8.77    1.17
   2   1  -7    9.17    1.42
   2   1  -7    9.23    1.27
  -2  -1   7    9.23    1.74
  -2  -1   7    9.13    1.15
   3  -5  -6  202.99    9.63
   3  -5  -6  208.03    9.58
  -3   5   6  226.04    9.73
   3  -5  -6  207.16    9.58
   3  -5  -6  214.86    9.47
   3  -5  -6  209.03    9.39
  -3   5   6  215.09    9.67
  -3   5   6  205.16    9.60
   1  -2  -9   35.57    2.33
  -1   2   9   37.47    2.17
   1  -2  -9   37.55    2.20
  -1   2   9   34.63    2.07
   5  -3   3   22.73    1.26
   5  -3   3   22.45    1.23
   5  -3   3   20.49    1.96
   5  -3   3   22.85    1.78
  -5   3  -3   23.77    1.80
  -5   3  -3   21.18    1.42
   5  -3   3   22.43    1.56
   1  -4  -9  108.43    5.23
   1  -4  -9  108.56    5.15
   1  -4  -9  101.19    4.89
  -1   4   9  105.79    5.01
   1  -4  -9  113.23    5.09
  -1   4   9  106.13    5.03
  -1   4   9  105.53    5.03
  -3   5  -4   88.23    4.68
  -3   5  -4  101.06    4.50
  -3   5  -4   90.01    4.56
  -3   5  -4   92.31    4.73
  -3   5  -4   95.52    4.30
  -2   2  -8   10.03    1.49
  -2   2  -8   11.73    1.09
  -2   2  -8   11.24    1.06
   2  -2   8   11.54    1.05
   2  -2   8    9.90    1.59
  -1  -8  -3  156.67    6.92
  -1  -8  -3  141.58    6.77
   1   8   3  138.66    6.47
   1   8   3  145.36    6.46
   1   8   3  146.72    6.87
   5   2   7   46.54    2.27
  -5  -2  -7   58.07    2.98
  -5  -2  -7   57.75    2.86
   5   2   7   51.65    2.39
  -4   1   5   23.02    1.60
  -4   1   5   17.92    1.72
   4  -1  -5   24.96    1.66
   4  -1  -5   18.15    1.75
   4  -1  -5   16.94    1.81
   4  -1  -5   16.58    1.68
   2   6   9  186.49    8.91
  -2  -6  -9  208.40    9.68
  -2  -6  -9  237.29    9.81
   2   6   9  211.14    8.97
  -2  -6  -9  213.42    9.74
   3   7   6  119.38    5.66
   3   7   6  129.11    5.62
  -3  -7  -6  127.96    5.82
  -3  -7  -6  124.89    5.83
   3   7   6  115.33    5.66
   0  -8  -2   54.84    3.09
   0   8   2   60.20    2.85
   0   8   2   51.14    3.26
   0   8   2   44.95    2.52
   0  -8  -2   69.94    3.35
   0   8   2   55.50    2.59
   3   7   3  166.90    8.03
   3   7   3  180.03    7.81
   3   7   3  162.44    7.85
   3   7   3  179.91    7.87
  -1   5  -5  110.19    4.93
  -1   5  -5  110.23    5.08
   1  -5   5  122.10    6.11
  -1   5  -5  125.94    5.51
  -1   5  -5  122.77    4.88
   0   4  -6   13.72    1.14
   0   4  -6    8.06    1.24
   0   0  -9  146.97    6.77
   0   0   9  148.54    6.63
   0   0   9  136.78    6.85
   0   0  -9  146.88    6.71
  -1   7   7   92.96    4.82
  -1   7   7   93.46    4.35
  -1   7   7   95.83    4.86
   1  -7  -7  101.99    4.52
  -1   7   7  110.54    4.64
   1  -7  -7   92.87    4.35
  -1  -4 -10    1.15    1.28
   1   4  10    0.70    1.19
   1   4  10    0.23    1.17
  -4   3   5  166.09    8.43
  -4   3   5  195.37    8.28
   4  -3  -5  181.28    9.16
   4  -3  -5  204.32    9.11
   4  -3  -5  208.74    9.08
   4  -3  -5  206.65    9.20
   3  -6   2  113.48    5.92
  -3   6  -2  139.08    6.23
  -3   6  -2  126.89    5.77
   3  -6   2  125.80    5.55
  -3   6  -2  122.99    6.08
  -3   6  -2  121.41    6.03
  -3   6  -2  125.87    5.82
   0   3  -7   36.86    1.80
   0  -3   7   58.70    2.86
   0  -3   7   53.20    3.31
   0   3  -7   59.21    2.27
   2   4  10   23.12    1.69
  -2  -4 -10   17.01    1.64
  -2  -4 -10   24.63    1.63
  -2  -4 -10   22.08    1.62
   2   4  10   18.15    1.58
   2   4  10   24.11    1.65
   5   1   7   42.83    2.06
  -5  -1  -7   44.18    2.46
   5   1   7   40.96    1.63
   5   1   7   54.11    1.89
   3  -6  -5  143.77    5.68
  -3   6   5  131.26    6.21
  -3   6   5  144.09    6.37
   3  -6  -5  105.38    4.95
   3  -6  -5  120.75    5.23
   3  -6  -5  151.91    5.50
   3   5  -2    5.94    1.51
  -3  -5   2    4.32    1.61
   3   5  -2    4.68    1.04
   2   2  10  270.89   11.98
   2   2  10  255.99   12.05
  -2  -2 -10  248.25   10.96
  -2  -2 -10  247.95   11.07
  -2  -2 -10  244.37   11.02
   2   2  10  273.18   11.86
  -3   0  -9   -0.49    0.93
   3   0   9   -1.03    0.95
   3   0   9   -0.24    1.41
  -3   0  -9    1.21    0.84
   5   2  -1   59.98    2.91
  -5  -2   1   60.05    3.07
   5   2  -1   59.47    2.99
   5   2  -1   52.40    3.16
  -5  -2   1   58.14    3.11
  -2   6   7   92.77    4.22
   2  -6  -7   92.58    4.43
   2  -6  -7   92.27    4.26
   2  -6  -7   82.41    4.60
   2  -6  -7   84.01    4.57
  -2   6   7   80.27    4.37
   4   6   3   59.91    3.13
   4   6   3   64.81    3.20
   4   6   3   58.79    3.16
   4   6   6    2.07    1.10
   4   6   6    0.05    1.09
   4   6   6    2.03    1.25
   1   2  10  363.01   14.22
  -1  -2 -10  328.27   15.01
  -1  -2 -10  369.90   15.16
   1   2  10  333.56   14.11
  -1  -2 -10  341.99   15.13
  -1  -2 -10  336.67   15.08
  -1   8   3    4.88    1.35
   1  -8  -3    4.20    1.17
  -1   8   3    3.15    0.79
  -1   8   3    4.85    0.77
  -1   8   3    5.57    1.46
   1  -8  -3    5.90    1.80
   1  -8  -3    3.49    0.79
  -2   1   8   55.54    2.91
   2  -1  -8   58.77    3.02
   2  -1  -8   55.08    3.09
  -5  -4  -2   12.35    1.24
   5   4   2   12.75    1.40
   5   4   2   11.35    1.18
   5   4   6  250.98   10.66
  -5  -4  -6  257.06   11.41
   5   4   6  235.56   10.53
   5   4   6  231.17   10.52
   1  -8  -4   89.79    4.38
   1  -8  -4   97.74    4.58
  -1   8   4   93.29    4.38
  -1   8   4   94.62    4.70
  -1   8   4  101.03    4.69
   1  -8  -4  107.57    4.89
   5   3   7   99.71    4.57
  -5  -3  -7  106.24    4.92
   5   3   7   99.33    4.70
   5   3   7  112.43    4.81
   5   3   7   93.42    4.52
   5  -1   6  122.46    5.59
  -5   1  -6  109.91    5.10
   5  -1   6  115.18    5.69
  -5   1  -6  121.71    5.28
   5  -1   6  125.97    5.55
  -5   1  -6  109.47    5.20
   3  -2  -7   73.70    3.62
  -3   2   7   77.21    3.64
   3  -2  -7   73.04    3.61
  -3   2   7   65.36    3.53
   3  -2  -7   63.86    3.52
   3  -3  -7   21.73    1.99
  -3   3   7   26.92    1.73
  -3   3   7   16.50    1.88
   3  -3  -7   17.36    1.97
   3  -3  -7   18.63    1.87
  -5   2  -5   76.41    3.74
  -5   2  -5   77.20    3.76
   5  -2   5   80.53    4.03
   5  -2   5   88.99    3.83
   5  -2   5   74.25    4.02
   0   7   8   28.93    2.19
   0  -7  -8   20.62    1.62
   0   7   8   26.98    1.53
   0  -7  -8   24.78    1.86
   0   7   8   27.25    1.98
   0   7   8   20.24    1.68
   0   7   8   31.35    2.06
   4   5   8   48.87    2.84
  -4  -5  -8   51.39    2.53
   4   5   8   58.87    2.93
  -4  -5  -8   47.76    2.72
   4   5   8   53.75    2.78
   1   1  -8  111.07    5.23
   1   1  -8  117.56    5.40
   1   1  -8  120.02    5.42
  -1  -1   8  125.14    5.81
   1   1  -8  115.35    5.42
   2   7   8  207.55    9.46
  -2  -7  -8  221.08    9.45
   2   7   8  210.73    9.60
  -2  -7  -8  207.06    9.33
   2   7   8  220.18    9.56
  -2  -7  -8  202.48    9.40
   1   8   6   21.86    1.47
   1   8   6   21.87    1.53
  -1  -8  -6   23.55    1.54
  -1  -8  -6   22.10    1.55
   1   7  -1  122.48    5.70
  -1  -7   1  119.88    5.48
   1   7  -1  122.04    6.04
   0  -6  -9  143.31    6.50
   0   6   9  119.13    6.37
   0  -6  -9  158.33    6.45
   0   6   9  136.74    6.37
   0   6   9  131.30    6.16
   5   3   0   27.62    1.75
  -5  -3   0   28.10    1.79
   5   3   0   28.73    2.03
  -5  -3   0   25.60    1.92
   5  -3  -2   99.79    4.28
   5  -3  -2   90.49    4.34
   5  -3  -2   96.78    4.56
  -5   3   2   95.08    4.81
   5  -3  -2   97.29    4.49
   5  -3  -2   95.56    4.73
   5  -3  -2   84.71    4.83
   5  -3  -2   97.93    4.86
  -4  -5   0   64.63    3.55
   4   5   0   56.63    3.18
   4   5   0   62.43    3.07
   3   1  -6  114.30    5.16
   3   1  -6  109.44    5.42
  -3  -1   6  125.17    5.84
  -3  -1   6  126.70    6.09
  -2   7  -1    5.15    0.33
  -2   7  -1   12.02    2.00
  -2   7  -1    9.79    1.16
  -2   7  -1    8.77    1.58
   2  -7   1    9.64    1.10
  -2   7  -1    9.81    1.37
   2  -7   1    8.12    1.74
   4   3   9   99.42    2.78
  -4  -3  -9   90.83    4.56
  -4  -3  -9   97.16    4.34
  -4  -3  -9   98.07    4.54
   4   3   9   91.03    2.61
   4   3   9   98.56    2.84
  -1   8   2   51.02    2.73
   1  -8  -2   60.73    3.30
  -1   8   2   53.90    2.82
  -1   8   2   51.68    2.44
  -1   8   2   45.95    2.40
   1  -8  -2   53.06    2.87
   0  -8  -6  138.84    6.33
   0   8   6  126.65    6.61
   0   8   6  139.79    6.20
   0  -8  -6  144.09    6.40
   0   8   6  142.97    6.34
   0  -8  -6  136.67    6.73
   2   6  -2   36.89    2.55
   2   6  -2   34.15    1.93
  -2  -6   2   37.00    2.68
  -2   5  -5  118.58    5.70
  -2   5  -5  103.31    5.48
  -2   5  -5  115.36    5.11
   2  -5   5  113.34    5.68
  -2   5  -5  117.65    5.21
   4   2   9    2.92    1.15
   4   2   9    0.53    0.79
   4   2   9    1.67    0.93
  -4  -2  -9    0.97    0.96
  -4  -2  -9    0.96    0.64
   5   1  -2   15.32    1.84
   5   1  -2   16.01    1.40
  -5  -1   2   14.84    1.62
  -5  -1   2   15.97    1.46
   1   8   2  178.05    7.77
   1   8   2  166.63    7.90
   1   8   2  173.17    7.78
   1   8   2  171.20    8.22
  -1  -8  -2  178.26    8.17
  -1  -6   3   36.90    2.74
   1   6  -3   35.38    2.09
   1   6  -3   39.91    2.70
   1   6  -3   34.54    1.93
   0   5  -5    4.61    0.93
   0   5  -5    8.08    1.14
  -2  -7   0  110.16    5.04
   2   7   0  114.05    5.65
   4  -2   7   81.57    3.99
  -4   2  -7   76.62    4.06
  -4   2  -7   74.65    4.09
  -4   2  -7   88.99    3.80
   4  -2   7   83.27    3.59
   4  -2   7   69.92    3.58
   1  -1  -9    3.38    1.41
   1  -1  -9    3.52    1.12
   1  -1  -9    2.96    1.27
  -1   1   9    3.63    1.16
   0  -2   8  162.74    7.39
   0   2  -8  169.93    7.28
   0  -2   8  163.18    7.76
   0   2  -8  151.47    7.19
   4  -3   6  120.12    6.04
  -4   3  -6  127.52    5.81
  -4   3  -6  132.32    5.55
   4  -3   6  132.88    5.63
  -4   3  -6  128.32    5.94
   4  -3   6  118.61    5.72
  -4   3  -6  118.49    6.08
  -4   3  -6  107.86    5.70
  -1   5   9   94.53    4.43
   1  -5  -9   96.62    4.59
   1  -5  -9  105.14    4.72
  -1   5   9   96.62    4.41
   1  -5  -9   82.50    4.45
  -1   5   9   80.68    4.33
   5  -4   0   65.20    3.14
   5  -4   0   48.04    3.67
   5  -4   0   58.43    3.35
   5  -4   0   74.74    3.02
   5  -4   0   59.27    3.54
   5  -4   0   57.44    2.98
  -5   4   0   66.77    3.17
  -5   4   0   60.92    3.71
   3   7   7   80.61    4.08
  -3  -7  -7   84.21    4.06
   3   7   7   84.74    4.08
   3   7   7   85.69    4.03
  -3  -7  -7   82.31    4.01
  -3  -7  -7   83.25    3.99
   4   0  -5   20.81    1.72
  -4   0   5   19.52    1.67
   4   0  -5   21.09    1.75
   4   0  -5   20.07    1.70
   4   0  -5   19.89    1.65
   1  -8  -5  114.41    5.65
  -1   8   5  102.20    5.46
  -1   8   5  113.47    5.44
   1  -8  -5  126.64    5.52
   1  -8  -5  116.62    5.95
  -1   8   5  100.62    5.61
   3   7   2    2.46    1.21
   3   7   2    3.11    1.15
   3   7   2    2.09    1.47
   3   7   2    2.85    1.06
   1   5  10   16.00    1.42
   1   5  10   17.48    1.60
  -1  -5 -10   17.32    1.49
  -1  -5 -10   17.99    1.70
   3  -3   7  162.80    7.10
  -3   3  -7  185.15    7.30
  -3   3  -7  161.66    7.23
  -3   3  -7  163.04    7.65
   3  -3   7  148.01    7.53
  -3   3  -7  169.03    7.56
   4  -5  -4   70.86    3.60
   4  -5  -4   69.75    3.94
  -4   5   4   73.21    3.44
   4  -5  -4   70.51    3.45
  -4   5   4   63.81    3.27
  -4   5   4   70.23    3.74
   2  -5  -8   40.28    2.30
  -2   5   8   39.70    2.46
  -2   5   8   39.85    2.27
   2  -5  -8   40.37    2.71
   2  -5  -8   38.86    2.72
   5  -4   1   93.88    4.16
   5  -4   1   94.06    4.43
  -5   4  -1   95.06    3.99
   5  -4   1   83.34    4.04
   5  -4   1   93.07    4.58
  -5   4  -1   78.70    3.91
  -2   7   6  137.88    6.10
   2  -7  -6  128.65    5.87
   2  -7  -6  134.70    6.21
   2  -7  -6  139.69    6.06
  -2   7   6  122.47    6.38
  -2   7   6  135.18    6.26
   0   8   1   95.47    4.28
   0  -8  -1  107.16    4.90
   0   8   1   95.07    4.46
   0   8   1   87.59    4.24
   0   8   1   89.27    4.86
   0  -8  -1   94.02    4.72
   0   3  10    1.89    1.20
   0  -3 -10    2.03    1.36
   0  -3 -10    3.94    1.45
   0   3  10    2.02    1.15
   0   3  10    2.58    1.16
   0  -3 -10    2.26    1.18
   0   3  10    1.61    1.10
   5   0   7  103.34    5.23
   5   0   7  117.22    5.40
  -5   0  -7  119.53    5.57
   5   0   7  122.26    5.19
   3  -1  -7  139.71    6.24
   3  -1  -7  147.45    6.34
  -3   1   7  138.08    6.42
  -3   4   7   43.62    2.38
   3  -4  -7   40.32    2.05
   3  -4  -7   40.70    2.51
   3  -4  -7   38.38    2.79
   3  -4  -7   35.54    2.68
  -3   4   7   38.29    2.42
   3  -4  -7   47.40    2.48
   3  -4  -7   43.30    2.73
  -2   1  -9    0.71    0.70
   2  -1   9    1.47    1.43
   2  -1   9    2.42    0.96
  -2   1  -9    1.45    1.00
  -2   1  -9    1.23    0.94
   3  -7  -2   65.87    3.26
   3  -7  -2   64.26    2.98
   3  -7  -2   65.88    3.76
  -3   7   2   63.59    2.94
  -3   7   2   60.72    2.91
  -3   7   2   67.39    3.40
  -3   7   2   71.45    3.32
  -3   7   2   67.20    3.65
  -3   7   2   63.10    3.61
   1  -1   9   81.01    4.30
  -1   1  -9   73.63    3.67
  -1   1  -9   84.86    3.78
  -1   1  -9   74.02    3.78
   1  -1   9   80.28    3.91
  -1   1  -9   83.37    3.94
  -3  -3 -10   91.87    4.64
   3   3  10  104.71    4.61
   3   3  10   91.40    4.66
   3   3  10  100.05    4.77
  -3  -3 -10   99.72    4.55
  -3  -3 -10  103.33    4.72
  -2  -5 -10    4.98    1.22
   2   5  10    4.63    1.19
  -2  -5 -10    4.56    1.15
   2   5  10    4.01    1.20
   2   8   5   50.57    2.61
   2   8   5   44.82    2.69
   2   8   5   51.57    2.55
  -2  -8  -5   48.46    2.65
  -4   4   5  163.77    6.97
  -4   4   5  141.82    6.86
   4  -4  -5  150.89    6.95
   4  -4  -5  152.21    7.20
   4  -4  -5  148.79    7.14
   4  -4  -5  155.75    7.05
   2   8   4   77.78    4.11
   2   8   4   65.78    3.81
   2   8   4   78.10    3.69
   2   8   4   84.85    3.77
  -5   3  -4   66.85    3.30
   5  -3   4   67.63    2.87
   5  -3   4   71.31    2.77
  -5   3  -4   69.60    3.48
   5  -3   4   61.22    2.37
   4   6   2   55.24    2.87
   4   6   2   53.24    2.98
  -4  -6  -7    1.64    1.09
   4   6   7   -0.34    1.24
   4   6   7    0.40    1.12
  -4  -6  -7    1.88    0.99
  -4  -3   3  586.56   25.88
   5  -1  -3   69.61    3.41
   5  -1  -3   67.10    3.40
  -5   1   3   69.38    3.62
   5  -1  -3   61.02    3.60
  -4  -4  -9  142.98    6.57
  -4  -4  -9  144.80    6.43
   4   4   9  139.48    6.45
   4   4   9  138.16    6.40
   4   4   9  139.40    6.31
  -4  -4  -9  141.47    6.60
   0  -4 -10   36.01    2.30
   0  -4 -10   34.83    2.26
   0   4  10   30.06    2.08
   0   4  10   35.78    2.11
   2   1  10  115.27    4.84
  -2  -1 -10  106.97    4.19
  -2  -1 -10  107.97    4.38
  -2  -1 -10  114.90    4.29
   2   1  10  106.51    4.50
  -4   5  -3   21.03    1.33
   4  -5   3   20.86    1.26
  -4   5  -3   20.09    1.46
  -4   5  -3   22.53    2.27
  -4   5  -3   23.98    2.05
  -4   5  -3   19.88    1.89
   4  -5   3   20.87    1.81
  -3   7   1  154.55    5.72
  -3   7   1  145.04    5.88
  -3   7   1  147.30    5.59
   3  -7  -1  151.92    5.74
   3  -7  -1  144.90    6.12
  -3   7   1  104.36    5.20
  -3   7   1  152.70    5.98
  -3   7   1  111.59    5.19
  -3   7   1  148.07    5.36
  -5   2   3  180.68    8.37
   5  -2  -3  156.74    8.11
   5  -2  -3  177.46    7.96
   5  -2  -3  185.40    7.95
  -5   2   3  181.85    8.33
  -1   7  -2    5.90    1.14
  -1   7  -2    4.30    1.47
  -1   7  -2    8.04    0.74
   1  -7   2    3.29    1.52
  -1   7  -2    9.80    0.77
  -1   7  -2    4.90    1.15
   5  -4  -1   41.89    2.17
  -5   4   1   47.74    2.47
   5  -4  -1   44.79    2.94
   5  -4  -1   46.03    2.72
   5  -4  -1   47.24    2.28
   5  -4  -1   37.91    2.95
   5  -4  -1   46.49    2.45
  -5   4   1   43.29    2.96
  -3   2  -8  117.96    5.15
  -3   2  -8  103.51    4.78
  -3   2  -8  130.09    4.88
   3  -2   8  112.35    5.80
  -3   2  -8  111.99    5.14
   3  -2   8  123.07    5.46
   1   1  10  236.16   10.35
  -1  -1 -10  256.45   11.07
  -1  -1 -10  233.23   11.09
  -1  -1 -10  256.78   11.17
   1   1  10  215.63    9.91
   1   1  10  241.59   10.15
  -3   7   3    2.99    1.81
   3  -7  -3    2.82    1.89
  -3   7   3    2.53    0.76
   3  -7  -3    2.94    1.17
  -3   7   3    1.39    1.82
  -3   7   3    2.23    1.27
   3  -7  -3    2.26    0.71
  -3   7   3    2.54    1.51
  -4  -1  -9  125.67    5.25
   4   1   9  126.04    5.80
   4   1   9  121.66    5.68
  -4  -1  -9  109.30    5.02
   3  -4   6   56.06    3.39
  -3   4  -6   55.50    3.16
  -3   4  -6   59.87    2.54
  -3   4  -6   52.37    2.57
  -3   4  -6   45.34    3.10
  -3   4  -6   57.24    3.00
  -3   4  -6   49.11    2.88
   3  -4   6   58.31    2.69
   3   2  10   33.06    1.84
  -3  -2 -10   30.87    1.86
   3   2  10   35.28    1.97
   3   2  10   29.67    2.13
   3   2  10   35.49    2.22
  -3  -2 -10   35.77    1.99
   4  -1   8   95.02    4.88
   4  -1   8  103.61    4.64
  -4   1  -8  100.03    4.47
  -4   1  -8   92.65    4.58
   1  -8  -1   17.75    1.95
  -1   8   1   12.12    1.06
  -1   8   1    9.54    0.89
  -1   8   1   13.75    1.43
   1  -8  -1   14.55    1.42
  -1   8   1   17.44    1.53
  -3  -4 -10  107.75    4.99
   3   4  10  113.56    5.13
   3   4  10  108.62    5.04
   3   4  10  102.69    5.12
  -3  -4 -10  106.24    5.09
  -3  -4 -10  111.25    5.11
   0   7  -2   47.75    2.48
   0   7  -2   44.04    2.22
   0   7  -2   43.15    3.04
   0  -7   2   49.02    2.71
  -5  -4  -1    0.11    1.19
   5   4   1   -0.04    1.04
   5   4   1   -0.74    1.22
   5   4   7   86.79    4.60
   5   4   7  140.52    4.90
   5   4   7  150.98    4.91
   5   4   7  105.25    4.63
   5   4   7  137.88    5.05
  -5  -4  -7  149.59    6.78
  -4  -2   4  108.99    5.38
   0   2  10   21.10    1.47
   0  -2 -10   19.16    1.65
   0  -2 -10   18.95    1.62
   0   2  10   22.04    1.47
   0   2  10   13.82    1.49
   0  -2 -10   11.04    1.47
  -4   6   1  106.33    4.96
   4  -6  -1  109.40    5.09
   4  -6  -1  131.65    5.35
  -4   6   1  124.33    5.24
   4  -6  -1  115.02    5.53
   4  -6  -1  110.67    5.70
  -4   6   1  122.83    5.37
  -4   6   1  108.31    5.46
   2   8   6   15.05    1.57
  -2  -8  -6   14.02    1.37
  -2  -8  -6   14.17    1.49
  -2  -8  -6   15.65    1.34
   2   8   6   14.19    1.35
   2   8   6   14.29    1.33
   5  -4   2   91.43    4.12
   5  -4   2   88.15    4.57
   5  -4   2   83.64    4.38
   5  -4   2   86.10    4.04
  -5   4  -2   83.04    3.70
  -5   4  -2   82.01    3.84
  -5   4  -2   80.90    3.81
  -5   4  -2   88.13    4.20
   5  -4   2   95.17    4.05
  -1   6  -4    7.03    1.06
  -1   6  -4    8.02    1.17
  -1   6  -4    8.43    1.46
   1  -6   4    9.78    1.97
  -1   6  -4   10.54    0.87
  -4  -4   2  106.48    4.93
   4   4  -2  181.63    8.23
  -4  -4   2  174.75    5.71
   2   4  -5   42.13    2.28
  -2  -4   5   36.47    2.60
   2   4  -5   34.94    2.48
   1   8   7    4.38    1.47
   1   8   7    3.60    1.05
  -1  -8  -7    6.48    1.07
  -1  -8  -7    3.95    1.31
   1   8   7    3.74    1.71
  -3  -6  -9    0.49    1.05
  -3  -6  -9    1.23    0.99
   3   6   9    1.42    1.20
   2   8   3   36.68    2.04
   2   8   3   30.45    2.57
   2   8   3   33.80    1.94
   2   3  -6  102.10    5.08
   2   3  -6  111.77    5.07
  -2  -3   6  102.20    5.19
   4  -4   5  127.81    4.07
  -4   4  -5  115.02    5.13
  -4   4  -5  121.53    5.34
  -4   4  -5  134.74    5.15
  -4   4  -5  122.35    5.45
   4  -4   5   76.34    3.64
  -4   6   2   37.51    1.78
  -4   6   2   34.23    2.12
   4  -6  -2   27.59    2.42
   4  -6  -2   26.71    2.65
  -4   6   2   29.07    2.30
   4  -6  -2   34.88    2.18
   5   0  -3   88.11    4.15
   5   0  -3   82.19    4.11
  -5   0   3   90.17    4.43
   5   0  -3   82.24    4.26
   5   5   4   34.12    2.01
   5   5   4   35.47    2.05
   5   5   4   31.90    1.90
   5   5   4   43.02    2.22
   4  -6   0   89.78    4.45
  -4   6   0  101.30    5.26
  -4   6   0  112.77    4.91
   4  -6   0  110.09    3.89
   4  -6   0   97.82    4.20
  -4   6   0  101.95    5.02
  -4   6   0   97.73    5.18
  -2   0   8    6.58    1.19
   2   0  -8    5.74    1.29
   2   0  -8    6.81    1.23
   2   0  -8    6.26    1.43
  -2   0   8    8.33    1.61
   5   5   5    3.55    1.20
  -5  -5  -5    5.27    1.19
   5   5   5    3.89    0.77
   5   5   5    4.54    1.11
  -3  -6   1   20.49    2.10
   3   6  -1   20.33    1.99
   1   8   1  112.19    5.16
   1   8   1  115.66    5.28
   1   8   1  109.19    5.69
   1   8   1  109.59    5.16
  -1  -8  -1  117.52    5.54
   0   8   7   62.40    2.97
   0  -8  -7   60.83    3.14
   0   8   7   54.98    3.51
   0   8   7   65.34    3.13
   0  -8  -7   65.84    3.08
  -3   6  -3  135.67    6.47
  -3   6  -3  125.98    6.56
  -3   6  -3  134.31    6.43
  -3   6  -3  136.22    6.14
  -3   6  -3  139.27    6.17
   3  -7   0   97.99    5.34
  -3   7   0  107.36    5.22
  -3   7   0  100.63    5.43
  -3   7   0  109.07    5.45
  -3   7   0  116.89    5.16
  -3   7   0  108.97    5.53
   3  -7   0  110.80    4.97
  -6   0  -3   11.23    1.03
  -6   0  -3    9.39    0.74
   6   0   3    7.22    1.00
   6   0   3    7.69    1.35
  -6   0  -3    6.59    1.96
  -6   0  -3    6.74    1.23
  -6  -1  -3   48.00    3.11
   6   1   3   48.77    2.68
   1  -8  -6  204.40    9.19
   1  -8  -6  198.01    8.92
  -1   8   6  205.62    9.12
   1  -8  -6  194.91    8.70
   1  -8  -6  194.70    8.79
  -1   8   6  198.07    8.79
  -1   8   6  205.78    8.97
  -1   8   6  189.60    9.26
   5   2   8   -0.47    1.05
  -5  -2  -8    6.27    1.36
   5   2   8    3.26    1.36
   5   2   8    1.31    0.78
   5   2   8    2.27    0.73
  -5  -2  -8   -1.55    1.06
   6   0   2    7.32    1.33
  -6   0  -2    6.87    1.86
  -6   0  -2    6.68    1.27
   6   0   2    7.76    1.09
   5  -3  -3   95.79    4.33
   5  -3  -3   99.65    4.63
   5  -3  -3   98.20    4.89
   5  -3  -3   96.22    4.31
  -5   3   3  108.19    5.11
  -5   3   3   95.31    5.02
   5  -3  -3   87.55    4.51
   3  -6  -6  105.75    5.05
  -3   6   6   95.52    5.09
   3  -6  -6  107.99    4.86
  -3   6   6  110.29    4.91
   3  -6  -6   93.38    5.26
   3  -6  -6  100.01    5.24
  -3   6   6  104.57    5.03
   1   7   9  375.85   15.68
  -1  -7  -9  375.66   16.16
  -1  -7  -9  354.69   16.16
   1   7   9  366.63   15.71
   0   6  -4    4.50    0.89
   0   6  -4    3.25    1.17
   0   6  -4    4.43    1.12
  -3   7   4    3.48    0.87
   3  -7  -4    2.17    0.82
   3  -7  -4    4.26    1.33
  -3   7   4    4.32    1.36
  -3   7   4    6.07    1.59
   0  -5 -10   77.37    3.93
   0  -5 -10   80.01    4.00
   0   5  10   71.02    3.76
   0   5  10   74.41    3.67
   0  -5 -10   80.26    3.87
   0  -5 -10   73.72    3.70
   1   4  -6  231.32    6.85
   1   4  -6  212.45    7.20
  -5   4   2    3.61    1.78
  -5   4   2    4.93    1.16
   5  -4  -2    4.23    0.70
   5  -4  -2    4.57    0.94
   5  -4  -2    4.47    1.32
   5  -4  -2    2.57    1.80
   5  -4  -2    3.57    1.63
   5  -4  -2    4.54    1.89
  -2  -5   4   83.73    4.45
   2   5  -4   83.62    3.99
   2   5  -4   81.07    4.38
  -6  -1  -4   -0.26    0.93
   6   1   4    0.22    1.33
   6   1   4    0.32    0.98
  -6  -1  -4    0.98    1.84
   5   3   8  157.91    7.24
   5   3   8  163.60    7.26
   5   3   8  159.31    7.18
  -5  -3  -8  181.18    7.95
  -5  -3  -8  170.22    7.86
   5   3   8  176.67    7.43
   5   5   3    7.13    1.13
   5   5   3    6.36    1.16
   5   5   3    6.23    1.04
   6   1   2   29.83    1.92
   6   1   2   26.43    1.67
  -6  -1  -2   22.41    1.26
  -6  -1  -2   28.99    2.24
  -1   7   8   66.82    3.90
   1  -7  -8   77.13    3.75
  -1   7   8   81.44    3.67
  -1   7   8   65.82    3.88
   2  -8  -3    4.70    1.29
   2  -8  -3    2.50    1.97
   2  -8  -3    8.17    0.84
  -2   8   3    6.81    0.87
  -2   8   3    2.89    1.61
  -2   8   3    4.19    1.38
  -2   6  -4  167.59    6.55
  -2   6  -4  154.84    6.49
  -2   6  -4  161.65    7.06
  -2   6  -4  158.84    6.81
   5   5   6   92.84    4.12
   5   5   6   80.83    3.91
  -5  -5  -6  101.55    4.79
   5   5   6   93.38    4.25
   1   3  -7   65.02    3.19
   1   3  -7   60.54    3.19
  -1  -3   7   67.12    3.33
   3   7   8   35.85    2.12
  -3  -7  -8   30.85    2.01
  -3  -7  -8   30.83    1.92
  -3  -7  -8   35.41    1.97
   3   7   8   32.74    2.13
   3   7   8   34.31    2.17
  -3  -3   5   45.42    2.93
   3   3  -5   49.47    2.51
   3   3  -5   35.88    2.58
   3  -1   9    9.14    1.07
  -3   1  -9   10.10    0.95
  -3   1  -9    5.15    0.52
   3  -1   9   10.88    1.59
  -3   1  -9    9.65    1.01
  -3   1  -9    3.71    0.43
   3   4  -4   17.53    1.59
   3   4  -4   26.32    1.82
  -3  -4   4   18.15    1.98
   0   1  -9  191.01    8.50
   0   1  -9  182.11    8.48
   0   1  -9  194.44    8.59
   0  -1   9  187.28    8.78
   0  -1   9  186.14    8.45
   5   2  -2   45.23    2.47
  -5  -2   2   47.83    2.63
   5   2  -2   43.45    2.74
  -5  -2   2   43.18    2.48
   3   7   1   57.99    3.01
   3   7   1   59.19    3.32
  -2   7  -2  199.90    9.23
   2  -7   2  198.06    9.14
  -2   7  -2  212.13    9.70
  -2   7  -2  211.90    9.23
  -2   7  -2  202.40    9.39
   5   3  -1   11.54    1.59
  -5  -3   1    8.62    1.39
  -5  -3   1   12.09    1.41
  -3  -1 -10    0.44    0.94
  -3  -1 -10    2.09    1.05
   3   1  10    2.44    1.48
   3   1  10    2.78    1.04
   6   0   4   37.48    1.83
  -6   0  -4   37.38    1.51
   6   0   4   29.99    1.95
  -6   0  -4   37.52    1.64
  -6   0  -4   35.20    2.43
  -3   0   7   64.96    3.50
   3   0  -7   58.00    3.08
   3   0  -7   62.27    3.14
  -5   2  -6   79.33    3.79
  -5   2  -6   73.97    4.29
  -5   2  -6   74.85    3.81
   5  -2   6   74.39    3.93
   5  -2   6   81.70    3.67
   3  -5  -7  108.14    5.07
   3  -5  -7  110.01    5.29
   3  -5  -7  105.27    5.19
  -3   5   7  112.93    5.26
  -3   5   7  103.44    5.17
  -3   5   7  109.03    5.11
   3  -5  -7   98.42    5.30
   3  -5  -7  110.90    5.39
  -2   8   2    2.26    0.70
  -2   8   2    0.78    1.82
  -2   8   2    0.93    1.31
   2  -8  -2    0.41    1.89
  -2   8   2    0.91    0.64
   2  -8  -2    1.70    1.12
  -2   8   2    1.11    1.56
   4  -6  -3    8.60    0.96
   4  -6  -3    9.66    1.41
   4  -6  -3    9.50    1.72
  -4   6   3    9.08    0.92
  -4   6   3   11.23    1.63
   4  -6  -3    9.90    1.97
  -4   6   3   10.16    1.39
   5   1   8   50.01    2.37
   5   1   8   52.17    2.39
  -5  -1  -8   53.43    2.78
   5   1   8   56.87    2.65
  -5  -1  -8   56.64    2.93
   6  -1   2  168.56    7.55
  -6   1  -2  158.11    7.86
   6  -1   2  169.10    7.64
  -6   1  -2  172.08    7.61
  -2  -2   7   19.29    1.49
   2   2  -7   22.36    1.44
   2   2  -7   15.71    1.24
  -2  -2   7   18.92    2.08
   2   2  -7   22.51    1.65
   2   2  -7   17.23    1.54
   2   8   7   39.66    2.49
  -2  -8  -7   47.60    2.42
  -2  -8  -7   47.97    2.50
   2   8   7   51.22    2.46
  -2  -8  -7   37.49    2.40
   2   8   7   45.94    2.66
  -3  -5 -10   44.90    2.38
   3   5  10   45.91    2.49
   3   5  10   42.20    2.49
   3   5  10   41.94    2.35
   3   5  10   47.28    2.48
  -3  -5 -10   46.68    2.48
  -3  -5 -10   40.91    2.47
  -3   5  -5   76.75    3.48
  -3   5  -5   72.37    3.43
  -3   5  -5   76.59    3.15
  -3   5  -5   69.76    3.17
  -3   5  -5   75.83    2.84
   1   0  -9   89.89    4.31
   1   0  -9   91.31    4.34
  -1   0   9   93.77    4.55
   1   0  -9   84.47    4.13
  -2  -7  -9  379.87   16.85
  -2  -7  -9  381.93   16.92
  -2  -7  -9  390.13   16.96
   2   7   9  387.56   17.04
   2   7   9  401.57   17.05
   2   7   9  366.57   17.03
  -4  -5  -9  101.10    4.66
   4   5   9   99.31    4.71
   4   5   9   97.42    4.65
  -4  -5  -9  101.31    4.81
  -4  -5  -9  100.68    4.78
   4  -6   1   61.42    3.79
  -4   6  -1   68.54    3.22
  -4   6  -1   63.51    3.59
  -4   6  -1   67.24    3.61
  -4   6  -1   64.29    3.76
   4  -6   1   61.69    3.41
   4  -6   1   66.95    3.13
  -4   6  -1   61.97    3.10
  -6   0  -1   20.62    1.68
  -6   0  -1   20.22    2.14
   6   0   1   17.07    1.29
   6   0   1   19.72    1.45
   6   0   1   19.33    1.59
   0   8   0   54.13    2.80
   0   8   0   48.49    3.37
   0  -8   0   59.10    3.24
   0   8   0   51.36    2.55
   1   6  10  149.89    7.30
   1   6  10  165.05    7.35
   1   6  10  161.89    7.21
  -1  -6 -10  156.57    7.30
  -1  -6 -10  156.86    7.14
  -1  -6 -10  161.78    7.29
   4   6   1   82.69    4.20
  -4  -6  -1   80.28    4.17
   4   6   1   83.96    4.10
   2   8   2  120.49    5.44
   2   8   2  111.38    5.83
   2   8   2  116.92    5.46
  -2  -8  -2  117.49    5.54
  -4  -1   5  106.26    5.23
   4   1  -5  113.76    5.37
   4   1  -5  107.09    5.10
  -1   6   9    3.30    1.39
   1  -6  -9    2.86    1.16
   1  -6  -9    3.78    1.79
  -1   6   9    3.31    1.17
  -1   6   9    3.18    1.55
   1  -6  -9    4.08    0.88
  -5   4  -3   84.79    3.86
   5  -4   3   84.31    3.77
   5  -4   3   86.86    3.89
   5  -4   3   79.81    3.33
   5  -4   3   70.05    3.26
   5  -4   3   67.26    3.26
  -5   4  -3   88.38    4.34
  -5   4  -3   84.34    3.98
  -4  -6  -8   30.50    1.77
   4   6   8   31.62    2.02
   4   6   8   27.68    1.93
  -4  -6  -8   27.82    1.83
   2  -8  -4   36.62    2.76
  -2   8   4   39.78    2.03
  -2   8   4   35.48    2.55
   2  -8  -4   36.58    1.91
  -2   8   4   36.66    2.39
   2  -8  -4   35.37    2.22
   1   5  -5   94.98    4.47
   1   5  -5   93.68    4.95
  -1  -5   5   86.93    4.68
   6  -1   3   39.78    2.32
   6  -1   3   47.02    2.25
  -6   1  -3   47.19    2.32
  -6   1  -3   42.21    2.37
  -6   1  -3   50.86    2.59
  -6   1  -3   45.49    3.12
  -5   1  -7   63.99    3.32
   5  -1   7   73.39    3.75
  -5   1  -7   75.65    3.47
  -5   1  -7   66.06    3.12
   5  -1   7   74.28    3.51
   4  -2  -6   34.60    2.01
   4  -2  -6   25.88    2.24
  -4   2   6   26.81    2.12
  -4   2   6   31.68    1.93
   4  -2  -6   30.36    2.17
   4  -2  -6   25.64    2.06
  -4  -5   1   70.91    3.30
   4   5  -1   64.74    3.41
  -4  -5   1   50.26    2.43
   6   2   4   64.93    3.23
  -6  -2  -4   61.22    3.05
   6   2   4   58.62    3.14
   6   2   4   61.41    3.29
  -6  -2  -3  137.83    6.61
   6   2   3  138.47    6.74
   6   2   3  149.81    6.68
   0   1  10  259.81   11.96
   0   1  10  264.51   11.77
   0  -1 -10  260.32   11.51
   0  -1 -10  250.21   11.46
   0  -1 -10  259.33   11.50
   1  -8   0    2.04    1.66
  -1   8   0    4.96    1.36
   1  -8   0    4.95    1.17
  -1   8   0    4.99    0.70
  -1   8   0    3.43    1.20
   2   6  10   12.44    1.61
  -2  -6 -10   16.46    1.45
   2   6  10   17.70    1.56
  -2  -6 -10   17.97    1.56
   2   6  10   15.32    1.45
   6  -1   1    0.05    1.09
  -6   1  -1    1.37    1.30
  -6   1  -1   -1.34    1.77
   6  -1   1    0.39    1.16
   6  -1   1   -0.67    0.91
   4   0   9  113.15    5.44
  -4   0  -9  112.62    4.12
  -4   0  -9   80.69    3.82
   4   0   9  114.37    5.26
   4  -3  -6  116.34    5.27
   4  -3  -6  107.24    5.27
   4  -3  -6   98.25    5.08
  -4   3   6   99.33    4.83
  -4   3   6  106.67    5.05
   4  -3  -6  107.29    5.16
  -4   5   5  107.30    4.84
   4  -5  -5  105.65    5.02
   4  -5  -5  106.74    5.38
  -4   5   5   95.31    4.68
   4  -5  -5  107.30    5.15
   2  -6  -8  124.05    5.54
  -2   6   8  131.12    5.96
  -2   6   8  123.57    6.10
   2  -6  -8  128.15    5.20
   2  -6  -8  126.96    5.55
  -1  -7   2   80.01    3.83
   1   7  -2   80.66    4.28
  -1  -7   2   81.64    4.45
   1   7  -2   76.66    3.66
   1   7  -2   77.29    3.81
   0   7   9   84.21    4.31
   0   7   9   90.61    4.37
   0  -7  -9   85.21    3.99
   0   7   9   90.25    4.28
   0   7   9   85.75    3.96
   0   7   9   76.56    4.12
   0  -7  -9   72.62    3.87
   6   1   5    2.15    1.05
  -6  -1  -5    2.47    0.96
   6   1   5    2.78    0.73
   6   1   5    2.90    1.38
   5  -3   5  148.10    6.58
   5  -3   5  149.31    6.81
  -5   3  -5  145.91    6.75
  -5   3  -5  146.17    6.60
  -5   3  -5  139.31    7.03
  -2  -7   1  188.47    7.37
   2   7  -1  179.58    8.58
  -2  -7   1  142.57    6.62
   2   7  -1  184.89    8.32
  -1   4  -7   53.04    2.38
  -1   4  -7   45.50    2.96
   1  -4   7   44.15    3.00
   1  -4   7   48.20    2.39
   2  -7  -7  104.05    5.11
   2  -7  -7  114.64    5.30
  -2   7   7  109.99    5.33
  -2   7   7  113.48    5.26
   2  -7  -7  112.43    5.51
  -2   7   7  104.71    5.08
   2   0  10    9.02    1.61
  -2   0 -10    8.32    1.18
  -2   0 -10    7.25    1.20
   2   0  10    3.16    0.46
   2   0  10    8.76    1.13
  -2   0 -10    6.94    1.48
   6   1   1  114.97    5.73
  -6  -1  -1  129.82    5.87
  -6  -1  -1  128.62    6.23
   6   1   1  142.25    5.86
   3   2  -6   27.38    2.05
  -3  -2   6   37.90    2.66
   3   2  -6   23.84    1.44
   2  -3  -9   90.29    4.25
   2  -3  -9   93.76    4.54
   2  -3  -9   90.54    4.44
   2  -3  -9   85.71    4.42
   2  -3  -9   88.29    4.46
  -2   3   9   89.13    4.41
  -5  -1   3   27.54    1.89
  -5  -1   3   21.72    1.85
   5   1  -3   22.39    1.70
   3   5  -3   10.62    1.65
  -3  -5   3   10.41    1.82
   3   5  -3   11.25    1.24
  -2   8   1   43.77    1.99
  -2   8   1   39.78    1.89
  -2   8   1   44.28    3.02
  -2   8   1   35.04    2.78
  -2   8   1   32.95    2.50
   2  -8  -1   35.26    2.81
  -2   8   1   33.12    2.56
  -2   8   1   40.54    2.35
   2  -8  -1   41.26    2.27
   3  -7   1  137.17    6.14
  -3   7  -1  135.97    6.29
  -3   7  -1  123.26    6.50
  -3   7  -1  135.21    6.51
   3  -7   1  128.19    6.53
  -3   7  -1  140.00    6.25
  -3   7  -1  143.23    6.69
   5   4   0   25.16    1.96
  -5  -4   0   28.27    1.96
   5   4   0   26.92    1.76
  -5  -4   0   25.35    1.84
   1   0  10  119.80    5.90
   1   0  10  117.67    5.54
  -1   0 -10  120.31    5.67
  -1   0 -10  123.17    5.63
  -1   0 -10  120.17    5.79
  -1   3  -8    2.26    1.53
  -1   3  -8    2.63    0.97
   1  -3   8    1.66    0.97
   1  -3   8    0.22    1.63
   5   4   8  348.94   14.04
   5   4   8  326.74   13.89
   5   4   8  298.20   13.76
  -5  -4  -8  355.02   15.64
   5   4   8  316.16   13.84
   6   2   5   25.32    1.73
  -6  -2  -5   27.54    1.74
   6   2   5   29.62    1.98
   6   2   5   24.14    1.49
   4  -1  -6    2.27    1.19
   4  -1  -6    0.37    1.54
  -4   1   6    1.87    1.38
   4  -1  -6    0.17    1.45
   4  -1  -6    1.03    1.36
  -4   1   6    2.40    1.15
   6   2   2  116.73    5.44
   6   2   2  112.54    5.68
   6   2   2  124.37    5.55
  -6  -2  -2   99.00    4.56
  -6  -2  -2  113.68    5.14
   1   8   8   37.86    2.41
   1   8   8   29.38    2.12
  -1  -8  -8   26.32    1.95
  -1  -8  -8   36.07    1.91
   1   8   8   42.91    2.10
  -1  -8  -8   37.89    2.21
   1   8   8   40.94    2.62
   5   5   2    2.08    1.06
   5   5   2    2.77    1.15
   5   5   2    2.82    1.02
   4  -5   4   81.55    3.98
  -4   5  -4   78.68    4.06
  -4   5  -4   88.39    4.35
  -4   5  -4   86.72    3.94
  -4   5  -4   76.23    3.71
  -4   5  -4   81.54    4.25
   2  -4   7  231.89   11.79
   2  -4   7  265.12   11.34
  -2   4  -7  264.87   10.39
  -2   4  -7  252.40   10.85
   2  -3   8   38.42    2.00
  -2   3  -8   32.73    2.38
  -2   3  -8   34.77    2.32
   2  -3   8   30.74    2.57
  -2   3  -8   34.44    1.88
   1   2  -8  114.78    5.57
   1   2  -8  121.09    5.39
  -1  -2   8  118.28    5.50
   1   2  -8  120.88    5.59
   5   5   7  290.67   12.77
   5   5   7  303.30   13.00
   5   5   7  283.75   12.87
  -5  -5  -7  318.94   14.11
   4   7   5   55.04    2.92
   4   7   5   57.84    2.98
   4   7   5   59.05    3.10
   4   7   5   51.76    2.85
   6  -1   4  191.70    8.31
  -6   1  -4  196.13    8.31
  -6   1  -4  189.64    8.81
   6  -1   4  199.55    8.13
  -6   1  -4  186.29    8.37
   6  -1   4  183.05    8.19
  -6   1  -4  173.23    8.29
  -6   1  -4  195.41    8.42
   6  -1   4  168.66    7.95
  -3   7   5   24.95    1.56
   3  -7  -5   25.24    1.54
   3  -7  -5   20.97    1.90
  -3   7   5   23.13    1.88
  -6   0  -5  211.25    9.26
   6   0   5  186.44    7.86
  -6   0  -5  199.19    9.31
  -6   0  -5  191.39    9.72
   6   0   5  159.61    7.87
  -6   0  -5  221.61    9.30
   2  -4  -9   61.39    3.56
  -2   4   9   68.95    3.66
  -2   4   9   63.89    3.60
  -2   4   9   73.96    3.76
   2  -4  -9   81.56    3.92
  -2   4   9   81.53    3.72
   2  -4  -9   70.34    3.37
   2  -4  -9   75.66    3.84
  -2   8   5   66.64    3.08
   2  -8  -5   77.66    3.70
  -2   8   5   81.79    3.80
  -2   8   5   77.00    3.66
   2  -8  -5   88.75    4.13
  -2   8   5   68.85    3.35
  -2   8   5   80.96    4.01
   2  -2  -9   84.92    4.14
  -2   2   9   85.22    4.21
   2  -2  -9   81.03    4.19
  -5   4   3   46.47    3.05
   5  -4  -3   37.96    1.83
   5  -4  -3   39.92    2.20
   5  -4  -3   44.12    2.86
   5  -4  -3   44.49    2.39
  -5   4   3   48.07    2.61
   5  -4  -3   40.27    2.84
   4   7   4   92.82    4.76
   4   7   4  101.86    4.68
   4   7   4   96.81    4.70
   2   6  -3   72.61    3.84
   2   6  -3   65.62    3.31
  -2  -6   3   71.88    4.14
   6   0   0  163.44    7.40
  -6   0   0  161.47    7.47
  -6   0   0  164.69    7.63
   6   0   0  166.23    7.38
   6   0   0  160.02    7.41
   6   0   0  162.35    7.32
   5  -2  -4  139.30    6.69
   5  -2  -4  140.19    6.86
   5  -2  -4  143.49    6.71
   5  -2  -4  158.80    6.86
  -1   5  -6   65.89    2.72
  -1   5  -6   68.25    2.43
  -1   5  -6   71.89    3.32
   1  -5   6   67.48    3.98
  -6   1   0    6.87    1.46
   6  -1   0    6.72    1.26
   6  -1   0    4.13    1.01
   6  -1   0    4.87    0.95
  -6   1   0    7.45    1.85
   6  -1   0    7.06    1.20
  -1   8   7  268.60   11.56
   1  -8  -7  251.06   11.46
  -1   8   7  244.16   11.77
   1  -8  -7  255.52   11.37
   1  -8  -7  256.29   11.67
   1  -8  -7  257.28   11.25
   4   7   6    7.09    1.32
  -4  -7  -6    9.28    1.28
   4   7   6    8.66    1.44
   4   7   6   12.02    1.42
   4   7   6    9.98    1.32
   1  -3 -10   28.20    1.83
  -1   3  10   25.46    1.77
   1  -3 -10   27.56    2.06
  -1   3  10   23.36    1.80
   1  -3 -10   21.41    2.05
  -1   3  10   22.16    1.75
  -6   2  -2  148.16    7.24
   6  -2   2  150.70    6.45
   6  -2   2  141.26    6.07
  -6   2  -2  151.13    6.95
  -5   0  -8   88.89    3.98
   5   0   8   81.70    3.99
   5   0   8   75.54    4.06
   5   0   8   83.83    3.87
  -5   0  -8   76.99    4.13
   1   8   0   63.44    3.16
   1   8   0   64.91    3.74
   1   8   0   63.36    3.30
  -1  -8   0   68.41    3.47
   4   3  10   40.49    2.60
   4   3  10   40.77    2.33
  -4  -3 -10   42.95    2.22
  -4  -3 -10   42.60    2.54
   4   3  10   48.93    2.52
  -4  -3 -10   48.19    2.46
   4   3  10   49.25    2.48
  -4   6   4    3.11    1.59
   4  -6  -4    2.86    1.74
  -4   6   4    2.34    1.75
  -4   6   4    2.32    0.90
   4  -6  -4    1.83    0.93
   4  -6  -4    2.49    2.03
   4  -6  -4    1.30    1.94
   4  -6  -4    4.31    1.41
  -4   6   4    5.29    1.32
   0   6  10  175.23    7.93
   0  -6 -10  156.68    7.38
   0  -6 -10  179.59    7.68
   0   6  10  187.77    7.97
   0  -6 -10  167.77    7.56
   4  -4  -6  248.71   11.46
  -4   4   6  261.70   11.94
   4  -4  -6  252.67   11.65
   4  -4  -6  246.60   11.58
   4  -4  -6  263.75   11.42
   4  -4  -6  259.33   11.57
  -4   4   6  271.71   11.91
  -5   1   4  112.81    5.39
   5  -1  -4  124.75    5.73
   5  -1  -4  140.82    5.76
   5  -1  -4  117.19    5.80
   5  -1  -4   99.76    5.77
   6  -2   1   66.85    3.21
   6  -2   1   65.26    3.27
  -6   2  -1   65.77    3.85
  -6   2  -1   64.12    3.45
   3   8   5   20.53    1.71
   3   8   5   15.88    1.58
   3   8   5   20.62    1.49
  -5   5   0   59.72    2.99
   5  -5   0   70.57    3.93
   5  -5   0   67.81    3.74
   5  -5   0   68.17    3.23
   5  -5   0   73.29    3.46
  -5   5   0   75.81    3.24
  -1   4  10   17.18    1.71
  -1   4  10   17.96    1.60
   1  -4 -10   16.85    1.40
   1  -4 -10   16.40    1.95
  -1   4  10   16.18    1.62
   1  -4 -10   20.65    1.62
   1  -4 -10   16.81    1.81
  -2  -3 -11   78.77    4.21
  -2  -3 -11   95.31    4.21
   2   3  11   88.52    4.66
   2   3  11   99.31    4.58
   2   3  11   98.06    4.35
   4  -6   2   41.14    3.08
  -4   6  -2   45.03    2.33
  -4   6  -2   41.71    2.31
   4  -6   2   44.04    2.62
   4  -6   2   45.89    2.29
  -4   6  -2   44.59    3.02
  -4   6  -2   43.85    2.87
  -4   6  -2   45.08    2.86
   0   8   8    0.74    1.02
   0  -8  -8    0.41    1.04
   0   8   8    0.10    1.73
   0   8   8    0.23    1.52
   0  -8  -8    1.13    0.91
  -4   3  -7   55.20    1.82
   4  -3   7   57.32    2.69
  -4   3  -7   58.48    2.39
   4  -3   7   55.93    2.75
   4  -3   7   53.27    3.24
  -4   3  -7   56.51    2.50
  -4   3  -7   56.40    2.16
  -4   3  -7   50.03    2.73
  -1   7  -3   35.96    2.09
  -1   7  -3   40.53    1.83
  -1   7  -3   28.80    1.99
  -1   7  -3   32.52    2.30
   2   4  11  192.83    8.91
  -2  -4 -11  190.22    9.11
  -2  -4 -11  191.52    9.09
   2   4  11  183.59    8.93
   6   3   4  135.05    5.77
   6   3   4  120.62    5.73
   6   3   4  115.07    5.58
   5  -5  -1   80.19    3.74
  -5   5   1   77.63    3.65
   5  -5  -1   70.31    3.97
   5  -5  -1   73.23    3.49
   5  -5  -1   73.64    4.13
  -5   5   1   67.76    4.10
  -1  -6   4   76.36    4.36
   1   6  -4   76.77    3.71
   1   6  -4   78.22    4.27
  -2  -8  -8  120.93    5.52
   2   8   8  122.52    5.84
   2   8   8  124.10    5.65
  -2  -8  -8  117.75    5.61
  -2  -8  -8  119.96    5.60
   2   8   8  120.70    5.74
  -4  -2 -10   23.19    1.53
   4   2  10   21.37    1.49
  -4  -2 -10   16.20    1.18
   4   2  10   16.16    1.27
   4   2  10   20.04    1.70
   3   8   4   31.96    2.14
   3   8   4   36.33    2.23
   3   8   4   37.42    2.09
   3   8   4   33.95    2.48
  -3   3   8   40.27    2.36
   3  -3  -8   41.24    2.63
   3  -3  -8   38.08    2.37
  -3   3   8   37.20    2.47
   3  -3  -8   39.99    2.64
   3   8   6   37.23    2.26
   3   8   6   37.64    2.36
  -3  -8  -6   39.08    2.31
   3   8   6   40.30    2.24
  -2   5  -6  115.30    4.73
  -2   5  -6  103.96    5.34
   2  -5   6  107.47    5.58
  -2   5  -6   99.99    4.79
   1   3  11  202.52    8.87
   1   3  11  208.95    8.76
   1   3  11  213.79    8.95
  -1  -3 -11  214.32    8.92
  -1  -3 -11  193.36    8.86
  -1  -3 -11  189.04    8.77
  -1  -3 -11  190.41    8.86
   1   4  11   29.61    1.89
   1   4  11   21.52    1.87
  -1  -4 -11   28.43    1.88
   1   4  11   25.79    1.89
  -1  -4 -11   25.45    2.01
   2  -2   9   70.88    3.33
  -2   2  -9   57.77    2.77
   2  -2   9   60.45    3.69
  -2   2  -9   44.89    2.64
  -4   2  -8   91.87    4.54
  -4   2  -8   96.41    4.26
   4  -2   8   80.37    3.97
   4  -2   8   98.73    4.10
  -4   2  -8   85.60    4.52
   4  -2   8   85.83    4.47
  -6   2  -3  135.29    6.64
  -6   2  -3  131.89    6.19
   6  -2   3  142.93    6.38
   6  -2   3  143.30    6.79
   6  -2   3  149.01    6.47
   6  -2   3  134.79    6.52
  -6   2  -3  141.32    6.28
  -6   2  -3  132.66    6.02
   5  -5   1  115.02    5.44
  -5   5  -1  120.70    5.73
   5  -5   1  132.02    5.89
  -5   5  -1  138.08    5.82
   5  -5   1  130.52    6.06
   5  -5   1  135.58    5.63
   0   4  -7   -0.39    1.21
   0   4  -7   -0.49    0.99
   2   1  -8   35.31    2.21
   2   1  -8   28.28    1.91
   2   1  -8   35.08    1.97
  -2  -1   8   27.28    2.35
  -2  -1   8   26.55    1.78
   2   1  -8   37.23    2.20
   2   1  -8   27.70    2.06
  -1   2  -9    0.84    1.01
  -1   2  -9    1.42    1.02
   1  -2   9    1.05    1.01
   1  -2   9    0.59    1.56
  -1   2  -9    0.53    1.09
   4   4  10   94.60    3.86
  -4  -4 -10   97.40    4.58
  -4  -4 -10   94.50    4.58
   4   4  10   91.61    3.64
   4   4  10   98.39    3.79
  -4  -4 -10   94.78    4.41
   2   8   1  189.11    8.25
  -2  -8  -1  165.35    7.51
   2   8   1  180.39    8.22
   2   8   1  171.76    8.55
   6   1   6   85.73    4.03
  -6  -1  -6  104.02    4.71
   6   1   6  105.65    4.35
  -6  -1  -6   98.72    4.78
   6   3   3  153.94    7.18
   6   3   3  151.51    7.32
   6   3   3  171.51    7.29
   5  -3  -4  141.11    6.55
   5  -3  -4  131.72    6.78
  -5   3   4  151.39    7.12
   5  -3  -4  150.50    6.64
  -3   0 -10    1.48    0.99
   3   0  10    0.82    1.51
   3   0  10    1.46    1.01
  -3   0 -10    1.57    1.01
   6   3   5  160.72    7.55
   6   3   5  161.98    7.56
  -6  -3  -5  176.85    7.98
   6   3   5  174.35    7.58
   6   3   5  164.10    7.41
  -1   2  10    1.55    1.17
   1  -2 -10    0.61    1.50
  -1   2  10    1.19    1.20
   6   2   6   17.16    1.42
  -6  -2  -6   16.89    1.38
   6   2   6   15.36    1.13
   6   2   6   18.66    1.74
  -5   4  -4   44.94    2.39
  -5   4  -4   38.84    2.70
   5  -4   4   34.07    1.53
   5  -4   4   29.89    1.51
   3  -2  -8   38.21    2.55
   3  -2  -8   49.60    2.77
   3  -2  -8   49.22    2.77
  -3   2   8   47.49    2.63
  -3   2   8   39.81    2.50
   6   2   1  185.60    8.49
   6   2   1  196.40    8.75
  -6  -2  -1  188.31    8.44
  -6  -2  -1  190.67    8.72
  -2   8   0   65.56    2.87
  -2   8   0   66.81    3.18
  -2   8   0   69.27    3.34
  -2   8   0   68.48    3.03
   2  -8   0   68.75    3.82
   2  -8   0   66.66    3.35
  -2   8   0   67.25    3.57
   0   7  -3    0.94    0.82
   0   7  -3    2.47    1.16
   0   7  -3    1.13    1.17
   0   7  -3   -0.52    1.84
   4   7   3   80.78    3.80
   4   7   3   74.16    3.75
   4   7   3   69.75    3.84
  -3  -6 -10   12.58    1.33
  -3  -6 -10   13.41    1.42
   3   6  10    9.61    1.48
   3   6  10   11.78    1.45
   6   1   0  164.31    7.36
  -6  -1   0  163.49    7.49
  -6  -1   0  169.73    7.77
   6   1   0  158.46    7.27
  -6   2   0   48.25    2.82
   6  -2   0   45.13    2.49
   6  -2   0   47.90    2.56
  -6   2   0   48.40    3.13
   6  -2   0   48.28    2.81
  -3  -7  -9   17.08    1.50
  -3  -7  -9   17.05    1.58
   3   7   9   14.69    1.58
   3   7   9   11.44    1.44
   0   9   4   31.89    1.71
   0   9   4   27.04    1.71
   0  -9  -4   29.78    2.56
   0   9   4   28.56    2.07
   0  -9  -4   28.92    1.97
  -4  -7  -7    1.49    1.13
  -4  -7  -7    2.51    1.13
   4   7   7    2.93    1.19
   4   7   7    1.29    1.30
   3   7   0    3.54    1.66
  -3  -7   0    4.41    0.94
  -3  -7   0    2.22    1.72
  -3   6  -4   74.64    3.95
  -3   6  -4   73.54    3.39
  -3   6  -4   69.27    3.80
  -3   6  -4   63.42    3.71
   0   3  -8   42.11    2.29
   0   3  -8   39.97    2.30
   0  -3   8   44.08    2.35
   0  -3   8   41.86    2.91
  -2  -2 -11   71.03    3.47
  -2  -2 -11   55.66    3.01
  -2  -2 -11   69.30    3.30
   2   2  11   86.46    3.56
   2   2  11   84.26    3.81
   4   3  -4  209.03    9.44
  -4  -3   4  191.39    8.94
   4   3  -4  204.48    9.36
  -4   4  -6  103.36    5.15
  -4   4  -6  111.46    4.88
  -4   4  -6  125.27    4.94
   4  -4   6  113.64    4.65
   4  -4   6   94.63    4.41
  -4   4  -6  113.47    5.11
  -4   4  -6   91.96    4.51
  -2   5   9    3.82    1.55
   2  -5  -9    8.58    1.34
   2  -5  -9    4.63    1.89
   2  -5  -9    3.11    1.82
  -2   5   9    6.54    1.30
   3  -4  -8    7.49    1.62
   3  -4  -8    8.50    1.96
   3  -4  -8    7.54    1.01
   3  -4  -8    6.43    1.93
   3  -4  -8   11.27    1.44
  -3   4   8    7.70    1.69
   3  -4  -8    9.21    1.82
  -3   4   8    9.89    1.34
   4   0  -6   61.89    3.33
   4   0  -6   67.39    3.40
   4   0  -6   61.68    3.39
   4   0  -6   64.55    3.37
  -4   0   6   66.38    3.54
   0   5  -6   11.49    1.34
   0   5  -6   11.14    1.12
   0  -9  -5   94.90    4.30
   0  -9  -5   90.19    4.82
   0   9   5  103.14    4.56
   0   9   5   86.14    4.76
   0  -9  -5   86.00    4.40
  -6   1  -5   23.76    1.63
  -6   1  -5   30.75    2.66
  -6   1  -5   30.61    1.80
   6  -1   5   32.77    2.22
  -6   1  -5   28.10    1.61
   6  -1   5   31.83    2.03
  -6   1  -5   28.11    1.84
   6  -1   5   27.11    1.75
   4   4  -3  188.07    8.54
  -4  -4   3  184.49    8.61
  -3  -1   7   40.12    2.35
   3   1  -7   36.66    2.49
   3   1  -7   39.63    2.33
   3   1  -7   38.30    2.27
  -3  -1   7   42.78    2.82
   3   1  -7   34.51    2.13
   3  -6  -7  152.56    7.28
  -3   6   7  152.43    7.29
  -3   6   7  160.78    7.16
   3  -6  -7  153.15    7.09
   3  -6  -7  157.09    7.45
  -3   6   7  153.06    7.23
   3  -6  -7  157.28    7.22
   3  -6  -7  153.06    7.38
  -4  -6   0  145.45    6.97
  -5   0   4   27.84    2.03
   5   0  -4   28.69    2.19
   5   0  -4   26.49    1.95
   5   0  -4   25.40    1.91
   5  -5  -2   52.93    3.71
   5  -5  -2   57.78    3.68
  -5   5   2   60.26    3.05
   5  -5  -2   59.90    3.52
  -5   5   2   56.07    3.52
   5  -5  -2   68.73    3.08
   1  -5 -10   28.17    2.33
   1  -5 -10   28.25    2.23
  -1   5  10   31.84    2.02
  -1   5  10   28.46    2.07
   1  -5 -10   32.62    2.04
  -1   5  10   23.98    2.10
  -2   1   9    1.93    1.23
   2  -1  -9    0.36    1.38
   2  -1  -9   -0.39    1.53
  -1   8  -1   49.43    2.85
  -1   8  -1   46.50    2.94
   1  -8   1   46.42    2.86
  -1   8  -1   56.21    2.52
  -1   8  -1   53.40    2.84
  -1   8  -1   52.73    2.49
   4   6   9   55.44    3.05
   4   6   9   60.30    3.12
  -4  -6  -9   55.16    2.77
  -4  -6  -9   52.77    2.81
   1   9   5   45.95    2.52
  -1  -9  -5   56.51    3.47
   3   6  -2   24.89    1.71
  -3  -6   2   24.35    2.30
   3   6  -2   26.29    2.25
   0  -8   1    5.13    1.52
   0   8  -1    2.45    1.87
   0   8  -1    1.37    0.82
   0   8  -1    4.29    1.24
   0  -9  -3   40.13    2.58
   0   9   3   29.12    2.57
   0   9   3   34.16    2.11
   0   9   3   22.88    1.66
   0   9   3   28.99    1.68
   0  -9  -3   29.73    2.08
   0   0  10  330.28   15.11
   0   0 -10  317.12   14.24
   0   0  10  335.18   14.83
   0   0 -10  324.96   14.28
   1   9   4  256.63   11.58
   1   9   4  273.18   11.54
  -1  -9  -4  250.26   11.62
   1   9   4  237.80   11.91
  -1  -9  -4  273.39   11.77
  -2  -5 -11    6.07    1.30
   2   5  11    6.08    1.26
   2   5  11    6.16    1.35
   2   5  11    6.82    1.38
  -2  -5 -11    5.88    1.30
   1   2  11  476.82   19.24
   1   2  11  493.77   19.42
  -1  -2 -11  473.68   20.23
  -1  -2 -11  454.53   20.17
  -1  -2 -11  465.74   20.24
  -1  -2 -11  447.79   20.09
   3  -3   8   57.90    2.84
  -3   3  -8   70.32    2.96
   3  -3   8   58.23    3.48
  -3   3  -8   57.68    3.44
  -3   3  -8   53.63    2.95
  -3   3  -8   71.21    3.44
   5   2   9  124.90    5.85
   5   2   9  123.54    5.69
  -5  -2  -9  126.51    5.86
   5   2   9  120.49    5.63
  -5  -5  -1   18.83    1.76
   5   5   1   19.14    1.51
   5   5   1   15.26    1.39
  -5  -3  -9    3.16    1.12
   5   3   9    4.41    0.96
   5   3   9    4.55    1.00
   5   3   9    2.85    1.13
   3   8   3    9.12    1.26
   3   8   3    7.23    1.42
   3   8   3    9.51    1.34
   3   8   3    4.64    1.72
  -3  -8  -7   20.98    1.64
   3   8   7   21.25    1.58
   3   8   7   19.73    1.72
   3   8   7   15.59    1.57
  -3  -8  -7   19.23    1.55
   1   5  11    0.96    1.38
  -1  -5 -11    0.88    1.43
   1   5  11    0.16    1.33
  -2   8   6   55.78    2.96
   2  -8  -6   51.18    2.43
   2  -8  -6   51.22    2.87
   2  -8  -6   59.76    3.36
  -2   8   6   56.96    3.25
  -2   8   6   44.34    2.57
   2  -8  -6   45.63    2.61
  -2   7  -3   85.97    3.19
  -2   7  -3   77.14    3.14
  -2   7  -3   57.16    2.73
  -2   7  -3   86.73    3.90
  -2   7  -3   57.34    2.72
  -2   7  -3   77.81    3.50
   6   0   6   36.33    2.26
  -6   0  -6   31.18    1.85
   6   0   6   37.78    2.30
   6   0   6   32.43    1.98
  -6   0  -6   35.78    2.11
  -3   4  -7   24.52    2.15
  -3   4  -7   26.26    2.25
  -3   4  -7   28.32    1.96
   3  -4   7   23.79    2.26
  -3   4  -7   26.45    1.39
  -3   4  -7   20.71    1.34
   3  -4   7   23.91    1.38
   5   5   8  362.65   16.16
   5   5   8  365.98   16.06
  -5  -5  -8  384.84   16.95
   5   6   5   28.33    1.88
   5   6   5   30.43    1.90
   5   6   5   29.54    1.80
   3  -7   2   30.65    1.81
  -3   7  -2   31.09    2.70
   3  -7   2   29.08    2.64
  -3   7  -2   33.33    2.49
  -3   7  -2   32.53    2.10
  -3   7  -2   33.06    2.46
  -3   7  -2   32.97    2.00
   6   3   2   76.90    3.81
   6   3   2   82.74    4.08
  -6  -3  -2   87.29    4.10
  -6  -3  -2   73.06    3.58
  -5   5  -2   83.66    3.78
  -5   5  -2   73.63    4.21
   5  -5   2   39.82    1.97
   5  -5   2   43.03    1.96
  -5   5  -2   79.49    3.78
  -5   5  -2   79.74    4.49
  -6   1   1   31.52    2.22
   6  -1  -1   29.60    1.86
   6  -1  -1   28.02    1.87
  -6   1   1   30.34    2.50
   6  -1  -1   29.47    1.70
   6  -1  -1   28.95    1.98
   5   3  -2   85.86    4.36
  -5  -3   2   80.40    3.96
  -5  -3   2   90.54    4.30
  -3  -3 -11   51.12    2.93
   3   3  11   46.61    2.96
   3   3  11   53.08    2.79
  -3  -3 -11   56.67    2.86
  -3  -3 -11   51.72    2.72
   3   3  11   57.85    2.91
   3   3  11   59.74    3.06
  -1   6  -5  101.48    4.77
  -1   6  -5  105.54    4.53
  -1   6  -5   92.27    4.60
  -1   6  -5   93.41    4.51
  -1   6  -5  100.88    5.21
   1  -6   5  103.04    5.42
   6   3   6  120.47    5.31
   6   3   6  110.91    5.09
   6   3   6  116.49    5.37
   6   3   6  101.55    5.26
  -6  -3  -6  117.30    5.44
  -4  -1 -10   56.95    3.00
   4   1  10   61.25    3.11
  -4  -1 -10   61.18    2.79
   4   1  10   60.93    3.33
  -1  -7 -10  200.05    8.82
   1   7  10  204.70    9.14
   1   7  10  204.61    8.98
   1   7  10  196.81    9.15
   1   7  10  193.63    9.10
  -1  -7 -10  187.21    8.78
  -4   1  -9   63.56    2.19
   4  -1   9   63.02    3.04
  -4   1  -9   35.14    1.81
   4  -1   9   57.75    3.38
  -6   2  -4   35.64    2.11
  -6   2  -4   35.78    2.88
  -6   2  -4   34.27    2.17
   6  -2   4   28.98    1.60
   6  -2   4   41.10    2.45
  -6   2  -4   40.28    2.32
   6  -2   4   37.89    1.87
  -6   2  -4   37.99    1.93
   6  -2   4   37.95    2.12
   1   1  -9  239.90   10.38
   1   1  -9  209.75   10.36
   1   1  -9  235.51   10.23
   1   1  -9  234.95   10.40
  -1  -1   9  253.21   11.36
  -5   2  -7   82.51    4.09
   5  -2   7   95.94    4.41
  -5   2  -7   89.21    4.16
  -5   2  -7   72.94    4.50
  -4  -2   5  207.90    9.64
   4   2  -5  168.25    7.84
   5   6   4    1.48    1.10
   5   6   4    1.42    1.11
   5   6   4    0.55    1.14
  -3  -4 -11  116.29    6.00
  -3  -4 -11  139.09    6.06
   3   4  11  138.74    6.06
   3   4  11  122.58    6.10
   3   4  11  131.43    6.15
  -3  -4 -11  132.45    5.92
  -1  -9  -6   86.47    4.18
   1   9   6   80.18    3.89
  -1   7   9    7.49    1.80
  -1   7   9   13.48    1.40
   1  -7  -9   12.02    1.33
   6   0  -1  172.26    7.60
   6   0  -1  166.98    7.50
   6   0  -1  160.98    7.58
  -6   0   1  161.94    7.58
  -6   0   1  168.34    7.72
   3  -7  -6   39.02    2.29
   3  -7  -6   29.41    1.47
  -3   7   6   40.21    2.15
   3  -7  -6   28.71    2.64
  -3   7   6   33.53    2.40
   5   6   6    3.18    1.05
   5   6   6    2.92    1.16
  -3   1   8   43.93    2.59
   3  -1  -8   41.28    2.51
   3  -1  -8   40.27    2.50
  -5  -2   3   27.90    1.84
   5   2  -3   25.33    1.82
  -5  -2   3   24.56    2.09
   0   9   6  170.40    7.44
   0  -9  -6  154.31    7.35
   0   9   6  168.26    7.57
   0   9   6  152.40    7.90
   0  -9  -6  160.76    7.25
   0  -9  -6  166.88    7.65
   1   9   3   82.87    4.27
   1   9   3   84.83    4.09
   1   9   3   87.72    4.67
  -1  -9  -3   92.35    4.59
   1   9   3   87.62    4.07
  -1  -9  -3   85.89    4.33
   2   7  10   82.75    3.97
   2   7  10   71.87    3.98
  -2  -7 -10   78.62    3.82
  -2  -7 -10   74.67    3.83
   2   7  10   78.91    3.91
   4   5  10  107.44    5.16
   4   5  10  110.51    5.31
   4   5  10  117.52    5.38
   4   5  10  116.32    5.27
  -4  -5 -10  110.47    5.58
  -4  -5 -10  123.84    5.55
  -4  -5 -10  120.52    5.43
   5  -3   6   66.20    3.05
  -5   3  -6   56.54    3.77
   5  -3   6   64.28    3.30
  -5   3  -6   65.00    3.36
  -3   2  -9  125.38    6.10
   3  -2   9  145.44    6.37
  -3   2  -9  122.57    5.78
   3  -2   9  127.38    6.70
  -3   2  -9  124.90    6.12
  -3   2  -9  141.28    5.86
   4  -5  -6  161.45    7.39
  -4   5   6  144.75    7.02
  -4   5   6  165.10    7.14
   4  -5  -6  163.60    7.41
   4  -5  -6  143.81    7.09
   4  -5  -6  152.77    7.18
  -1   9   4   26.79    2.28
   1  -9  -4   32.10    2.69
  -1   9   4   31.14    1.76
  -1   9   4   34.38    2.26
   1  -9  -4   33.11    1.84
   1  -9  -4   31.52    2.10
   6  -2  -1    2.05    1.08
   6  -2  -1    0.36    1.57
  -6   2   1   -0.08    1.49
  -6   2   1    2.88    1.96
   6  -2  -1    2.86    0.84
   6  -2  -1    1.65    1.11
   6  -3   1  126.39    5.91
   6  -3   1  114.09    5.42
   6  -3   1  126.95    5.77
   6  -3   1  125.29    5.49
  -6   3  -1  118.01    5.81
   6  -3   1  110.96    5.45
  -6   3  -1  125.33    6.11
   5   1   9   87.28    4.11
   5   1   9   79.74    4.11
   5   1   9   88.62    4.30
  -5  -1  -9   94.41    4.34
  -5  -1  -9   87.51    4.46
   1   8   9   41.27    2.48
  -1  -8  -9   39.20    2.10
  -1  -8  -9   33.50    2.21
   1   8   9   41.82    2.65
  -1  -8  -9   39.95    2.37
   1   8   9   33.01    2.22
  -4   6   5   26.53    1.79
  -4   6   5   34.43    2.13
   4  -6  -5   25.53    1.79
   4  -6  -5   32.55    2.19
   4  -6  -5   34.49    2.70
  -5  -4   1   68.14    3.08
   5   4  -1   60.83    3.33
  -5  -4   1   50.98    3.27
   5   4   9   78.57    3.83
  -5  -4  -9   72.74    3.73
   5   4   9   76.90    3.65
   5   4   9   73.24    3.55
  -5  -4  -9   77.19    3.60
  -5  -4  -9   81.25    3.86
   4   5  -2   80.37    3.79
  -4  -5   2   77.41    4.19
   4   5  -2   70.85    3.89
  -1   9   3   -0.87    0.82
   1  -9  -3    0.24    1.21
  -1   9   3    1.12    1.55
   1  -9  -3   -0.47    1.92
  -1   9   3    1.50    1.39
  -1   9   3    1.21    0.82
   5  -4  -4   53.06    2.94
   5  -4  -4   51.58    2.42
   5  -4  -4   56.91    3.43
  -5   4   4   54.17    3.28
   5  -4  -4   50.94    3.32
   5  -4  -4   51.72    2.74
   1  -1 -10   10.56    1.62
   1  -1 -10   15.24    1.58
  -1   1  10   13.68    1.46
   0  -9  -2   20.05    1.72
   0   9   2   20.80    1.44
   0  -9  -2   27.55    2.23
   0   9   2   21.64    2.34
   0   9   2   20.63    1.73
   0   9   2   15.34    1.29
   0  -2   9   64.93    3.28
   0   2  -9   65.06    3.24
   0  -2   9   62.94    3.78
   0   2  -9   58.77    3.18
   0   2  -9   64.74    3.26
   3   2  11    4.81    1.15
   3   2  11    4.85    1.51
   3   2  11    5.27    1.08
  -3  -2 -11    3.97    1.15
  -3  -2 -11    4.29    1.19
  -2   6  -5  117.87    5.91
  -2   6  -5  130.08    5.48
   2  -6   5  132.63    6.57
  -2   6  -5  129.49    5.64
  -2   6  -5  109.51    5.52
  -2   6  -5  136.72    6.23
   0   4  11    5.52    1.36
   0   4  11    3.78    1.37
   0  -4 -11    4.18    1.51
   0  -4 -11    2.70    1.56
   0   4  11    4.06    1.38
   4   7   2   23.18    1.98
   4   7   2   27.12    1.89
   4   7   2   25.38    1.85
   0   3  11    0.39    1.22
   0  -3 -11    2.16    1.46
   0  -3 -11   -0.26    1.32
   0  -3 -11    2.16    1.31
   0   3  11    3.07    1.25
   0  -3 -11    4.92    1.56
   0   3  11    4.01    1.28
   0   3  11    3.44    1.21
   6  -3   2   92.11    5.00
   6  -3   2  102.71    4.59
   6  -3   2   98.10    4.88
  -6   3  -2   90.80    4.92
   6  -3   2  103.66    4.54
   6  -3   2   91.75    4.64
  -2   1 -10    0.49    1.50
   2  -1  10    0.99    1.66
   2  -1  10    0.78    1.02
  -2   1 -10    0.63    1.05
  -2   1 -10   -0.24    0.89
  -2   1 -10   -0.44    1.08
  -5   1  -8   64.70    2.95
  -5   1  -8   79.88    2.67
   5  -1   8   74.84    3.33
  -5   1  -8   63.29    2.74
   5  -1   8   63.37    3.57
   5  -1   8   63.24    3.56
   2  -7  -8  204.32    9.15
   2  -7  -8  193.42    8.99
   2  -7  -8  198.24    9.32
  -2   7   8  199.84    8.91
  -2   7   8  192.35    9.06
   2  -7  -8  204.79    9.36
  -4   6  -3    1.94    1.66
  -4   6  -3    3.15    1.15
  -4   6  -3    2.38    1.01
  -4   6  -3    3.33    1.86
  -4   6  -3    0.61    1.68
   4  -6   3    1.92    0.88
  -2  -4   6   90.29    4.82
   2   4  -6   88.23    4.15
   2   4  -6   81.12    4.17
   4   7   8    0.23    1.22
  -4  -7  -8    0.03    1.13
  -4  -7  -8   -0.53    1.22
  -4  -7  -8    0.15    1.09
   4   7   8    0.77    1.30
   3  -5  -8   29.46    2.67
  -3   5   8   28.36    2.24
  -3   5   8   30.23    2.37
   3  -5  -8   32.42    2.78
   3  -5  -8   32.22    2.46
   3  -5  -8   31.51    2.51
   4  -7  -2   60.29    3.22
  -4   7   2   62.13    2.86
   4  -7  -2   55.36    3.78
   4  -7  -2   66.44    2.92
  -4   7   2   60.44    2.63
   4  -7  -2   56.89    3.47
  -4   7   2   62.14    3.09
  -4   7   2   58.43    2.16
   4  -7  -1   82.50    3.63
  -4   7   1   88.89    4.37
   4  -7  -1   78.74    4.51
  -4   7   1   86.90    4.58
   4  -7  -1   77.29    4.18
  -4   7   1   86.37    4.20
  -4   7   1   81.05    4.65
   6   2   7   49.90    2.30
  -6  -2  -7   42.53    2.30
   6   2   7   35.19    1.97
   0   6  -5    1.92    1.16
   0   6  -5    3.09    1.14
  -6  -2   0  109.57    5.32
  -6  -2   0  108.57    5.13
   6   2   0  107.67    5.22
   6   2   0  102.68    4.89
  -1   8   8  146.98    6.71
  -1   8   8  147.86    7.21
   1  -8  -8  172.55    7.13
   1  -8  -8  145.70    6.90
  -1   8   8  140.98    7.17
  -1   9   5   34.13    2.11
  -1   9   5   43.47    2.94
   1  -9  -5   49.60    2.96
  -1   9   5   43.41    2.60
  -1   9   5   45.57    2.71
   1  -9  -5   40.40    2.30
  -3   8   2   47.99    2.85
  -3   8   2   44.21    2.16
  -3   8   2   41.26    3.02
  -3   8   2   44.66    3.06
  -3   8   2   50.70    2.67
   3  -8  -2   48.80    2.68
   3  -8  -2   47.73    3.33
   3  -8  -2   49.10    2.30
  -3   5  -6    2.34    1.33
  -3   5  -6    1.66    0.75
  -3   5  -6    3.02    1.76
  -3   5  -6   -0.06    0.44
  -3   5  -6    2.76    1.69
   3  -5   6    2.02    1.73
  -2  -7   2   32.00    2.69
   2   7  -2   31.48    2.13
   2   7  -2   34.76    2.63
   2   7  -2   32.85    1.93
   6  -3   0   27.52    2.28
   6  -3   0   31.48    1.97
  -6   3   0   28.15    2.23
   6  -3   0   27.79    2.57
  -6   3   0   27.11    2.56
   6  -3   0   30.73    1.81
  -4   5  -5    0.28    1.15
   4  -5   5    2.49    1.14
  -4   5  -5   -0.81    1.79
  -4   5  -5    1.18    1.53
  -4   5  -5   -0.46    1.37
   2   1  11  109.79    4.27
  -2  -1 -11   96.46    4.17
  -2  -1 -11  101.01    4.42
   2   1  11  109.54    4.64
  -1   1 -10   35.82    2.17
  -1   1 -10   45.41    2.22
   1  -1  10   46.35    3.06
   1  -1  10   46.30    2.57
  -1   1 -10   30.05    2.04
  -1   1 -10   38.11    2.44
   5   6   3    1.27    1.12
   5   6   3    3.38    1.19
   5   6   3    2.50    1.20
   5  -5  -3   10.52    1.89
   5  -5  -3   10.02    2.10
   5  -5  -3   11.40    1.55
  -5   5   3    7.12    2.03
   5  -5  -3    8.61    2.12
  -5   5   3    8.65    1.38
   5  -5  -3    8.82    1.15
   3  -8  -3   53.74    4.03
  -3   8   3   47.80    3.29
   3  -8  -3   61.66    3.55
  -3   8   3   50.64    3.06
  -3   8   3   44.10    2.35
  -3   8   3   50.67    3.25
  -3   8   3   59.48    2.91
   6   4   4  248.94   10.76
   6   4   4  220.94   10.61
   6   4   4  231.48   10.75
   6   4   4  266.41   10.75
   6   4   4  234.30   10.64
   6   1   7   89.43    3.23
   6   1   7   99.87    3.52
  -6  -1  -7   96.69    4.56
  -6  -1  -7   93.61    4.44
   6   4   5  292.57   13.56
   6   4   5  338.93   13.71
  -6  -4  -5  311.61   13.82
   6   4   5  285.18   13.68
   6   4   5  320.74   13.69
   2   8   9  203.98   10.32
   2   8   9  235.65   10.15
   2   8   9  236.10   10.27
  -2  -8  -9  227.93   10.08
  -2  -8  -9  227.48   10.18
  -2  -8  -9  221.20   10.15
   2   8   9  227.50   10.31
   3   5  11  170.23    7.75
   3   5  11  175.63    7.80
  -3  -5 -11  162.54    7.53
   3   5  11  163.84    7.77
  -3  -5 -11  166.15    7.59
  -3  -5 -11  172.19    7.64
  -2   8  -1  108.88    3.64
  -2   8  -1   62.97    3.04
  -2   8  -1  110.33    4.44
  -2   8  -1   65.74    3.04
   2  -8   1   94.79    5.16
  -2   8  -1   98.56    3.89
  -2   8  -1   99.03    3.71
   2  -8   1  106.53    4.85
   5   6   7   13.13    1.60
   5   6   7   15.04    1.39
   5   6   7   16.87    1.70
   5   6   7   17.08    1.53
   3   8   2    8.47    1.39
   3   8   2    8.42    1.32
   3   8   2    7.19    1.75
   3   8   2    8.33    1.25
   1   8  -1   51.17    3.23
   1   8  -1   47.03    2.69
  -1  -8   1   51.14    2.76
   1   7  -3   16.07    1.30
   1   7  -3   17.33    1.57
  -1  -7   3   17.59    2.30
   1   7  -3   16.69    2.18
   2   3  -7   56.98    2.24
   2   3  -7   65.31    2.20
  -2  -3   7   65.18    3.84
   2   5  -5   94.91    5.19
   2   5  -5  107.93    4.91
  -2  -5   5   95.02    5.03
   3   8   8   42.53    2.75
  -3  -8  -8   46.54    2.71
  -3  -8  -8   56.90    2.78
   3   8   8   43.46    2.61
  -3  -8  -8   47.91    2.68
  -1  -9  -7   61.91    3.14
   1   9   7   65.77    3.06
  -1  -9  -7   61.99    3.17
   1   9   7   52.81    3.25
   1   9   7   54.50    2.89
  -1   9   2    0.83    0.88
   1  -9  -2   -0.21    1.90
  -1   9   2    0.29    1.53
  -1   9   2    0.99    1.34
  -1   9   2    2.25    0.79
   1  -9  -2    1.80    1.19
   0   7  10   66.18    3.63
   0   7  10   67.25    3.79
   0  -7 -10   71.51    3.70
   0   7  10   70.99    3.41
   0   7  10   76.35    3.74
   0  -7 -10   71.58    3.35
   0  -7 -10   64.19    3.54
  -6  -1   1  142.71    6.57
   6   1  -1  143.26    6.39
  -6  -1   1  140.89    6.70
   6   1  -1  133.49    6.28
   2   9   5   17.47    1.49
   2   9   5   17.13    2.12
   2   9   5   19.72    1.42
   2   9   5   16.48    1.75
  -1  -1 -11  301.50   13.47
   1   1  11  311.06   12.53
   1   1  11  332.15   12.85
  -1  -1 -11  306.09   13.41
  -1  -1 -11  295.81   13.36
  -6  -3  -1   54.38    2.92
  -6  -3  -1   63.15    3.30
   6   3   1   56.05    3.02
   6   3   1   63.50    3.33
   2   8   0   51.02    2.89
  -2  -8   0   56.89    2.94
   2   8   0   52.47    3.26
  -3  -4   5   10.78    1.89
   3   4  -5   14.08    1.47
   3   4  -5    8.48    1.48
   5   1  -4    3.53    1.41
  -5  -1   4    3.50    1.38
   5   1  -4    3.55    1.27
  -5  -1   4    4.41    1.52
   4  -7  -3   50.27    3.43
   4  -7  -3   56.66    3.25
  -4   7   3   59.25    3.23
  -4   7   3   63.81    2.91
  -4   7   3   55.02    3.39
   4  -7  -3   48.70    3.67
  -4   7   0   37.64    2.90
  -4   7   0   41.97    2.36
  -4   7   0   38.08    2.08
   4  -7   0   38.79    2.95
  -4   7   0   41.74    2.88
  -4   7   0   42.12    2.57
   4  -7   0   36.03    2.09
  -3   8   1  135.01    4.73
  -3   8   1  140.33    5.29
  -3   8   1  136.75    5.54
  -3   8   1  148.73    5.21
   3  -8  -1  154.86    6.81
  -3   8   1  144.13    5.56
   3  -8  -1  136.21    7.20
   2  -6  -9    0.37    0.76
   2  -6  -9    0.99    1.97
   2  -6  -9    2.22    1.90
  -2   6   9   -0.10    1.17
  -2   6   9    0.52    1.56
   2  -6  -9    0.64    1.17
   0  -5 -11    0.74    1.55
   0   5  11   -0.01    1.37
   0  -5 -11    0.93    1.26
   0   5  11    2.36    1.48
   0  -5 -11    2.73    1.61
   0  -5 -11    1.03    1.11
  -1   6  10   61.91    3.28
   1  -6 -10   58.75    3.04
   1  -6 -10   68.53    3.66
   1  -6 -10   65.51    3.31
   1  -6 -10   65.64    3.49
  -1   6  10   59.90    3.19
  -1   6  10   58.74    3.37
   6  -3   3   51.97    2.92
  -6   3  -3   49.21    2.54
  -6   3  -3   49.28    2.81
   6  -3   3   53.23    2.43
  -6   3  -3   49.61    3.35
   6  -3   3   45.80    2.41
  -6   3  -3   49.17    2.38
   6  -3   3   54.07    3.09
   6  -3   3   49.42    2.67
   6  -3   3   47.41    2.47
   2   6  11    2.29    1.25
   2   6  11    4.57    1.41
  -2  -6 -11    2.41    1.23
  -2  -6 -11    3.91    1.32
   0   8   9    1.09    1.54
   0  -8  -9    2.33    0.96
   0  -8  -9    1.53    1.48
   0   8   9    1.87    0.97
   0  -8  -9    0.49    1.13
   0   8   9    0.84    1.58
   0   8   9    0.73    1.17
   0   8   9    2.35    1.85
   6  -1   6  100.15    4.55
  -6   1  -6   96.28    4.26
   6  -1   6   95.19    4.74
  -6   1  -6   86.19    4.35
  -6   1  -6   88.47    4.24
   6  -1   6   95.78    4.72
   6   3   7   19.44    1.53
   6   3   7   18.85    1.82
  -6  -3  -7   18.43    1.50
   6   3   7   14.65    1.27
   6   3   7   16.70    1.62
  -5   5  -3   72.97    4.14
  -5   5  -3   69.92    3.27
   5  -5   3   65.31    3.14
   5  -5   3   74.22    3.62
  -5   5  -3   65.15    3.83
  -1  -6 -11   84.27    4.17
   1   6  11   84.03    3.99
   1   6  11   87.78    4.15
  -1  -6 -11   85.14    4.16
  -1  -6 -11   80.07    3.96
   1   6  11   73.32    4.13
   1   9   2   54.58    3.09
   1   9   2   63.17    3.34
  -1  -9  -2   74.36    3.94
   1   9   2   70.21    3.15
   1   9   2   61.51    3.82
  -4   3   7   22.58    1.66
   4  -3  -7   21.01    1.93
   4  -3  -7   19.66    2.22
   4  -3  -7   22.73    1.74
   4  -3  -7   21.86    2.07
  -4   3   7   19.81    2.01
   0  -2 -11   23.05    1.97
   0   2  11   27.79    1.81
   0  -2 -11   28.20    1.92
   0  -2 -11   24.88    1.99
   0   2  11   20.45    1.66
   5  -4   5   86.89    4.07
  -5   4  -5  115.03    3.54
  -5   4  -5  119.95    3.97
   5  -4   5  121.95    4.53
  -2  -9  -6    0.10    1.30
   2   9   6   -0.05    1.12
   2   9   6    0.90    1.41
  -4   2   7    1.32    1.51
   4  -2  -7    4.09    1.27
  -4   2   7    1.78    1.17
   4  -2  -7    1.65    1.48
   4  -2  -7    1.89    1.74
   4  -2  -7    1.85    1.67
   6   4   3   86.76    4.40
   6   4   3   98.27    4.35
   6   4   3   84.88    4.22
   6   4   3   83.42    4.21
   2   9   4   27.84    1.79
   2   9   4   26.12    2.45
   2   9   4   28.68    1.84
   3  -8  -4   24.32    2.57
   3  -8  -4   19.09    1.34
  -3   8   4   20.01    1.83
  -3   8   4   19.38    1.34
  -3   8   4   20.82    2.04
   3  -8  -4   20.60    1.76
   0   9   7  153.03    7.00
   0  -9  -7  153.44    8.04
   0   9   7  139.62    7.47
   0  -9  -7  175.95    7.71
   0  -9  -7  170.77    7.63
  -6   2  -5   21.22    1.70
  -6   2  -5   22.22    1.80
   6  -2   5   20.05    2.08
   6  -2   5   30.88    1.61
  -6   2  -5   24.68    1.45
   6  -2   5   24.42    1.95
  -6   2  -5   25.41    1.71
   3   3  -6    7.85    1.65
  -3  -3   6    9.53    1.88
   3   3  -6   10.77    1.40
   6   4   6  215.35    9.57
   6   4   6  232.03    9.59
   6   4   6  205.02    9.38
  -6  -4  -6  224.36   10.06
   6   4   6  198.36    9.48
   4   1  -6   87.91    4.16
   4   1  -6   84.79    4.49
  -4  -1   6   89.11    4.66
  -2   0   9   18.97    1.64
   2   0  -9   12.20    1.68
   2   0  -9   11.88    1.48
  -2   0   9   18.38    2.08
   5  -2  -5  127.29    6.46
   5  -2  -5  142.25    6.34
   5  -2  -5  130.89    6.34
   5  -2  -5  138.87    6.47
   1   4  -7  140.69    5.00
   1   4  -7  139.01    4.61
   6  -3  -1   23.82    2.20
   6  -3  -1   18.48    2.56
  -6   3   1   21.21    2.36
  -6   3   1   23.38    2.10
   6  -3  -1   27.10    1.94
   6  -3  -1   22.06    2.45
  -1   9   6  100.75    5.47
   1  -9  -6  106.37    5.65
  -1   9   6  113.37    4.98
  -1   9   6  105.94    5.24
  -1   9   6   90.79    5.25
  -1   9   6  108.37    4.80
   1  -9  -6  111.10    5.27
   1  -9  -6  109.36    5.08
  -2   8   7   80.06    4.29
   2  -8  -7   72.44    3.67
  -2   8   7   78.64    4.04
  -2   8   7   76.08    3.78
   2  -8  -7   82.72    3.95
   2  -8  -7   75.00    3.49
  -3  -5   4   36.86    2.72
   3   5  -4   39.67    2.24
   3   5  -4   34.96    2.51
  -3   1 -10   47.66    1.85
   3  -1  10   49.74    3.09
   3  -1  10   52.74    2.72
  -3   1 -10   53.88    1.96
  -4   0 -10   77.68    3.39
   4   0  10   80.19    4.20
   4   0  10   81.70    3.93
  -4   0 -10   65.56    3.13
   5   5   0   33.74    2.11
  -5  -5   0   35.09    2.48
  -5  -5   0   36.99    2.15
   5   5   0   34.48    2.27
   6  -1  -2   80.80    3.76
   6  -1  -2   74.00    3.78
  -6   1   2   74.58    4.02
  -6   1   2   76.57    3.94
   6  -1  -2   71.55    3.57
   1   5  -6  101.10    3.78
  -1  -5   6   98.16    5.21
   1   5  -6  105.74    3.16
  -3  -1 -11    1.03    1.06
   3   1  11    2.46    1.59
   3   1  11    1.38    1.18
  -3  -1 -11    0.69    1.12
   6   0   7   57.96    3.00
   6   0   7   57.36    2.94
  -6   0  -7   54.76    2.97
   6   0   7   58.43    3.19
  -5   3   5   92.87    4.74
   5  -3  -5   82.89    4.23
   5  -3  -5   82.40    4.13
   5  -3  -5   88.79    4.41
   5  -3  -5   79.86    4.45
   0   9   1    4.99    2.11
   0   9   1    4.37    0.94
   0   9   1    5.83    1.42
   0   9   1    5.38    1.11
   0  -9  -1    7.92    1.83
   3   7  10   36.85    2.51
  -3  -7 -10   44.96    2.48
  -3  -7 -10   42.25    2.38
   3   7  10   42.47    2.48
  -3  -7 -10   40.27    2.33
   3   0  -8   38.36    2.34
  -3   0   8   48.44    3.02
   3   0  -8   35.89    2.28
   5   0   9   65.63    3.58
  -5   0  -9   71.61    3.37
   5   0   9   70.51    3.35
  -5   0  -9   64.00    3.58
   5   0   9   64.51    3.53
   5  -1  -5   66.75    3.58
   5  -1  -5   58.53    3.53
   5  -1  -5   66.59    3.47
   5  -1  -5   67.30    3.43
  -5  -5  -9  227.40   10.01
   5   5   9  209.08    9.76
   5   5   9  220.79    9.89
  -5  -5  -9  221.99   10.20
   5   5   9  228.46    9.91
   3   7  -1   33.06    2.56
  -3  -7   1   29.96    2.57
   4  -4  -7    2.02    1.93
   4  -4  -7    2.66    1.59
  -4   4   7    2.03    1.70
  -4   4   7    1.22    1.42
   4  -4  -7    3.76    1.26
  -4   4   7    2.86    1.20
   4  -4  -7    3.70    2.01
   4  -4  -7    2.61    1.81
   1   3  -8   85.46    3.75
   1   3  -8   72.97    3.76
   1   3  -8   69.12    3.44
  -1  -3   8   88.05    4.26
  -6   2   2   14.98    1.81
   6  -2  -2   11.16    2.18
   6  -2  -2   14.93    1.48
  -6   2   2   13.24    1.99
   6  -2  -2   13.67    1.38
   6  -2  -2   15.93    1.60
   6  -2  -2   15.56    1.21
   5   6   2   10.63    1.43
   5   6   2    9.87    1.34
   5   6   2   10.65    1.40
   1  -8   2   34.93    2.55
  -1   8  -2   50.57    2.16
  -1   8  -2   45.00    2.13
  -1   8  -2   40.99    2.45
  -1   8  -2   34.93    2.63
  -1   8  -2   31.99    2.44
   1  -7   4   48.27    3.32
  -1   7  -4   48.67    2.66
  -1   7  -4   43.80    2.57
  -1   7  -4   54.62    2.44
  -1   7  -4   47.66    2.81
  -2  -9  -7   -1.03    1.15
   2   9   7    2.11    1.23
  -2  -9  -7    1.22    1.30
   2   9   7    0.33    1.22
  -2  -9  -7    0.96    1.16
   2   9   7    2.29    1.47
  -4  -6   1    0.83    1.77
   4   6  -1    1.62    1.56
   2   9   3    1.85    1.13
  -2  -9  -3    2.07    1.77
   2   9   3    0.94    1.07
   2   9   3    1.17    1.91
  -3   7  -3   94.61    5.02
  -3   7  -3  108.12    5.27
  -3   7  -3   99.30    4.67
  -3   7  -3  100.30    4.66
  -3   7  -3   92.53    4.95
  -4   1   7    0.51    1.18
   4  -1  -7    1.07    1.52
   4  -1  -7    0.33    1.50
   4  -1  -7    0.29    1.24
   4  -1  -7    1.85    1.61
  -4   1   7    1.54    1.43
  -2  -2   8   98.71    4.69
  -2  -2   8   95.57    5.15
   2   2  -8   81.99    3.65
   2   2  -8   77.09    3.90
   3  -8   0   88.65    5.00
  -3   8   0  101.06    4.65
  -3   8   0   94.29    4.70
  -3   8   0   95.48    5.01
  -3   8   0   92.46    5.11
   3  -8   0   97.68    4.53
  -3   8   0   89.52    4.94
   4   6  10  199.87    9.15
   4   6  10  202.37    9.11
  -4  -6 -10  198.68    9.16
  -4  -6 -10  208.90    9.13
   2   6  -4  109.35    5.10
   2   6  -4  105.75    5.56
  -2  -6   4  111.44    5.81
  -1   9   1   14.87    1.24
  -1   9   1   12.29    1.71
   1  -9  -1   13.50    1.48
   1  -9  -1   12.94    2.12
  -1   9   1   15.84    1.06
  -1   9   1   13.02    1.60
   6   0  -2   75.60    3.65
   6   0  -2   72.80    3.79
  -6   0   2   75.63    4.06
   6   0  -2   77.83    3.82
  -6   0   2   79.08    3.98
  -4   7   4   18.65    1.82
   4  -7  -4   20.72    1.86
   4  -7  -4   24.40    1.46
   4  -7  -4   18.29    2.10
   4  -7  -4   17.40    2.43
  -4   7   4   20.11    2.08
  -4   7   4   21.58    1.41
  -4   7  -1   16.85    1.36
  -4   7  -1   16.51    2.22
   4  -7   1   17.33    2.44
  -4   7  -1   16.47    2.08
  -4   7  -1   18.62    1.52
   4  -7   1   19.58    1.45
  -4   7  -1   18.33    1.74
  -4   7  -1   15.01    2.28
   5   6   8   18.57    1.66
   5   6   8   18.89    1.73
   5   6   8   23.65    1.91
   4   7   1   24.38    2.09
   4   7   1   22.33    1.83
   0   8  -2   -0.68    1.23
   0   8  -2    1.37    1.89
   0   8  -2    0.63    0.79
   0  -8   2   -0.99    1.53
  -6  -4  -2   95.04    4.80
   6   4   2   93.28    4.45
   6   4   2   92.38    4.61
  -6  -4  -2   95.12    4.47
   0  -1  10  213.12   10.45
   0  -1  10  230.84   10.16
   0   1 -10  201.65    9.69
   0   1 -10  218.13    9.76
   0   1 -10  229.10    9.74
   5  -6  -1   35.68    1.81
   5  -6  -1   35.42    2.66
   5  -6  -1   31.25    2.76
  -5   6   1   35.55    2.18
   5  -6  -1   33.08    2.15
  -6   3  -4   35.24    2.15
  -6   3  -4   41.29    1.97
   6  -3   4   38.51    2.47
  -6   3  -4   36.20    2.40
   6  -3   4   38.75    2.34
   6  -3   4   29.78    1.56
   6  -3   4   38.23    2.15
   6  -3   4   38.86    1.81
  -4  -3 -11    1.04    1.42
  -4  -3 -11    1.23    1.12
   4   3  11    2.17    1.38
   4   3  11    0.90    1.13
   4   3  11    0.81    1.46
   4   3  11    1.22    1.09
  -4  -3 -11   -0.64    0.91
  -3   6  -5    0.32    1.73
  -3   6  -5    1.05    0.92
  -3   6  -5   -1.90    1.90
  -3   6  -5    0.01    1.45
   5  -6   0   19.75    1.12
  -5   6   0   24.95    1.68
  -5   6   0   18.93    1.30
   5  -6   0   25.52    2.26
   5  -6   0   23.21    1.65
   5  -6   0   21.74    2.35
  -3   8   5    2.75    1.72
  -3   8   5    2.32    1.52
   3  -8  -5   -0.31    2.24
   3  -8  -5    1.72    1.39
  -3   8   5    0.49    0.95
   3  -8  -5   -0.03    0.87
   3   2  -7    5.88    1.37
   3   2  -7    3.87    1.57
   3   2  -7    2.79    0.85
  -3  -2   7    6.40    1.90
  -3   7   7   60.23    3.34
   3  -7  -7   63.48    3.69
   3  -7  -7   63.33    3.69
  -3   7   7   53.08    2.96
  -3   7   7   61.10    3.24
   3  -7  -7   49.71    2.95
   3  -7  -7   63.78    3.34
   4   7   9    6.64    1.41
   4   7   9    8.26    1.48
  -4  -7  -9    5.84    1.23
  -4  -7  -9    7.60    1.23
   4  -3   8   39.53    2.30
  -4   3  -8   39.81    2.12
   4  -3   8   55.57    2.40
  -4   3  -8   26.97    1.65
   4  -3   8   53.72    3.12
  -4   3  -8   48.97    2.45
  -4   3  -8   33.64    1.65
  -4   3  -8   53.21    2.54
  -4   3  -8   55.61    1.92
  -4   3  -8   37.47    2.73
  -5   5   4    1.29    1.33
   5  -5  -4   -0.46    2.09
   5  -5  -4    1.43    1.47
   5  -5  -4    0.65    1.05
  -5   5   4    1.83    1.94
   5  -5  -4    3.15    0.28
   5  -5  -4    2.41    2.09
  -6  -4  -7  214.71    9.65
   6   4   7  188.94    8.91
   6   4   7  220.87    9.15
   6   4   7  202.68    9.09
   6   4   7  196.19    8.99
   1  -4   8   79.22    4.75
  -1   4  -8  101.15    4.02
  -1   4  -8   83.34    4.43
   1  -4   8   91.99    4.19
   1   0 -10   17.22    1.71
  -1   0  10   15.47    1.60
   1   0 -10   12.83    1.74
   2  -4   8   72.62    3.35
  -2   4  -8   56.40    3.60
  -2   4  -8   64.10    3.80
   2  -4   8   59.71    4.02
  -2   4  -8   69.04    3.16
   3   6  11   10.22    1.49
   3   6  11    9.85    1.51
   3   6  11   11.02    1.53
  -3  -6 -11   12.01    1.38
  -3  -6 -11   12.01    1.48
  -1  -9  -8   18.76    1.55
  -1  -9  -8   21.07    1.61
  -1  -9  -8   15.23    1.74
   1   9   8   21.60    1.61
   1   9   8   14.87    1.90
   1   9   8   14.61    2.25
   1   9   8   16.15    1.44
   2  -9  -3   33.31    2.91
  -2   9   3   33.01    1.75
   2  -9  -3   29.80    2.16
   2  -9  -3   37.35    1.85
  -2   9   3   27.95    2.40
  -2   9   3   30.80    2.30
   3  -6  -8    1.22    2.06
   3  -6  -8    0.50    1.22
   3  -6  -8    0.13    2.09
  -3   6   8    1.86    1.55
  -3   6   8    1.09    1.23
  -3   6   8    1.45    1.68
   3  -6  -8    1.73    1.61
   0   6  11   23.02    2.11
   0  -6 -11   21.96    1.57
   0   6  11   17.90    1.76
   0  -6 -11   22.54    2.03
   0   6  11   23.32    1.92
   0  -6 -11   17.52    1.69
   4   4  11  116.05    5.77
   4   4  11  129.94    5.75
  -4  -4 -11  119.78    5.86
  -4  -4 -11  121.97    5.67
  -4  -4 -11  134.23    5.87
   4   4  11  118.97    5.63
   2  -3 -10   91.27    4.59
  -2   3  10   96.42    4.75
   2  -3 -10   90.06    4.60
   2  -3 -10   97.74    4.49
   2  -3 -10   85.18    4.48
   2  -3 -10   87.86    4.34
   0   7  -4   19.24    1.73
   0   7  -4   24.18    1.79
   4  -6  -6  121.99    5.89
  -4   6   6  115.11    5.83
  -4   6   6  123.91    5.63
  -4   6   6  119.76    5.75
   4  -6  -6  122.42    5.73
   4  -6  -6  123.63    6.19
   2  -9  -4    1.85    2.21
  -2   9   4    1.96    1.51
   2  -9  -4    0.68    1.27
  -2   9   4    1.64    0.92
   2  -9  -4    1.34    0.84
  -2   9   4    2.77    1.80
  -2   4  10   99.55    5.02
  -2   4  10  103.46    4.95
   2  -4 -10   98.41    5.07
  -2   4  10   99.90    4.94
   2  -4 -10  102.39    4.92
   2  -4 -10   98.45    4.72
   2  -4 -10  104.98    5.16
  -2   4  10  103.88    4.97
   2  -4 -10  101.22    5.00
   5   3  10   54.42    2.73
   5   3  10   45.13    2.55
  -5  -3 -10   59.60    2.65
   5   3  10   55.25    2.77
  -5  -3 -10   41.49    2.24
   6   2   8   66.54    3.51
   6   2   8   67.32    3.21
  -6  -2  -8   75.22    3.80
  -6  -2  -8   84.42    3.97
   3   8   1    6.03    1.28
   3   8   1    5.78    1.77
  -3  -8  -1    5.22    1.43
   3   8   1    5.74    1.25
   6   2  -1   44.92    2.49
  -6  -2   1   49.51    2.83
  -6  -2   1   52.31    2.97
   6   2  -1   47.44    2.96
   6   2  -1   44.70    2.57
   0  -1 -11   42.00    2.61
   0  -1 -11   43.84    2.68
   0   1  11   46.48    2.65
   0  -1 -11   46.21    2.60
   0   1  11   45.87    3.04
  -4   4  -7  109.35    5.03
  -4   4  -7   89.35    4.57
  -4   4  -7  100.59    4.90
   4  -4   7  114.73    5.12
  -4   4  -7   97.38    5.23
  -4   4  -7  116.73    5.24
   4  -4   7  112.78    5.70
  -4   4  -7  118.65    4.62
  -2   7  -4   58.43    2.62
  -2   7  -4   57.30    2.95
  -2   7  -4   54.03    3.31
  -2   7  -4   65.11    3.65
  -2   7  -4   53.81    2.91
   1  -5   7  167.45    8.18
  -1   5  -7  186.07    7.65
  -1   5  -7  171.49    8.17
  -2   3  -9   57.99    3.47
   2  -3   9   71.62    3.39
  -2   3  -9   60.30    3.08
  -2   3  -9   66.47    3.09
   2  -3   9   60.23    3.86
   4   8   5   96.87    4.25
   4   8   5   77.56    4.32
   4   8   5   81.85    4.51
   4   8   5   90.33    4.35
   1   9   1   73.41    3.68
  -1  -9  -1   87.56    4.42
   1   9   1   73.24    3.51
   1   9   1   66.87    3.46
   1   9   1   69.03    4.16
  -3  -8  -9   14.56    1.42
   3   8   9   14.39    1.54
   3   8   9   14.38    1.78
   3   8   9   16.50    1.61
  -3  -8  -9   14.77    1.52
  -3  -8  -9   14.59    1.50
   6  -4   1   42.76    2.36
   6  -4   1   52.06    2.57
   6  -4   1   49.68    3.13
   6  -4   1   46.26    2.48
   6  -4   1   49.39    2.89
  -6   4  -1   48.70    3.37
   5  -6  -2   62.60    2.83
  -5   6   2   52.09    2.77
   5  -6  -2   55.09    3.09
   5  -6  -2   49.09    3.43
  -5   6   2   45.60    3.39
   5  -6  -2   51.08    3.53
   1   6  -5   48.69    2.59
   1   6  -5   47.40    3.29
  -1  -6   5   47.12    3.35
   4   8   6   52.28    2.75
   4   8   6   44.90    2.92
   4   8   6   47.46    2.79
   4   8   6   49.50    2.77
   2   0  11    3.86    1.74
   2   0  11    3.51    1.15
  -2   0 -11    2.02    1.25
  -2   0 -11    1.26    1.45
  -2   0 -11    3.91    1.17
  -4   6  -4    8.38    1.82
  -4   6  -4   11.87    1.22
  -4   6  -4   14.36    1.83
  -4   6  -4   13.01    1.46
  -4   6  -4   11.87    2.12
  -6  -3   0   31.75    2.25
   6   3   0   30.75    2.33
   6   3   0   28.70    1.91
  -6  -3   0   29.64    2.03
   5  -4  -5   97.48    5.21
   5  -4  -5  105.21    4.99
   5  -4  -5  108.24    4.87
   5  -4  -5  103.94    5.18
  -5   4   5  112.45    5.42
  -5   4   5  106.10    5.10
   5  -4  -5   97.57    4.50
  -4  -2 -11   34.13    1.80
   4   2  11   30.64    2.08
  -4  -2 -11   30.14    2.01
   4   2  11   38.49    1.93
   4   2  11   31.87    2.35
  -4  -2 -11   33.41    2.32
  -4   2  -9   83.05    3.43
  -4   2  -9   94.72    3.13
   4  -2   9   90.01    4.11
  -4   2  -9   52.74    2.82
  -4   2  -9   60.17    2.81
   4  -2   9   96.58    3.56
  -4   2  -9   92.49    3.59
  -1   3  -9   34.82    2.05
   1  -3   9   28.56    2.66
   1  -3   9   39.91    2.13
   6  -4   0   34.30    2.08
   6  -4   0   31.19    2.42
   6  -4   0   32.63    2.71
   6  -4   0   34.28    1.86
   6  -4   0   24.47    2.85
  -6   4   0   35.31    2.92
   6  -4   0   30.55    1.85
   3   6  -3   39.55    2.86
   3   6  -3   44.37    2.42
  -3  -6   3   45.29    3.21
   5   2  10   65.19    3.10
  -5  -2 -10   57.34    2.74
   5   2  10   70.61    3.42
  -5  -2 -10   69.17    3.12
   5   2  10   68.33    3.40
   5   0  -5    1.10    1.66
   5   0  -5    2.56    1.45
   5   0  -5    3.45    1.33
  -5   0   5    3.71    1.44
   5   0  -5    1.31    1.65
  -5  -3   3   59.58    3.41
  -5   6  -1    9.27    1.10
   5  -6   1   12.48    2.01
  -5   6  -1    8.88    2.32
   5  -6   1    8.62    2.37
   5  -6   1   10.30    1.22
  -5   6  -1    9.96    1.30
  -5   6  -1    8.64    1.85
   2  -9  -2   79.31    3.89
  -2   9   2   83.32    3.71
   2  -9  -2   76.00    4.42
  -2   9   2   84.77    4.13
  -2   9   2   69.68    4.23
  -2   9   2   82.95    3.72
  -2   9   2   70.62    4.48
  -6   3   2   11.89    2.07
   6  -3  -2   12.94    1.26
   6  -3  -2   15.40    1.37
   6  -3  -2   10.16    1.91
  -6   3   2   13.18    1.90
   6  -3  -2   16.92    2.21
   6  -3  -2   14.55    1.65
   6  -3  -2   12.23    2.31
   6  -3  -2   14.66    1.06
  -2   5  -7   53.65    2.59
  -2   5  -7   55.15    3.37
   2  -5   7   48.78    3.35
  -2   5  -7   49.78    2.65
  -2   5  -7   54.15    3.13
   6   3   8    6.90    1.26
   6   3   8    4.67    1.02
  -6  -3  -8    4.55    1.21
   1  -9  -7  133.86    6.31
  -1   9   7  120.54    5.93
  -1   9   7  120.37    6.11
   1  -9  -7  126.00    5.58
  -1   9   7  120.17    5.68
   1  -9  -7  114.51    5.65
   1  -9  -7  120.52    5.81
  -1   9   7  124.39    5.49
   0   9   8  143.72    6.58
   0  -9  -8  145.51    7.39
   0  -9  -8  162.73    6.99
   0   9   8  125.62    7.01
   0  -9  -8  146.28    6.86
  -5   5  -4   16.75    1.15
  -5   5  -4   20.41    2.52
  -5   5  -4   17.94    2.02
   5  -5   4   20.75    1.94
  -4  -4   4   18.40    2.07
   4   4  -4   18.56    1.97
   4   4  -4   17.82    1.67
  -2   8  -2   76.71    3.53
   2  -8   2   77.65    4.27
  -2   8  -2   76.18    2.66
  -2   8  -2   78.93    3.05
  -2   8  -2   77.18    2.58
  -1  -8 -10   73.91    3.78
  -1  -8 -10   77.38    3.89
   1   8  10   74.02    4.06
  -1  -8 -10   75.26    3.65
   1   8  10   75.86    3.68
   1   8  10   74.26    3.82
   1   8  10   77.68    3.98
   6   1   8   30.90    2.17
  -6  -1  -8   30.26    2.12
   6   1   8   24.83    1.82
   6  -4   2   40.44    2.46
   6  -4   2   34.65    1.86
   6  -4   2   39.99    2.70
   6  -4   2   29.94    1.85
   6  -4   2   39.64    1.98
  -6   4  -2   36.27    2.39
  -6   4  -2   38.46    3.03
  -6   4  -2   32.66    1.91
  -5   3  -7   16.15    1.80
  -5   3  -7   18.29    2.42
   5  -3   7   16.79    1.50
   5  -3   7   17.31    1.17
  -5  -4   2  156.45    7.20
  -5  -4   2  184.67    7.68
  -5  -4 -10    1.20    0.87
   5   4  10    3.79    1.12
   5   4  10    3.11    0.76
   5   4  10    1.55    1.18
  -5  -4 -10    3.13    1.42
  -5  -4 -10    3.26    1.25
   5   4  10    3.21    1.18
  -5   2  -8   33.49    2.19
   5  -2   8   28.76    1.85
   5  -2   8   27.53    2.23
   5  -2   8   31.43    1.73
  -5   2  -8   32.61    1.81
  -3   3   9  125.83    6.38
   3  -3  -9  124.36    6.48
  -3   3   9  146.95    6.45
   3  -3  -9  142.31    6.58
   3  -3  -9  149.15    6.62
  -1   0 -11   82.25    4.16
  -1   0 -11   82.78    4.15
   1   0  11   84.02    4.55
  -1   0 -11   89.41    4.36
   1   0  11   82.29    4.12
   1   2  -9  119.36    6.23
   1   2  -9  132.45    6.05
   1   2  -9  141.49    6.29
   1   2  -9  146.86    6.30
  -1  -2   9  143.40    6.63
  -2   2  10   88.76    4.40
   2  -2 -10   84.43    4.36
   2  -2 -10   85.95    4.27
  -4  -3   5   71.25    4.03
   4   3  -5   77.25    4.00
   4   3  -5   74.21    3.88
   4   8   4  188.40    9.55
   4   8   4  216.61    9.41
   4   8   4  209.13    9.46
   4   8   4  216.36    9.51
  -2   9   5   10.91    1.70
  -2   9   5    8.69    1.15
   2  -9  -5   10.94    1.52
   2  -9  -5    7.14    1.03
  -2   9   5   10.29    0.79
  -2   9   5   15.01    2.00
  -2  -4 -12  167.40    7.40
  -2  -4 -12  144.37    7.38
   2   4  12  160.72    7.84
   2   4  12  179.63    7.76
  -2  -4 -12  169.60    7.40
   2   4  12  167.63    7.56
   4  -5  -7    0.38    1.31
  -4   5   7    0.47    1.16
   4  -5  -7    1.16    1.62
   4  -5  -7    0.15    2.13
   4  -5  -7    2.89    2.18
   4  -5  -7    0.98    1.96
   4  -5  -7    0.95    0.37
  -4   5   7   -0.15    1.47
   1  -4 -11   24.55    1.79
  -1   4  11   26.44    2.01
  -1   4  11   26.83    2.07
   1  -4 -11   25.44    2.14
  -1   4  11   23.83    1.99
   1  -4 -11   25.25    2.32
   6   5   5   31.37    2.13
   6   5   5   31.07    1.99
   6   5   5   29.88    2.11
   6   5   5   33.92    2.22
  -2  -9  -8   31.79    2.11
   2   9   8   29.51    2.06
  -2  -9  -8   32.87    1.99
  -2  -9  -8   27.45    1.99
   2   9   8   33.86    2.35
   2   9   8   33.39    2.04
   6  -2   6   68.54    3.21
   6  -2   6   63.27    3.47
  -6   2  -6   62.64    3.12
  -6   2  -6   59.68    3.16
  -6   2  -6   59.89    3.17
   6  -2   6   64.11    3.47
   2   9   2    4.52    1.19
  -2  -9  -2    3.65    1.70
   2   9   2    3.51    1.19
   2   9   2    3.04    1.90
  -6  -1   2   90.84    4.37
  -6  -1   2   83.24    4.39
   6   1  -2   88.23    4.31
   6   1  -2   85.96    4.17
   1  -8  -9  101.10    4.85
  -1   8   9   82.41    4.75
  -1   8   9   86.00    4.75
  -1   8   9  100.29    4.50
  -4  -8  -7   36.47    2.24
  -4  -8  -7   36.64    2.22
   4   8   7   34.22    2.39
   4   8   7   38.98    2.27
   4   8   7   32.21    2.26
   4   8   7   34.87    2.23
  -1   3  11   11.79    1.53
  -1   3  11   13.16    1.58
   1  -3 -11   12.46    1.83
   1  -3 -11   12.56    1.81
   1  -3 -11   12.17    1.49
  -6   1  -7   23.88    1.51
   6  -1   7   25.24    2.05
  -6   1  -7   21.97    1.81
  -6   1  -7   22.69    1.56
   6  -1   7   29.03    1.72
   6  -1   7   23.67    1.85
   1   7  11  149.48    6.73
  -1  -7 -11  147.68    6.66
  -1  -7 -11  149.65    6.86
  -1  -7 -11  141.31    6.83
   1   7  11  146.89    6.90
   1   7  11  143.42    6.86
  -2  -8 -10  128.51    5.88
  -2  -8 -10  130.48    6.01
   2   8  10  120.41    6.12
  -2  -8 -10  123.18    5.99
   2   8  10  130.50    6.05
   2   8  10  131.41    6.11
  -2  -3 -12  251.83   10.75
   2   3  12  249.12   10.14
  -2  -3 -12  227.01   10.66
   2   3  12  258.92   10.27
   2   7  11   40.71    2.80
   2   7  11   48.35    2.63
   2   7  11   51.23    2.80
  -2  -7 -11   53.73    3.02
  -2  -7 -11   49.16    2.89
   3  -4  -9    5.35    2.04
   3  -4  -9    5.95    1.47
   3  -4  -9    6.74    1.12
  -3   4   9    6.19    1.43
   3  -4  -9    7.30    2.07
   3  -4  -9    6.47    1.81
  -3   4   9    6.12    1.77
  -5  -2   4   43.37    2.79
  -2   5  10  101.12    4.91
  -2   5  10  101.94    4.94
   2  -5 -10  104.18    5.07
   2  -5 -10   94.33    4.77
  -2   5  10   97.35    4.86
   2  -5 -10   96.32    5.03
   1  -7 -10    5.12    1.01
  -1   7  10    5.51    1.79
  -1   7  10    4.89    1.60
   1  -7 -10    4.55    1.74
   1  -7 -10    7.80    1.33
  -1   7  10    6.90    1.35
   6   5   4   19.69    1.69
   6   5   4   18.60    1.57
   6   5   4   16.32    1.73
   6   5   4   17.27    1.53
   6   5   4   21.71    1.85
   4   5  11  188.13    7.41
  -4  -5 -11  187.52    8.32
  -4  -5 -11  176.31    8.27
   4   5  11  173.40    7.28
  -4  -5 -11  181.54    8.15
   4   5  11  175.57    7.40
  -6   4   1   27.17    2.56
   6  -4  -1   28.04    1.75
   6  -4  -1   25.66    1.64
   6  -4  -1   29.42    2.02
   6  -4  -1   32.14    2.36
   6  -4  -1   25.72    2.83
   6  -4  -1   30.12    2.70
  -3   8  -1   33.06    2.10
   3  -8   1   32.44    1.98
  -3   8  -1   28.82    2.62
   3  -8   1   28.54    2.76
  -3   8  -1   29.02    2.18
  -3   8  -1   33.76    2.83
  -3   8  -1   28.39    2.55
   4   0  -7   26.59    2.12
   4   0  -7   26.68    2.05
  -4   0   7   21.60    2.07
   6   5   6   12.03    1.70
   6   5   6   11.51    1.48
   6   5   6   10.75    1.31
  -6  -5  -6   10.88    1.43
   6   5   6    9.47    1.42
   0   9   0    7.15    2.09
   0   9   0    6.16    1.44
   0   9   0    9.56    1.06
   0  -9   0    5.06    1.79
   1   4  12   52.67    2.70
  -1  -4 -12   55.32    2.88
   1   4  12   37.22    2.64
   1   4  12   45.96    2.50
  -1  -4 -12   46.36    2.82
   1   4  12   45.85    2.61
  -1  -4 -12   45.54    2.77
   2  -7  -9    9.49    2.21
  -2   7   9   10.41    1.40
   2  -7  -9   11.63    1.44
  -2   7   9    7.15    1.90
   2  -7  -9    5.95    2.29
  -3   2   9   98.39    4.89
   3  -2  -9  100.95    4.88
   3  -2  -9   94.30    4.81
   3  -2  -9   95.65    4.84
   5   7   5  103.80    4.90
   5   7   5   99.79    4.85
  -2  -8   1   53.62    2.66
   2   8  -1   62.73    3.69
   2   8  -1   59.92    3.27
   4  -7  -5    0.12    0.99
   4  -7  -5    0.33    1.78
   4  -7  -5    0.14    2.22
  -4   7   5    0.38    1.44
  -4   7   5    1.20    1.02
   4  -7  -5    0.07    1.54
   4  -7   2    0.47    2.13
  -4   7  -2   -0.63    1.88
   4  -7   2    0.52    0.98
  -4   7  -2   -0.43    1.16
  -4   7  -2    3.16    1.94
  -4   7  -2    0.47    1.13
  -4   7  -2    2.01    1.81
   5   6   1    4.93    1.32
  -5  -6  -1    4.72    1.60
   5   6   1    3.48    1.28
   5   6   1    2.46    1.33
  -4  -5   3    1.75    1.71
   4   5  -3    0.87    1.21
   5   7   6    5.30    1.36
   5   7   6    5.04    1.27
   5   7   6    7.29    1.55
   5  -6  -3   16.88    2.29
  -5   6   3   15.45    2.41
   5  -6  -3   12.83    2.56
   5  -6  -3   19.48    1.92
  -5   6   3   19.12    1.75
   5  -6  -3   14.30    2.43
  -6  -4  -1   42.62    2.72
   6   4   1   40.11    2.32
   6   4   1   40.69    2.64
  -6  -4  -1   43.66    2.54
   0  -4   8    2.96    1.05
   0  -4   8    2.25    1.88
   0   4  -8    1.59    1.34
   0   4  -8    4.00    1.16
   1  -9   0   20.30    2.23
  -1   9   0   20.69    1.91
  -1   9   0   21.84    1.30
  -1   9   0   22.35    1.83
  -3   0 -11   13.94    1.39
   3   0  11   15.15    1.94
   3   0  11   15.13    1.29
  -3   0 -11   12.22    1.74
  -3   0 -11   15.50    1.34
   3   0  11    7.16    0.71
   1   8  -2    9.85    2.11
   1   8  -2    8.25    1.44
   1   8  -2    8.26    1.05
  -4   5  -6   -0.11    1.45
  -4   5  -6    1.31    0.77
  -4   5  -6    2.22    1.60
  -4   5  -6    2.10    1.29
  -4   5  -6    0.17    1.81
  -2   2 -10   33.22    1.96
   2  -2  10   38.26    2.87
   2  -2  10   41.99    2.31
  -2   2 -10   23.88    1.82
   3   9   5   16.97    1.48
   3   9   5   15.65    2.11
   3   9   5   14.95    1.53
   3   9   5   14.71    1.73
  -2   9   1   47.07    2.13
   2  -9  -1   45.36    2.57
  -2   9   1   44.26    3.22
  -2   9   1   39.41    2.70
  -2   9   1   44.10    2.55
  -2   9   1   37.04    1.95
  -2   9   1   40.43    3.07
   2  -9  -1   44.69    3.21
  -1  -3 -12   54.99    2.76
  -1  -3 -12   42.78    2.65
   1   3  12   46.21    2.57
  -1  -3 -12   45.37    2.70
   1   3  12   34.46    2.45
  -1  -3 -12   45.33    2.77
   1   3  12   51.20    2.64
   1   3  12   46.49    2.37
   5   1  10   73.17    3.47
   5   1  10   65.38    3.55
  -5  -1 -10   73.88    3.43
   5   1  10   67.19    3.68
  -5  -1 -10   61.30    3.63
  -1   6  -6   94.19    4.47
   1  -6   6  107.03    5.71
  -1   6  -6  103.63    3.63
  -1   6  -6   82.62    3.87
  -1   6  -6   83.97    3.72
  -2  -5 -12   47.12    2.70
   2   5  12   47.95    2.75
  -2  -5 -12   46.20    2.80
   2   5  12   49.89    2.73
   2   5  12   45.04    2.70
  -2  -5 -12   49.02    2.75
   3  -4   8    1.50    1.85
  -3   4  -8    2.81    1.60
  -3   4  -8    3.08    0.79
   3  -4   8    2.12    0.86
  -3   4  -8    3.61    1.71
  -3   4  -8    0.54    0.76
  -3   4  -8    1.45    1.91
   3   9   6    4.74    1.29
   3   9   6    7.32    1.78
   3   9   6    8.14    1.49
  -3  -9  -6    6.80    1.41
   5  -4   6   25.97    1.85
  -5   4  -6   24.82    2.64
  -5   4  -6   28.55    2.22
   5  -4   6   24.36    1.24
   0   5  -7    1.86    1.28
   0   5  -7    0.58    1.08
   1  -5 -11   50.27    2.81
  -1   5  11   49.12    2.67
   1  -5 -11   47.44    2.95
   1  -5 -11   45.92    3.03
  -1   5  11   38.89    2.69
  -1   5  11   46.80    2.72
   3  -8  -6    3.11    1.52
  -3   8   6    3.35    1.57
  -3   8   6    1.48    1.06
   3  -8  -6    2.55    1.03
   5  -1   9   47.96    3.11
   5  -1   9   55.65    2.73
  -5   1  -9   53.16    2.64
  -5   1  -9   49.55    2.96
   2  -8  -8  196.70    9.00
  -2   8   8  185.57    9.17
   2  -8  -8  204.21    9.17
   2  -8  -8  198.88    8.81
  -2   8   8  202.46    9.14
  -2   8   8  203.85    8.99
  -3   3  -9   86.88    4.47
   3  -3   9   78.88    4.84
   3  -3   9   96.29    4.32
  -3   3  -9   81.71    3.99
  -3   3  -9   89.26    4.45
  -3   3  -9   89.62    4.03
  -6   3  -5    0.17    1.16
   6  -3   5    0.39    0.81
   6  -3   5    0.15    1.48
  -6   3  -5    1.29    1.35
   6  -3   5    2.67    1.62
  -6  -4  -8  229.12   10.26
   6   4   8  192.52    9.17
   6   4   8  238.29    9.40
   6   4   8  189.88    9.20
   6   4   8  226.67    9.44
   2   1  -9    2.76    1.37
  -2  -1   9    1.39    1.94
   2   1  -9    2.56    1.52
   2   1  -9    1.75    1.27
   2   1  -9    1.77    1.60
  -2  -1   9    2.88    1.18
   5  -6   2    3.22    1.71
   5  -6   2    2.37    0.96
  -5   6  -2    4.17    1.79
  -5   6  -2    3.67    2.31
  -5   6  -2    3.80    1.11
   5   6   9   41.22    2.65
   5   6   9   40.08    2.46
  -5  -6  -9   44.48    2.40
   5   6   9   46.87    2.60
   6  -1  -3   56.37    3.35
   6  -1  -3   58.80    3.14
   6  -1  -3   57.53    3.07
  -6   1   3   58.75    3.31
  -6   1   3   57.02    3.37
   6  -1  -3   54.48    2.85
   6  -4   3   27.04    1.43
   6  -4   3   19.28    2.06
  -6   4  -3   18.92    1.52
   6  -4   3   19.26    2.26
   6  -4   3   24.82    1.39
  -6   4  -3   23.24    1.30
   6  -4   3   25.01    1.42
  -6   4  -3   27.17    2.10
   2   7  -3   40.69    2.48
   2   7  -3   40.13    2.28
  -2  -7   3   44.87    3.27
   2   7  -3   41.70    2.99
   6  -2  -3   18.57    1.60
   6  -2  -3   13.97    2.32
   6  -2  -3   16.22    1.77
   6  -2  -3   17.30    1.47
   6  -2  -3   18.22    1.35
  -6   2   3   15.44    2.14
  -6   2   3   16.73    1.90
   5   7   4    8.26    1.46
   5   7   4   11.43    1.53
   5   7   4    9.40    1.46
  -1   2 -10    0.18    1.29
  -1   2 -10    1.76    1.13
   1  -2  10    1.62    1.13
   1  -2  10    2.04    1.85
  -1   2 -10    3.14    1.16
   4  -1  10   58.56    3.52
  -4   1 -10   65.58    2.62
  -4   1 -10   55.99    3.00
   4  -1  10   65.62    3.20
  -4  -1 -11   86.64    4.03
  -4  -1 -11   81.65    3.84
   4   1  11   86.68    4.13
   4   1  11   80.72    4.38
   0   8  10    7.34    1.70
   0   8  10    4.87    1.81
   0  -8 -10    8.86    1.72
   0  -8 -10    6.79    1.37
   0   8  10    5.32    1.37
   0   8  10    8.09    2.00
   0   8  10    5.05    1.09
   4   2  -6   92.80    4.79
  -4  -2   6   91.33    4.84
  -1  -5 -12   -0.27    1.54
   1   5  12    0.54    1.47
   1   5  12    1.18    1.59
  -1  -5 -12    1.57    1.32
  -5  -5   1   62.85    3.41
   5   5  -1   58.06    3.26
  -5  -5   1   55.53    2.73
   4   8   3   28.36    2.02
   4   8   3   27.82    1.87
   4   8   3   21.39    1.93
   4   8   3   24.87    2.19
   3   1  -8    3.54    1.27
  -3  -1   8    0.65    1.84
   3   1  -8    2.64    1.37
   3   1  -8    0.73    1.64
   3   1  -8   -0.50    1.39
  -3  -1   8    2.31    1.26
   3   1  -8    1.04    1.66
  -1   2  11   -0.12    1.31
  -1   2  11    2.00    1.31
   1  -2 -11   -0.51    1.39
   1  -2 -11    3.09    1.43
   1  -2 -11    0.60    1.62
   6   5   3    2.69    1.18
   6   5   3    4.44    1.44
   6   5   3    3.98    1.25
  -2   6  -6   17.04    2.32
   2  -6   6   16.07    2.27
  -2   6  -6   16.84    2.04
  -2   6  -6   15.12    1.09
  -2   6  -6   16.57    1.37
  -6   0  -8   39.06    2.42
   6   0   8   48.20    2.38
   6   0   8   41.62    2.67
   6   0   8   39.21    2.28
  -3  -4 -12  156.43    6.77
  -3  -4 -12  136.51    6.73
   3   4  12  158.47    5.10
  -3  -4 -12  142.60    6.62
   3   4  12  144.32    4.97
   3   4  12  137.49    5.07
   5   7   7    1.35    1.31
   5   7   7    0.76    1.49
   5   7   7    0.79    1.29
  -2  -2 -12  101.83    4.39
   2   2  12  110.32    4.89
  -2  -2 -12   99.45    4.40
   2   2  12  104.14    4.53
  -2  -2 -12   92.42    4.50
  -2  -2 -12   79.56    4.07
   3   9   4   27.33    2.52
   3   9   4   28.69    2.00
   3   9   4   27.44    2.13
   3   9   4   30.71    1.92
   3   3  12   36.29    2.40
   3   3  12   39.80    2.65
  -3  -3 -12   34.74    2.30
  -3  -3 -12   39.43    2.45
  -3  -3 -12   39.03    2.24
   3   3  12   43.83    2.35
   0  -3   9   15.75    2.22
   0   3  -9   20.08    1.54
   0   3  -9   10.27    1.52
   0  -3   9   17.98    1.46
  -2   9   6   22.70    2.06
   2  -9  -6   19.42    1.79
   2  -9  -6   15.31    1.39
  -2   9   6   17.24    1.52
  -2   9   6   22.83    2.26
  -2   9   6   23.43    2.53
  -5  -5 -10  211.98   10.03
   5   5  10  212.62   10.11
  -5  -5 -10  255.58   10.27
   5   5  10  245.79   10.27
   3   9   7   56.85    3.37
   3   9   7   73.73    3.35
   3   9   7   62.38    3.48
  -3  -9  -7   65.72    3.44
  -3   5   9   48.18    2.71
   3  -5  -9   46.12    2.60
   3  -5  -9   43.73    2.86
   3  -5  -9   43.39    3.18
   3  -5  -9   41.07    2.17
   3  -5  -9   43.41    3.07
  -3   5   9   44.34    2.88
  -4  -8  -8   10.50    1.43
  -4  -8  -8   12.33    1.44
   4   8   8   10.11    1.56
   4   8   8    9.81    1.49
   4   8   8   12.65    1.57
   6   5   7   30.71    2.21
   6   5   7   41.30    2.35
   6   5   7   40.80    2.49
   6   5   7   35.51    2.17
  -6  -5  -7   41.00    2.43
   4   7   0    0.02    1.64
   4   7   0   -1.05    1.35
  -4  -7   0   -0.62    1.80
   1   9   9    4.08    1.97
  -1  -9  -9    3.40    1.24
  -1  -9  -9    3.74    1.20
   1   9   9    5.68    1.26
   1   9   9    2.69    1.30
   1   9   9    5.50    1.65
  -1  -9  -9    4.86    1.50
   3  -5   7    7.00    1.98
  -3   5  -7    4.08    0.87
  -3   5  -7    7.16    0.72
  -3   5  -7    4.48    1.83
  -3   5  -7    3.52    1.88
  -3   5  -7    4.77    1.58
   2  -1 -10    0.24    1.62
   2  -1 -10    1.76    1.43
   2  -1 -10    1.86    1.46
  -2   1  10    1.22    1.29
   1   7  -4    7.54    1.18
  -1  -7   4    9.69    2.25
   1   7  -4    8.90    2.07
   1   7  -4    8.02    1.39
   5  -5  -5   18.65    2.46
   5  -5  -5   12.82    1.48
   5  -5  -5   17.35    1.86
  -5   5   5   21.97    2.30
  -5   5   5   13.32    1.40
  -5   5   5   18.80    1.75
   6  -4  -2   25.96    1.63
   6  -4  -2   33.52    1.90
   6  -4  -2   30.10    2.70
   6  -4  -2   28.60    2.42
   6  -4  -2   23.42    2.79
   6  -4  -2   33.25    2.16
  -6   4   2   26.26    2.58
   0   7  11   81.54    4.19
   0   7  11   76.98    4.35
   0  -7 -11   83.98    4.21
   0  -7 -11   75.66    4.01
   0   7  11   86.76    4.26
   0  -7 -11   80.94    3.83
  -4  -7 -10    4.53    1.26
  -4  -7 -10    5.97    1.23
   4   7  10    7.83    1.60
   4   7  10    7.10    1.57
   6   0  -3   60.17    3.26
   6   0  -3   61.29    3.29
  -6   0   3   58.66    3.38
   5   1  -5   62.25    3.31
   5   1  -5   59.58    3.34
  -5  -1   5   54.37    3.24
  -1  -2 -12   35.27    2.43
  -1  -2 -12   39.25    2.47
  -1  -2 -12   41.60    2.38
  -1  -2 -12   39.92    2.54
   1   2  12   34.28    2.07
   1   2  12   37.13    2.32
   1   2  12   40.03    2.72
  -3  -7 -11    0.95    1.23
   3   7  11    1.33    1.37
   3   7  11   -1.43    1.52
   3   7  11    0.04    1.47
  -3   7  -4   11.33    2.05
  -3   7  -4   10.11    1.28
  -3   7  -4    9.03    1.19
  -3   7  -4   11.29    2.04
  -3   7  -4    8.85    1.88
   6  -3  -3    0.99    1.47
   6  -3  -3    0.98    1.03
  -6   3   3    0.48    1.77
   6  -3  -3    0.70    0.85
  -6   3   3   -0.87    1.98
   6  -3  -3    1.29    1.22
   6  -3  -3    1.13    2.16
   1   9   0   15.56    1.64
   1   9   0    9.51    2.14
   1   9   0   11.83    1.28
  -1  -9   0   16.57    1.90
  -3   1   9   29.84    2.40
   3  -1  -9   39.96    2.45
   3  -1  -9   33.46    2.55
   3  -1  -9   34.11    2.42
  -5   2   6   14.30    1.91
   5  -2  -6   13.35    1.77
   5  -2  -6   12.30    1.96
   5  -2  -6   13.92    2.09
   5  -2  -6   11.84    1.54
   0   6  -6   16.11    1.32
   0   6  -6   12.26    1.43
  -3   2 -10   73.92    3.10
  -3   2 -10   75.25    3.05
   3  -2  10   77.95    3.65
   3  -2  10   65.33    4.09
  -1   8  -3   80.12    3.37
  -1   8  -3   68.46    3.60
  -1   8  -3   63.02    3.78
  -1   8  -3   65.50    3.54
  -1   8  -3   70.83    3.33
   3   5  12  121.81    5.76
   3   5  12  110.33    5.73
  -3  -5 -12  115.98    5.42
  -3  -5 -12  123.40    5.50
   3   5  12  129.95    5.73
  -3  -5 -12  106.68    5.49
   1  -9  -8  143.53    6.46
   1  -9  -8  139.13    6.74
  -1   9   8  125.64    7.07
  -1   9   8  156.98    6.76
   1  -9  -8  138.93    7.10
   1  -9  -8  146.69    6.60
   3   7  -2   34.71    2.12
  -3  -7   2   34.51    2.89
   3   7  -2   35.65    2.70
   0   0  11    4.65    1.96
   0   0  11    2.01    1.24
   0   0 -11    1.55    1.50
   0   0 -11    1.75    1.35
   0   0 -11    2.81    1.56
   3   8   0    5.88    1.91
  -3  -8   0    2.22    0.98
   5  -3  -6   11.48    2.12
   5  -3  -6    8.93    1.46
   5  -3  -6   13.11    2.07
   5  -3  -6    9.88    1.74
  -5   3   6   11.70    1.87
  -5   3   6   10.73    1.42
  -7   0  -3  175.57    7.39
  -7   0  -3  190.93    7.01
   7   0   3  186.16    8.46
   7   0   3  183.87    8.27
   2  -6 -10    0.44    0.92
   2  -6 -10    2.36    2.05
   2  -6 -10    1.58    1.30
   2  -6 -10    0.49    2.07
  -2   6  10    1.20    1.28
  -2   6  10    1.16    1.65
  -7  -1  -3   30.59    2.71
   7   1   3   36.43    2.43
   5   7   3   36.25    2.32
   5   7   3   37.91    2.38
   5   7   3   35.60    2.35
   7   1   4   20.82    1.78
  -7  -1  -4   27.44    2.72
   7   1   4   27.65    2.07
   3   8  10   54.97    2.91
  -3  -8 -10   60.56    3.13
  -3  -8 -10   55.39    2.99
   3   8  10   53.99    3.04
  -3  -8 -10   57.80    3.05
   3   8  10   59.62    2.99
   2   9   9   93.64    4.23
   2   9   9   78.40    4.56
  -2  -9  -9   78.63    4.15
  -2  -9  -9   85.56    4.19
  -2  -9  -9   87.28    4.09
   2   9   9   86.07    4.50
   2   9   9   85.82    4.33
   4   6  -2    1.83    1.49
  -4  -6   2    0.93    1.93
   4   6  -2    0.91    1.22
   2   9   1    1.98    1.22
  -2  -9  -1    2.69    1.57
   2   9   1    2.11    1.10
   2   9   1    1.70    1.44
   2   9   1   -0.04    1.87
  -6  -3   1    1.23    1.50
   6   3  -1    2.41    1.72
  -6  -3   1    1.76    1.43
   6   3  -1    1.04    1.21
   6   3  -1    1.86    1.19
  -3  -2 -12    4.62    1.34
  -3  -2 -12    6.75    1.26
   3   2  12    4.71    1.33
   3   2  12    4.05    1.74
   4   6  11  112.90    5.79
   4   6  11  134.63    5.93
   4   6  11  126.46    5.99
  -4  -6 -11  127.23    6.01
  -4  -6 -11  123.31    6.07
   4   6  11  133.52    5.99
  -4  -6 -11  132.80    5.92
  -2  -6 -12    0.26    1.42
   2   6  12    2.01    1.39
   2   6  12    2.09    1.46
  -2  -6 -12    3.79    1.31
   0  10   5   21.78    2.04
   0  10   5   17.88    1.51
   0 -10  -5   18.42    1.78
   0 -10  -5   27.82    2.70
   5  -6  -4   25.21    2.52
  -5   6   4   21.30    2.50
  -5   6   4   21.89    1.55
   5  -6  -4   25.41    1.74
   5  -6  -4   22.84    2.05
   5  -6  -4   23.63    2.62
   5  -6  -4   23.51    2.70
  -5   6   4   25.06    1.90
   4  -3  -8   11.22    1.95
  -4   3   8    9.94    1.44
  -4   3   8    9.50    1.83
   4  -3  -8    8.34    1.50
   4  -3  -8    8.36    1.79
   4  -3  -8    8.04    2.04
   6   2   9    0.48    1.58
   6   2   9   -0.02    0.90
  -6  -2  -9   -0.36    1.44
   6   2   9    0.43    0.60
   6   2   9    1.70    1.20
  -7   0  -4  107.01    5.78
   7   0   4  107.21    5.07
  -7   0  -4  111.94    5.13
   7   0   4  116.31    5.25
  -1  -1  10   23.87    1.85
   1   1 -10   19.81    1.86
   1   1 -10   23.79    1.84
   1   1 -10   14.07    1.88
   1   1 -10   19.14    1.47
  -7   0  -2   13.73    1.63
   7   0   2   17.05    1.78
  -7   0  -2   13.18    2.29
   7   0   2   14.41    1.48
   0 -10  -4   14.10    1.65
   0  10   4   15.64    1.24
   0 -10  -4   19.86    2.37
   0  10   4   10.14    1.24
   0  10   4   13.65    1.82
   3  -7  -8    8.36    1.35
   3  -7  -8    4.81    2.30
   3  -7  -8    7.80    1.85
  -3   7   8    6.14    1.72
  -3   7   8    5.29    1.86
   3  -7  -8    5.46    2.35
  -3   7   8    6.67    1.37
   0   9   9   52.49    3.61
   0  -9  -9   63.74    3.24
   0  -9  -9   67.76    3.38
   0   9   9   52.66    3.47
   0   9   9   59.91    3.46
   6   2  -2   73.78    4.13
   6   2  -2   74.10    3.78
  -6  -2   2   76.06    3.95
   6   2  -2   75.47    3.71
  -6  -2   2   74.82    3.85
  -2  -4   7  143.33    7.11
   2   4  -7  130.52    6.57
   2   4  -7  151.33    6.59
   2  -9   0  103.39    5.45
  -2   9   0  104.82    4.35
  -2   9   0  104.87    4.45
   2  -9   0  107.20    5.06
  -2   9   0  109.34    5.08
  -2   9   0  100.73    4.75
  -2   9   0  100.57    4.56
   6   3   9   13.46    1.78
  -6  -3  -9   10.95    1.35
  -6  -3  -9   13.05    1.69
   6   3   9   12.18    1.18
   6   3   9    8.06    1.39
  -1   6  11   27.75    2.17
   1  -6 -11   22.66    1.65
   1  -6 -11   28.03    1.98
  -1   6  11   21.40    2.17
   1  -6 -11   25.27    2.42
  -1   6  11   26.93    2.01
   3   9   3   73.03    3.77
   3   9   3   70.43    4.21
   3   9   3   68.62    3.91
   5   7   8   17.35    1.61
   5   7   8   17.56    1.71
   5   7   8   20.60    1.86
   0   8  -3   28.17    2.08
   0   8  -3   34.33    1.82
   0   8  -3   30.15    2.78
  -1 -10  -5   13.54    2.40
   1  10   5   13.11    1.31
   1  10   5   16.87    1.49
  -1 -10  -5   14.67    1.67
   0   4  12    3.11    1.50
   0   4  12    2.83    1.42
   0  -4 -12    2.15    1.66
   0  -4 -12    3.58    1.63
   0  -4 -12    2.23    1.33
   0   4  12    3.30    1.44
  -2  -5   6   97.55    5.22
   2   5  -6   98.04    4.59
   2   5  -6   88.72    4.88
   4  -8  -2   66.96    3.04
  -4   8   2   72.30    3.64
  -4   8   2   62.34    3.90
  -4   8   2   60.35    2.90
   4  -8  -2   60.39    4.11
   4  -8  -2   66.43    3.45
  -4   8   2   69.63    3.93
  -4   8   2   69.80    3.40
  -5   5  -5   64.99    3.11
  -5   5  -5   83.33    4.19
   5  -5   5   87.46    4.39
  -5   5  -5   79.17    3.90
   4  -6  -7    2.25    2.25
  -4   6   7    2.58    1.22
   4  -6  -7    2.20    1.26
  -4   6   7    2.51    1.78
   4  -6  -7    5.03    2.03
  -4   6   7    3.62    1.57
   4  -6  -7    4.68    1.70
   4  -6  -7    4.49    2.33
  -1  -6 -12   27.82    2.14
  -1  -6 -12   22.76    1.79
   1   6  12   20.66    2.12
   1   6  12   28.54    2.07
   6   5   2    1.89    1.20
   6   5   2    1.55    1.52
   6  -4   4    0.36    1.53
   6  -4   4    0.13    0.47
   6  -4   4    0.28    0.62
  -6   4  -4   -0.67    1.08
  -6   4  -4   -1.37    1.59
   6  -4   4    0.40    0.58
   5  -1  -6    0.88    1.77
  -5   1   6    0.91    1.52
   5  -1  -6    0.77    1.74
   5  -1  -6   -0.35    1.59
   5  -1  -6   -0.31    1.36
  -3  -9  -8   40.33    2.38
  -3  -9  -8   39.00    2.31
   3   9   8   45.64    2.43
  -3  -9  -8   33.63    2.33
   3   9   8   39.12    2.60
   3   9   8   35.77    2.52
  -4   2   8    7.58    1.37
  -4   2   8   10.51    1.76
   4  -2  -8    7.96    1.75
   4  -2  -8    8.66    1.51
   4  -2  -8    7.73    1.86
   4  -2  -8   10.00    1.95
   3   4  -6   25.50    1.96
  -3  -4   6   24.99    2.43
   3   4  -6   28.25    2.20
  -5   0 -10   49.39    3.10
   5   0  10   55.12    2.79
   5   0  10   50.08    3.09
  -5   0 -10   56.71    2.81
  -7  -1  -2    2.95    0.69
   7   1   2    5.23    1.55
  -7  -1  -2    5.83    2.04
  -3   8  -2   10.66    1.58
   3  -8   2    6.55    2.21
  -3   8  -2   11.97    2.16
  -3   8  -2    9.61    1.98
  -3   8  -2   14.30    1.49
  -3   8  -2    7.52    2.25
   7   1   5  145.58    6.69
  -7  -1  -5  135.52    7.29
   7   1   5  159.11    6.94
  -7  -1  -5  152.76    6.75
   7   1   5  149.58    7.02
   5  -6   3    8.48    1.76
  -5   6  -3   11.54    2.02
  -5   6  -3    6.71    2.34
   5  -6   3    8.86    1.01
  -5   6  -3    7.79    1.88
  -5   6  -3    8.07    1.13
  -1 -10  -6    2.48    2.26
   1  10   6    5.79    1.21
  -4   8   1   31.48    2.34
  -4   8   1   27.25    1.61
   4  -8  -1   26.64    2.83
   4  -8  -1   27.89    1.93
  -4   8   1   28.82    2.09
  -4   8   1   30.76    2.72
  -4   8   1   27.57    2.88
  -7   1  -3   85.88    3.81
  -7   1  -3   70.60    4.29
   7  -1   3   80.99    3.99
  -7   1  -3   67.47    3.47
   7  -1   3   81.13    3.88
   0   3  12   43.88    2.34
   0  -3 -12   38.45    2.58
   0  -3 -12   38.29    2.44
   0  -3 -12   39.70    2.55
   0  -3 -12   37.93    2.45
   0   3  12   32.77    2.28
   0   3  12   38.32    2.40
  -7  -2  -4    0.04    2.13
   7   2   4    0.91    1.23
   7   2   4    1.29    1.57
   1  10   4    0.99    1.98
  -1 -10  -4    0.94    1.36
   1  10   4    0.70    1.56
  -1 -10  -4    0.31    2.14
   1  10   4    1.51    1.10
   1  10   4    1.42    1.04
   0  10   6   43.17    2.43
   0 -10  -6   45.31    2.69
   0  10   6   40.14    3.15
   0 -10  -6   44.47    3.40
   0 -10  -6   44.63    2.49
   0  10   6   44.85    2.90
   2  -1  11   53.59    2.80
   2  -1  11   46.60    3.33
  -2   1 -11   40.35    2.84
  -2   1 -11   39.83    2.50
   4  -4  -8   87.35    4.01
   4  -4  -8   76.62    4.28
   4  -4  -8   71.23    4.34
   4  -4  -8   76.75    4.09
  -4   4   8   87.45    4.08
  -4   4   8   70.94    4.25
   4  -4  -8   68.50    4.20
  -4   6  -5   20.84    1.74
  -4   6  -5   20.64    2.32
  -4   6  -5   20.36    1.38
  -4   6  -5   16.82    1.96
  -4   6  -5   23.05    2.17
   7  -1   2  115.65    5.59
   7  -1   2  119.31    5.49
  -7   1  -2  130.39    5.96
  -7   1  -2  116.40    6.25
   7  -1   2  118.17    5.47
   4  -8  -3   73.39    4.59
  -4   8   3   72.89    3.42
   4  -8  -3   80.56    3.94
  -4   8   3   78.57    4.04
  -4   8   3   67.20    4.26
  -4   8   3   76.82    3.82
  -4   8   3   70.08    4.18
   4  -8  -3   76.23    3.59
   4   8   2   59.73    3.62
   4   8   2   66.26    3.37
   4   8   2   58.55    3.43
   4   8   2   73.64    3.51
  -1   7  -5   70.87    3.80
   1  -7   5   86.25    4.85
  -1   7  -5   90.73    3.76
  -1   7  -5   79.13    3.90
  -1   7  -5   79.90    4.61
  -1   7  -5   72.08    4.01
  -4   7   6    3.08    1.56
   4  -7  -6    3.83    1.73
  -4   7   6    1.51    1.13
   4  -7  -6    4.65    2.36
   4  -7  -6    2.10    1.13
  -4   7  -3   -0.38    1.80
  -4   7  -3   -0.35    1.27
  -4   7  -3    0.07    1.84
  -4   7  -3   -0.50    2.04
  -4   7  -3   -1.83    1.17
   0   2 -10   33.55    2.26
   0  -2  10   35.84    2.97
   0  -2  10   38.26    2.31
   0   2 -10   35.95    2.30
   0   2 -10   34.78    2.29
  -3  -5   5   47.62    3.24
   3   5  -5   43.93    2.99
   3   5  -5   52.35    2.79
  -6  -4   0    8.09    1.59
   6   4   0   10.27    1.40
   6   4   0    9.15    1.75
  -6  -4   0   10.49    1.65
   1  -1 -11    3.36    1.62
  -1   1  11    4.22    1.35
   6   5   8    3.59    1.34
   6   5   8    7.65    1.31
   6   5   8    7.95    1.39
   6  -2   7   13.37    1.71
  -6   2  -7   10.05    2.51
  -6   2  -7   12.25    1.56
  -6   2  -7    9.93    1.27
  -6   2  -7   12.26    1.50
   6  -2   7   13.41    1.20
  -2   8  -3  105.33    4.47
  -2   8  -3   69.81    3.18
  -2   8  -3   66.96    3.17
  -2   8  -3   88.78    3.67
  -2   8  -3   85.81    4.00
  -2   8  -3   82.40    3.61
   0 -10  -3    6.23    2.13
   0  10   3    6.25    1.10
   0  10   3    4.87    1.09
   0  10   3    7.16    1.62
   0  10   3    4.17    2.18
   0 -10  -3    6.62    1.43
   5  -4  -6    3.76    1.71
  -5   4   6    5.32    1.23
   5  -4  -6    2.43    1.97
   5  -4  -6    1.69    2.16
   5  -4  -6    5.54    1.34
   6  -5   0  110.52    4.96
   6  -5   0   85.17    5.52
   6  -5   0  106.85    4.77
   6  -5   0   97.56    5.42
  -6   5   0   92.32    5.51
   6  -5   0  100.83    5.24
  -6   5   0  109.39    4.93
   0  -5 -12    1.47    1.65
   0  -5 -12    1.23    1.71
   0   5  12   -0.06    1.55
   0   5  12    0.23    1.43
   4   1  -7   49.87    2.76
  -4  -1   7   59.56    3.60
   4   1  -7   52.89    3.00
  -7  -2  -3    3.59    2.11
   7   2   3    4.99    1.61
  -6  -1  -9   31.69    2.24
   6   1   9   44.49    2.38
   6   1   9   37.56    2.64
  -2  -1 -12   84.08    3.58
   2   1  12   82.19    3.39
   2   1  12   83.77    3.93
  -2  -1 -12   74.45    3.49
  -2  -1 -12   75.71    3.71
   2   3  -8  135.40    4.29
  -2  -3   8  147.17    7.31
   2   3  -8  154.45    4.60
   2   3  -8  140.13    4.63
  -1   9  -1  109.08    4.55
  -1   9  -1   89.42    4.88
   1  -9   1   90.09    4.68
  -1   9  -1   97.71    4.51
  -1   9  -1   93.79    4.86
  -3   6  -6   18.77    0.98
  -3   6  -6   22.25    1.40
  -3   6  -6   17.82    2.27
  -3   6  -6   24.60    2.38
  -3   6  -6   24.73    1.89
   7   2   5    1.25    1.66
   7   2   5    0.98    0.98
  -7  -2  -5    0.66    1.19
   7   2   5   -0.25    1.27
   6  -5   1   82.14    3.78
   6  -5   1   78.92    3.61
   6  -5   1   70.20    4.35
   6  -5   1   70.17    4.13
  -6   5  -1   77.13    3.70
  -5  -6   0   89.34    4.33
   5   6   0  101.73    4.63
   5   6   0   86.25    4.63
  -5  -6   0  105.70    4.91
   7   0   5    0.92    0.73
  -7   0  -5    2.72    2.27
   7   0   5    2.94    1.16
   7   0   5    4.71    0.92
  -7   0  -5    3.29    1.15
   0   9  -1   17.09    2.39
   0   9  -1   20.20    1.36
   0   9  -1   14.39    1.70
   0  -9   1   13.30    1.86
  -4  -8  -9    7.17    1.41
  -4  -8  -9    5.58    1.33
   4   8   9    7.60    1.55
  -4  -8  -9    7.41    1.38
   4   8   9    8.06    1.58
   4   8   9    5.00    1.50
   7   0   1   -1.59    1.45
   7   0   1   -0.47    1.26
   7   0   1    0.96    1.12
  -7   0  -1    0.33    2.08
  -7   0  -1    1.40    1.44
   2  -9  -7   54.64    3.17
  -2   9   7   55.73    3.67
  -2   9   7   57.53    2.98
  -2   9   7   58.33    3.33
   2  -9  -7   53.69    2.90
   2  -9  -7   63.81    3.80
  -3   9   3   66.59    3.49
   3  -9  -3   66.21    4.21
   3  -9  -3   67.88    3.51
  -3   9   3   67.19    3.73
   3  -9  -3   66.32    3.13
  -3   9   3   64.25    3.07
  -3   9   3   62.85    3.99
   3   3  -7   54.13    2.85
  -3  -3   7   52.01    3.45
   3   3  -7   42.26    2.91
   3  -8  -7   22.32    1.69
   3  -8  -7   25.13    2.08
   3  -8  -7   20.40    1.20
  -3   8   7   26.16    2.16
  -3   8   7   22.00    1.73
   3  -8  -7   26.02    2.67
  -6  -4  -9   46.95    2.61
   6   4   9   37.59    2.59
   6   4   9   49.64    2.51
   6   4   9   47.11    2.47
  -1   1 -11   25.57    2.28
   1  -1  11   33.29    2.12
   1  -1  11   30.62    2.77
  -1   1 -11   26.48    2.05
  -1   1 -11   31.70    1.99
   7  -1   4   28.79    1.85
  -7   1  -4   27.89    1.64
   7  -1   4   28.60    2.09
   7  -1   4   29.36    2.50
  -7   1  -4   31.26    2.03
  -7   1  -4   22.47    1.47
   7  -1   4   27.39    1.70
  -7   1  -4   22.64    2.67
  -4   0 -11  110.44    5.15
   4   0  11  116.19    6.13
  -4   0 -11  123.09    5.36
   4   0  11  133.27    5.93
   6  -1   8   28.33    1.79
  -6   1  -8   27.50    1.53
  -6   1  -8   28.54    2.12
   6  -1   8   27.74    2.21
   3  -6  -9   61.08    3.16
   3  -6  -9   64.28    2.95
  -3   6   9   63.61    3.62
  -3   6   9   64.10    3.41
   3  -6  -9   60.44    3.52
   3  -6  -9   61.65    3.51
   3  -6  -9   45.13    2.34
  -6  -1   3   53.55    3.04
  -6  -1   3   49.99    3.02
   6   1  -3   53.87    3.12
   6   1  -3   59.15    3.13
  -6   3  -6   30.69    2.08
   6  -3   6   31.64    2.25
   6  -3   6   33.09    1.78
  -6   3  -6   30.80    2.18
  -6   3  -6   30.34    2.95
   7  -1   1   22.04    1.77
   7  -1   1   21.87    1.66
   7  -1   1   22.86    1.89
  -7   1  -1   25.06    2.68
  -7   1  -1   25.64    2.14
   1 -10  -4    0.61    2.24
   1 -10  -4    2.04    1.39
  -1  10   4    0.26    1.76
  -1  10   4    2.20    0.95
  -1  10   4    2.50    1.64
   6  -5  -1   84.12    5.33
   6  -5  -1   95.12    5.20
  -6   5   1  100.50    4.63
   6  -5  -1  104.20    4.75
  -6   5   1   87.74    5.19
   6  -5  -1   91.20    4.98
   6  -5  -1   99.15    4.54
   5   3  11   54.87    3.15
  -5  -3 -11   54.48    2.95
  -5  -3 -11   54.60    2.62
   5   3  11   61.61    2.95
   5   3  11   61.30    3.21
   3  -9  -2  108.74    5.19
   3  -9  -2  108.37    5.75
  -3   9   2   99.17    5.30
  -3   9   2   97.90    4.49
  -3   9   2  105.47    5.09
  -3   9   2  108.83    4.96
  -3   9   2  100.73    5.32
  -2   7  -5    5.46    1.21
  -2   7  -5    6.07    1.88
  -2   7  -5    5.98    0.66
  -2   7  -5    5.46    1.07
   2   6  -5   71.63    4.14
   2   6  -5   70.83    3.63
  -2  -6   5   71.11    4.27
   3   6  12   45.69    2.66
   3   6  12   39.39    2.63
   3   6  12   49.14    2.71
  -3  -6 -12   46.01    2.65
  -3  -6 -12   48.37    2.71
   6  -4  -3    5.26    1.23
   6  -4  -3    5.11    2.29
   6  -4  -3    3.83    1.52
  -6   4   3    4.20    1.92
   6  -4  -3    4.50    2.25
  -6   4   3    4.14    2.17
   1  10   7   23.12    1.83
  -1 -10  -7   39.81    2.19
  -1 -10  -7   21.19    2.93
   1  10   7   34.90    1.99
  -1  -8 -11  114.02    5.36
   1   8  11  109.75    5.31
   1   8  11  106.84    5.05
  -1  -8 -11  105.87    5.26
   1   8  11   99.28    5.35
   1   8  11  113.77    5.25
   5   6  10   50.99    3.00
   5   6  10   58.53    3.09
  -5  -6 -10   53.97    2.87
  -5  -6 -10   60.79    3.16
  -4   8   0    4.91    1.69
  -4   8   0    6.99    1.43
  -4   8   0    4.28    2.31
   4  -8   0    7.89    1.32
  -4   8   0    4.93    2.18
   4  -8   0    6.26    2.33
  -4   8   0    5.68    1.07
  -4   8   0    9.44    2.09
  -4   8   0    4.41    0.39
   1 -10  -5   11.89    1.58
  -1  10   5    8.33    2.30
  -1  10   5   11.61    1.22
   1 -10  -5    9.05    1.18
  -1  10   5    8.15    1.98
  -1  10   5   10.78    1.88
   1 -10  -5   13.51    2.47
  -3   9   4   60.88    3.09
  -3   9   4   74.40    2.42
  -3   9   4   63.46    2.94
   3  -9  -4   60.66    4.35
   3  -9  -4   62.93    3.76
  -1 -10  -3    2.45    1.97
   1  10   3    3.22    2.14
   1  10   3    0.11    1.49
  -1 -10  -3    1.42    1.38
   1  10   3    0.36    1.08
   1  10   3   -0.25    1.10
   1   4  -8   45.94    2.09
   1   4  -8   47.77    2.51
   1   4  -8   52.75    2.48
   1   5  -7   48.06    1.94
   1   5  -7   45.36    2.58
  -2  -8 -11   79.58    3.83
   2   8  11   79.47    4.08
   2   8  11   76.98    4.19
   2   8  11   85.83    4.22
   2   8  11   79.35    3.96
  -2  -8 -11   78.36    3.98
  -2  -8 -11   76.16    3.97
   4  -8  -4   43.58    2.22
  -4   8   4   39.92    2.64
  -4   8   4   43.70    2.23
   4  -8  -4   40.64    2.62
  -4   8   4   41.44    2.91
  -1  -1 -12    0.01    1.49
  -1  -1 -12    0.63    1.54
  -1  -1 -12    1.32    1.32
   1   1  12    1.17    1.25
   1   1  12   -0.38    1.95
  -5  -4   3   61.57    3.59
   5   4  -3   61.43    3.33
  -5  -4 -11    9.13    1.61
   5   4  11    7.57    1.80
  -5  -4 -11    5.75    1.05
   5   4  11   11.44    1.48
   5   4  11   11.11    1.49
   5   4  11    6.37    1.32
   6   6   5   24.79    1.75
   6   6   5   18.00    1.34
   6   6   5   18.72    1.87
   6   6   5   26.03    1.81
  -5  -3   4   85.63    4.55
   5   7   2   27.52    2.14
   5   7   2   26.64    2.02
  -5   7   1   49.03    2.33
   5  -7  -1   52.29    2.72
   5  -7  -1   37.70    3.44
  -5   7   1   32.08    1.73
   5  -7  -1   42.33    3.12
   5  -7  -1   48.30    2.25
   4  -1  -8   34.32    2.44
   4  -1  -8   33.43    2.41
  -4   1   8   33.56    2.36
   4  -1  -8   31.05    2.27
  -1   8  10    2.30    1.33
  -1   8  10   -1.12    1.89
   1  -8 -10    3.09    1.28
   1  -8 -10    0.91    2.39
   6  -5   2   17.77    1.29
   6  -5   2   13.08    0.95
   6  -5   2   16.38    2.00
  -6   5  -2   11.52    0.80
   6  -5   2   15.82    2.24
  -6   5  -2   13.69    1.26
  -6   5  -2   16.99    1.99
  -6   5  -2   17.65    1.23
   6  -5   2   15.08    0.97
   1 -10  -3   13.34    1.61
   1 -10  -3   14.58    2.45
  -1  10   3   14.36    2.39
  -1  10   3   12.20    1.82
  -1  10   3   15.51    1.22
  -1  10   3   10.66    1.93
  -1  10   3   14.34    1.21
   0   7  -5   33.36    2.17
   0   7  -5   31.36    2.12
   0   7  -5   37.90    2.02
  -3   1 -11   59.75    2.25
  -3   1 -11   61.08    2.16
   3  -1  11   62.26    3.16
   3  -1  11   57.72    3.61
   7   1   1   53.91    2.82
  -7  -1  -1   51.71    2.64
   7   1   1   53.10    2.95
  -7  -1  -1   49.94    3.34
   7   1   1   48.86    2.73
   6   6   6   11.52    1.58
   6   6   6    9.42    0.87
   6   6   6   13.88    1.42
   4  -3   9   34.43    2.79
  -4   3  -9   24.30    1.78
  -4   3  -9   33.79    1.57
  -4   3  -9   26.41    1.34
   4  -3   9   37.11    2.01
  -4   3  -9   21.35    1.36
  -4   3  -9   32.02    2.16
  -4   3  -9   33.20    2.25
  -5   3  -8    6.90    1.65
   5  -3   8    6.02    0.92
  -5   3  -8    4.42    2.17
   5  -3   8    6.67    1.26
  -7  -2  -2   98.54    4.52
   7   2   2  107.75    4.84
  -7  -2  -2   78.61    3.73
   7   2   2   91.14    4.62
   0 -10  -7  125.23    6.16
   0  10   7  114.36    6.30
   0 -10  -7  113.59    5.58
   0  10   7  131.18    5.71
   0  10   7  121.22    5.84
   0 -10  -7  122.64    5.71
   4   4  12   41.00    2.71
   4   4  12   51.47    2.92
   4   4  12   50.50    2.89
  -4  -4 -12   44.39    2.42
  -4  -4 -12   51.56    2.78
  -4  -4 -12   43.23    2.63
   4   4  12   50.42    2.66
  -4   4  -8   13.33    1.87
   4  -4   8   13.49    2.08
  -4   4  -8   18.37    1.88
  -4   4  -8   13.91    0.97
  -4   4  -8   13.19    1.03
  -4   4  -8   20.18    2.30
   4  -4   8   14.05    1.11
  -4   4  -8   14.69    0.98
  -4   4  -8   17.99    1.67
   7   1   6    0.69    0.72
  -7  -1  -6    2.64    1.18
   7   1   6    1.32    0.84
   7   1   6    0.87    1.20
   0  -2 -12   64.20    3.51
   0   2  12   69.11    3.63
   0  -2 -12   67.19    3.56
   0   2  12   69.44    3.95
   4   3  12   14.26    1.88
   4   3  12   13.01    1.35
  -4  -3 -12    8.86    1.39
  -4  -3 -12    9.77    1.17
   4   3  12   10.78    1.78
   4   3  12   10.73    1.45
  -4  -3 -12   12.69    1.73
   5   2  11   28.57    1.63
   5   2  11   34.25    2.19
   5   2  11   33.35    2.06
  -5  -2 -11   31.54    1.90
  -5  -2 -11   25.57    1.40
   2   0 -10   32.10    2.23
  -2   0  10   31.45    2.17
   2   0 -10   29.60    2.32
   6  -2  -4   51.26    3.56
  -6   2   4   56.71    3.36
  -6   2   4   58.90    3.50
   6  -2  -4   63.73    3.20
   6  -2  -4   57.12    3.50
   6  -2  -4   57.16    3.26
   3   1  12   11.72    1.14
   3   1  12   13.90    2.01
  -3  -1 -12   17.09    1.47
   3   1  12   16.52    1.55
  -3  -1 -12   14.78    1.57
  -3  -1 -12   17.14    1.92
   7   2   6   65.20    3.49
   7   2   6   65.13    3.29
  -7  -2  -6   61.97    3.18
   7   2   6   59.31    2.97
   5  -7  -2   71.52    3.20
   5  -7  -2   67.16    3.55
  -5   7   2   65.40    3.44
   5  -7  -2   60.24    4.06
   5  -7  -2   59.69    3.87
   3   6  -4  103.36    4.83
   3   6  -4   94.65    5.15
  -3  -6   4   99.62    5.39
   2   8  -2   26.22    2.54
   2   8  -2   24.56    1.68
   2   8  -2   22.56    1.94
  -2  -8   2   24.88    2.62
  -3   0   9   38.74    2.42
  -3   0   9   42.21    2.90
   3   0  -9   35.92    2.47
   3   0  -9   31.96    2.22
   3   0  -9   32.97    2.33
   7  -2   2   28.29    2.63
  -7   2  -2   29.78    2.90
   7  -2   2   26.27    1.76
  -7   2  -2   27.93    2.22
   7  -2   2   28.41    1.88
   5   0  -6    9.70    1.73
   5   0  -6   11.20    1.60
  -5   0   6    9.39    1.71
   5   0  -6    7.61    1.83
   5   0  -6    7.21    1.74
   4  -5  -8   18.42    2.48
   4  -5  -8   21.11    2.63
  -4   5   8   18.62    1.94
   4  -5  -8   15.44    1.05
   4  -5  -8   20.33    2.40
   4  -5  -8   19.03    1.82
   4  -5  -8   20.00    2.14
  -4   5   8   17.91    1.73
   3   9   2   17.57    2.21
  -3  -9  -2   14.81    1.83
   3   9   2   20.07    1.70
   3   9   2   20.25    1.70
  -5   7   0    4.42    0.96
  -5   7   0    4.14    1.37
   5  -7   0    7.23    2.49
   5  -7   0    4.07    1.83
  -5   7   0    3.01    2.31
   5  -7   0    5.91    1.27
   0  10   2   12.57    1.19
   0 -10  -2    9.17    1.49
   0  10   2    9.03    1.67
   0 -10  -2    9.59    2.18
   0  10   2   10.42    1.28
   0  10   2    9.17    2.37
  -2   8   9   11.40    1.49
   2  -8  -9   10.47    1.42
   2  -8  -9    8.94    1.85
  -2   8   9   13.56    2.09
   2  -8  -9   14.33    2.70
   5  -2   9    5.80    1.08
   5  -2   9    5.46    1.15
  -5   2  -9    4.12    1.37
  -5   2  -9    6.07    0.94
   5  -2   9    5.40    1.69
   2  10   5   38.58    2.18
   2  10   5   35.74    2.26
  -2 -10  -5   37.16    2.93
   2  10   5   35.01    2.90
   6  -1  -4   38.88    2.58
   6  -1  -4   40.61    2.47
   6  -1  -4   38.53    2.78
  -6   1   4   38.11    2.68
   6  -1  -4   35.97    2.87
   2  10   6   86.97    3.86
   2  10   6   61.32    3.94
  -3   9   1   16.94    2.35
  -3   9   1   15.96    1.04
  -3   9   1   18.70    1.84
   3  -9  -1   16.87    1.64
  -3   9   1   18.67    2.44
   3  -9  -1   17.91    2.65
  -3   9   1   17.18    2.05
   6   6   4    9.51    1.36
   6   6   4    8.49    1.44
   6   6   4    6.31    1.05
   7   3   4   43.68    2.77
   7   3   4   47.29    2.60
   7   3   4   46.83    3.02
   7   3   4   56.28    2.94
   5   7   9   39.70    2.59
   5   7   9   48.73    2.75
   7   3   5   34.92    2.35
   7   3   5   39.08    2.63
   7   3   5   35.73    2.15
   7   3   5   43.25    2.58
  -1  -9 -10    3.72    1.31
   1   9  10   11.79    2.12
   1   9  10    8.35    1.77
   1   9  10    5.80    1.40
  -1  -9 -10    6.75    1.21
  -7   2  -3   25.02    1.87
  -7   2  -3   29.76    2.14
  -7   2  -3   28.13    2.83
   7  -2   3   32.89    2.65
   7  -2   3   30.26    1.78
   7  -2   3   24.52    1.84
   7  -2   3   26.85    2.03
   0   6  12   40.85    2.79
   0   6  12   42.27    2.62
   0  -6 -12   41.32    2.48
   0  -6 -12   45.05    2.68
   0  -6 -12   46.03    2.90
   0  -6 -12   46.45    2.88
   0   6  12   45.54    2.73
  -3  -9  -9   27.40    1.92
   3   9   9   29.39    2.02
   3   9   9   26.78    1.95
   3   9   9   23.86    2.24
  -3  -9  -9   24.96    1.95
  -3  -9  -9   26.05    1.95
   1 -10  -6   16.25    2.57
   1 -10  -6   11.44    1.58
  -1  10   6   11.17    1.91
  -1  10   6   13.33    1.12
  -1  10   6    7.09    1.26
  -1  10   6   13.33    2.10
  -1  10   6   12.44    2.40
   5  -4   7    0.29    0.56
  -5   4  -7    0.53    1.65
  -5   4  -7   -0.40    2.11
   5  -4   7    0.56    1.27
   7  -1   5   10.98    2.01
   7  -1   5    7.02    0.76
  -7   1  -5    7.58    2.44
   7  -1   5   12.11    1.66
  -7   1  -5   11.06    1.20
   7  -1   5    9.48    0.65
  -7   1  -5   11.15    1.49
  -7   1  -5   10.58    0.94
   7  -1   5   14.56    1.32
   7  -2   1  122.23    6.02
   7  -2   1  122.87    5.72
   7  -2   1  124.44    5.76
  -7   2  -1  118.36    6.25
  -7   2  -1  124.42    5.90
   6  -5  -2   41.92    2.38
   6  -5  -2   42.81    3.21
   6  -5  -2   44.61    2.65
  -6   5   2   41.76    3.16
   6  -5  -2   40.95    3.36
   6  -5  -2   44.35    3.02
  -6  -5  -1   -0.30    1.59
  -6  -5  -1    0.74    1.47
   6   5   1   -0.05    1.61
   6   5   1    0.40    1.22
   6   6   7   66.77    2.86
  -6  -6  -7   72.78    3.73
   6   6   7   63.56    3.00
   1   8  -3    2.87    1.03
   1   8  -3    2.44    2.05
  -1  -8   3    4.23    2.14
   1   8  -3    2.33    1.37
   4   4  -5    9.89    1.88
   4   4  -5   13.04    1.59
  -4  -4   5   10.43    1.96
   5  -6  -5    4.22    1.30
   5  -6  -5    1.43    1.62
  -5   6   5    1.88    1.05
   5  -6  -5    0.87    2.35
  -5   6   5    0.17    1.51
  -5   6   5    0.98    2.10
  -2   9  -1   41.15    2.09
  -2   9  -1   39.38    3.01
  -2   9  -1   36.26    2.41
   2  -9   1   39.50    3.02
  -2   9  -1   38.51    2.26
  -2   9  -1   22.20    1.14
  -2   9  -1   22.46    1.14
  -1  -3   9  114.61    5.43
   1   3  -9   76.00    3.83
   1   3  -9   75.36    4.19
   1   6  -6    2.66    1.22
  -1  -6   6    4.73    2.24
   1   6  -6    2.40    2.03
  -5  -5   2  189.73    8.90
   5   5  -2  199.05    9.07
  -2  -7 -12   38.98    2.54
  -2  -7 -12   35.31    2.39
   2   7  12   37.98    2.49
   2   7  12   35.93    2.30
  -3   9   5   10.05    2.07
  -3   9   5   11.61    1.19
   3  -9  -5   10.03    2.59
   3  -9  -5   14.39    1.22
  -3   9   5    8.96    1.73
   3  -9  -5   10.01    1.66
   6  -3  -4   35.48    1.99
   6  -3  -4   33.42    2.24
   6  -3  -4   33.91    1.95
  -6   3   4   40.48    2.82
  -6   3   4   39.82    2.98
   6  -3  -4   37.69    2.46
   6  -3  -4   36.01    2.86
  -7   0  -6   41.10    2.21
   7   0   6   20.47    1.22
  -7   0  -6   32.19    3.19
   7   0   6   23.31    1.18
   7   0   6   35.54    2.17
   7   0   6   40.95    1.89
   7   0   6   35.56    2.28
  -7   1   0   21.03    2.50
   7  -1   0   20.35    1.78
  -7   1   0   20.85    2.04
   7  -1   0   21.72    1.83
   7  -1   0   23.10    1.70
   4   7  -1    1.67    1.75
  -4  -7   1    0.72    1.92
  -6   0  -9   28.44    2.14
   6   0   9   27.77    1.88
   6   0   9   29.71    2.29
  -2   7  10   15.75    2.14
   2  -7 -10   26.03    1.91
   2  -7 -10   17.89    2.52
   2  -7 -10   17.46    2.56
  -2   7  10   24.85    1.85
  -7   0   0   20.96    2.43
   7   0   0   24.66    1.66
   7   0   0   22.87    1.88
   7   0   0   22.03    1.94
   7   0   0   25.04    1.79
   5   2  -5   86.44    4.65
  -5  -2   5   96.68    5.02
   2  -4   9    8.74    1.17
   2  -4   9    7.90    2.16
  -2   4  -9    8.88    2.00
  -2   4  -9    6.88    1.10
  -2   4  -9    6.10    1.90
   4   5  12  145.25    7.01
  -4  -5 -12  153.14    7.02
  -4  -5 -12  144.36    6.97
   4   5  12  149.98    6.90
  -4  -5 -12  152.01    6.83
   4   5  12  152.43    7.01
  -4   2 -10   18.81    1.18
   4  -2  10   16.35    2.20
  -4   2 -10   14.14    0.88
  -4   2 -10   20.42    1.90
   4  -2  10   21.80    1.55
   2   2  -9    4.02    1.14
   2   2  -9    4.58    1.59
   2   2  -9    4.66    1.67
  -2  -2   9    7.82    1.38
  -2  -2   9    7.68    2.15
   2   2  -9    4.72    1.30
   2   2  -9    7.55    1.49
   3   2  -8    0.45    1.61
  -3  -2   8    1.45    1.96
   3   2  -8    1.51    1.39
   3   2  -8    2.03    1.73
   3   2  -8    2.16    1.42
   3   2  -8    1.59    0.91
   6  -4   5    1.51    1.56
   6  -4   5    1.40    0.58
  -6   4  -5    1.09    1.23
  -6   4  -5   -0.36    2.28
  -6   4  -5    1.01    1.51
   2   9  10   77.92    4.47
   2   9  10   77.39    4.21
   2   9  10   90.59    4.11
  -2  -9 -10   78.75    3.82
  -2  -9 -10   81.30    3.99
  -2  -9 -10   72.46    3.93
   2   9  10   84.26    4.36
   1  -9  -9  147.80    6.61
   1  -9  -9  143.48    6.78
  -1   9   9  162.75    7.37
  -1   9   9  159.22    7.68
  -1   9   9  155.71    7.05
  -1   9   9  162.05    7.70
  -5   5   6    2.96    1.53
   5  -5  -6    1.60    2.16
   5  -5  -6    2.44    2.32
  -5   5   6    3.99    1.20
   5  -5  -6    1.49    1.73
   5  -5  -6    3.93    1.32
   2  10   4   14.40    1.57
   2  10   4   17.96    2.45
  -2 -10  -4   24.00    2.50
   2  10   4   21.87    1.61
   4   2  12   42.41    2.79
  -4  -2 -12   38.97    2.65
  -4  -2 -12   41.89    2.16
   4   2  12   39.84    2.46
  -4  -2 -12   37.99    2.34
  -7  -3  -3   29.78    2.67
   7   3   3   22.27    1.80
   7   3   3   25.19    2.30
   7   3   3   30.13    2.20
  -1  -7 -12   46.63    2.67
   1   7  12   37.84    2.73
   1   7  12   43.94    2.63
  -1  -7 -12   40.23    2.42
   1   7  12   42.84    2.69
  -1  -7 -12   41.37    2.72
   1   7  12   41.02    2.43
  -1   7  11   11.86    1.64
   1  -7 -11   11.57    1.72
  -1   7  11   20.47    2.08
  -1   7  11   17.43    1.93
   1  -7 -11   19.23    1.38
   1  -7 -11   18.88    2.21
   1  -7 -11   20.29    2.29
  -1  10   2   49.64    3.04
  -1  10   2   53.28    2.57
   1 -10  -2   54.14    2.92
  -1  10   2   41.47    3.09
  -1  10   2   54.90    2.64
  -1  10   2   50.52    3.62
   1 -10  -2   48.27    3.45
   2   9   0    0.68    1.95
  -2  -9   0    2.28    1.45
   2   9   0    1.46    1.18
   2   9   0    0.96    1.43
  -4   5  -7   10.00    1.65
  -4   5  -7    9.42    1.81
  -4   5  -7    7.68    0.92
  -4   5  -7    7.79    1.64
  -4   5  -7    5.99    2.07
  -4   5  -7    9.01    0.60
   1   9  -1   -0.13    1.12
  -1  -9   1    0.25    1.48
   1   9  -1    1.31    1.40
   1   9  -1   -0.93    2.04
   2  10   7   39.04    2.24
   2  10   7   35.35    2.55
  -2 -10  -7   34.28    2.35
   2  10   7   33.96    2.30
   5  -7  -3   46.13    2.28
   5  -7  -3   38.30    3.07
   5  -7  -3   38.14    3.30
   5  -7  -3   42.62    2.69
  -5   7   3   45.05    2.58
  -5   7   3   35.01    3.21
  -5  -5 -11  213.44   10.72
   5   5  11  229.97    9.05
   5   5  11  227.37    9.22
  -5  -5 -11  234.64   10.59
   5   5  11  248.29    9.21
   1  -4   9   61.27    3.03
  -1   4  -9   53.46    3.30
  -1   4  -9   61.93    2.81
   1  -4   9   52.78    3.67
   2  -4 -11   98.65    5.38
  -2   4  11  118.65    5.62
  -2   4  11  111.91    5.60
   2  -4 -11  112.48    5.35
   2  -4 -11   99.89    5.04
   2  -4 -11  118.97    5.29
   2  -4 -11  107.00    5.49
  -2   5  -8    5.05    2.04
   2  -5   8    4.17    2.15
  -2   5  -8    4.30    1.09
  -2   5  -8    5.26    0.95
  -2   5  -8    5.55    1.85
   4   5  -4    8.66    1.46
   4   5  -4    4.29    1.66
  -4  -5   4    6.90    1.97
  -1   5  -8  161.55    7.51
   1  -5   8  152.36    7.60
  -1   5  -8  176.26    6.96
   7   3   6    0.10    1.03
  -7  -3  -6    0.72    1.20
   7   3   6   -0.96    1.27
   7   3   6    1.68    1.68
   4   7  11    1.19    1.50
   4   7  11    0.35    1.50
  -4  -7 -11    0.97    1.23
  -4  -7 -11    0.24    1.22
   1  10   8   13.05    1.45
  -1 -10  -8   10.08    1.43
   1  10   8    7.70    2.23
   1  10   8    7.84    1.31
  -1 -10  -8   11.52    1.41
   1  10   8    8.15    1.97
  -6  -5  -9    4.12    1.34
   6   5   9    3.22    1.28
   6   5   9    3.36    1.30
   6   5   9    4.00    1.35
   0   8  11   71.05    3.68
   0  -8 -11   67.14    3.61
   0   8  11   71.80    3.76
   0   8  11   66.04    3.34
   0   8  11   64.59    3.88
   4   3  -6   29.49    2.65
   4   3  -6   45.01    2.52
  -4  -3   6   45.78    3.17
  -5   7  -1    3.27    1.82
  -5   7  -1    1.39    2.29
  -5   7  -1    1.64    1.24
   5  -7   1    1.31    1.68
   5  -7   1    1.90    2.34
   5  -7   1    2.44    1.11
  -5   7  -1    1.82    1.94
  -4   8  -1    9.62    2.13
   4  -8   1    4.02    2.43
  -4   8  -1    7.43    1.65
  -4   8  -1    6.82    1.24
  -4   8  -1    8.67    2.24
  -4   8  -1    5.68    2.10
   4  -8   1    8.61    1.26
  -4   8  -1    6.91    1.45
   2  -3 -11   90.29    4.72
   2  -3 -11   91.33    4.46
  -2   3  11   98.62    4.91
   6  -5   3   -0.07    0.85
   6  -5   3   -0.48    0.41
  -6   5  -3    0.55    1.76
   6  -5   3    1.31    1.68
  -6   5  -3    0.49    1.08
   6  -5   3   -0.33    0.43
  -6   5  -3   -0.18    0.65
   4   8   1   80.66    3.98
   4   8   1   81.15    4.32
   4   8   1   73.92    4.03
  -5   6  -4    9.72    1.94
  -5   6  -4   10.80    1.44
   5  -6   4   10.05    1.75
  -5   6  -4    8.99    2.48
  -5   6  -4   10.69    2.04
  -5   6  -4   10.08    1.13
   1  10   2   28.58    1.86
   1  10   2   25.86    1.77
   1  10   2   25.69    2.81
  -1 -10  -2   26.09    2.42
   1  10   2   25.68    2.17
   7  -2   4    4.45    1.46
  -7   2  -4    3.63    2.32
  -7   2  -4    2.77    0.96
   7  -2   4    2.02    0.85
  -7   2  -4    5.80    1.55
   7  -2   4    2.77    1.09
   7  -2   4    3.34    2.05
  -7   2  -4    2.19    1.20
  -4   8   5   46.14    2.94
  -4   8   5   44.90    3.11
   4  -8  -5   46.66    2.96
   4  -8  -5   53.11    2.64
  -4   8   5   52.13    2.61
   3   8  -1    9.77    2.02
  -3  -8   1    9.53    2.14
  -7  -2  -1  103.71    5.11
  -7  -2  -1   96.13    4.59
   7   2   1  110.61    4.95
   7   2   1   93.71    4.77
   4   9   6   80.92    4.14
   4   9   6   83.11    4.35
   4   9   6   69.89    4.04
   4   9   6   85.35    3.97
  -6   0   4   45.73    2.93
  -6   0   4   49.57    2.87
   6   0  -4   49.98    3.02
   6   0  -4   55.03    3.05
  -2   3 -10   19.53    1.53
   2  -3  10   14.52    2.30
   2  -3  10   18.91    1.57
  -2   3 -10   14.78    1.43
  -5  -1 -11   66.67    2.32
  -5  -1 -11   31.39    1.60
   5   1  11   55.74    3.21
   5   1  11   50.61    3.25
   5   1  11   61.90    3.04
   6   6   3    4.14    1.29
   6   6   3    4.07    1.28
   6   6   3    2.67    1.52
  -3  -8 -11   34.85    2.16
  -3  -8 -11   28.01    2.07
   3   8  11   24.78    2.14
   3   8  11   31.50    2.11
   3   8  11   21.31    2.24
  -3  -8 -11   29.07    2.01
   0  -1  11   -1.30    2.05
   0   1 -11   -0.06    1.52
   0   1 -11    0.71    1.33
   0  -1  11    0.17    1.33
   6   3  -2    4.31    1.88
  -6  -3   2    4.03    1.44
   6   3  -2    0.60    1.30
  -6  -3   2    4.23    1.63
   6   3  -2    2.49    1.22
   2   7  -4   46.14    3.27
  -2  -7   4   49.33    3.57
   2   7  -4   42.96    2.51
   7  -2   0   46.22    2.68
   7  -2   0   43.24    2.56
  -7   2   0   46.37    3.42
   7  -2   0   45.65    2.59
  -7   2   0   47.02    2.95
   7  -2   0   47.27    3.00
  -5   1 -10    3.50    1.01
   5  -1  10    3.11    1.75
   5  -1  10    2.37    1.09
  -3   3  10  128.48    7.11
  -3   3  10  182.89    7.26
   3  -3 -10  164.13    7.22
   3  -3 -10  165.19    7.26
   0   9  10   68.06    3.33
   0   9  10   58.76    3.96
   0   9  10   61.11    3.86
   0   9  10   80.91    3.65
   0  -9 -10   80.07    3.75
   0  -9 -10   67.44    3.54
   0  -9 -10   73.37    3.91
   0   9  10   67.84    3.79
   3  -4 -10  108.56    5.26
   3  -4 -10   97.96    4.69
   3  -4 -10   99.45    5.07
   3  -4 -10  100.28    5.16
   3  -4 -10   94.86    4.93
  -3   4  10   98.58    4.90
  -3   4  10   97.19    4.97
   7   2   7    5.76    0.92
   7   2   7    3.67    1.31
  -7  -2  -7    4.26    1.24
   4   9   5   87.71    4.80
   4   9   5   96.57    4.47
   4   9   5   86.22    4.55
   4   9   5   93.20    4.61
   1   0 -11   56.76    3.26
   1   0 -11   58.01    3.28
  -1   0  11   53.36    3.01
  -3   8  -3   14.50    1.53
  -3   8  -3   13.69    2.45
  -3   8  -3   14.40    2.24
  -3   8  -3    9.02    2.13
  -3   8  -3   15.38    1.57
   5   8   6   63.57    3.40
   5   8   6   54.44    3.40
   5   8   6   55.11    3.35
  -7  -1   0   72.54    3.65
   7   1   0   73.63    3.68
   7   1   0   68.34    3.57
   7   1   0   77.68    3.73
   7   1   0   68.51    3.67
  -7  -1   0   73.17    4.10
   0  10   8   91.82    5.41
   0  10   8  108.30    4.77
   0  10   8   99.42    4.92
   0 -10  -8  107.74    5.11
   0 -10  -8  106.82    5.04
   0 -10  -8  104.84    5.70
   2  -5 -11  104.28    5.23
  -2   5  11   98.77    5.14
  -2   5  11  102.08    5.05
   2  -5 -11   94.04    4.64
  -2   5  11  103.30    5.10
  -2   5  11  105.11    5.08
   2  -5 -11  105.58    5.11
   2  -5 -11  105.55    4.94
   2  -5 -11   92.47    5.13
  -4  -8 -10    3.95    1.32
  -4  -8 -10    4.33    1.40
  -4  -8 -10    2.77    1.29
   4   8  10    1.18    1.55
   4   8  10    2.28    1.53
   6   3  10   26.22    1.87
   6   3  10   22.50    1.44
   6   3  10   23.57    1.52
   6   3  10   27.91    2.22
  -3   7  -5   26.49    2.58
  -3   7  -5   26.70    1.72
  -3   7  -5   23.55    2.50
  -3   7  -5   22.03    2.21
  -3   9   0   52.34    3.75
  -3   9   0   66.32    2.89
  -3   9   0   55.31    3.41
  -3   9   0   60.44    3.35
   3  -9   0   56.57    2.99
  -3   9   0   50.84    3.65
   3  -9   0   51.58    3.63
  -3   9   0   58.81    3.96
   7   1   7   61.32    2.81
   7   1   7   37.82    1.90
   7   1   7   69.82    2.56
  -7  -1  -7   61.57    3.12
   4   9   7   45.63    2.83
   4   9   7   51.93    2.77
   4   9   7   42.74    2.75
   4   9   7   46.96    3.00
   2  -9  -8   70.38    3.82
   2  -9  -8   72.23    3.60
  -2   9   8   74.18    3.98
   2  -9  -8   68.20    3.33
  -2   9   8   74.16    4.28
  -2   9   8   70.16    3.64
  -1   3 -10   77.10    4.90
  -1   3 -10  106.98    5.02
   1  -3  10  148.15    6.40
   1  -3  10  116.23    6.83
   1 -10  -7   66.19    3.83
  -1  10   7   60.97    3.99
  -1  10   7   62.52    4.16
   1 -10  -7   75.57    3.63
   1 -10  -7   75.06    4.45
  -1  10   7   71.94    3.53
  -1  10   7   71.09    3.29
  -1  10   7   72.71    3.88
  -2   0 -12    7.29    1.44
  -2   0 -12    7.86    1.74
  -2   0 -12    7.70    1.38
   2   0  12    7.82    2.06
   2   0  12    8.20    1.41
   5   8   5  172.60    8.25
   5   8   5  171.22    8.27
  -6  -6  -8   62.56    3.33
   6   6   8   56.81    2.66
   6   6   8   52.62    2.49
  -6  -4   1    2.24    1.58
   6   4  -1    0.32    1.27
  -6  -4   1    0.73    1.41
   6   4  -1   -1.14    1.73
  -4   7   7   12.65    2.19
   4  -7  -7   19.08    1.61
   4  -7  -7   13.60    2.73
   4  -7  -7   11.52    2.65
  -4   7   7   16.90    1.99
  -4   7   7   18.31    1.62
   4  -7  -7   17.77    2.05
  -2  -4 -13   31.95    2.21
   2   4  13   32.13    2.20
   2   4  13   24.46    2.13
   2   4  13   33.05    2.17
  -2  -4 -13   30.90    2.29
  -2  -4 -13   30.91    2.26
   2   4  13   31.51    1.82
   6   2  10   56.04    2.33
   6   2  10   50.11    2.60
  -6  -2 -10   58.04    2.95
  -6  -2 -10   49.67    3.10
   6   2  10   51.75    2.10
  -4   7  -4   19.80    2.30
  -4   7  -4   21.91    2.29
  -4   7  -4   22.85    1.63
  -4   7  -4   23.98    1.89
  -4   7  -4   23.50    2.53
   4   0  -8   64.66    3.47
   4   0  -8   60.86    3.37
  -4   0   8   54.77    3.39
   5  -5   6    6.19    1.47
  -5   5  -6    2.80    0.51
  -5   5  -6    3.95    1.53
  -5   5  -6    4.71    1.78
  -5   5  -6    3.11    1.35
  -6  -2   3   24.78    2.05
  -6  -2   3   27.17    2.24
   6   2  -3   17.61    2.41
   6   2  -3   28.01    2.01
  -1   8  -4   59.22    3.55
  -1   8  -4   63.56    3.31
  -1   8  -4   71.40    3.08
  -1   8  -4   55.92    3.23
   0   1  12  118.33    6.11
   0   1  12  119.86    5.73
   0  -1 -12  111.80    5.52
   0  -1 -12  111.95    5.46
   0  -1 -12  112.87    5.45
   1  -6   7   53.62    3.72
  -1   6  -7   52.95    2.63
  -1   6  -7   51.05    2.97
  -1   6  -7   45.86    2.73
  -1   6  -7   53.36    3.57
  -7  -3  -2  167.73    7.15
   7   3   2  157.94    7.64
  -7  -3  -2  140.20    6.54
   7   3   2  166.02    7.96
   7   3   2  182.19    7.79
  -3  -7 -12   11.99    1.57
   3   7  12   11.97    1.64
  -3  -7 -12   13.92    1.59
   3   7  12   11.93    1.68
   3   7  12   11.29    1.72
   2  10   3  108.54    5.91
  -2 -10  -3  114.95    5.71
   2  10   3  109.34    5.33
   2  10   3  116.22    5.30
   5   8   7   23.91    2.06
   5   8   7   25.42    2.07
   5   8   7   25.38    2.03
   5   8   7   27.00    2.11
   1  -4 -12   28.68    2.06
   1  -4 -12   29.99    2.42
   1  -4 -12   28.12    2.56
  -1   4  12   29.15    2.19
  -1   4  12   24.54    2.17
  -1   4  12   30.62    2.16
   0 -10  -1   -0.24    1.98
   0  10   1    2.51    1.17
   0  10   1    3.50    2.25
   0  10   1    2.06    1.52
   0  10   1    3.36    0.97
   2  10   8    0.48    1.25
   2  10   8   -0.27    1.68
  -2 -10  -8    1.43    1.27
  -2 -10  -8    0.49    1.30
   2  10   8    0.15    1.33
  -2 -10  -8    1.01    1.48
  -3   4  -9    1.03    0.90
  -3   4  -9    0.75    2.06
   3  -4   9    0.88    0.97
  -3   4  -9    1.01    1.75
   3  -4   9    1.98    2.10
  -3   4  -9    0.28    1.78
  -3   4  -9    0.79    0.83
   6  -4  -4    0.53    0.86
  -6   4   4    0.97    2.12
   6  -4  -4    0.01    1.23
  -6   4   4    0.27    1.93
   6  -4  -4   -0.07    0.80
   6  -4  -4   -0.30    1.62
   6  -4  -4    1.32    2.21
   6  -4  -4    0.99    2.34
  -2   6  -7    1.20    0.83
  -2   6  -7   -0.05    2.06
  -2   6  -7    1.04    1.91
  -2   6  -7    1.08    1.08
   2  -6   7    1.12    2.06
   5   7   1   47.26    2.80
   5   7   1   46.21    2.92
  -3  -7   3   15.56    2.48
   3   7  -3   16.42    2.24
   3   7  -3   16.59    1.55
  -2  10   4   18.46    2.44
  -2  10   4   24.62    2.26
   2 -10  -4   20.50    2.98
   2 -10  -4   22.31    2.05
  -2  10   4   30.66    1.70
   2  -2 -11   61.72    3.28
   2  -2 -11   57.55    3.46
  -2   2  11   59.67    3.27
   6  -5  -3   59.74    3.91
   6  -5  -3   53.64    4.14
  -6   5   3   59.92    3.86
   6  -5  -3   60.80    4.19
   6  -5  -3   66.07    3.67
  -3   9   6    2.27    2.26
   3  -9  -6    1.54    2.55
   3  -9  -6    3.07    1.14
  -3   9   6   -0.28    1.94
  -3   9   6    1.92    1.09
  -3   9   6    1.15    1.69
   3  -9  -6    3.30    1.60
  -1   9  -2   19.05    1.80
  -1   9  -2   15.89    1.85
  -1   9  -2   20.93    1.28
   1  -9   2   18.46    2.30
  -1   9  -2   20.17    1.27
  -3   7   9   42.10    2.96
   3  -7  -9   54.99    2.81
   3  -7  -9   43.59    3.12
   3  -7  -9   43.99    3.46
   3  -7  -9   40.87    3.47
  -3   7   9   37.10    2.97
  -7   1  -6    2.69    1.26
  -7   1  -6   -0.56    2.37
   7  -1   6    1.77    1.12
   7  -1   6    2.91    1.78
  -7   1  -6    2.31    1.04
  -7   1  -6    1.63    0.76
   7  -1   6    1.67    1.58
  -7   1  -6    2.97    1.41
  -2  -5 -13   13.54    1.81
  -2  -5 -13   16.30    1.75
  -2  -5 -13   16.07    1.83
   2   5  13   14.49    1.79
   2   5  13   15.75    1.81
   2   5  13   18.97    1.89
   7   3   7    9.19    1.20
  -7  -3  -7   12.70    1.48
   7   3   7   12.20    1.52
   7   3   7   11.37    1.92
  -2  10   3   23.55    2.48
  -2  10   3   29.08    2.31
  -2  10   3   28.16    1.60
  -2  10   3   21.98    2.80
   2 -10  -3   27.59    2.89
   2 -10  -3   27.35    2.04
   2   3  13    2.35    1.36
  -2  -3 -13    3.97    1.42
  -2  -3 -13    3.34    1.51
   2   3  13    2.25    1.76
   2   3  13    2.43    1.41
   4   6  -3   16.85    1.90
   4   6  -3   16.09    1.65
  -4  -6   3   16.89    2.37
   3  -8  -8    2.80    2.36
  -3   8   8    4.70    1.32
   3  -8  -8    3.16    1.29
   3  -8  -8    4.72    2.49
   3  -8  -8    6.01    1.85
  -3   8   8    3.69    1.98
  -3   8   8    4.66    1.74
   3  -8  -8    3.34    0.82
   6   4  10    3.03    1.19
   6   4  10    3.62    0.68
  -6  -4 -10    4.44    1.33
   5  -3  -7   51.84    3.18
   5  -3  -7   61.49    3.55
   5  -3  -7   56.85    3.59
   5  -3  -7   59.19    3.37
  -5   3   7   61.63    3.33
  -5   3   7   49.80    2.96
  -7   3  -2   27.78    2.96
   7  -3   2   31.81    1.81
  -7   3  -2   29.62    2.36
   7  -3   2   27.49    2.43
   7  -3   2   27.28    2.01
   7  -3   2   29.86    2.83
   7  -3   2   30.62    1.92
   3  -2 -10  102.58    4.99
  -3   2  10   99.26    4.92
   3  -2 -10   92.53    4.91
   3  -2 -10   97.39    4.98
   4  -6  -8   51.32    3.03
  -4   6   8   53.46    3.07
   4  -6  -8   52.23    3.54
   4  -6  -8   57.04    3.30
   4  -6  -8   58.86    3.77
   4  -6  -8   58.84    3.64
  -4   6   8   59.79    3.25
  -5   7   4   50.16    3.73
   5  -7  -4   53.90    4.03
   5  -7  -4   54.36    3.81
   5  -7  -4   55.20    3.97
   5  -7  -4   61.61    3.46
  -5   7   4   62.62    3.32
  -5   7   4   61.32    2.97
   5  -7  -4   69.58    3.13
  -5  -6   1   42.20    2.08
   5   6  -1   89.11    4.73
   5   6  -1  100.65    4.68
  -5  -6   1  110.76    3.63
   4   9   4   85.26    4.08
   4   9   4   86.14    4.21
   4   9   4   76.09    4.36
   4   9   4   76.24    4.16
   1   2 -10   -0.33    1.03
   1   2 -10    0.87    1.57
  -1  -2  10   -0.12    1.22
   1   2 -10    1.84    1.58
   1   2 -10   -0.54    1.41
  -4  -6 -12  190.00    8.39
   4   6  12  189.86    8.14
   4   6  12  191.15    8.22
   4   6  12  158.77    7.96
   4   6  12  182.26    8.23
  -4  -6 -12  177.90    8.43
  -4  -6 -12  180.89    8.26
  -7   3  -1   34.59    2.54
   7  -3   1   32.39    2.12
  -7   3  -1   31.55    3.03
   7  -3   1   29.10    2.01
   7  -3   1   31.29    1.95
   7  -3   1   35.15    2.61
   7  -3   1   33.39    2.90
   1   7  -5    0.68    1.32
   1   7  -5   -1.02    1.16
   1   7  -5    1.24    2.03
  -1  -7   5    0.64    2.33
   6  -2   8   -0.98    0.95
  -6   2  -8    0.42    0.95
  -6   2  -8   -0.02    2.37
  -6   2  -8    0.12    1.27
  -6   2  -8    0.51    1.54
   3  -5 -10    1.76    1.86
   3  -5 -10    1.94    1.04
   3  -5 -10    0.87    1.45
   3  -5 -10    1.39    2.38
  -3   5  10    0.42    1.45
   3  -5 -10    1.89    2.22
  -3   5  10    2.19    1.93
   1 -10  -1   41.46    3.13
   1 -10  -1   41.19    2.53
  -1  10   1   38.56    1.99
  -1  10   1   30.79    2.60
  -1  10   1   41.50    2.57
  -1  10   1   40.73    2.18
   1  -3 -12    4.00    1.91
  -1   3  12    4.48    1.57
   1  -3 -12    3.24    1.81
  -1   3  12    3.11    1.48
   1  -3 -12    3.50    1.47
   7   4   5   -0.43    1.65
   7   4   5    1.76    1.36
   7   4   5    1.59    1.21
   7   4   5    1.12    1.71
   5  -2  -7   86.93    4.75
   5  -2  -7   92.66    4.67
  -5   2   7   87.96    4.57
   5  -2  -7   89.87    4.77
   5  -2  -7   95.04    4.63
   7  -1  -1    1.34    1.39
   7  -1  -1    0.66    1.12
   7  -1  -1    2.22    1.49
  -7   1   1   -0.22    1.67
  -7   1   1    1.53    2.09
   7  -1  -1    1.23    1.26
   4   2  -7   45.50    3.34
  -4  -2   7   61.23    3.74
   4   2  -7   62.25    3.18
   3   9   1   35.93    2.28
   3   9   1   32.48    2.73
   3   9   1   33.55    2.22
  -3  -9  -1   30.21    2.08
   4  -1  11   60.64    2.88
  -4   1 -11   66.43    2.96
  -4   1 -11   52.43    2.70
   4  -1  11   68.47    2.32
   1   0  12   15.61    1.66
  -1   0 -12   15.48    1.78
  -1   0 -12   14.89    1.64
   1   0  12   14.69    2.34
  -1   0 -12   15.66    1.99
  -1   5  12   39.94    2.63
   1  -5 -12   35.13    2.46
  -1   5  12   35.28    2.54
   1  -5 -12   37.84    2.70
   1  -5 -12   39.02    2.87
  -1   5  12   38.95    2.53
  -3   5  -8   20.90    2.49
   3  -5   8   30.54    2.80
  -3   5  -8   25.66    1.63
   3  -5   8   29.24    1.62
  -3   5  -8   25.14    2.27
  -3   5  -8   28.06    2.61
  -3   5  -8   31.38    1.55
   1   4  13   37.80    2.46
   1   4  13   41.72    2.51
  -1  -4 -13   38.49    2.61
  -1  -4 -13   38.28    2.52
   1   4  13   42.53    2.29
   1   4  13   31.00    2.41
  -1  -4 -13   41.23    2.59
   5   1  -6   25.47    2.18
  -5  -1   6   30.56    2.54
   5   1  -6   35.55    2.37
   0   9  -2   32.81    1.88
   0   9  -2   31.47    2.95
   0   9  -2   39.45    1.99
   0   9  -2   28.54    2.24
   0  -9   2   25.58    2.23
  -4  -1 -12   46.82    2.39
  -4  -1 -12   45.68    2.59
   4   1  12   43.64    3.13
   4   1  12   53.58    2.85
  -3   3 -10  137.94    6.69
  -3   3 -10  130.13    6.23
  -3   3 -10  148.33    6.30
   3  -3  10  137.60    7.35
  -3   3 -10  135.94    6.63
   3  -3  10  154.70    6.85
  -6   3  -7    0.50    1.43
  -6   3  -7   -0.48    1.47
  -6   3  -7   -1.39    2.40
   6  -3   7    0.61    1.44
   6  -3   7    0.49    0.80
  -2  10   5    3.43    1.71
  -2  10   5    3.22    1.09
   2 -10  -5    2.61    2.53
  -2  10   5    4.65    2.04
   2 -10  -5    3.61    1.51
   2 -10  -5    4.07    1.03
   0   5  -8   19.91    1.80
   0   5  -8   27.70    1.78
  -5   7  -2    1.46    1.23
  -5   7  -2   -0.86    2.30
   5  -7   2    1.44    1.05
   5  -7   2   -0.22    1.65
  -5   7  -2    0.85    1.88
  -5   7  -2   -1.09    1.98
   5   8   4   17.95    1.90
   5   8   4   19.80    1.88
   5   8   4   18.58    1.86
   0  -7 -12  134.11    6.05
   0   7  12  131.06    6.12
   0  -7 -12  115.85    5.88
   0  -7 -12  123.27    5.70
   0   7  12  124.62    6.24
   0   7  12  124.41    6.08
   7  -2   5    6.22    1.95
  -7   2  -5    5.84    1.00
   7  -2   5    5.42    1.53
  -7   2  -5    7.45    1.47
  -7   2  -5    3.70    1.19
  -7   2  -5    4.43    2.44
   7  -2   5    4.52    1.09
  -7   2  -5    5.97    1.37
   7   4   4   21.27    1.74
   7   4   4   19.45    2.10
   7   4   4   23.69    2.14
   7   4   4   24.37    1.92
  -4   6  -6    2.81    1.62
  -4   6  -6    5.37    0.95
  -4   6  -6    6.55    1.80
  -4   6  -6    7.62    1.50
  -4   6  -6    3.65    2.13
   3   0  12   24.07    1.82
  -3   0 -12   21.69    2.21
   3   0  12   24.01    2.44
  -3   0 -12   24.70    1.71
  -3   0 -12   22.77    1.75
   4   9   8   73.59    3.67
   4   9   8   76.23    3.76
  -4  -9  -8   73.49    3.74
  -4  -9  -8   71.48    3.73
   4   9   8   60.89    3.72
  -7   0  -7   58.15    4.15
   7   0   7   70.33    3.87
  -7   0  -7   64.12    3.20
  -7   0  -7   66.11    3.41
   7   0   7   71.94    3.81
   7   0   7   71.58    3.60
  -2   8  -4   -0.73    0.46
  -2   8  -4   -1.08    1.26
  -2   8  -4    0.05    0.44
  -2   8  -4   -2.35    1.91
  -2   8  -4   -0.27    2.19
  -2   8  -4   -1.79    1.20
   0   8  -4   24.54    1.60
   0   8  -4   23.74    1.91
   0   8  -4   23.00    2.71
   0  -4   9    5.12    2.17
   0  -4   9    9.21    1.30
   0   4  -9    7.67    1.35
   0   4  -9    5.88    1.43
   0   4  -9    6.49    1.53
   3   4  13  156.87    7.00
  -3  -4 -13  153.00    6.91
   3   4  13  144.91    7.08
  -3  -4 -13  144.35    6.75
  -3  -4 -13  143.04    6.86
   5   7  10   31.28    2.28
   5   7  10   27.36    2.09
  -5  -7 -10   26.20    1.84
   5   7  10   21.73    2.09
   7   0  -1   34.26    2.22
  -7   0   1   33.20    2.68
   7   0  -1   32.35    1.99
  -7   0   1   27.39    1.94
   7   0  -1   26.90    2.07
   7   0  -1   31.42    2.21
  -3  -9 -10  133.05    6.17
  -3  -9 -10  126.95    6.05
   3   9  10  123.56    6.20
   3   9  10  132.03    6.12
   3   9  10  128.18    6.01
  -3  -9 -10  129.57    6.10
  -7  -4  -6   18.95    1.70
   7   4   6   18.96    1.60
   7   4   6   19.97    2.02
   7   4   6   23.77    2.12
   7   4   6   18.57    1.77
   7  -3   3    6.12    1.83
   7  -3   3    5.26    1.15
  -7   3  -3    3.74    2.46
  -7   3  -3    4.82    1.50
  -7   3  -3    7.32    1.78
   7  -3   3    6.20    1.41
   7  -3   3    7.44    2.16
   7  -3   3    5.46    1.00
   7  -3   3    6.19    1.09
  -1  -5 -13    2.96    1.70
   1   5  13    4.11    1.48
  -1  -5 -13    3.96    1.49
   1   5  13    4.07    1.51
   1   5  13    6.25    1.50
   1   5  13    3.88    1.74
  -6  -1 -10   78.87    3.74
   6   1  10   74.92    4.10
   6   1  10   75.63    3.83
   6   1  10   78.61    3.84
  -6  -1 -10   68.28    3.90
   2  -2  11    4.90    1.30
  -2   2 -11   13.93    1.48
   2  -2  11    6.57    2.07
  -2   2 -11   11.10    1.25
  -5  -6 -11   21.63    1.85
   5   6  11   17.43    1.73
   5   6  11   17.04    1.74
  -5  -6 -11   18.45    1.53
  -7   2   1   24.67    2.19
  -7   2   1   24.25    2.64
   7  -2  -1   22.42    1.83
   7  -2  -1   25.93    1.85
   7  -2  -1   19.66    2.37
   7  -2  -1   23.18    2.00
   5   8   8    1.39    1.49
   5   8   8    0.36    1.61
   5   8   8    0.23    1.47
  -5  -8  -8    0.08    1.37
   2 -10  -2   66.99    4.11
  -2  10   2   64.82    3.01
  -2  10   2   60.17    3.97
   2 -10  -2   64.42    3.47
  -2  10   2   62.29    3.53
  -2  10   2   58.21    3.67
  -2  10   2   63.15    2.97
   5  -4  -7   96.32    4.97
   5  -4  -7   92.49    5.07
   5  -4  -7   96.50    4.76
   5  -4  -7   92.60    4.96
  -5   4   7  102.19    4.96
   5  -4  -7   84.81    4.55
  -5   4   7   89.15    4.58
   1   3  13  111.08    5.07
  -1  -3 -13  110.32    4.97
   1   3  13  113.44    4.77
  -1  -3 -13   97.00    4.94
  -1  -3 -13   96.03    4.81
  -1  -3 -13   96.66    4.93
   6  -5   4   -2.79    1.68
   6  -5   4   -0.62    0.61
  -6   5  -4   -0.65    1.19
  -6   5  -4   -0.47    1.74
  -6   5  -4   -2.48    2.54
   7  -3   0   99.17    4.58
   7  -3   0   88.13    4.92
   7  -3   0   92.25    5.18
  -7   3   0   88.49    5.09
  -7   3   0   91.50    4.71
   7  -3   0   95.02    4.63
   6   6   2    4.37    1.56
   6   6   2    4.86    1.35
   6   6   2    5.95    1.45
  -3  -3 -13   35.01    2.39
   3   3  13   40.35    2.34
   3   3  13   34.72    2.47
  -3  -3 -13   36.61    2.55
   3   3  13   38.53    2.75
  -3  -3 -13   36.19    2.28
  -1 -10  -9    5.66    1.63
  -1 -10  -9    7.57    1.40
   1  10   9    5.80    1.90
   1  10   9    3.45    1.28
   1  10   9    5.81    1.39
  -1 -10  -9    7.53    1.37
   1  10   9    4.40    2.20
  -4   8  -2    1.15    1.52
   4  -8   2    0.14    1.11
  -4   8  -2   -0.28    1.30
  -4   8  -2    0.26    1.31
  -4   8  -2    2.59    2.19
  -4   8  -2    0.82    2.05
  -4   8  -2    1.25    2.07
   4  -8   2    1.98    2.34
  -6   1  -9    0.55    1.59
   6  -1   9    0.99    1.06
   6  -1   9    1.14    1.64
  -6  -5   0   25.54    2.15
   6   5   0   22.82    1.80
  -6  -5   0   20.09    1.83
   6   5   0   19.99    2.17
  -2   6  11   34.45    2.55
  -2   6  11   33.47    2.47
   2  -6 -11   30.86    1.89
   2  -6 -11   36.01    2.83
   2  -6 -11   31.45    2.28
   2  -6 -11   34.67    2.86
  -2   6  11   33.61    2.34
  -3  -1   9   -0.50    2.05
  -3  -1   9   -0.74    1.32
   3   1  -9    0.16    1.35
   3   1  -9    0.96    1.76
   3   1  -9    1.36    1.54
   3   1  -9   -0.56    1.51
   3   5  13  302.69   13.24
  -3  -5 -13  291.37   13.07
  -3  -5 -13  309.58   13.20
   3   5  13  304.05   13.32
  -3  -5 -13  282.18   13.11
   3   5  13  282.18   13.27
   6  -6   0   37.44    2.17
   6  -6   0   33.01    2.77
  -6   6   0   34.80    2.19
   6  -6   0   33.32    3.04
   6  -6   0   30.82    1.78
  -6  -1   4   27.97    2.22
   6   1  -4   33.96    2.36
  -6  -1   4   32.11    2.43
   6   1  -4   33.31    2.40
  -1 -10  -1   32.55    2.51
   1  10   1   34.86    2.52
   1  10   1   34.78    3.12
   1  10   1   38.69    2.30
   1  10   1   40.14    2.23
   2   1 -10    8.40    1.53
  -2  -1  10   10.87    1.51
   2   1 -10    9.54    1.80
  -2  -1  10   10.29    2.33
   2   1 -10   10.18    1.65
   2   1 -10   11.33    1.54
  -4   8   6    4.86    1.68
   4  -8  -6    4.21    1.73
  -4   8   6    4.90    1.21
   4  -8  -6    5.16    1.22
  -3 -10  -6    9.76    1.71
   3  10   6    7.98    1.75
   3  10   6    8.77    1.46
   3  10   6    9.69    1.38
   3  10   6    9.23    2.08
   0   6  -7   25.43    1.95
   0   6  -7   34.48    1.97
  -7  -2   0  110.28    5.64
  -7  -2   0  113.47    5.33
   7   2   0  109.36    5.15
   7   2   0  107.54    5.26
   6  -6  -1   48.66    2.69
  -6   6   1   62.69    3.22
   6  -6  -1   57.57    3.04
  -6   6   1   54.27    3.95
   6  -6  -1   54.63    3.92
   6  -6  -1   58.98    3.52
   6  -6  -1   61.27    3.79
  -2   9  -2   65.34    3.12
   2  -9   2   64.96    3.96
  -2   9  -2   67.92    2.78
  -2   9  -2   72.91    3.69
  -2   9  -2   69.31    2.76
  -2   9  -2   40.83    1.93
  -5   1   7    0.76    1.65
   5  -1  -7   -0.41    1.47
   5  -1  -7   -0.34    1.81
   5  -1  -7   -1.73    1.82
   5  -1  -7   -0.83    1.88
   7   4   3   11.43    1.79
  -7  -4  -3    8.96    2.18
   7   4   3   10.28    1.45
   7   4   3    7.69    1.88
   5  -6  -6   14.53    2.70
  -5   6   6   16.66    1.49
  -5   6   6   15.09    1.89
   5  -6  -6   15.16    2.01
   5  -6  -6   19.02    1.74
   2   6  13   25.01    2.03
   2   6  13   28.34    2.18
  -2  -6 -13   26.78    2.01
  -2  -6 -13   27.27    2.13
   1  -2  11    9.26    2.26
  -1   2 -11    7.92    1.85
  -1   2 -11    7.89    1.41
  -1   2 -11    6.00    1.49
   1  -2  11    8.67    1.48
  -1   2 -11    3.67    1.36
  -4   3   9    0.78    1.76
   4  -3  -9    1.00    2.04
   4  -3  -9   -0.49    1.51
  -4   3   9    0.15    1.41
   4  -3  -9   -0.94    1.99
   4  -3  -9    0.11    1.84
   2   2  13   13.06    1.58
  -2  -2 -13   15.10    1.74
   2   2  13   12.65    1.35
  -2  -2 -13   13.27    1.15
  -2  -2 -13    9.81    1.57
   2   2  13   13.83    2.21
  -2  -2 -13   15.57    1.88
   3  10   5   61.86    3.84
   3  10   5   61.80    3.22
   3  10   5   58.85    3.48
   3  10   5   63.57    3.31
  -5   0 -11   28.59    1.85
   5   0  11   32.25    1.98
   5   0  11   24.25    2.31
  -5   0 -11   27.58    2.36
   6  -4   6    0.95    0.57
  -6   4  -6    0.27    2.45
   6  -4   6    1.96    1.58
  -6   4  -6    1.73    1.36
  -6   4  -6    1.00    1.58
  -2  10   6    1.40    2.29
   2 -10  -6    3.33    1.57
   2 -10  -6    2.56    2.55
   2 -10  -6    1.50    1.06
  -2  10   6    1.12    2.04
  -2  10   6    0.43    1.10
  -2  10   6    4.49    1.78
  -2  10   6    2.69    0.63
   6  -6   1   21.55    2.23
  -6   6  -1   15.77    1.34
   6  -6   1   20.18    2.42
  -6   6  -1   19.68    1.52
   6  -6   1   10.93    0.81
   6  -6   1   20.19    1.44
   6  -6   1   10.42    0.81
  -1   2  12   23.94    2.01
   1  -2 -12   21.54    2.01
   1  -2 -12   24.21    2.05
  -1   2  12   22.65    2.39
   1  -2 -12   20.05    2.16
  -3   9  -1    2.10    2.17
   3  -9   1   -1.85    2.36
  -3   9  -1    2.70    1.49
  -3   9  -1    0.97    1.64
  -3   9  -1    0.30    2.09
  -3   9  -1    2.22    2.33
   3  -9   1    1.41    1.26
   7   2   8    7.83    0.87
  -7  -2  -8   10.26    1.36
   7   2   8   10.19    1.42
   7   3   1  155.09    7.46
  -7  -3  -1  158.86    7.31
  -7  -3  -1  163.89    7.63
   7   3   1  154.71    7.11
   6  -2  -5    2.07    2.01
   6  -2  -5    3.26    1.72
   6  -2  -5    3.23    2.13
   6  -2  -5    4.16    1.46
  -6   2   5    2.97    1.94
   6   6   9   78.79    3.70
   6   6   9   83.67    3.87
  -6  -6  -9   88.45    4.37
   6   6   9   67.11    3.34
   3  10   7   17.92    2.02
   3  10   7   19.07    2.28
   3  10   7   21.06    1.76
   3  10   7   15.51    1.71
  -3 -10  -7   16.94    1.80
   2  10   2   60.26    3.98
   2  10   2   67.11    3.39
   2  10   2   68.77    3.40
  -2 -10  -2   58.74    3.38
   2  10   2   60.00    3.57
   0  -3  10   -0.01    1.17
   0   3 -10    0.65    1.47
   0   3 -10    1.07    1.39
   0  -3  10    2.25    2.07
   0   3 -10    1.27    1.49
   4  -4  -9   40.20    2.91
   4  -4  -9   43.30    3.21
   4  -4  -9   35.96    3.26
  -4   4   9   54.04    2.83
  -4   4   9   36.25    2.97
   4  -4  -9   34.56    3.03
   1 -10  -8   74.79    4.36
   1 -10  -8   64.32    3.63
  -1  10   8   66.09    3.40
  -1  10   8   58.96    4.06
   1 -10  -8   65.82    3.25
  -1  10   8   67.92    3.80
   1 -10  -8   61.88    3.35
   4   9   3    1.48    1.52
   4   9   3    2.52    1.81
   4   9   3    1.90    1.37
   4   9   3    2.34    1.45
  -1   7  -6   53.89    2.33
  -1   7  -6   46.05    2.50
  -1   7  -6   50.39    3.45
  -1   7  -6   42.62    2.71
  -1   7  -6   34.88    2.18
   1  -7   6   50.65    3.64
   7   4   7    6.08    1.90
  -7  -4  -7    5.02    1.39
   7   4   7    5.08    1.49
   7   4   7    7.17    1.70
   7   4   7    6.56    1.21
   6   5  10   15.84    1.77
  -6  -5 -10   16.84    1.65
   6   5  10   14.05    1.03
   6   5  10   16.55    1.67
   6   5  10   15.66    1.47
   1  -6 -12   74.69    3.93
  -1   6  12   71.09    3.74
  -1   6  12   66.74    3.72
   1  -6 -12   64.76    3.70
   1  -6 -12   65.86    3.44
  -1   6  12   69.16    3.82
   1  -6 -12   77.84    4.07
   2   8  12   42.35    2.83
   2   8  12   44.20    2.63
  -2  -8 -12   46.15    2.94
  -2  -8 -12   56.27    2.97
   2   8  12   36.81    2.88
  -3   6  -7    0.27    0.95
  -3   6  -7    1.42    0.55
   3  -6   7    0.48    2.06
  -3   6  -7    1.48    2.08
  -3   6  -7    1.11    2.01
  -3   6  -7    1.83    1.67
  -2 -10  -9    3.52    1.35
   2  10   9   10.37    1.47
  -2 -10  -9    5.03    1.35
   2  10   9    3.56    1.46
  -2 -10  -9    5.40    1.59
   2  10   9    7.33    2.21
   2  10   9    4.09    1.87
   1   9  11   22.59    1.75
  -1  -9 -11   21.31    1.84
   1   9  11   23.20    1.95
   1   9  11   24.24    2.24
   1   9  11   23.65    2.49
  -1  -9 -11   21.54    1.67
  -1  -9 -11   22.78    2.06
  -3   2 -11   67.47    2.69
   3  -2  11   81.34    3.87
   3  -2  11   68.91    4.36
  -3   2 -11   78.44    2.79
   0 -10  -9   87.16    4.86
   0  10   9   78.63    4.52
   0 -10  -9   84.56    3.98
   0 -10  -9   75.58    4.06
   0  10   9   78.73    3.98
   7  -3   4   -1.08    1.75
   7  -3   4   -0.46    0.95
   7  -3   4    0.47    1.96
  -7   3  -4   -0.58    1.38
  -7   3  -4   -0.04    1.62
  -7   3  -4   -1.28    1.27
  -7   3  -4   -0.01    0.89
  -7   3  -4   -0.26    2.36
   7  -3   4   -0.52    0.87
   7  -3   4    0.24    1.41
   7  -3   4   -0.10    0.61
   7   1  -1  124.87    5.86
   7   1  -1  117.48    5.73
  -7  -1   1  129.29    5.91
  -7  -1   1  116.71    6.11
   7   1  -1  128.76    5.87
   1   8  12   76.17    3.82
  -1  -8 -12   72.50    3.96
   1   8  12   75.38    3.93
   1   8  12   73.16    3.64
  -1  -8 -12   75.22    3.87
   1   8  12   60.32    3.92
   3  -1 -10   22.32    2.18
   3  -1 -10   23.08    2.24
  -3   1  10   21.72    2.32
   3  -1 -10   20.58    2.10
   5   8   3   75.89    4.00
   5   8   3   77.02    3.93
   5   8   3   72.71    4.03
  -6   3   5    6.94    2.09
   6  -3  -5    6.74    1.45
   6  -3  -5    5.28    2.22
   6  -3  -5    6.06    1.77
   6  -3  -5    4.07    2.10
   2  -1 -11    0.17    1.65
   2  -1 -11    0.10    1.55
   2  -1 -11   -2.03    1.77
  -2   1  11    0.88    1.44
   1   6  13    9.28    1.96
  -1  -6 -13   11.54    1.89
  -1  -6 -13    9.01    1.53
   1   6  13   10.35    1.78
   2   9  11   84.89    4.05
  -2  -9 -11   78.28    3.95
  -2  -9 -11   86.93    4.13
  -2  -9 -11   75.86    4.10
   2   9  11   65.35    4.20
   2   9  11   78.76    4.12
   4   8   0   22.12    2.31
  -4  -8   0    9.55    0.85
   4   8   0   18.71    1.93
   4   8   0   21.75    1.88
   7   3   8    0.90    1.00
  -7  -3  -8   -0.57    1.25
   7   3   8    0.67    1.30
  -7  -1  -8   30.98    1.93
  -7  -1  -8   27.08    2.21
   7   1   8   30.28    2.05
   7   1   8   29.58    2.21
   7   1   8   32.51    2.47
   2   9  -1    7.93    2.16
   2   9  -1    9.52    1.64
  -2  -9   1    8.65    1.30
   1  -8 -11    0.80    1.90
  -1   8  11    2.03    1.72
  -1   8  11    2.59    1.42
   1  -8 -11    0.93    1.31
   1  -8 -11    1.78    2.42
  -1   8  11    0.76    1.91
   3  -6 -10   37.33    3.12
   3  -6 -10   30.18    1.86
   3  -6 -10   36.28    3.08
  -3   6  10   34.85    2.94
  -3   6  10   53.02    2.78
  -2   7  -6    6.46    0.81
  -2   7  -6    6.74    2.34
  -2   7  -6    7.51    1.22
   2  -7   6    3.76    2.21
  -2   7  -6    4.07    1.99
   4  -2  -9   43.15    2.90
   4  -2  -9   40.28    2.65
  -4   2   9   40.22    2.56
  -4   2   9   40.63    2.76
   4  -2  -9   41.02    2.88
   6   7   6   15.95    1.69
   6   7   6   15.58    1.41
  -5  -3 -12   11.44    1.05
  -5  -3 -12   12.17    1.83
   5   3  12    9.42    1.47
  -5  -3 -12   12.74    1.53
   5   3  12   11.20    1.73
   5   3  12   12.67    1.27
   2  -8 -10   46.20    3.44
   2  -8 -10   44.31    3.31
   2  -8 -10   42.41    2.61
  -2   8  10   40.01    2.51
  -2   8  10   40.57    2.95
   6  -1  -5    2.33    1.62
   6  -1  -5    2.03    2.02
   6  -1  -5    0.21    1.97
   6  -1  -5    2.21    1.45
   5   4  -4   86.14    4.41
  -5  -4   4   83.41    4.53
   5  -6   5    7.86    1.56
  -5   6  -5    7.62    1.86
  -5   6  -5    3.45    2.43
  -5   6  -5    8.24    1.43
  -5   6  -5    6.38    0.94
  -5   6  -5    9.19    1.99
   2   5  -7  106.77    4.72
  -2  -5   7   93.75    5.19
   2   5  -7   82.58    4.72
   6  -6  -2   49.01    3.90
   6  -6  -2   65.36    3.03
   6  -6  -2   51.44    3.72
   6  -6  -2   65.28    3.38
  -6   6   2   57.90    3.09
  -6   6   2   51.46    3.83
   6  -6  -2   49.40    4.00
  -5  -4 -12    2.47    0.96
  -5  -4 -12    0.14    1.36
   5   4  12    3.03    1.28
   5   4  12    1.35    1.56
   5   4  12    2.94    1.70
   5   4  12   -0.12    1.36
  -1   9  10    3.52    2.12
  -1   9  10    3.01    2.16
   1  -9 -10    2.30    1.42
   1  -9 -10    1.91    1.08
  -1   9  10    1.30    1.36
  -4  -9  -9   28.33    2.05
   4   9   9   31.30    2.15
   4   9   9   28.33    2.23
  -4  -9  -9   27.97    2.07
   4   9   9   26.91    2.24
   2   8  -3    4.16    1.23
   2   8  -3    5.63    1.52
  -2  -8   3    4.11    2.27
   2   8  -3    7.89    2.19
   3   5  -6   53.86    3.31
   3   5  -6   60.32    3.17
  -3  -5   6   53.41    3.62
   3   2  13    1.47    1.20
   3   2  13    5.05    1.40
  -3  -2 -13    2.88    1.35
   3   2  13    4.04    2.04
  -3  -2 -13    5.09    1.46
  -7   3   1   31.27    2.48
   7  -3  -1   26.88    1.95
   7  -3  -1   31.58    2.60
   7  -3  -1   29.19    2.96
  -7   3   1   29.93    2.90
   7  -3  -1   27.40    2.19
   6   7   5   15.39    1.69
   6   7   5   13.78    1.48
   6   7   5   16.77    1.66
  -2  10   1   19.58    1.98
  -2  10   1   19.40    1.34
  -2  10   1   18.24    2.61
  -2  10   1   18.28    2.17
  -2  10   1   14.92    1.01
   2 -10  -1   23.26    2.73
   2 -10  -1   21.26    1.84
   3   4  -7   77.07    3.77
   3   4  -7   63.20    3.89
  -3  -4   7   70.40    4.21
   3  -9  -7    0.55    1.13
   3  -9  -7   -0.97    1.73
  -3   9   7    1.81    1.16
  -3   9   7    0.96    1.71
   5  -7  -5   41.02    3.63
   5  -7  -5   39.58    3.67
   5  -7  -5   41.38    3.43
   5  -7  -5   51.48    3.11
  -5   7   5   45.96    2.90
  -5   7   5   48.84    2.55
  -2  -4   8  110.62    5.87
   2   4  -8   96.41    5.24
   2   4  -8  114.59    5.18
   1   2  13   20.10    1.60
  -1  -2 -13   22.08    2.08
   1   2  13   24.78    2.46
  -1  -2 -13   21.68    2.04
  -1  -2 -13   22.73    1.94
   1   2  13   19.74    1.82
  -1  -2 -13   21.29    1.91
   6  -5  -4   43.15    3.12
   6  -5  -4   41.78    2.37
  -6   5   4   38.99    3.09
   6  -5  -4   31.79    2.99
   6  -5  -4   43.71    2.03
   3  10   4   31.20    2.82
   3  10   4   35.85    2.24
   3  10   4   31.98    2.13
   3  10   4   29.16    2.41
   5  -3   9   -0.07    0.89
  -5   3  -9    0.04    2.24
  -5   3  -9   -0.44    1.54
  -5   3  -9    0.41    0.79
   5  -3   9    0.18    1.05
   1   9  -2    0.77    1.45
   1   9  -2    3.63    1.04
   1   9  -2    2.58    2.15
  -4  -7   2    6.41    2.20
   4   7  -2    5.80    1.80
   4   7  -2    5.88    1.39
   0  10   0   61.45    3.89
   0  10   0   55.67    3.17
   0  10   0   53.50    2.80
   0 -10   0   48.00    3.12
   3   6  13  120.77    5.73
  -3  -6 -13  117.33    5.47
  -3  -6 -13  106.43    5.51
  -3  -6 -13  116.26    5.43
   3   6  13  109.49    5.74
   3   6  13  125.69    5.72
   5   3  -5   53.18    3.42
  -5  -3   5   67.89    3.99
  -5  -8  -9    2.89    1.43
   5   8   9    0.25    1.53
   5   8   9    1.41    1.64
  -7   1  -7   40.77    2.17
  -7   1  -7   36.58    2.46
  -7   1  -7   34.13    3.36
   7  -1   7   43.45    2.43
   7  -1   7   44.48    2.74
   7  -1   7   41.70    2.79
  -7   1  -7   37.01    2.16
   6   7   7   27.53    1.71
   6   7   7   28.72    2.05
   5  -5  -7   52.81    2.59
  -5   5   7   75.05    4.29
  -5   5   7   77.08    3.86
   5  -5  -7   75.97    3.87
   5  -5  -7   79.03    3.96
   5  -5  -7   83.26    3.54
   5  -5  -7   83.25    3.34
   5  -5  -7   79.88    4.14
   5  -5  -7   54.27    2.61
  -1  10   0   34.42    2.36
  -1  10   0   34.03    1.84
  -1  10   0   32.02    2.52
   1 -10   0   35.06    2.89
  -6   6  -2   -0.04    0.32
  -6   6  -2    0.80    1.95
   6  -6   2   -0.27    1.01
  -6   6  -2   -0.68    2.67
  -6   6  -2    0.95    1.08
   6  -6   2    1.59    1.92
  -6   6  -2    0.61    1.06
  -7   2  -6    8.23    1.13
   7  -2   6    6.87    1.15
   7  -2   6   11.58    1.73
  -7   2  -6    7.65    1.31
  -7   2  -6    9.49    1.43
   7  -2   6   12.75    1.97
  -7   2  -6    7.99    1.50
  -4  -8 -11   11.55    1.52
  -4  -8 -11   11.00    1.52
   4   8  11   10.59    1.80
   3  10   8   37.15    2.59
  -3 -10  -8   37.98    2.50
   3  10   8   44.34    2.47
   3  10   8   36.90    2.71
  -5   4  -8    0.05    1.69
   5  -4   8   -0.17    1.20
   5  -4   8    0.00    0.68
  -5   4  -8   -0.57    2.21
  -5   4  -8   -0.07    1.58
  -5   7  -3   12.08    1.35
  -5   7  -3   10.84    2.63
   5  -7   3   11.75    1.22
  -5   7  -3   10.92    2.18
  -5   7  -3   13.74    2.20
  -5   7  -3   11.09    1.47
   5   5  -3  115.23    5.54
  -5  -5   3  109.60    5.64
  -4  -1   8   70.64    4.19
   4   1  -8   62.45    3.39
   4   1  -8   72.62    3.65
   6   0  10    7.78    1.55
  -6   0 -10    4.76    1.77
  -6   0 -10    6.38    1.20
   6   0  10    6.54    1.76
   6   0  10    6.88    1.28
   0   4  13    7.66    1.59
   0   4  13    6.48    1.57
   0   4  13    8.19    1.66
   0  -4 -13    7.69    1.87
   0   4  13    7.74    1.57
   0  -4 -13    6.73    1.55
   0  -4 -13    7.15    1.90
   0   0 -12   17.45    1.81
   0   0  12   20.50    2.58
   0   0  12   19.65    1.87
   0   0 -12   18.83    1.96
   0   0 -12   18.11    2.05
  -2   9   9    4.76    1.87
   2  -9  -9    2.67    0.98
   2  -9  -9    3.93    1.83
   2  -9  -9    2.49    1.32
  -2   9   9    4.22    2.10
  -2   9   9    3.22    1.33
   4  -5  -9   68.15    4.07
   4  -5  -9   63.70    3.85
   4  -5  -9   60.50    3.81
   4  -5  -9   67.68    3.64
   4  -5  -9   68.91    3.48
  -4   5   9   69.57    3.67
  -4   5   9   65.43    3.53
  -4   5   9   61.09    3.85
   4  -5  -9   55.44    2.90
  -7  -4  -2   28.48    1.75
   7   4   2   27.31    2.43
   7   4   2   28.43    2.01
  -7  -4  -2   28.31    2.58
  -7   1   2    9.65    1.85
  -7   1   2    5.20    2.15
   7  -1  -2    8.44    1.53
   7  -1  -2    6.76    1.24
   7  -1  -2    7.27    1.47
   7  -1  -2    6.68    1.68
  -4   9   2   17.16    2.16
   4  -9  -2   17.05    0.96
   4  -9  -2   23.60    1.81
  -4   9   2   20.69    1.95
  -4   9   2   16.80    2.72
   4  -9  -2   14.71    2.85
  -4   9   2   17.70    2.62
  -4  -7 -12   78.43    4.05
  -4  -7 -12   84.40    4.03
   4   7  12   79.52    3.90
   4   7  12   83.16    3.95
   4   7  12   77.84    3.89
   4  -9  -3   66.98    3.55
  -4   9   3   66.72    3.81
  -4   9   3   63.88    3.07
  -4   9   3   64.92    4.17
   4  -9  -3   64.92    3.10
  -4   9   3   72.96    3.62
  -4   9   3   62.58    4.13
   4  -9  -3   70.12    4.38
   2   6  -6   50.72    3.42
   2   6  -6   53.60    2.93
  -2  -6   6   53.07    3.75
  -5  -2 -12   55.59    2.77
   5   2  12   68.08    3.73
  -5  -2 -12   72.06    3.22
   5   2  12   68.97    3.57
   5   7   0   84.89    4.24
   5   7   0   78.83    4.29
  -5  -7   0   86.14    3.85
  -5  -7   0   57.24    2.91
   0   7  -6   46.52    2.72
   0   7  -6   53.33    2.59
   0   7  -6   42.01    2.61
  -4   4  -9    2.64    0.72
  -4   4  -9    4.30    1.81
   4  -4   9    2.52    0.91
  -4   4  -9    2.71    0.79
  -4   4  -9    2.75    1.43
  -4   4  -9    2.86    0.81
   4  -4   9    2.56    2.00
  -4   4  -9    2.43    2.29
  -4   4  -9    1.47    1.72
   0   5  13   10.05    1.71
   0   5  13    7.51    1.74
   0  -5 -13   10.62    2.04
   0   5  13   10.85    1.77
   0  -5 -13   10.21    1.90
   1   1 -11   57.77    3.30
   1   1 -11   58.71    3.34
  -1  -1  11   54.15    3.05
  -3   8  -4   24.81    2.47
  -3   8  -4   20.43    2.34
  -3   8  -4   18.33    1.62
  -3   8  -4   27.23    2.70
  -3   8  -4   19.46    1.67
   3   8  -2    9.11    1.36
   3   8  -2   10.39    2.16
   3   8  -2    9.54    1.70
  -3  -8   2    9.18    2.26
  -1  -8   4   16.23    2.62
   1   8  -4   15.72    1.44
   1   8  -4   17.01    2.45
   1   8  -4   12.64    1.69
   5   5  12   27.05    1.88
   5   5  12   18.18    1.87
  -5  -5 -12   33.04    2.22
  -5  -5 -12   28.53    1.70
   5   5  12   32.37    1.91
   5   5  12   33.82    2.26
   5   5  12   20.95    1.16
   5   5  12   17.06    1.16
   7  -2  -2    2.74    1.42
   7  -2  -2    3.13    1.10
  -7   2   2    3.41    1.85
   7  -2  -2    4.64    1.35
   7  -2  -2    4.13    1.66
  -7   2   2    1.90    2.15
   6   7   4    4.06    1.29
   6   7   4    4.18    1.49
   6   7   4    4.76    1.40
  -4   0 -12   69.34    3.31
  -4   0 -12   60.66    3.10
   4   0  12   63.86    3.83
   4   0  12   66.22    3.42
   5  -2  10    1.73    1.05
   5  -2  10   -1.19    1.92
   5  -2  10   -0.82    0.96
  -5   2 -10    0.36    0.93
  -3  -6   5   70.80    4.32
   3   6  -5   74.20    3.62
   3   6  -5   59.48    3.84
   7  -4   1   34.15    1.94
   7  -4   1   29.97    2.57
   7  -4   1   34.44    2.15
   7  -4   1   34.48    2.98
  -7   4  -1   29.02    2.51
  -7   4  -1   36.11    3.18
   7  -4   1   27.72    2.01
   6  -4  -5   29.15    2.78
   6  -4  -5   24.29    2.77
   6  -4  -5   29.38    1.69
   6  -4  -5   27.00    2.34
   6  -4  -5   28.59    1.62
   6  -4  -5   29.65    2.12
   6  -4  -5   29.44    2.99
  -6   4   5   27.95    2.68
   4   4  13    0.79    1.66
  -4  -4 -13    0.03    1.67
   4   4  13    0.18    1.37
   4   4  13   -0.40    1.40
  -4  -4 -13    1.23    1.38
   4   4  13    0.37    1.66
  -4  -4 -13    1.07    1.17
  -2  10   7    3.68    1.20
   2 -10  -7    4.01    1.18
  -2  10   7    7.42    1.91
   2 -10  -7    5.91    1.62
  -2  10   7    7.14    2.43
  -2  10   7    4.06    0.47
  -2  10   7    7.29    2.19
  -6  -3   3   -0.28    1.35
   6   3  -3    2.83    1.44
   6   3  -3    0.77    1.94
  -6  -3   3    2.17    1.73
   3   8  12    0.04    1.73
   3   8  12   -0.42    1.67
  -3  -8 -12    0.61    1.43
  -3  -8 -12    0.39    1.45
  -3  -8 -12   -0.35    1.28
   3   8  12    0.14    1.44
   5   0  -7   48.47    3.08
   5   0  -7   43.12    2.90
   5   0  -7   51.07    2.93
  -5   0   7   49.61    3.19
   5   0  -7   49.85    2.99
   0  -9 -11    1.74    1.11
   0   9  11   -0.91    1.46
   0   9  11    3.63    1.86
   0   9  11    1.33    1.14
   0  -9 -11    3.58    1.83
   0   9  11    0.31    2.09
   0   9  11    2.15    2.10
   0  -9 -11    1.19    1.36
  -3  -3   8   -0.84    2.18
   3   3  -8    0.14    1.43
   3   3  -8    1.69    1.85
   3   3  -8    0.57    1.48
  -4   3 -10    2.29    1.82
  -4   3 -10    2.41    1.53
  -4   3 -10    1.69    0.90
  -4   3 -10    2.76    1.12
  -4   3 -10    1.77    0.65
  -4   3 -10    3.07    0.80
   4  -3  10    2.42    1.07
   4  -3  10    3.42    2.11
  -7   4  -2    2.38    2.49
  -7   4  -2    2.70    1.64
   7  -4   2    0.85    1.02
   7  -4   2    1.92    1.01
   7  -4   2    3.22    1.29
   7  -4   2    3.74    1.24
   7  -4   2    3.00    1.87
   7  -4   2    4.51    2.22
   6   6   1   17.24    1.69
   6   6   1   16.20    1.97
  -6  -6  -1   15.74    1.83
  -6  -6  -1   14.00    1.87
   6   4  -2    0.14    1.82
  -6  -4   2    0.87    1.25
   6   4  -2    0.45    1.28
  -6  -4   2   -1.87    1.70
   7   4   8   74.33    3.64
   7   4   8   56.27    3.08
  -7  -4  -8   67.27    3.48
   7   4   8   59.43    3.33
   7   4   8   61.85    3.40
   0  -3 -13   59.51    3.40
   0  -3 -13   58.95    3.41
   0  -3 -13   60.72    3.29
   0  -3 -13   56.41    3.32
   0   3  13   61.95    3.08
   0   3  13   58.60    3.26
   0   3  13   52.13    3.09
  -2   1 -12   19.49    1.78
   2  -1  12   25.12    1.89
   2  -1  12   23.00    2.62
  -2   1 -12   20.72    2.20
  -2   1 -12   21.84    1.79
   7   0   8  106.95    5.51
   7   0   8  113.18    5.33
   7   0   8  113.26    5.32
  -7   0  -8   97.19    4.89
  -7   0  -8  100.95    4.70
   7   5   5   35.06    2.42
   7   5   5   27.89    2.30
   7   5   5   28.38    2.20
   7   5   5   28.62    2.05
  -4   7   8   24.39    1.98
   4  -7  -8   27.09    2.38
   4  -7  -8   21.10    1.92
   4  -7  -8   27.74    3.07
  -4   7   8   28.04    2.31
   4  -7  -8   32.46    2.99
  -4   7   8   31.04    2.54
   4  -7  -8   27.70    2.71
  -4   7  -5   -0.39    1.81
  -4   7  -5    0.29    1.87
  -4   7  -5    0.13    1.46
  -4   7  -5   -0.08    1.06
  -4   7  -5   -3.45    2.17
  -3  -9   0   75.37    3.60
   3   9   0  103.50    5.56
   3   9   0  105.49    5.10
  -4   9   1    1.33    2.29
  -4   9   1    2.41    2.30
   4  -9  -1    1.32    1.33
  -4   9   1    1.72    1.56
  -4   9   1    3.47    1.81
  -4   9   1    0.08    2.47
  -4   9   1    2.79    1.03
   4  -9  -1    2.38    2.49
   2   3  -9    5.56    0.82
   2   3  -9   13.16    1.63
   2   3  -9    9.43    1.82
  -2  -3   9   12.86    2.42
   2   3  -9    9.02    1.32
   7   0  -2   82.09    4.07
   7   0  -2   77.32    3.87
  -7   0   2   68.34    4.04
  -7   0   2   75.61    3.75
   7   0  -2   76.29    4.03
   7   5   6   30.39    2.31
   7   5   6   21.63    2.02
   7   5   6   25.45    1.86
   7   5   6   23.88    2.11
  -4  -3 -13    1.99    1.34
   4   3  13    5.29    1.92
   4   3  13    1.97    1.37
  -4  -3 -13    5.05    1.19
   4   3  13    7.45    1.31
   2  -7 -11    3.20    0.99
   2  -7 -11    4.15    2.36
  -2   7  11    4.26    1.44
  -2   7  11    4.58    1.90
   2  -7 -11    3.04    2.33
   2  -7 -11    6.40    1.51
   6   3  11   16.29    1.63
   6   3  11   13.94    1.19
  -6  -3 -11   18.04    1.71
   6   3  11   13.76    1.40
   5  -8  -2    8.74    1.60
   5  -8  -2   12.25    0.91
   5  -8  -2   10.34    2.78
  -5   8   2   13.64    1.77
   5  -8  -2   12.40    2.16
   6   0  -5   12.45    2.19
   6   0  -5   14.31    1.91
  -6   0   5   16.62    1.91
   6   0  -5   18.04    1.85
  -5   8   1    1.05    1.45
   5  -8  -1    1.00    1.34
   5  -8  -1    0.26    0.29
  -5   8   1    0.07    0.72
  -5   8   1    0.29    2.58
   7  -4   0   51.78    2.78
  -7   4   0   50.09    3.67
  -7   4   0   49.59    3.25
   7  -4   0   47.94    3.18
   7  -4   0   48.15    2.57
   7  -4   0   42.43    2.50
   7  -4   0   52.90    3.53
   4  -9  -4   84.53    5.32
  -4   9   4   89.63    4.01
  -4   9   4   80.69    4.57
   4  -9  -4   88.28    4.63
   4  -9  -4   95.50    4.29
  -4   9   4   84.92    4.43
  -4   9   4   76.23    4.79
   6  -5   5   23.40    2.14
  -6   5  -5   19.51    1.77
  -6   5  -5   21.91    2.94
  -6   5  -5   19.49    2.20
   6   7   8   73.29    3.73
   6   7   8   78.33    4.00
   6   7   8   95.89    4.23
   6   7   8   80.30    4.16
   6  -6  -3   42.15    2.68
  -6   6   3   39.28    3.39
   6  -6  -3   38.17    3.36
   6  -6  -3   38.50    2.28
  -6   6   3   43.07    2.61
   6  -6  -3   35.64    3.37
   6  -6  -3   41.77    3.14
   2   7  13   -0.39    1.66
  -2  -7 -13    0.86    1.44
   2   7  13   -0.42    1.46
  -2  -7 -13    1.61    1.61
   4  -1  -9   73.54    3.92
  -4   1   9   74.50    4.17
   4  -1  -9   70.72    3.88
   4  -1  -9   73.24    3.95
  -7   3  -5    9.49    1.54
   7  -3   5    9.23    2.06
  -7   3  -5    9.91    1.51
  -7   3  -5   12.98    1.13
   7  -3   5   10.11    1.85
  -7   3  -5   11.48    1.74
   7  -3   5   10.64    1.64
   7  -3   5   12.04    1.13
   4  -5   8   29.28    1.53
  -4   5  -8   29.02    2.30
   4  -5   8   36.26    2.83
  -4   5  -8   32.70    1.59
  -4   5  -8   32.99    2.44
  -4   5  -8   24.24    2.75
  -4   5  -8   35.22    2.62
  -4   5  -8   30.26    1.71
   0   2 -11   12.84    1.78
   0  -2  11   13.23    2.48
   0   2 -11   14.48    1.68
   0   2 -11   13.73    1.77
   0  -2  11   14.29    1.60
   0   8  12   83.10    4.38
   0  -8 -12   83.41    4.60
   0  -8 -12   92.10    4.52
   0   8  12   93.04    4.35
  -2  -1 -13   25.43    1.95
  -2  -1 -13   19.77    1.52
   2   1  13   25.25    1.84
  -2  -1 -13   29.88    2.28
   2   1  13   16.25    1.17
  -2  -1 -13   24.45    1.94
   2   1  13   26.60    2.60
  -1   1  12   29.26    2.79
   1  -1 -12   32.91    2.40
   1  -1 -12   31.91    2.47
   1  -1 -12   30.37    2.33
  -1   1  12   28.87    2.20
  -4  -5 -13   35.31    2.14
   4   5  13   37.75    2.30
   4   5  13   42.38    2.06
  -4  -5 -13   39.72    2.51
  -4  -5 -13   30.33    2.37
   4   5  13   33.80    2.04
  -1 -10 -10    2.25    1.29
  -1 -10 -10    5.37    1.40
   1  10  10    0.66    2.17
   1  10  10    4.46    1.43
   1  10  10    2.88    1.85
  -1 -10 -10    3.97    1.67
   4   9   2   49.44    3.07
   4   9   2   51.23    2.93
   4   9   2   56.64    3.05
   4   9   2   46.71    3.26
   1   5  -8    3.80    1.93
   1   5  -8    3.21    1.37
   1   5  -8    2.84    0.54
  -4   8  -3    2.83    2.18
  -4   8  -3    1.29    2.18
  -4   8  -3    5.60    2.13
  -4   8  -3    1.73    1.39
  -4   8  -3    4.12    1.52
  -5  -7 -11   27.93    1.99
  -5  -7 -11   25.90    2.17
   5   7  11   25.77    2.15
   5   7  11   30.44    2.23
  -5  -7 -11   27.18    1.87
   0  11   5   24.49    2.33
   0 -11  -5   23.11    2.85
   0  11   5   22.77    1.72
   0 -11  -5   23.53    2.08
   5   2  -6   79.88    4.83
   5   2  -6   96.94    4.61
  -5  -2   6   97.33    5.17
  -5   5  -7    8.56    1.96
  -5   5  -7    4.36    2.25
  -5   5  -7    7.88    1.60
   5  -5   7    6.95    1.31
  -5   5  -7    7.19    1.62
  -5   5  -7    3.88    0.46
   3   9  11   42.34    2.73
  -3  -9 -11   39.42    2.62
   3   9  11   41.86    2.99
  -3  -9 -11   45.41    2.61
  -3  -9 -11   42.53    2.50
   3   9  11   45.61    2.83
  -3 -10  -3   58.80    3.44
   3  10   3   59.00    3.93
   3  10   3   67.26    3.44
   3  10   3   67.79    3.51
   7   5   4   52.56    2.96
   7   5   4   45.65    2.77
   7   5   4   57.77    3.04
   7   5   4   42.56    3.01
   7   5   4   48.65    2.76
  -1   9  -3   16.95    1.69
  -1   9  -3   12.35    2.03
  -1   9  -3   16.57    1.16
  -1   9  -3   12.56    1.66
  -1   9  -3   15.26    1.14
   6   4  11    4.72    1.07
  -6  -4 -11    4.48    1.39
   6   4  11    1.64    1.23
  -6  -4 -11    6.80    1.47
   6   4  11    4.65    1.38
   3  -8  -9   29.42    2.08
   3  -8  -9   25.68    3.06
  -3   8   9   25.67    2.54
  -3   8   9   30.78    2.03
  -3   8   9   26.16    2.38
   3  -8  -9   26.88    2.52
   3  -8  -9   31.56    3.10
  -4  -4   6   12.22    2.24
   4   4  -6   13.34    1.67
   4   4  -6    7.12    1.94
   5   8   2   48.37    3.15
   5   8   2   50.03    3.03
   5   8   2   53.89    3.05
  -7  -3   0   73.55    3.82
   7   3   0   66.13    4.02
   7   3   0   68.13    3.56
  -7  -3   0   77.20    4.10
   7   3   0   72.47    3.69
  -1 -10   0   26.10    2.28
   1  10   0   34.42    2.02
   1  10   0   28.38    2.30
   1  10   0   28.33    2.90
   6   2  11   47.07    3.28
  -6  -2 -11   61.37    3.02
   6   2  11   60.61    3.01
   6   2  11   50.24    2.90
  -6  -2 -11   45.33    3.17
  -1   7  12   59.83    3.16
  -1   7  12   54.05    3.21
   1  -7 -12   57.68    3.33
   1  -7 -12   62.21    3.12
   1  -7 -12   43.22    2.63
  -1   7  12   44.61    3.25
   1  -7 -12   52.47    3.42
   7   2  -1   69.36    3.54
  -7  -2   1   77.53    4.09
  -7  -2   1   71.88    3.87
   7   2  -1   68.60    3.65
   4  -8  -7   32.70    3.40
  -4   8   7   34.53    2.64
   4  -8  -7   33.17    2.69
  -4   8   7   40.64    2.34
   4  -8  -7   40.91    2.29
   4   5  -5    9.39    1.63
  -4  -5   5    7.04    2.16
   4   5  -5    6.28    1.88
   0  11   6    0.92    2.35
   0 -11  -6    2.11    1.55
   0 -11  -6    0.02    2.63
   0  11   6   -0.57    1.87
   0  11   6    1.40    1.19
  -3   7  -6    0.52    2.12
  -3   7  -6    0.73    2.17
  -3   7  -6    0.15    0.19
  -3   7  -6   -0.35    1.06
  -6  -2   4    1.28    1.77
   6   2  -4    1.19    1.52
   1  11   5    7.19    2.31
  -1 -11  -5    9.38    2.61
  -1 -11  -5    9.35    1.66
   1  11   5   10.45    2.01
   1  11   5    9.52    1.32
   1  11   5    6.87    1.36
  -1 -11  -6   41.57    3.41
   1  11   6   32.16    2.07
  -1  -7 -13   18.48    1.89
   1   7  13   12.78    1.87
   1   7  13    8.74    2.02
  -1  -7 -13   12.77    1.89
  -1  -7 -13   12.49    1.59
   1   4  -9   24.89    2.08
   1   4  -9   23.44    1.40
   1   4  -9   16.85    1.46
   2  10   1   18.16    1.99
   2  10   1   19.32    2.50
  -2 -10  -1   24.60    2.21
   2  10   1   19.66    1.69
   2  10   1   20.13    1.74
   5  -8  -3   15.35    1.25
   5  -8  -3   16.75    1.82
   5  -8  -3   13.75    2.27
  -5   8   3   14.93    1.79
  -7   4  -3   -0.87    2.58
  -7   4  -3    0.75    1.64
   7  -4   3    0.35    0.86
   7  -4   3   -1.20    2.12
   7  -4   3    0.70    0.95
   7  -4   3    0.60    1.79
   7  -4   3   -0.39    0.90
   0  11   4   37.29    2.09
   0  11   4   36.01    3.18
   0 -11  -4   37.05    3.13
   0 -11  -4   35.78    2.45
   0  11   4   33.53    2.64
   0  11   4   35.17    2.09
   1  -1  12   94.53    5.56
  -1   1 -12   98.15    4.61
   1  -1  12  105.97    5.02
  -1   1 -12   87.70    4.59
  -1   1 -12   93.39    4.85
   6   6  10    6.67    1.49
  -6  -6 -10    7.52    1.53
   6   6  10    8.72    1.93
   6   6  10    9.69    1.69
   0   6  13   35.04    2.71
   0   6  13   42.77    2.69
   0  -6 -13   37.01    2.48
   0  -6 -13   50.96    2.78
   0  -6 -13   42.23    2.94
   0  -6 -13   43.16    2.95
  -5   8   0   -0.01    1.38
   5  -8   0    0.43    1.27
  -5   8   0   -0.25    1.92
   5  -8   0    0.76    2.60
  -5   8   0    0.28    0.99
  -5   8   0    1.18    2.53
  -5   8   0    1.25    2.18
   5   6  -2   69.73    3.68
  -5  -6   2   67.46    4.07
   3  -1  12   71.45    4.35
  -3   1 -12   71.16    3.60
   3  -1  12   77.84    3.85
  -3   1 -12   75.15    3.68
   7   5   7    2.14    1.56
   7   5   7    4.17    1.49
   7   5   7    3.68    1.25
   7   5   7    5.33    1.85
  -7  -5  -7    3.52    1.43
   7  -3  -2   36.65    3.19
   7  -3  -2   36.16    2.52
   7  -3  -2   34.99    2.20
  -7   3   2   39.54    2.78
   7  -3  -2   42.78    2.37
   7  -3  -2   34.16    2.90
  -7   3   2   33.11    3.02
   3  10   9   56.44    3.38
   3  10   9   49.58    3.15
   3  10   9   63.06    3.11
  -3 -10  -9   49.78    3.12
  -3 -10  -9   58.97    3.17
  -3 -10  -9   56.93    3.08
  -6   6  -3    1.11    0.99
  -6   6  -3    1.86    2.57
  -6   6  -3    1.05    2.04
  -6   6  -3    1.40    0.57
   6  -6   3    1.01    1.92
   6  -6   3    2.91    0.95
  -6   6  -3    2.33    1.26
  -3   9  -2    5.41    1.46
  -3   9  -2    3.73    2.42
  -3   9  -2    2.94    2.14
  -3   9  -2    2.59    2.17
  -3   9  -2    5.30    1.62
   3  -9   2    1.96    2.42
   2  10  10   25.20    2.67
  -2 -10 -10   16.95    1.82
  -2 -10 -10   25.26    2.04
   2  10  10   18.61    1.97
  -2 -10 -10   23.52    1.81
   2  10  10   28.73    1.95
   2  10  10   26.10    2.35
  -2  10   0    9.04    1.97
  -2  10   0    6.91    0.56
  -2  10   0    9.22    2.72
  -2  10   0    7.67    0.62
  -2  10   0   10.92    2.42
   2 -10   0   13.57    1.64
  -2  10   0   11.98    1.70
   2 -10   0   11.89    2.46
  -2  10   0   12.44    1.17
   3 -10  -3   82.44    4.21
  -3  10   3   84.55    4.20
  -3  10   3   77.29    4.34
  -3  10   3   76.58    4.62
  -3  10   3   77.49    3.64
   3 -10  -3   83.66    4.98
  -6   3  -8    1.28    2.56
   6  -3   8    1.94    0.87
   6  -3   8    1.61    1.36
  -6   3  -8    3.21    1.66
  -6   3  -8    2.43    1.60
   1 -10  -9  186.64    8.60
  -1  10   9  167.73    8.31
   1 -10  -9  176.28    7.82
   1 -10  -9  163.16    7.93
   1 -10  -9  174.40    8.12
  -1  10   9  163.54    7.60
  -6  -5   1   42.86    2.68
  -6  -5   1   29.53    2.03
   6   5  -1   39.93    2.36
   6   5  -1   29.61    2.68
   1   6  -7    0.49    2.02
   1   6  -7    1.12    1.24
  -1  -6   7    0.06    2.36
  -7  -2  -9   23.70    2.13
   7   2   9   25.87    2.18
   7   2   9   26.90    1.75
  -7  -2  -9   23.07    1.77
  -4  -9 -10   30.35    2.19
   4   9  10   29.87    2.27
   4   9  10   32.71    2.27
   4   9  10   29.06    2.40
  -4  -9 -10   31.84    2.20
  -4  -9 -10   35.16    2.32
   3 -10  -4   67.76    4.52
  -3  10   4   63.03    3.63
  -3  10   4   64.40    2.79
   3 -10  -4   69.69    3.33
  -3  10   4   68.40    3.43
  -3  10   4   62.83    3.89
  -3  10   4   48.89    2.57
   3 -10  -4   69.36    3.72
  -3  -1 -13    8.69    1.42
  -3  -1 -13    9.85    1.52
   3   1  13    4.94    0.90
   3   1  13    7.20    1.42
   3   1  13   10.07    2.13
  -3  -1 -13    7.72    1.91
  -6   2  -9    1.38    1.31
   6  -2   9   -0.54    1.38
  -6   2  -9    3.10    2.57
  -6   2  -9   -1.13    0.70
  -6   2  -9   -1.60    1.73
   6  -2   9    0.13    1.00
   4  -2  11   14.07    1.44
  -4   2 -11   11.39    1.05
   4  -2  11   13.26    2.25
  -4   2 -11   12.46    1.25
  -4   2 -11   13.37    2.07
   0   9  -3   28.66    2.96
   0   9  -3   27.42    2.17
   0   9  -3   32.76    1.85
   6   7   3   12.47    1.52
   6   7   3   13.23    1.70
   6   7   3   15.47    1.64
   3   0 -10   -0.52    1.65
  -3   0  10    1.55    2.10
  -3   0  10   -0.27    1.41
   3   0 -10   -0.06    1.52
   3   0 -10   -0.57    1.56
   3   0 -10    1.61    1.79
   7   3   9    0.19    1.00
  -7  -3  -9    1.67    1.34
   7   3   9    0.56    1.35
   2   7  -5   25.25    1.96
   2   7  -5   24.01    2.65
  -2  -7   5   23.59    2.88
  -1   8  -5   15.09    1.59
   1  -8   5   13.19    2.55
  -1   8  -5   16.00    1.99
  -1   8  -5   16.22    1.62
  -1   8  -5   17.62    1.30
  -7   4   1   34.99    2.76
  -7   4   1   29.96    3.06
   7  -4  -1   29.88    2.78
   7  -4  -1   34.58    3.22
   7  -4  -1   32.21    2.08
   7  -4  -1   37.69    2.48
  -4   9   0   -0.48    2.27
  -4   9   0    1.27    1.11
  -4   9   0    0.65    0.43
  -4   9   0    1.94    2.32
  -4   9   0    1.13    1.77
  -4   9   0   -1.79    2.48
   4  -9   0   -2.12    2.52
   4  -9   0    2.30    1.28
  -4   9   0    1.24    1.47
   1   1  13   -1.29    1.44
   1   1  13   -0.40    2.17
  -1  -1 -13    0.88    1.61
  -1  -1 -13   -0.76    1.72
  -1  -1 -13   -0.57    1.48
  -5  -1 -12   23.77    1.27
  -5  -1 -12   32.83    1.93
   5   1  12   29.17    2.39
   5   1  12   31.06    2.10
   1  11   4    3.50    2.34
   1  11   4    2.44    1.23
   1  11   4    2.18    1.75
   1  11   4    5.89    1.26
  -1 -11  -4    6.10    2.32
  -1 -11  -4    4.80    1.61
   1  11   7   18.72    1.81
  -1 -11  -7   25.29    2.94
   1  11   7   26.05    1.77
   4   2  13   38.38    2.48
  -4  -2 -13   33.80    1.98
  -4  -2 -13   32.40    2.58
  -4  -2 -13   34.76    2.20
   4   2  13   38.82    2.91
  -5   1 -11    1.93    1.06
   5  -1  11    0.52    1.22
   5  -1  11    1.14    1.82
   3   7  13   92.37    4.59
   3   7  13   87.83    4.51
  -3  -7 -13   87.76    4.42
  -3  -7 -13   90.43    4.44
   3  -7 -10   63.11    3.72
  -3   7  10   62.44    3.78
  -3   7  10   65.88    3.51
   3  -7 -10   60.26    4.05
   3  -7 -10   57.71    4.08
   3  -7 -10   67.74    3.45
  -5  -8 -10    8.00    1.42
  -5  -8 -10    7.47    1.49
   5   8  10    5.92    1.65
   5   8  10    8.88    1.80
   2   0 -11   41.03    2.86
   2   0 -11   47.25    2.79
  -2   0  11   42.32    2.65
   2   0 -11   39.42    2.59
   3 -10  -2   22.03    1.92
  -3  10   2   22.52    2.72
   3 -10  -2   22.34    3.01
  -3  10   2   21.29    2.30
  -3  10   2   20.57    2.00
  -3  10   2   19.25    2.80
  -3  10   2   15.00    0.94
   4  -6  -9   70.79    2.79
  -4   6   9   70.69    3.85
   4  -6  -9   75.04    3.38
  -4   6   9   76.56    4.01
   4  -6  -9   74.49    3.64
   4  -6  -9   75.00    3.16
   4  -6  -9   69.90    3.47
   4   3  -7   12.97    1.84
   4   3  -7   17.71    2.22
  -4  -3   7   12.85    2.32
  -4   9   5   42.59    2.85
   4  -9  -5   47.46    2.49
  -4   9   5   44.23    2.42
  -4   9   5   47.91    3.14
   4  -9  -5   44.16    3.73
   4  -9  -5   47.48    2.91
   0  -2 -13   93.67    4.85
   0  -2 -13  100.25    4.83
   0  -2 -13   94.46    4.86
   0   2  13   98.84    4.97
   0   2  13  100.31    5.38
  -5  -6 -12   12.40    1.93
   5   6  12   14.46    1.79
  -5  -6 -12   16.69    1.52
   5   6  12   15.64    1.96
   5   6  12    8.59    1.47
   0  10  10   90.34    5.12
   0  10  10   99.12    4.65
   0 -10 -10  105.80    5.55
   0  10  10   85.74    4.96
   0 -10 -10   97.30    4.67
   0  10  10   91.65    4.91
   0  10  10   93.44    4.38
   0 -10 -10   96.38    4.81
  -7  -4  -1   26.44    1.95
   7   4   1   25.40    1.89
   7   4   1   19.61    2.29
  -7  -4  -1   23.35    2.36
  -2   9  -3    4.23    1.40
  -2   9  -3    1.92    0.38
  -2   9  -3    2.14    2.38
  -2   9  -3    4.80    1.40
  -2   9  -3    2.81    0.38
   2  -5   9   39.01    3.40
  -2   5  -9   42.81    3.17
  -2   5  -9   44.42    2.24
   2  -5   9   44.97    2.36
   3   7  -4   34.44    2.26
   3   7  -4   33.13    2.81
  -3  -7   4   32.65    3.12
   0  11   7   13.45    2.63
   0  11   7   14.91    1.52
   0 -11  -7   13.28    2.93
   0  11   7   12.94    2.17
   0 -11  -7   13.65    1.83
   0  11   7   10.78    1.36
   0 -11  -7   17.19    1.57
  -7  -1   2   90.58    4.78
   7   1  -2   96.15    4.62
   7   1  -2   95.32    4.64
  -7  -1   2   93.06    4.66
   7   1  -2   86.16    4.47
  -2   4 -10   36.08    2.96
   2  -4  10   44.57    3.53
  -2   4 -10   44.36    3.01
  -2   4 -10   51.49    2.40
   2  -4  10   50.22    2.64
   7   5   3   20.63    2.06
  -7  -5  -3   16.23    2.26
   7   5   3   15.81    1.70
   7   5   3   17.54    2.05
   7   5   3   16.18    1.68
  -5   6   7   11.98    1.91
   5  -6  -7   11.04    2.53
   5  -6  -7   11.31    2.64
   5  -6  -7   10.18    1.61
   5  -6  -7    9.97    2.00
  -5   6   7    8.99    1.40
  -5   7   6   64.68    3.43
   5  -7  -6   74.56    3.94
  -5   7   6   75.43    3.76
   5  -7  -6   71.21    4.52
   5  -7  -6   69.11    3.62
  -4  -6   4    5.65    2.19
   4   6  -4    7.36    1.89
   4   6  -4    7.08    1.52
  -6   4  -7    1.52    2.51
  -6   4  -7    1.72    1.69
  -6   4  -7    0.59    1.52
   6  -4   7   -0.17    1.50
   6  -4   7    1.00    0.61
  -2   8  -5   11.86    0.82
  -2   8  -5   14.29    2.48
  -2   8  -5   10.13    2.11
  -2   8  -5   13.15    1.45
  -2   8  -5    9.11    1.34
   0  11   3   26.73    2.42
   0  11   3   29.71    1.88
   0 -11  -3   28.79    2.20
   0 -11  -3   27.58    2.95
   0  11   3   28.88    1.84
   0  11   3   30.22    3.06
   7   1   9   96.12    4.98
  -7  -1  -9   88.49    4.23
  -7  -1  -9   84.20    4.44
   7   1   9   87.59    4.56
   1 -11  -5   13.50    1.74
  -1  11   5   15.58    2.17
  -1  11   5    6.85    2.60
  -1  11   5   14.70    1.35
   1 -11  -5    8.96    2.71
  -1  11   5   10.19    2.29
   3 -10  -5   41.80    2.26
   3 -10  -5   41.00    2.70
  -3  10   5   39.32    2.18
  -3  10   5   39.84    2.77
   3 -10  -5   42.07    3.64
  -3  10   5   39.25    3.02
   3  -9  -8    6.19    0.84
  -3   9   8    6.01    1.29
  -3   9   8    5.82    1.88
   3  -9  -8    6.73    1.31
   3  -9  -8    6.72    1.83
   6   5  11   59.44    3.10
   6   5  11   52.07    2.89
  -6  -5 -11   58.37    3.20
  -6  -5 -11   53.90    3.02
   6   5  11   45.88    2.72
   6   5  11   58.66    2.72
   3   2  -9   21.03    1.82
   3   2  -9   17.98    2.25
  -3  -2   9   20.90    2.60
   3   2  -9   12.60    1.28
   3   2  -9   22.41    1.96
   3   2  -9   21.64    2.09
  -1   5  -9   15.81    2.33
   1  -5   9   14.91    2.56
  -1   5  -9   11.97    1.94
  -4  -6 -13  327.91   13.52
   4   6  13  279.71   13.62
   4   6  13  297.55   13.55
  -4  -6 -13  306.61   13.32
  -4   6  -7    6.01    1.76
  -4   6  -7    3.19    0.93
  -4   6  -7    6.49    2.30
  -4   6  -7    4.84    1.76
  -4   6  -7    5.98    1.97
   6   7   9   98.82    4.98
   6   7   9   98.36    5.08
   6   7   9   96.69    4.75
  -1  11   4   10.47    2.21
  -1  11   4   13.60    2.63
  -1  11   4   16.69    2.12
  -1  11   4   17.66    1.35
   1 -11  -4   15.52    1.82
   1 -11  -4   14.16    2.82
  -2   4  12   36.50    2.58
   2  -4 -12   33.29    2.67
   2  -4 -12   30.02    2.18
   2  -4 -12   27.38    2.73
   2  -4 -12   34.83    2.95
   2  -4 -12   36.88    2.45
   5  -3  -8   51.02    3.46
  -5   3   8   58.35    3.40
   5  -3  -8   52.55    3.27
  -5   3   8   53.16    3.07
   5  -3  -8   53.59    3.43
   5  -3  -8   50.48    3.07
   6  -5  -5  110.39    3.77
  -6   5   5   98.75    5.36
   6  -5  -5   97.28    4.46
   6  -5  -5  105.82    4.66
  -6   5   5  104.15    5.41
   6  -5  -5  112.77    4.04
   6  -5  -5   91.57    3.17
  -7   2  -7   -0.21    1.04
  -7   2  -7    0.36    1.24
  -7   2  -7    0.92    1.53
  -7   2  -7    0.34    1.25
   7  -2   7    0.77    1.63
   7  -2   7    0.32    1.03
   5  -8  -4   31.76    2.99
  -5   8   4   36.98    2.03
   5  -8  -4   37.96    2.65
  -5   8   4   37.24    2.54
   5  -8  -4   33.08    3.36
   5  -8  -4   44.92    2.23
   1   3 -10    5.26    1.73
   1   3 -10    9.36    1.53
   1   3 -10    6.92    0.98
  -1  -3  10    8.63    1.43
   1   3 -10    8.80    1.71
  -6  -1 -11   71.89    3.95
   6   1  11   78.47    3.88
  -6  -1 -11   72.44    3.66
   6   1  11   76.11    4.14
   6   1  11   73.58    3.97
  -5   8  -1    7.74    2.64
   5  -8   1    5.88    1.26
  -5   8  -1    5.37    2.08
  -5   8  -1    6.10    1.43
  -5   8  -1    5.63    2.18
   5  -8   1    7.31    2.67
  -1  10  -1   45.19    2.25
  -1  10  -1   47.20    2.78
   1 -10   1   45.92    3.26
  -1  10  -1   43.53    2.24
  -1  10  -1   46.17    2.92
   1  -4  10    9.05    2.31
   1  -4  10    8.99    1.32
  -1   4 -10   10.83    1.49
  -1   4 -10   10.11    1.40
  -1   4 -10   13.00    1.96
  -5   7  -4   44.52    3.22
  -5   7  -4   44.22    3.68
  -5   7  -4   50.26    2.77
  -5   7  -4   54.67    3.36
  -5   7  -4   43.62    2.50
  -3   4  11  116.64    5.64
   3  -4 -11  112.51    5.51
   3  -4 -11  106.88    5.18
  -3   4  11  110.77    5.58
   3  -4 -11  105.99    5.43
   3  -4 -11  107.46    5.63
   3  -4 -11  119.37    5.76
   2   2 -10   27.96    2.52
   2   2 -10   36.43    2.32
  -2  -2  10   38.44    2.45
  -2  -2  10   37.28    3.19
   2   2 -10   33.73    2.07
   2   2 -10   37.30    2.50
   2   2 -10   23.01    1.89
  -7  -5  -8    0.22    1.45
   7   5   8    0.01    1.85
   7   5   8   -1.13    1.27
   7   5   8    1.46    1.46
   7   5   8   -0.98    1.56
   2 -10  -8   22.96    2.17
  -2  10   8   23.62    2.27
   2 -10  -8   30.11    3.05
  -2  10   8   27.71    2.87
  -2  10   8   19.41    1.74
   7  -1   8   -0.80    1.76
   7  -1   8   -0.24    1.10
  -7   1  -8   -0.90    1.60
   7  -4   4    1.60    0.54
  -7   4  -4   -0.93    1.28
  -7   4  -4    1.29    1.64
  -7   4  -4    1.73    0.86
   7  -4   4    1.08    2.07
   7  -4   4    2.35    0.82
   7  -4   4    0.09    1.76
   7  -4   4    2.64    0.86
  -6   1 -10    2.00    1.79
   6  -1  10    2.77    1.60
   6  -1  10    0.33    1.07
   7   4   9   65.19    3.74
   7   4   9   76.35    3.55
  -7  -4  -9   78.95    3.99
   5   9   6   53.31    3.21
   5   9   6   50.85    3.21
   5   9   6   54.97    3.03
   5   9   6   59.66    3.17
   5   9   6   55.16    3.20
   0  10  -1   55.54    3.99
   0 -10   1   49.74    3.18
   0  10  -1   62.91    2.98
   0  10  -1   58.47    2.91
   0  10  -1   54.12    3.31
   6  -6  -4   38.40    3.61
   6  -6  -4   49.59    2.64
   6  -6  -4   48.84    2.99
   6  -6  -4   37.55    3.59
  -6   6   4   37.42    3.34
   6  -6  -4   46.83    3.46
  -6   6   4   45.99    2.71
  -4  -8   1   16.57    2.38
   4   8  -1   16.25    2.26
   0   8  -5   17.69    1.77
   0   8  -5   20.22    1.52
   2  -5 -12   35.69    3.03
   2  -5 -12   35.84    2.81
   2  -5 -12   42.56    2.57
  -2   5  12   41.55    2.60
  -2   5  12   37.79    2.73
   2  -5 -12   34.26    2.19
  -2   5  12   36.43    2.63
   2  -5 -12   30.25    2.90
  -2   5  12   34.78    2.63
   1 -11  -6   -0.17    2.61
  -1  11   6    2.76    2.37
  -1  11   6   -0.73    1.11
  -1  11   6    0.13    1.01
  -1  11   6    0.65    1.88
  -1  11   6   -0.29    2.11
   1 -11  -6    1.75    1.15
   1 -11  -6    0.07    1.53
  -5   2   8   12.87    2.05
  -5   2   8   14.66    1.72
   5  -2  -8   14.83    1.88
   5  -2  -8   14.97    2.32
   5  -2  -8   13.05    2.07
   5  -2  -8   14.04    2.30
   2  -3 -12   10.97    2.21
   2  -3 -12   16.68    2.20
  -2   3  12   12.09    1.85
   2  -3 -12   12.36    1.77
   5   9   7   15.79    1.85
   5   9   7    9.94    1.75
   5   9   7   11.59    1.74
   5   9   7   10.53    1.88
   5  -4  -8   63.33    4.06
  -5   4   8   56.61    3.32
   5  -4  -8   62.05    3.57
   5  -4  -8   58.88    3.83
  -5   4   8   70.24    3.74
   5  -4  -8   63.58    3.87
   5  -4  -8   55.56    3.35
   2  11   6   39.78    2.55
   2  11   6   44.32    3.20
  -2 -11  -6   38.29    3.20
   3  -3 -11   77.19    4.26
   3  -3 -11   80.58    4.39
  -3   3  11   85.01    4.47
   3  -3 -11   79.87    4.37
   3  -3 -11   79.01    4.27
  -2   6  -8   23.00    2.49
  -2   6  -8   25.38    1.84
  -2   6  -8   31.49    1.73
   2  -6   8   30.15    3.06
  -2   6  -8   29.69    2.92
   6   1  -5    7.58    1.84
   6   1  -5    6.40    1.64
  -6  -1   5    6.44    1.93
  -1   6  -8   21.52    2.13
  -1   6  -8   23.47    2.79
   1  -6   8   18.28    2.76
  -1   6  -8   26.15    1.75
  -1   6  -8   20.76    1.80
  -5   6  -6   27.03    1.62
  -5   6  -6   36.17    2.70
  -5   6  -6   31.50    3.08
  -5   6  -6   38.07    2.27
  -5   6  -6   32.48    2.44
   1   7  -6   14.24    2.46
   1   7  -6   14.74    1.52
  -1  -7   6   13.96    2.71
   7  -2  -3    0.04    1.36
   7  -2  -3    1.33    1.15
  -7   2   3   -1.03    2.20
   7  -2  -3   -0.83    1.43
   7  -2  -3   -0.62    1.70
  -7   2   3   -1.12    1.95
  -3  10   1   11.50    1.79
  -3  10   1   12.79    1.01
   3 -10  -1   14.86    1.68
  -3  10   1   10.20    2.05
   3 -10  -1   10.32    2.65
  -3  10   1   11.71    2.50
  -3  10   1   11.67    2.73
  -3  10   1   11.11    2.52
   1  11   3   10.60    1.38
   1  11   3    9.36    2.47
   1  11   3    4.71    1.25
   1  11   3   10.75    1.86
  -1 -11  -3   11.47    2.38
   1  11   8   45.46    2.52
   1  11   8   30.77    3.22
  -1 -11  -8   47.90    2.66
  -1 -11  -8   34.51    3.50
   1  11   8   40.42    2.38
  -1  11   3   31.91    2.55
   1 -11  -3   37.22    3.22
  -1  11   3   35.60    1.94
  -1  11   3   29.74    1.88
  -1  11   3   37.48    3.26
   1 -11  -3   32.05    2.34
  -1  11   3   32.00    2.68
   7  -1  -3   25.71    2.68
   7  -1  -3   28.34    2.30
   7  -1  -3   31.45    2.20
   7  -1  -3   26.84    1.91
  -7   1   3   30.32    2.44
  -7   1   3   28.75    2.72
   3  10   2   68.78    4.28
   3  10   2   76.09    3.83
  -3 -10  -2   68.51    3.72
   3  10   2   74.76    3.86
   2   9  12   35.07    2.51
   2   9  12   39.29    2.74
  -2  -9 -12   35.87    2.23
   2   9  12   37.65    2.36
   2   9  12   35.74    2.85
  -2  -9 -12   33.24    2.41
  -2  -9 -12   39.19    2.54
  -2   3 -11    2.34    1.21
  -2   3 -11   -0.87    1.26
   2  -3  11    2.27    2.18
  -2   3 -11    2.09    1.33
   2  -3  11    2.20    1.26
   4   0  -9   88.92    4.46
   4   0  -9   89.27    4.62
  -4   0   9   92.75    5.04
   2  11   5   84.63    4.30
   2  11   5   88.94    4.24
   2  11   5   84.97    4.94
  -2 -11  -5   85.51    4.76
   7  -3   6   30.46    2.37
   7  -3   6   27.80    1.71
  -7   3  -6   25.58    2.08
  -7   3  -6   27.98    2.13
  -7   3  -6   28.03    2.05
  -7   3  -6   26.32    1.67
   6  -2  -6   40.54    2.80
   6  -2  -6   39.15    3.05
   6  -2  -6   38.46    2.59
   6  -2  -6   43.06    3.06
   5   1  -7   71.51    3.81
   5   1  -7   67.35    3.82
   5   1  -7   65.18    3.57
  -5  -1   7   66.79    4.02
   2   9  -2   17.20    1.94
   2   9  -2   18.51    1.56
   2   9  -2   20.78    2.59
   1   9  12   65.84    3.48
   1   9  12   54.44    3.69
  -1  -9 -12   66.37    3.49
   1   9  12   58.04    3.68
   1   9  12   66.99    3.66
  -1  -9 -12   65.32    3.60
  -1  -9 -12   60.53    3.24
   1   9  12   61.30    3.21
   6  -3  -6   34.71    2.58
   6  -3  -6   42.22    3.04
   6  -3  -6   29.15    2.30
   6  -3  -6   33.24    2.95
   5   9   5   57.16    3.22
   5   9   5   53.66    3.28
   5   9   5   50.99    3.18
   5   9   5   58.93    3.08
   2  11   7   37.08    2.43
   2  11   7   33.25    2.82
   3  -5 -11    7.77    2.43
   3  -5 -11   11.44    1.75
   3  -5 -11    9.31    1.30
  -3   5  11    7.72    1.68
  -3   5  11    9.49    2.09
   3  -5 -11    7.31    2.61
   4  10   6    4.38    1.58
   4  10   6    7.63    1.47
   4  10   6    8.47    1.79
   4  10   6    5.28    2.08
   3  -4  10    3.14    1.12
   3  -4  10    0.64    2.16
  -3   4 -10   -0.29    2.30
  -3   4 -10    0.28    0.89
  -3   4 -10    2.69    1.97
  -3   4 -10   -0.72    1.86
  -3   4 -10    1.56    1.00
  -3   4 -10    1.70    1.15
   0   7  13   84.36    4.67
   0  -7 -13   90.39    4.48
   0  -7 -13   80.41    4.21
   0   7  13   92.75    4.61
   0   7  13   88.15    4.54
   0  -7 -13   97.90    4.71
   7  -4  -2   54.52    3.41
  -7   4   2   54.46    3.45
  -7   4   2   51.11    3.69
   7  -4  -2   56.53    3.02
   7  -4  -2   45.99    3.76
   7  -4  -2   45.69    2.55
   7  -4  -2   47.43    2.76
   7  -4  -2   57.83    3.83
   4  10   7   39.25    2.71
   4  10   7   45.21    2.59
   4  10   7   35.45    2.52
   4  10   7   36.62    2.90
   3  -5   9   -2.42    2.29
   3  -5   9   -0.88    0.92
  -3   5  -9   -1.95    2.10
  -3   5  -9   -0.11    1.90
  -3   5  -9   -1.25    0.91
  -3   5  -9   -0.28    0.85
  -3   5  -9   -1.29    2.15
   6   6   0   35.41    2.33
  -6  -6   0   33.06    2.11
  -6  -6   0   35.21    2.65
   6   6   0   34.24    2.61
  -2  -4 -14   17.65    1.83
   2   4  14   10.46    1.84
   2   4  14   15.69    1.80
  -2  -4 -14   12.89    1.88
   2   4  14   18.81    1.82
   6  -7  -1   15.38    2.53
   6  -7  -1   18.02    1.85
   6  -7  -1   22.80    1.31
   6  -7  -1   17.30    2.73
  -6   7   1   17.55    1.74
  -1   9  11    8.05    1.97
  -1   9  11    6.72    2.24
   1  -9 -11   15.03    1.75
  -1   9  11   11.27    1.59
   4   8  12   12.01    1.96
   4   8  12   12.85    1.84
  -4  -8 -12   13.45    1.62
  -4  -8 -12   11.50    1.59
  -4   9  -1   -0.08    1.26
  -4   9  -1   -0.23    1.40
  -4   9  -1    0.59    1.74
  -4   9  -1    0.88    2.34
  -4   9  -1   -1.37    2.19
  -4   9  -1   -2.65    2.50
   4  -9   1    0.34    2.54
   4  -9   1   -0.62    1.27
   6  -7   0    1.31    0.49
  -6   7   0    1.19    1.37
   6  -7   0    0.60    2.18
   6  -7   0    2.25    1.36
   3  10  10   72.46    4.14
  -3 -10 -10   76.77    3.91
  -3 -10 -10   81.83    4.00
  -3 -10 -10   70.96    3.95
   3  10  10   79.10    4.41
   3  10  10   88.82    4.11
   0  11   8    4.78    2.46
   0 -11  -8    5.45    2.70
   0  11   8    4.24    1.33
   0 -11  -8    2.99    1.31
   0  11   8    3.77    2.08
   0  11   8    3.99    1.19
   5   9   8   21.95    2.12
   5   9   8   26.50    2.21
   5   9   8   24.99    2.27
   5   9   8   28.71    2.14
   4   9   1   14.53    1.91
   4   9   1   16.66    1.78
   4   9   1   20.01    1.89
  -4  -9  -1   11.72    1.46
   4   9   1   15.00    2.26
  -2  -5 -14   54.96    3.29
   2   5  14   56.61    3.22
   2   5  14   61.79    3.20
  -2  -5 -14   56.76    3.35
  -2  -5 -14   61.56    3.40
   2   5  14   56.87    2.89
  -3  10   6   36.57    2.13
   3 -10  -6   36.07    3.55
   3 -10  -6   35.61    2.56
   3 -10  -6   37.45    2.13
  -3  10   6   35.30    2.90
  -3  10   6   35.60    2.67
  -6   6  -4    6.32    0.92
  -6   6  -4    7.40    1.48
  -6   6  -4    3.82    2.74
   6  -6   4    7.45    2.07
   6   7   2   22.34    1.91
   6   7   2   22.46    1.87
   6   7   2   22.43    1.99
   4   2  -8   11.53    1.16
   4   2  -8   20.59    1.91
  -4  -2   8   18.26    2.50
   4   2  -8   17.36    1.96
   4   2  -8   19.03    2.44
   0   1 -12   -0.16    1.74
   0   1 -12   -0.83    1.48
   0  -1  12   -0.05    1.42
   0  -1  12   -0.45    2.32
   5   7  -1   46.11    2.70
  -5  -7   1   52.50    3.51
   5   7  -1   40.20    2.81
   2  -9 -10   81.52    3.82
  -2   9  10   81.57    4.02
   2  -9 -10   83.03    4.68
   2  -9 -10   75.62    4.06
   2  -9 -10   67.14    3.50
  -2   9  10   71.07    4.35
   4  10   5   22.61    1.88
   4  10   5   21.02    2.39
   4  10   5   20.58    2.00
   4  10   5   22.78    2.17
   5   8   1   91.72    4.63
   5   8   1   89.49    4.77
  -2  -8 -13    0.79    1.47
   2   8  13    0.29    1.77
   2   8  13    1.38    1.54
   2   8  13    0.99    1.48
  -2  -8 -13    0.83    1.66
  -4   1 -12   19.47    1.60
   4  -1  12   15.89    2.35
  -4   1 -12   19.78    1.39
   4  -1  12   22.23    1.74
  -1   3 -11   16.36    1.75
   1  -3  11   21.62    2.77
  -1   3 -11   20.48    1.87
   1  -3  11   23.18    1.85
  -1   3 -11   24.66    1.81
   0  11   2   64.40    3.35
   0  11   2   67.77    3.81
   0  11   2   70.58    3.43
   0 -11  -2   76.72    4.41
   0  11   2   68.01    4.50
   1  -4 -13    1.69    2.16
   1  -4 -13    3.20    2.02
  -1   4  13    1.75    1.62
  -1   4  13    0.92    1.59
   1  -4 -13    1.35    1.52
   4  -9  -6   53.68    3.53
  -4   9   6   46.77    3.51
   4  -9  -6   68.33    3.21
  -4   9   6   61.90    2.96
  -4   9   6   51.84    3.33
   7   5   2   14.60    1.67
   7   5   2   14.14    2.06
  -7  -5  -2   14.23    2.18
   7   0   9   13.93    2.02
  -7   0  -9   14.52    1.97
   7   0   9    8.63    1.38
   1   0 -12   69.08    3.75
  -1   0  12   62.98    3.53
   1   0 -12   64.65    3.66
   7  -3  -3   27.31    2.26
   7  -3  -3   25.00    1.66
   7  -3  -3   26.28    1.82
  -7   3   3   26.91    2.46
   7  -3  -3   27.82    2.04
  -7   3   3   25.39    2.82
   7  -3  -3   23.56    2.92
  -6   5  -6    8.11    2.69
  -6   5  -6    6.51    1.92
   6  -5   6    9.35    1.80
   1   9  -3   45.86    2.43
   1   9  -3   38.96    2.66
   1   9  -3   43.07    3.45
  -4  -1 -13   60.41    3.12
   4   1  13   59.68    3.80
  -4  -1 -13   55.19    2.89
   4   1  13   63.78    3.38
  -2   0 -13   36.88    2.49
   2   0  13   43.08    2.60
   2   0  13   40.53    3.29
  -2   0 -13   40.68    2.86
  -2   0 -13   43.18    2.54
  -6   1   6   27.43    2.38
   6  -1  -6   29.60    2.72
   6  -1  -6   32.39    2.55
   6  -1  -6   27.30    2.29
   6  -1  -6   36.76    2.83
   1 -11  -7    2.71    1.23
  -1  11   7    8.99    2.56
   1 -11  -7    6.81    1.72
  -1  11   7    7.85    1.11
  -1  11   7    9.02    2.27
  -1  11   7    3.15    1.25
  -1  11   7    7.98    2.03
   2  -8 -11   40.78    3.55
   2  -8 -11   52.85    2.90
  -2   8  11   47.98    2.82
  -2   8  11   43.67    3.18
   2  -8 -11   43.67    3.55
  -7   0   3   64.14    3.36
   7   0  -3   68.05    3.52
   7   0  -3   57.96    3.22
  -7   0   3   53.31    3.57
   7   0  -3   62.11    3.46
   7  -5   1    0.86    2.34
   7  -5   1    1.22    1.35
   7  -5   1    1.08    2.08
  -7   5  -1    2.09    2.61
   7  -5   1    0.31    0.95
   6  -7  -2    2.52    2.58
   6  -7  -2    3.61    2.26
   6  -7  -2    3.32    0.99
  -6   7   2    2.70    1.48
  -6   7   2    2.71    2.62
   6  -7  -2    3.56    1.58
  -3   2  11   30.47    2.37
   3  -2 -11   31.05    2.58
   3  -2 -11   28.73    2.57
   3  -2 -11   30.80    2.55
  -2 -11  -4   35.76    3.07
   2  11   4   30.89    2.03
   2  11   4   26.74    2.04
   2  11   4   29.86    2.96
  -2  10  -1    0.33    1.77
  -2  10  -1   -0.70    2.06
   2 -10   1    1.92    2.36
  -2  10  -1    2.56    1.54
  -2  10  -1    0.66    2.50
  -2  10  -1    1.46    0.35
  -2  10  -1    1.02    0.34
  -1   5  13    8.36    1.77
   1  -5 -13    7.33    2.26
   1  -5 -13    8.40    1.70
   1  -5 -13    9.70    2.08
  -1   5  13    8.25    1.85
  -1   5  13    8.46    1.86
   4  10   8   11.29    2.08
   4  10   8    7.66    1.73
   4  10   8   13.86    1.99
  -4 -10  -8   14.43    1.83
   4  10   8   15.99    1.80
  -3   3 -11   13.47    1.41
  -3   3 -11   14.81    1.27
   3  -3  11   14.70    1.48
   3  -3  11   12.43    2.34
  -3   3 -11   16.55    2.26
  -3   3 -11   18.19    1.51
   2  -6 -12   26.45    2.46
   2  -6 -12   24.99    2.70
   2  -6 -12   22.35    2.08
   2  -6 -12   30.52    2.84
  -2   6  12   20.38    2.04
  -2   6  12   26.87    2.35
  -2   6  12   25.88    2.22
   3   4  14    5.08    1.60
  -3  -4 -14    4.65    1.52
  -3  -4 -14    2.22    1.78
  -3  -4 -14    0.78    1.45
   3   4  14    3.93    1.90
   3   4  14    2.30    1.51
   7  -5   0   22.67    1.55
  -7   5   0   17.72    2.78
   7  -5   0   18.56    2.53
   7  -5   0   23.37    2.02
   7  -5   0   18.93    2.78
   5  -1  -8    5.16    1.64
   5  -1  -8    6.26    1.94
  -5   1   8    5.27    1.88
   5  -1  -8    6.41    1.94
   5  -1  -8    6.64    2.09
  -7  -3   1   88.61    4.48
   7   3  -1   83.23    4.19
  -7  -3   1   85.22    4.43
   7   3  -1   79.56    4.66
   7   3  -1   86.33    4.30
   4   7  -3    2.81    1.82
   4   7  -3    4.63    1.44
  -4  -7   3    2.68    2.24
   6  -4  -6   21.55    2.04
   6  -4  -6   26.86    1.59
   6  -4  -6   29.11    2.43
   6  -4  -6   26.11    2.87
   6  -4  -6   28.96    2.86
   3   9  -1   48.02    3.34
   3   9  -1   42.04    2.83
   2  11   8   37.26    2.85
   2  11   8   35.38    2.40
  -2 -11  -8   36.84    2.52
   2  11   8   41.78    2.43
  -5   5   8  102.09    4.94
   5  -5  -8  114.39    4.87
   5  -5  -8  106.69    4.98
  -5   5   8   99.05    5.33
   5  -5  -8  109.94    5.35
   5  -5  -8   96.24    5.19
   5  -5  -8  106.51    5.47
   5  -5  -8   84.80    4.22
   2  -2 -12    6.63    1.70
   2  -2 -12    7.70    2.05
  -2   2  12    8.00    1.70
   1   8  13   36.61    2.94
  -1  -8 -13   38.46    2.47
   1   8  13   41.98    2.83
  -1  -8 -13   46.91    2.73
   1   8  13   39.93    2.46
  -1  -8 -13   43.88    2.86
   1   8  13   45.26    2.74
   2   3  14    3.21    1.38
  -2  -3 -14    4.44    1.57
   2   3  14    4.22    1.51
  -2  -3 -14    1.42    1.60
   2   3  14    1.38    2.02
  -8  -1  -4   19.26    2.77
   8   1   4   11.12    1.66
   8   1   4   17.92    1.57
   8   1   4   15.62    2.10
   7   6   6   68.47    4.00
   7   6   6   74.68    3.85
   7   6   6   68.65    4.02
  -1 -10 -11    4.53    1.31
   1  10  11    4.25    1.96
  -1 -10 -11    4.15    1.49
   1  10  11    4.84    1.53
  -1 -10 -11    3.01    1.78
   1  10  11    6.90    2.33
   0  -5   9   37.66    3.30
   0   5  -9   27.88    2.27
   0   5  -9   47.07    2.36
  -1   8  12   14.67    2.27
  -1   8  12    8.53    1.67
   1  -8 -12    9.66    1.63
   1  -8 -12   11.64    2.14
  -1   8  12   14.49    2.00
   6  -7   1    2.13    1.24
  -6   7  -1    2.55    1.08
  -6   7  -1    6.95    2.22
  -6   7  -1    5.72    1.37
  -4   8  -4   -0.45    1.30
  -4   8  -4   -1.32    2.29
  -4   8  -4    1.69    2.05
  -4   8  -4   -1.37    2.13
  -4   8  -4    0.35    1.57
   2   8  -4    1.99    1.57
  -2  -8   4   -0.49    2.36
   2   8  -4    2.24    2.20
   2   8  -4   -1.36    1.32
   5  -8  -5   43.81    2.84
  -5   8   5   41.23    2.29
   5  -8  -5   33.75    3.56
  -5   8   5   42.50    2.76
   5  -8  -5   38.52    3.19
   5  -8  -5   37.23    3.65
   5  -8  -5   47.36    2.44
  -2 -10   0   33.84    2.31
   2  10   0   36.69    3.10
   2  10   0   36.44    2.38
   2  10   0   36.66    2.30
   2  10   0   36.63    2.53
   8   0   3   25.22    2.25
  -8   0  -3   20.82    2.77
  -8   0  -3   13.47    0.78
   8   0   3   24.09    1.93
   5   9   4   37.78    2.56
   5   9   4   39.85    2.63
   5   9   4   38.68    2.44
   5   9   4   34.83    2.67
   0   1  13   66.41    3.67
   0  -1 -13   70.17    3.82
   0   1  13   70.95    4.30
   0  -1 -13   68.93    3.75
   0  -1 -13   65.99    3.84
  -3  -5 -14   16.98    2.00
  -3  -5 -14   12.44    1.79
   3   5  14   17.28    1.82
   3   5  14   12.25    1.07
   3   5  14   15.02    1.77
  -3  -5 -14   15.32    1.75
  -8   0  -4   28.28    3.05
   8   0   4   31.46    2.15
   8   0   4   31.23    2.01
  -1  11   2   51.49    2.55
  -1  11   2   46.26    3.04
   1 -11  -2   50.07    2.95
  -1  11   2   48.30    3.79
   1 -11  -2   47.87    3.65
  -1  11   2   45.07    2.44
  -1  11   2   47.25    3.16
   4   9  11   43.87    2.78
  -4  -9 -11   43.79    2.68
  -4  -9 -11   48.66    2.81
  -4  -9 -11   44.09    2.71
   4   9  11   41.32    2.91
   4   9  11   47.36    2.83
   5   0  12   22.01    2.25
  -5   0 -12    8.37    0.52
  -5   0 -12   17.01    1.41
   5   0  12   20.67    1.81
  -3   6  -8    0.67    0.70
  -3   6  -8   -1.00    2.19
  -3   6  -8    0.93    2.19
   3  -6   8   -1.16    2.23
  -3   6  -8    0.38    0.99
  -3   6  -8    1.82    1.92
   7   6   5  117.12    5.94
   7   6   5  121.25    6.11
  -5   8  -2    6.76    2.64
   5  -8   2    8.56    1.29
  -5   8  -2    8.38    1.44
  -5   8  -2    7.91    2.38
  -5   8  -2    8.58    1.41
  -5   8  -2    8.81    2.26
  -3   8  -5    1.55    1.19
  -3   8  -5   -1.04    2.21
  -3   8  -5    0.15    2.23
  -3   8  -5    1.36    1.91
  -1  -4 -14   81.79    4.48
  -1  -4 -14   84.60    4.36
  -1  -4 -14   94.68    4.52
   1   4  14   84.16    3.93
   1   4  14   86.45    4.24
   1   4  14   86.77    4.13
   6   6  11   -0.36    1.18
   6   6  11    1.21    1.43
   6   6  11   -0.26    1.50
  -6  -6 -11   -1.05    1.43
   7  -5   2    1.50    0.87
  -7   5  -2    0.49    1.81
   7  -5   2    0.87    1.15
   7  -5   2    0.53    0.85
   7  -5   2   -0.26    2.22
  -7   5  -2   -2.43    2.66
   7  -5   2    1.31    1.95
  -8  -1  -3   28.66    2.98
   8   1   3   30.09    2.14
   8   1   3   36.55    2.55
   5   4  -5   13.06    1.88
   5   4  -5   16.16    2.29
  -5  -4   5   12.77    2.24
  -7  -2   2   57.51    3.22
   7   2  -2   56.18    3.13
   7   2  -2   51.82    2.97
  -7  -2   2   49.49    3.18
  -1  -5 -14   45.19    2.64
   1   5  14   28.62    2.51
  -1  -5 -14   38.49    2.76
   1   5  14   39.64    2.58
  -1  -5 -14   34.37    2.53
   1   5  14   42.94    2.58
   1   5  14   39.11    2.38
   2  10  11   25.02    2.14
   2  10  11   32.66    2.52
  -2 -10 -11   31.08    2.28
   2  10  11   26.91    2.75
  -2 -10 -11   29.02    1.99
  -2 -10 -11   23.69    2.10
   5   4  13    4.36    1.84
  -5  -4 -13    3.01    1.04
   5   4  13    3.05    1.69
   5   4  13    4.08    1.35
   5   4  13    3.32    1.46
  -5  -4 -13    3.30    1.51
  -5  -4 -13    1.77    1.73
   1  -3 -13    5.63    2.00
   1  -3 -13    1.16    1.60
  -1   3  13    4.40    1.55
   1  -3 -13    5.56    2.12
  -1   3  13    1.77    1.56
   1  -3 -13    3.75    1.59
  -1 -10   1   48.27    2.95
   1  10  -1   50.90    2.67
   1  10  -1   52.45    2.75
   1  10  -1   47.56    3.01
   1  10  -1   48.61    3.65
   4  -8  -8    0.21    1.30
  -4   8   8   -1.94    1.80
   4  -8  -8    0.05    2.75
   4  -8  -8    0.04    2.64
   4  -8  -8   -0.30    0.58
   4  -8  -8    2.24    2.01
  -4   8   8    0.43    1.35
  -4   8   8   -1.07    2.08
   6   8   6   15.93    1.82
   6   8   6   16.20    2.02
   6   8   6   16.88    1.70
  -1   7  -7    8.37    1.14
   1  -7   7    6.50    2.44
  -1   7  -7    5.37    2.36
  -1   7  -7    3.37    0.54
  -1   7  -7    7.82    1.78
  -1   7  -7    6.51    1.35
  -3   0 -13   25.39    2.52
   3   0  13   27.74    2.81
  -3   0 -13   24.80    1.95
  -3   0 -13   33.68    2.07
   3   0  13   31.61    2.16
  -4   4  10   25.52    2.50
   4  -4 -10   34.78    2.44
  -4   4  10   32.23    2.26
   4  -4 -10   27.23    2.56
   4  -4 -10   24.57    2.75
   4  -4 -10   27.21    2.79
   4  -4 -10   27.35    3.05
   8   1   5   -0.44    1.32
   8   1   5    2.85    1.22
   8   1   5    1.99    1.04
  -8  -1  -5    1.98    2.55
   6   7  10   33.14    2.09
   6   7  10   47.02    2.79
   6   7  10   33.01    2.51
   6   7  10   37.76    2.42
   2   6  14   59.32    3.11
   2   6  14   59.01    3.18
  -2  -6 -14   60.62    3.43
   7   5   9   13.78    1.59
   7   5   9   17.50    1.77
   7   5   9   13.66    1.81
   7   5   9   15.27    2.13
  -7  -5  -9   15.80    1.74
  -4   3  10    2.93    1.93
   4  -3 -10    0.49    1.62
   4  -3 -10    1.18    2.06
  -4   3  10   -0.14    1.44
   4  -3 -10    1.99    2.25
  -4  -7 -13  120.27    6.16
  -4  -7 -13  141.80    6.31
   4   7  13  122.37    5.74
  -4  -7 -13  131.06    6.10
   4   7  13  139.35    5.82
   4   7  13  125.76    5.71
   2  -7   7   18.47    2.70
  -2   7  -7   20.98    1.33
  -2   7  -7   16.64    1.60
  -2   7  -7   17.21    2.71
  -2   7  -7   18.51    2.34
   3   9  12   34.88    2.35
   3   9  12   23.89    2.57
  -3  -9 -12   31.17    2.35
  -3  -9 -12   33.01    2.22
   3   9  12   29.55    2.44
  -3  -9 -12   38.38    2.44
  -3   9  -3   23.87    2.62
  -3   9  -3   17.65    2.57
  -3   9  -3   24.05    1.95
  -3   9  -3   20.11    2.82
  -3   9  -3   21.33    1.89
   1   2 -11    9.44    1.97
   1   2 -11    7.85    1.77
   1   2 -11    9.19    1.87
  -1  -2  11    9.46    1.51
  -5  -7 -12   57.57    3.27
   5   7  12   43.22    2.99
  -5  -7 -12   58.77    3.17
  -5  -7 -12   70.24    3.48
   5   7  12   53.42    3.09
   7   6   7   33.28    2.49
   7   6   7   39.07    2.64
   7   6   7   35.23    2.49
   7   6   7   33.95    2.26
   6   8   7    4.65    1.57
   6   8   7    2.11    1.31
   6   8   7    3.74    1.80
  -7  -4   0    5.11    1.85
  -7  -4   0    2.46    1.57
   7   4   0    2.96    1.51
   7   4   0    3.56    1.43
   7   4   0    2.64    2.03
   0   6  -8   14.35    0.84
   0   6  -8   16.00    0.86
  -5  -5   4    8.70    2.18
   5   5  -4    8.32    1.66
   5   5  -4    8.65    2.14
   0   4 -10   40.53    2.83
   0   4 -10   34.93    2.78
   0  -4  10   56.95    4.06
   0  -4  10   65.49    3.34
  -6  -4   3    4.04    1.82
  -6   0 -11   -0.39    1.17
   6   0  11    0.97    1.20
  -6   0 -11   -0.57    1.89
   6   0  11    0.55    1.66
  -7   4  -5   15.90    1.22
  -7   4  -5   14.56    1.88
   7  -4   5   17.95    1.17
  -7   4  -5   15.41    1.65
   7  -4   5   14.51    1.09
   7  -4   5   16.58    2.00
   1 -10 -10   21.39    3.11
  -1  10  10   23.89    1.52
  -1  10  10   29.99    2.06
   1 -10 -10   24.11    1.77
  -1  10  10   21.92    2.72
   1 -10 -10   28.90    2.04
  -1  10  10   24.24    2.88
  -3   6  11   22.11    2.02
   3  -6 -11   20.38    2.78
   3  -6 -11   23.43    2.92
  -3   6  11   20.02    2.45
  -3   6  11   21.42    2.35
   3  -6 -11   23.94    2.06
  -5  -8 -11   57.74    3.18
   5   8  11   62.77    3.67
   5   8  11   69.39    3.70
  -5  -8 -11   63.21    3.26
   5   3  13   16.22    2.10
   5   3  13   20.04    2.11
   5   3  13   16.23    1.74
   5   3  13   17.84    1.50
  -5  -3 -13   18.13    2.10
  -5  -3 -13   16.55    1.27
  -5  -3 -13   15.80    1.73
   3 -10   0   -1.16    1.36
  -3  10   0   -0.48    1.87
  -3  10   0    2.09    2.41
  -3  10   0    0.24    2.31
   3 -10   0   -0.04    2.50
  -3  10   0   -0.14    2.61
  -3  10   0    0.17    0.90
  -3  10   0    0.86    1.65
   3   8  -3    6.44    2.26
   3   8  -3    6.64    1.70
   3   8  -3    7.31    1.41
  -3  -8   3    7.31    2.38
   3   3  14   25.74    2.10
   3   3  14   34.02    2.30
  -3  -3 -14   34.72    2.30
  -3  -3 -14   31.39    2.38
   3   3  14   36.01    2.81
  -5   4  -9   -1.40    2.35
  -5   4  -9    2.73    1.79
   5  -4   9    0.76    0.84
  -5   4  -9    2.09    0.76
  -5   4  -9    0.23    1.75
   7   3  10   15.52    2.05
  -7  -3 -10   15.02    1.63
  -7  -3 -10   12.88    1.94
   7   3  10   18.54    1.77
   7   3  10   11.07    1.13
   4  -7  -9   55.17    4.01
  -4   7   9   52.26    3.45
  -4   7   9   52.68    3.26
   4  -7  -9   54.46    3.39
   4  -7  -9   53.39    3.78
   4  -7  -9   52.91    3.06
  -4   7   9   55.21    3.07
  -4   7  -6    9.07    1.74
  -4   7  -6   10.68    2.17
  -4   7  -6    9.73    2.42
  -4   7  -6    5.55    1.85
  -4   7  -6    7.88    1.14
   7  -5  -1    4.57    2.19
   7  -5  -1    3.37    1.18
   7  -5  -1    5.10    2.57
  -7   5   1    4.46    2.52
   7  -5  -1    4.17    1.60
   7  -5  -1    5.08    2.76
   4  10   4    6.63    1.77
   4  10   4    6.93    1.63
   4  10   4    4.72    2.00
   4  10   4    6.21    1.49
   1  11   2    1.60    1.11
   1  11   2    1.47    2.45
   1  11   2    0.18    1.31
  -1 -11  -2    0.26    2.24
   1  11   2   -0.11    1.68
  -8   0  -2   64.03    3.12
   8   0   2   83.33    4.32
  -8   0  -2   75.76    4.25
   8   0   2   82.35    4.15
   8   0   2   84.46    4.18
  -1 -11  -9   74.23    3.87
  -1 -11  -9   81.07    3.98
   1  11   9   67.20    4.53
  -1 -11  -9   73.31    4.71
   1  11   9   79.90    4.00
   1  11   9   73.51    4.30
   1  11   9   81.37    3.83
  -5   3 -10   -1.10    1.88
   5  -3  10    0.69    1.03
   5  -3  10   -0.64    0.77
  -5   3 -10   -4.07    2.42
  -5   3 -10    0.58    1.49
  -5   3 -10    1.12    0.91
   5  -3  10    0.40    1.99
   0  -9 -12    3.52    1.89
   0  -9 -12    1.29    1.52
   0   9  12    3.41    1.94
   0   9  12    2.56    1.65
   0   9  12    2.71    2.27
   5   9   9   -1.37    1.48
   5   9   9    0.01    1.67
   5   9   9    2.10    1.71
  -5  -9  -9    1.22    1.47
   5   9   9    1.64    1.61
   1   0  13   15.39    1.73
  -1   0 -13   14.14    1.88
  -1   0 -13   14.78    2.11
  -1   0 -13   16.08    1.74
   1   0  13   15.80    2.66
   7   2  10   66.61    3.56
  -7  -2 -10   65.49    3.64
  -7  -2 -10   65.22    3.39
   7   2  10   69.83    3.20
  -6  -3   4    8.39    2.06
   8   2   4   94.33    4.72
   8   2   4   87.11    4.56
  -8   0  -5   14.65    2.75
   8   0   5   15.80    1.23
  -8   0  -5   15.71    1.47
   8   0   5   14.97    1.66
   8   0   5   17.88    1.44
   3   8  13    8.20    1.90
   3   8  13   11.98    1.88
  -3  -8 -13    9.42    1.70
   3   8  13    6.45    1.64
  -8   1  -3   24.67    1.64
  -8   1  -3   34.64    2.25
   8  -1   3   27.14    1.96
   8  -1   3   34.60    2.04
  -8   1  -3   31.31    3.11
   8  -1   3   26.06    2.06
   6   8   5    6.68    1.67
   6   8   5    7.91    1.76
   6   8   5    7.38    1.54
   2  -2  12   37.74    2.36
  -2   2 -12   31.19    2.66
  -2   2 -12   36.39    2.12
  -2   2 -12   22.36    1.95
  -2   2 -12   33.55    2.13
   2  -2  12   34.56    3.09
   8   2   5   19.55    1.61
   8   2   5   25.73    1.94
   8   2   5   22.32    2.33
  -8  -2  -5   17.42    2.82
   2 -11  -4   35.27    3.53
  -2  11   4   31.45    2.99
  -2  11   4   37.64    2.07
  -2  11   4   34.64    2.73
   2 -11  -4   40.26    2.60
  -1   6  13   29.08    2.44
   1  -6 -13   26.39    2.01
   1  -6 -13   30.71    2.59
  -1   6  13   30.45    2.42
   1  -6 -13   29.87    2.30
  -1   6  13   25.56    2.40
   1  -6 -13   30.63    2.85
  -1   6  13   27.53    2.23
  -6   7   3    6.81    2.72
  -6   7   3    7.26    1.64
   6  -7  -3    5.12    1.77
   6  -7  -3    6.17    1.16
   6  -7  -3    4.77    2.67
   6  -7  -3    5.04    2.49
   6  -7  -3    5.27    2.67
   3   1 -10    5.67    1.47
  -3  -1  10    6.59    2.34
  -3  -1  10    6.54    1.51
   3   1 -10    6.86    1.86
   3   1 -10    6.27    1.65
   3   1 -10    7.07    1.65
   5   5  13    7.83    1.88
   5   5  13    5.96    1.54
   5   5  13   10.69    1.71
   5   5  13   11.19    1.67
  -5  -5 -13    7.15    1.81
  -5  -5 -13    7.00    1.22
   5   3  -6   30.46    2.80
  -5  -3   6   27.52    2.74
   5   3  -6   30.83    2.37
   7   6   4   27.84    2.47
   7   6   4   27.57    2.31
   7   6   4   29.27    2.19
   7   6   4   31.55    2.18
   7   6   4   38.01    2.48
  -1  -3 -14   46.12    2.85
  -1  -3 -14   51.45    3.10
  -1  -3 -14   51.52    2.98
  -1  -3 -14   45.58    3.02
   1   3  14   49.30    3.31
   1   3  14   50.37    2.89
   1   3  14   39.37    2.55
   2 -11  -5   57.96    4.44
   2 -11  -5   60.50    3.56
  -2  11   5   59.07    3.64
  -2  11   5   52.17    3.80
   2 -11  -5   70.50    3.30
  -2  11   5   65.18    3.11
   6   3  12   34.84    2.15
   6   3  12   22.77    1.58
  -6  -3 -12   36.47    2.37
   6   3  12   29.66    1.99
  -8   1  -2    8.71    1.81
   8  -1   2    9.29    1.60
   8  -1   2    8.47    1.36
  -8   1  -2   11.80    2.78
   8  -1   4   30.56    2.36
   8  -1   4   31.55    2.86
  -8   1  -4   31.56    2.03
   8  -1   4   31.02    1.96
   8  -1   4   27.21    2.07
  -8   1  -4   30.65    3.03
   8   1   2    6.91    1.82
   8   1   2    6.99    1.52
  -8  -1  -2    4.19    0.67
  -8  -1  -2    6.91    2.43
  -6  -4 -12    4.16    1.46
   6   4  12    4.80    1.38
   6   4  12    2.34    1.52
   6   4  12    2.48    1.24
   4  10   9   24.53    2.35
   4  10   9   26.97    2.18
   4  10   9   29.71    2.25
  -4 -10  -9   26.43    2.08
  -4 -10  -9   26.01    2.11
  -6   6   5  103.83    5.83
   6  -6  -5  105.65    6.01
   6  -6  -5   94.81    5.91
  -6   6   5  112.04    5.37
   6  -6  -5  113.51    5.50
   6  -6  -5  113.63    5.28
  -3   8  10   58.08    3.28
  -3   8  10   60.21    3.67
  -3   8  10   59.42    3.52
   3  -8 -10   56.72    4.14
   3  -8 -10   55.21    3.29
   3  -8 -10   62.07    4.04
   3  -8 -10   66.39    3.71
  -4   5  10   27.41    2.63
   4  -5 -10   25.24    3.14
   4  -5 -10   25.38    2.49
  -4   5  10   29.71    2.24
   4  -5 -10   23.25    1.66
   4  -5 -10   34.47    2.30
   4  -5 -10   26.71    2.78
   4  -5 -10   29.40    2.90
  -3  -6 -14   91.75    4.33
   3   6  14   82.32    4.23
   3   6  14   74.14    4.23
  -3  -6 -14   76.40    4.22
  -3  -6 -14   80.29    4.16
   3   6  14   90.27    4.33
  -6  -5   2    4.39    0.82
   6   5  -2    5.28    1.99
   6   5  -2    4.70    1.53
  -6  -5   2    5.31    1.93
   1   6  14   -2.95    1.74
  -1  -6 -14    1.45    1.55
  -1  -6 -14    0.13    1.95
   1   6  14    0.19    1.90
   6   8   8   19.26    1.68
   6   8   8   21.70    2.12
   6   8   8   21.62    1.96
  -1   9  -4    4.93    1.47
  -1   9  -4    5.24    0.95
  -1   9  -4    3.38    1.39
  -1   9  -4    5.32    0.93
  -1   9  -4    4.56    1.86
   1   8  -5   34.96    3.16
   1   8  -5   36.17    2.14
  -1  -8   5   36.52    3.31
   1   8  -5   29.54    2.31
   2  11   3   50.56    3.20
   2  11   3   50.09    3.72
   2  11   3   55.35    2.87
  -2 -11  -3   55.40    3.48
   2  11   3   46.16    2.83
  -2  11   3   53.22    3.24
  -2  11   3   51.61    2.53
   2 -11  -3   49.64    3.91
  -2  11   3   40.80    3.66
  -2  11   3   43.51    3.36
   2 -11  -3   51.82    3.04
  -8  -2  -3    3.73    2.25
   8   2   3    4.29    1.85
  -5   7   7    4.59    1.31
   5  -7  -7    2.86    1.34
   5  -7  -7    4.33    2.68
   5  -7  -7    4.89    1.95
  -5   7   7    3.52    1.82
   4  -2 -10   33.69    2.67
  -4   2  10   24.75    2.17
  -4   2  10   32.84    2.42
   4  -2 -10   24.60    2.28
   4  -2 -10   30.54    2.56
  -7  -4 -10    6.15    1.51
   7   4  10    7.14    1.34
   7   4  10    6.60    1.62
  -6   7  -2   20.40    3.09
   6  -7   2   19.16    2.42
   6  -7   2   20.30    1.56
  -6   7  -2   18.91    2.63
  -6   7  -2   19.85    1.62
  -6   7  -2   19.86    1.62
  -8  -1  -6   17.96    2.94
  -8  -1  -6   22.94    1.74
   8   1   6   21.08    1.81
   8   1   6   20.05    1.34
   8   1   6   18.78    1.47
   7  -5   3   14.01    1.04
   7  -5   3   15.43    1.20
  -7   5  -3   14.81    2.10
  -7   5  -3   11.63    1.36
   7  -5   3   13.30    2.44
   7  -5   3   13.27    1.01
   3   5  -7   81.55    4.88
  -3  -5   7   93.81    5.29
   3   5  -7  105.92    4.81
  -3  10   7    2.56    2.23
   3 -10  -7    0.56    2.79
  -3  10   7    1.63    1.87
   3 -10  -7    3.79    1.19
  -3  10   7    2.92    2.49
  -3  10   7    4.07    1.21
   3 -10  -7    2.20    1.76
   2 -10  -9   -1.39    1.30
   2 -10  -9    0.14    1.07
   2 -10  -9    0.18    1.76
  -2  10   9    0.36    1.87
  -2  10   9    0.06    2.36
  -2  10   9   -0.45    1.30
   2   1 -11   45.46    2.84
   2   1 -11   44.79    2.50
  -2  -1  11   45.01    2.75
   2   1 -11   43.52    2.70
   7  -4  -3   32.91    3.53
   7  -4  -3   53.11    2.67
   7  -4  -3   35.50    3.21
  -7   4   3   43.25    3.12
   7  -4  -3   44.62    2.86
  -7   4   3   43.98    3.47
   7  -4  -3   42.19    3.60
   0 -10 -11    3.68    1.46
   0 -10 -11    3.30    1.27
   0  10  11    2.95    1.51
   0  10  11    1.86    1.91
   0  10  11    3.34    2.25
   0 -10 -11    3.05    1.82
   0  10  11    2.77    2.36
   0  10  11    3.25    1.16
   6   0  -6   22.61    2.12
  -6   0   6   20.30    2.20
   6   0  -6   24.74    2.64
   6   0  -6   22.38    2.22
  -5   5  -8    0.32    0.30
   5  -5   8    1.45    0.38
  -5   5  -8    1.01    0.38
  -5   5  -8    0.73    1.94
  -5   5  -8    0.71    1.67
  -5   5  -8   -1.03    2.32
  -5   5  -8    1.59    1.78
   0 -11  -9   30.35    3.37
   0  11   9   32.03    2.04
   0  11   9   24.70    3.11
   0 -11  -9   34.05    2.27
   1 -11  -8   14.90    1.92
  -1  11   8   10.23    1.51
   1 -11  -8    9.78    1.45
  -1  11   8   17.38    2.71
  -1  11   8   16.75    2.16
  -1  11   8   14.77    2.53
   7   6   8   31.38    2.20
  -7  -6  -8   34.70    2.37
   7   6   8   36.33    2.66
   7   6   8   29.02    2.35
   7   6   8   33.33    2.42
   3  -9  -9    1.92    0.91
   3  -9  -9    1.54    1.29
  -3   9   9    2.87    2.08
  -3   9   9    1.28    1.36
   3  -9  -9    2.33    2.72
   3  -9  -9    2.82    1.91
  -3   9   9    2.04    1.80
  -2 -11  -9   18.01    1.77
  -2 -11  -9   17.94    1.81
   2  11   9   12.77    2.61
   2  11   9   17.56    1.82
  -2 -11  -9   17.23    1.95
   2  11   9   17.39    1.71
   2  11   9   16.03    2.26
   8   2   6    1.79    1.43
  -8  -2  -6    2.46    1.37
   8   2   6    4.62    1.94
   8   2   6    1.82    1.08
  -8  -2  -6    1.84    2.55
  -7   2  -8    2.15    1.17
  -7   2  -8    1.97    1.67
  -7   2  -8    1.55    1.27
   7  -2   8    2.93    1.14
  -3 -10  -1   37.60    2.47
   3  10   1   39.33    3.12
   3  10   1   38.61    2.51
   3  10   1   38.77    2.49
   7   1  -3   50.02    2.94
   7   1  -3   58.00    3.16
   7   1  -3   52.39    3.17
  -7  -1   3   56.53    3.24
  -7  -1   3   49.59    3.27
   3  -2  12   47.22    3.64
   3  -2  12   59.04    3.04
  -3   2 -12   57.69    2.92
  -3   2 -12   52.06    2.89
  -2  -2 -14    5.53    1.84
   2   2  14    4.94    1.19
  -2  -2 -14    3.61    1.04
   2   2  14    5.91    2.30
   2   2  14    6.13    1.59
  -2  -2 -14    4.68    1.55
  -2  -2 -14    4.29    1.63
   2   5  -8   45.60    3.26
  -2  -5   8   54.80    3.82
   2   5  -8   64.50    3.19
  -5  -6   3    1.75    2.16
   5   6  -3    1.60    1.49
  -5  -2 -13   60.49    3.22
   5   2  13   64.13    3.54
  -5  -2 -13   58.10    2.80
   5   2  13   70.22    3.81
  -4   9  -2    0.87    1.44
  -4   9  -2    0.23    2.44
  -4   9  -2    1.21    1.44
  -4   9  -2    1.77    2.46
   4  -9   2    0.74    2.59
  -4   9  -2    0.28    2.23
  -4   9  -2    1.20    1.66
   6  -3   9    2.07    1.04
   6  -3   9    2.36    1.41
  -6   3  -9   -1.12    1.65
  -6   3  -9    2.36    1.85
  -6   3  -9    3.76    2.73
  -1   2 -12   33.10    2.71
  -1   2 -12   37.41    2.38
   1  -2  12   36.10    2.35
   1  -2  12   31.29    3.09
  -1   2 -12   37.03    2.30
  -1   2 -12   26.64    2.26
   5  -2  11    4.16    2.08
   5  -2  11    3.30    1.14
  -5   2 -11    4.71    1.09
   5  -2  11    0.83    0.70
  -7  -1 -10   16.92    2.11
   7   1  10   17.75    2.16
   7   1  10   17.25    1.68
  -3  -4   8    5.49    2.33
   3   4  -8   10.34    1.69
   3   4  -8    3.85    2.01
   6  -5  -6    0.59    1.86
   6  -5  -6    0.39    1.45
   6  -5  -6    0.42    2.54
   6  -5  -6   -1.43    2.45
   0 -11  -1   87.77    4.86
   0  11   1   88.11    4.36
   0  11   1   93.45    5.40
   0  11   1   88.04    4.73
   0  11   1  100.25    4.51
   3  -1 -11    0.51    1.91
  -3   1  11    2.34    1.47
  -3   1  11   -0.25    2.03
   3  -1 -11    1.36    1.87
   3  -1 -11   -1.57    1.95
   5   9   3   17.28    2.00
   5   9   3   19.16    2.24
   5   9   3   20.03    1.92
   5   9   3   22.71    2.07
  -6  -2 -12   56.90    3.13
   6   2  12   53.95    3.10
   6   2  12   56.21    3.09
   6   2  12   52.76    3.41
  -4   4 -10    1.45    0.79
  -4   4 -10    2.22    2.03
  -4   4 -10    1.24    0.92
  -4   4 -10    2.32    1.48
  -4   4 -10   -0.04    2.47
   4  -4  10    0.99    1.05
  -4   4 -10    0.80    0.91
   4  -4  10    0.68    2.18
  -4   4 -10    1.26    1.78
  -5   7  -5    4.42    2.06
  -5   7  -5    6.69    1.18
  -5   7  -5    6.51    2.60
  -5   7  -5   12.45    2.25
  -5   7  -5   10.51    1.70
   1 -10   2    7.68    2.27
  -1  10  -2   12.32    1.07
  -1  10  -2   11.78    1.94
  -1  10  -2   14.41    1.15
  -1  10  -2   12.50    1.78
  -2  11   6   11.46    0.99
  -2  11   6    9.69    2.64
   2 -11  -6   12.77    2.98
   2 -11  -6   14.15    1.89
   2 -11  -6   17.26    1.47
  -2  11   6    8.82    2.34
  -2  11   6    8.20    2.05
  -2  11   6   14.39    1.39
   1  -2 -13   51.93    3.10
   1  -2 -13   49.57    3.21
  -1   2  13   50.02    2.98
  -1   2  13   47.87    3.40
   1  -2 -13   49.06    3.08
  -8   0  -1   23.49    2.78
  -8   0  -1   15.58    1.42
   8   0   1   19.08    1.80
   8   0   1   21.52    2.07
   8   0   1   21.85    1.90
   0   7  -7   44.06    2.63
   0   7  -7   35.93    2.43
   0   3 -11   90.57    4.45
   0  -3  11   90.21    5.58
   0  -3  11  105.61    4.93
   0   3 -11  116.61    4.56
   6   8   4    4.79    1.55
   6   8   4    4.97    1.64
   6   8   4    4.62    1.63
  -6  -2   5    1.79    1.90
   6   2  -5   -0.06    1.75
   6   2  -5    0.95    1.61
  -7   3  -7   -0.12    1.57
  -7   3  -7    0.34    1.52
  -7   3  -7   -0.50    1.44
   7  -3   7   -1.93    1.70
   7  -3   7    1.30    0.95
  -3  -6   6   42.23    3.42
   3   6  -6   36.65    2.94
   3   6  -6   47.17    2.72
   3  11   6  101.97    4.90
   3  11   6   93.46    5.06
   3  11   6  100.22    5.37
   3  11   6   97.21    4.75
  -2   9  -4   12.30    2.27
  -2   9  -4   16.36    2.60
  -2   9  -4   14.01    1.53
  -2   9  -4   18.47    1.62
  -2   9  -4   11.10    0.73
  -2   9  -4    9.60    0.69
   7   5   1    5.56    1.88
  -7  -5  -1    4.87    1.57
   7   5   1    3.93    1.52
  -7  -5  -1    3.36    1.89
  -7   5   2   14.99    2.77
   7  -5  -2   17.26    1.91
   7  -5  -2   13.22    2.95
  -7   5   2   16.58    2.44
   7  -5  -2   17.62    2.82
   7  -5  -2   15.02    1.54
   7  -5  -2   12.24    1.13
   7  -5  -2   18.06    2.45
   3  11   7   12.88    2.05
   3  11   7    7.43    1.64
   3  11   7   11.94    1.70
   3  11   7   10.49    2.27
  -3 -11  -7   10.15    1.82
   2   6  -7   34.48    2.87
  -2  -6   7   35.63    3.26
   2   6  -7   37.38    2.42
   8  -1   1   60.01    3.17
  -8   1  -1   51.80    3.82
   8  -1   1   58.65    3.26
   8  -1   1   58.88    3.35
  -8   1  -1   55.48    3.22
   0  -8 -13  110.30    5.35
   0  -8 -13  117.05    5.63
   0   8  13  107.14    5.88
   0   8  13  116.28    5.67
   0  -8 -13  120.81    5.78
   0   8  13  119.47    5.72
   8   0   6   33.55    1.74
   8   0   6   30.81    1.82
   8   0   6   51.46    2.77
   8   0   6   47.03    2.38
  -8   0  -6   39.70    3.77
  -8   0  -6   49.46    2.62
   8   0   6   49.61    2.97
  -2   7  12    3.30    2.00
   2  -7 -12    1.30    2.11
   2  -7 -12    0.84    1.08
  -2   7  12    0.80    1.53
   2  -7 -12    2.11    1.57
   2  -7 -12    0.26    2.47
  -2   7  12    1.75    1.78
   2  -7 -12    2.60    2.42
   8  -1   5   42.89    2.30
   8  -1   5   32.25    1.90
  -8   1  -5   39.22    2.00
   8  -1   5   33.25    1.77
  -8   1  -5   37.05    1.72
  -8   1  -5   36.23    3.12
   8  -1   5   41.93    2.61
   8  -1   5   44.69    3.03
  -1  11   1   21.59    3.05
  -1  11   1   18.27    2.09
  -1  11   1   20.84    2.34
   1 -11  -1   19.86    2.70
  -1  11   1   21.31    1.60
  -1  11   1   17.48    1.30
  -5   0   8   62.57    3.82
   5   0  -8   62.75    3.53
   5   0  -8   58.91    3.46
   5   0  -8   62.25    3.61
   5   0  -8   56.16    3.36
  -6  -7  -1   23.88    1.96
   6   7   1   26.42    2.03
   6   7   1   24.68    2.11
   6   7   1   20.17    2.28
   7  -1   9    5.09    1.23
  -7   1  -9    4.89    1.80
   7  -1   9    6.26    1.88
   0   9  -4   30.90    1.87
   0   9  -4   29.63    3.11
   0   9  -4   26.04    2.16
   4  -5   9   80.97    3.73
  -4   5  -9   69.37    4.15
  -4   5  -9   67.03    3.44
  -4   5  -9   51.46    3.80
   4  -5   9   78.32    4.71
  -4   5  -9   87.54    4.44
  -4   5  -9   91.49    3.44
  -4   5  -9   52.77    4.27
  -3  -2 -14   83.37    4.37
   3   2  14   84.06    3.76
  -3  -2 -14   96.62    4.56
   3   2  14   87.42    4.31
  -6   4  -8   10.73    2.81
  -6   4  -8   18.59    2.09
   6  -4   8   15.62    1.05
   6  -4   8   14.89    1.74
   4  -9  -7   46.52    2.92
  -4   9   7   42.45    2.50
  -4   9   7   43.27    2.91
   4  -9  -7   39.08    2.40
  -2  -4   9   13.31    2.49
   2   4  -9    9.62    1.39
   2   4  -9    7.88    1.97
  -6  -5 -12   29.01    2.09
   6   5  12   36.56    2.50
   6   5  12   32.79    1.94
  -6  -5 -12   21.91    2.16
   6   5  12   33.09    2.01
   6   5  12   20.62    1.42
   6   5  12   23.38    2.09
  -3   7  -7   -0.02    1.09
  -3   7  -7   -1.90    2.33
  -3   7  -7    3.85    1.90
  -3   7  -7    1.31    2.20
  -3   7  -7    0.36    0.46
  -5   6   8   50.14    3.00
   5  -6  -8   49.63    2.96
   5  -6  -8   47.34    3.66
   5  -6  -8   45.62    3.85
   5  -6  -8   47.53    3.68
   5  -6  -8   53.41    3.23
  -5   6   8   45.37    2.75
   3  10  11   95.04    4.63
   3  10  11   76.33    4.85
   3  10  11   86.09    4.73
  -3 -10 -11   91.29    4.63
  -3 -10 -11   89.13    4.50
   3  10  11   95.93    4.51
  -3 -10 -11   92.79    4.61
   4   1  -9   45.12    2.77
   4   1  -9   37.93    2.69
   4   1  -9   35.77    2.42
  -4  -1   9   46.60    3.45
  -2   1  12    7.96    1.66
   2  -1 -12    8.30    1.87
   2  -1 -12    6.39    2.04
   4   4  14    5.13    1.95
  -4  -4 -14    2.97    1.92
   4   4  14    1.23    1.48
   4   4  14    2.39    1.45
  -4  -4 -14    3.16    1.32
  -4  -4 -14    1.86    1.50
   6  -2  10   11.31    1.31
   6  -2  10    7.30    1.43
  -6   2 -10    5.41    2.04
   8   3   5   33.75    2.15
   8   3   5   32.16    2.44
   8   3   5   43.91    2.83
   7  -2  -4   22.74    1.91
  -7   2   4   27.13    2.73
  -7   2   4   30.36    2.56
   7  -2  -4   19.73    2.83
   7  -2  -4   24.71    2.79
   7  -2  -4   30.97    2.17
   7  -2  -4   29.61    1.86
   7  -2  -4   25.16    2.33
   0  10  -2   19.33    1.49
   0  10  -2   22.46    1.53
   0  10  -2   18.23    2.72
   0  10  -2   19.12    1.96
   6  -6   5    2.85    1.87
  -6   6  -5    5.35    2.05
  -6   6  -5    2.38    2.86
  -6   6  -5    3.17    0.66
   2   7  14    1.45    1.82
   2   7  14    2.95    1.75
  -2  -7 -14    1.65    1.79
  -2  -7 -14    0.22    1.54
  -2  11   2    6.74    0.86
  -2  11   2    7.29    1.92
   2 -11  -2    6.77    1.59
  -2  11   2    4.17    2.13
   2 -11  -2   10.46    2.80
  -2  11   2    7.95    1.05
  -2  11   2    4.74    2.60
   7   6   3   18.29    1.77
   7   6   3   14.28    2.14
   7   6   3   17.48    1.80
   7   6   3   17.83    1.94
   8  -2   3   11.93    1.48
  -8   2  -3   11.93    1.52
   8  -2   3   12.01    2.15
  -8   2  -3   12.25    2.79
  -8   2  -3   12.03    1.98
   8  -2   3   12.65    2.53
   8  -2   3    9.25    1.44
   8  -2   3   11.13    1.76
   8  -2   3   10.78    1.35
   4  10   3   47.52    3.21
   4  10   3   56.19    3.07
   4  10   3   50.11    3.47
   4  10   3   59.56    3.18
   8   3   4   30.46    2.11
   8   3   4   37.99    2.60
   8   3   4   29.91    2.34
  -8  -3  -4   31.64    3.03
  -8   2  -2   11.93    2.84
   8  -2   2   12.57    2.65
  -8   2  -2   12.66    2.03
   8  -2   2   11.87    2.28
   8  -2   2   16.41    1.50
   8  -2   2   16.55    1.74
  -4   3 -11   16.04    2.26
   4  -3  11   18.18    1.58
   4  -3  11   19.28    2.59
  -4   3 -11   14.71    1.05
  -4   3 -11   12.90    1.21
  -4   3 -11   10.65    1.24
  -4   3 -11   18.14    1.34
  -5  -6 -13    5.25    1.82
  -5  -6 -13    6.67    1.31
   5   6  13    3.02    1.87
   5   6  13    5.73    1.63
  -5  -6 -13    9.13    1.70
   5   6  13    2.21    0.98
  -8  -2  -2    2.76    2.33
   8   2   2   -0.38    1.36
   8   2   2    0.37    1.83
  -8  -2  -2    0.78    0.59
   3  11   5   73.31    3.74
   3  11   5   65.35    3.97
   3  11   5   75.93    4.48
  -3 -11  -5   59.19    3.80
   3  11   5   76.15    3.84
   4   5  14   67.19    3.42
  -4  -5 -14   57.82    3.10
  -4  -5 -14   64.02    3.46
   4   5  14   66.84    3.67
   4   5  14   56.89    3.50
  -4  -5 -14   55.46    3.31
   4   5  14   58.71    3.60
   5  -8  -6   64.51    4.82
  -5   8   6   75.64    3.73
   5  -8  -6   79.74    4.24
   5  -8  -6   63.87    4.47
   5  -8  -6   86.67    3.89
  -5   8   6   74.66    4.08
   7  -1  -4    0.36    2.31
  -7   1   4    0.60    2.09
  -7   1   4   -0.34    1.85
   7  -1  -4    0.88    1.27
   7  -1  -4   -0.04    1.79
   7  -1  -4    1.39    1.57
   6   8   9   51.56    2.98
   6   8   9   42.12    2.79
   6   8   9   41.84    2.58
   5   2  -7   71.80    4.53
   5   2  -7   77.86    4.24
   5   2  -7   83.98    4.27
  -5  -2   7   74.94    4.42
   8   1   1    1.47    1.73
   8   1   1    0.76    1.36
  -8  -1  -1    0.71    1.06
  -8  -1  -1    3.89    2.40
   8   1   1    0.63    1.48
   8   1   1    0.84    1.35
   8   3   6   86.12    4.18
   8   3   6   71.75    3.63
   8   3   6   68.74    3.91
  -4   0 -13   13.71    1.31
   4   0  13    6.29    0.59
  -4   0 -13    8.51    1.46
   4   0  13   14.10    1.55
   4   0  13   12.32    2.23
   4   9   0   14.54    2.30
  -4  -9   0    6.70    0.68
   4   9   0   15.35    1.79
  -5   8  -3   33.20    2.24
  -5   8  -3   39.26    3.09
  -5   8  -3   31.05    3.30
  -5   8  -3   31.75    2.16
  -5   8  -3   30.95    2.93
  -5  -9 -10    0.94    1.49
   5   9  10   -0.01    1.65
  -5  -9 -10   -1.32    1.50
   5   9  10   -0.66    1.77
   6  -7  -4   18.59    1.58
   6  -7  -4   18.17    2.14
   6  -7  -4   16.44    2.81
   6  -7  -4   14.75    2.97
  -6   7   4   16.43    2.79
  -6   7   4   17.96    1.94
   6  -7  -4   16.29    2.96
   3  11   8    0.38    1.57
   3  11   8   -0.95    1.55
   3  11   8    0.18    1.89
  -3 -11  -8   -0.85    1.64
   1   2  14   36.66    2.56
  -1  -2 -14   32.22    2.55
  -1  -2 -14   30.51    2.45
  -1  -2 -14   27.71    2.33
  -1  -2 -14   40.84    2.48
   1   2  14   39.54    3.27
   4   8  -2   27.68    2.81
  -4  -8   2   29.37    2.84
   4   8  -2   33.48    2.24
  -4  -3 -14    1.05    1.88
  -4  -3 -14    2.22    1.51
  -4  -3 -14    1.43    1.26
   4   3  14    2.20    1.55
   4   3  14    1.27    2.02
   0   5  14   12.80    1.78
   0   5  14   11.14    1.84
   0  -5 -14   11.99    2.12
   0  -5 -14   10.24    2.14
   0   5  14    9.00    1.82
   7  -3  -4   47.11    3.70
   7  -3  -4   48.13    2.63
   7  -3  -4   56.26    3.18
   7  -3  -4   50.04    2.70
  -7   3   4   54.08    3.43
  -7   3   4   52.64    3.62
   7  -3  -4   52.49    2.99
   0  -4 -14   57.58    3.36
   0  -4 -14   48.61    3.13
   0   4  14   56.85    3.20
   0   4  14   60.04    3.07
   0   4  14   45.81    3.05
   0  -4 -14   57.15    3.27
   0  -4 -14   55.49    3.43
   4   5  -6   39.56    2.53
   4   5  -6   30.46    2.81
  -4  -5   6   33.66    2.98
   6   6  -1   52.21    3.70
   6   6  -1   62.61    3.43
  -6  -6   1   67.46    3.21
   6   6  -1   65.79    3.42
  -6  -6   1   35.59    1.95
  -5  -8   0    4.14    0.57
   5   8   0    8.66    1.76
  -5  -8   0    9.11    0.53
   5   8   0    7.82    1.93
   1  -8   6    8.75    2.53
  -1   8  -6   11.22    1.19
  -1   8  -6    9.24    1.22
  -1   8  -6   10.79    1.55
  -1   8  -6   12.09    1.92
  -1   8  -6    9.14    2.62
  -8  -2  -7   21.86    1.85
   8   2   7   20.76    1.82
   8   2   7   15.83    1.30
   1  -7 -13   51.29    3.57
   1  -7 -13   43.29    2.70
  -1   7  13   46.84    3.33
  -1   7  13   57.04    3.18
  -1   7  13   52.57    3.22
   1  -7 -13   57.98    3.40
   1  -7 -13   61.74    3.19
  -3  10  -1    2.45    2.63
  -3  10  -1    8.77    2.37
   3 -10   1    9.68    2.69
  -3  10  -1    6.82    1.82
  -3  10  -1    8.89    2.53
  -3  10  -1    6.24    1.68
   3  -7 -11   42.11    2.34
  -3   7  11   40.15    2.59
   3  -7 -11   36.33    3.23
   3  -7 -11   36.63    3.19
  -3   7  11   35.31    2.91
   4  -6 -10   57.60    3.18
   4  -6 -10   51.93    3.60
  -4   6  10   50.95    3.17
   4  -6 -10   50.25    3.97
  -4   6  10   51.36    3.02
  -4   6  10   47.80    3.40
   4  -6 -10   54.31    3.46
   4  -6 -10   48.69    3.73
   8   1   7    8.43    0.93
   8   1   7   15.31    1.62
  -8  -1  -7   11.28    2.95
   8   1   7    8.87    0.81
   8   1   7   17.48    2.13
  -8  -1  -7   14.25    1.55
   7   5  10    8.41    1.64
   7   5  10    9.45    1.49
  -7  -5 -10    6.53    1.54
   7   5  10    6.16    1.63
   5  -9  -2    2.26    1.49
  -5   9   2    1.17    1.61
   5  -9  -2    0.23    0.45
  -5   9   2    1.17    2.03
  -5   9   2    4.20    2.80
   5  -9  -2    3.81    2.72
   8  -2   4   -0.84    1.64
   8  -2   4    2.78    1.05
   8  -2   4    1.13    1.13
   8  -2   4    0.37    1.25
   8  -2   4    3.40    2.40
  -8   2  -4    3.22    2.65
  -8   2  -4    0.28    1.13
  -8   2  -4    2.61    1.67
   4 -10  -3   33.26    2.31
  -4  10   3   32.40    2.69
  -4  10   3   33.12    2.37
   4 -10  -3   28.07    3.42
   4 -10  -3   31.87    1.66
  -4  10   3   31.73    3.09
  -4  10   3   26.74    1.47
  -2  10  -2    0.34    2.05
  -2  10  -2    0.43    0.28
  -2  10  -2    3.64    1.73
  -2  10  -2    0.87    0.29
   2 -10   2    1.40    2.36
  -2  10  -2    2.19    1.57
  -2  10  -2    2.41    2.52
   1   7  14   11.88    2.30
  -1  -7 -14   11.40    1.67
   1   7  14   13.97    2.01
  -1  -7 -14   16.51    1.93
  -1  -7 -14   15.19    2.11
   8  -2   1   16.09    2.69
  -8   2  -1   15.10    2.11
   8  -2   1   17.43    1.66
   8  -2   1   17.86    2.36
  -8   2  -1   17.11    2.84
   8  -2   1   18.42    1.89
   3   3  -9   24.72    2.59
   3   3  -9   30.53    2.11
  -3  -3   9   29.74    3.03
   3   3  -9   25.54    2.23
   3   3  -9   32.07    2.47
   4   4  -7   -1.08    2.09
   4   4  -7   -0.62    1.57
  -4  -4   7   -0.08    2.12
  -7   5  -4    2.81    1.29
  -7   5  -4    3.38    1.88
   7  -5   4    2.97    0.62
   7  -5   4    5.28    1.95
   7  -5   4    3.15    0.58
   7  -5   4    3.35    0.56
  -7   5  -4    3.91    0.84
   4  -1 -10   35.80    2.72
   4  -1 -10   40.57    2.85
  -4   1  10   39.89    3.01
  -2   8  -6    5.99    2.52
  -2   8  -6    4.15    1.29
  -2   8  -6    3.72    0.72
  -2   8  -6    2.63    2.00
  -2   8  -6    4.73    1.03
   1  11   1   15.33    1.97
   1  11   1   14.68    1.49
   1  11   1   15.39    1.70
  -1 -11  -1   14.04    2.32
   1  11   1   13.64    2.66
  -4 -10 -10   24.58    2.01
   4  10  10   24.79    2.38
  -4 -10 -10   21.80    2.06
   4  10  10   23.37    2.09
   4  10  10   24.38    2.13
   1  11  10   51.88    2.98
  -1 -11 -10   47.79    2.79
   1  11  10   42.57    3.61
   1  11  10   54.40    2.82
  -1 -11 -10   49.43    3.04
  -1 -11 -10   51.50    2.92
   1  11  10   46.43    3.26
  -3  -7 -14   56.73    3.17
  -3  -7 -14   53.51    3.14
   3   7  14   60.59    3.34
   3   7  14   49.00    3.25
   3   7  14   57.88    3.27
  -5   6  -7   38.93    2.20
  -5   6  -7   67.32    3.50
  -5   6  -7   59.33    2.96
  -5   6  -7   48.77    3.54
  -5   6  -7   49.20    2.98
  -7   4  -6   15.03    2.00
  -7   4  -6   14.44    3.11
   7  -4   6   14.21    1.10
   7  -4   6   18.84    2.11
  -7   4  -6   19.03    1.84
   7   6   9    6.69    1.74
  -7  -6  -9    9.89    1.66
   7   6   9   10.75    1.69
   7   6   9   10.10    1.55
   8   3   3   17.31    2.17
  -8  -3  -3   10.84    2.42
  -4  10   2   -1.58    2.56
  -4  10   2   -1.73    2.68
  -4  10   2    0.73    1.96
   4 -10  -2   -2.17    2.73
  -4  10   2    0.76    1.69
   4 -10  -2   -0.47    1.43
  -4  10   2   -0.31    0.86
   2 -11  -7    6.51    1.74
  -2  11   7    7.31    1.27
   2 -11  -7    9.11    1.31
  -2  11   7    5.36    1.98
  -2  11   7    3.89    2.57
  -2  11   7    2.52    2.25
   2 -11  -7    5.23    2.91
   6   7  11   30.23    2.35
   6   7  11   37.97    2.58
  -6   7  -3   31.21    2.90
   6  -7   3   30.66    1.81
   6  -7   3   26.39    2.62
  -6   7  -3   24.81    1.77
  -6   7  -3   26.66    1.94
  -6   7  -3   21.37    3.44
  -5   9   1    0.33    2.40
  -5   9   1   -0.23    1.50
  -5   9   1   -0.79    0.81
   5  -9  -1    1.08    1.39
  -5   9   1    2.09    2.84
   5  -9  -1   -3.56    2.78
   5  -9  -3   -0.48    1.56
   5  -9  -3   -0.40    2.75
  -5   9   3   -0.29    2.06
  -5   9   3    0.34    2.70
  -5   9   3    0.16    1.66
   5  -9  -3    0.31    0.79
   0   0 -13   34.17    2.29
   0   0 -13   23.95    2.38
   0   0 -13   25.66    2.45
   0   0  13   36.44    2.47
   0   0  13   29.12    3.12
  -2  -7   6   -0.75    2.43
   2   7  -6    0.11    1.41
   2   7  -6    1.48    2.15
  -4   6  -8   33.69    2.56
  -4   6  -8   25.79    2.40
  -4   6  -8   29.31    1.65
  -4   6  -8   25.84    2.90
  -4   6  -8   24.99    1.29
   3   7  -5   30.96    2.81
  -3  -7   5   34.71    3.34
   3   7  -5   34.88    2.40
   2  11   2   41.07    3.39
   2  11   2   49.46    2.68
   2  11   2   42.39    2.90
   2  11   2   39.27    2.55
  -2 -11  -2   44.62    3.06
  -4  10   4   17.63    2.13
  -4  10   4   16.78    1.29
   4 -10  -4   21.50    2.01
   4 -10  -4   19.26    3.20
   4 -10  -4   16.45    1.29
  -4  10   4   19.96    2.84
  -4  10   4   16.81    2.41
   6   1  12   12.83    1.90
  -6  -1 -12    9.51    2.13
   6   1  12   13.67    2.07
  -6  -1 -12   10.33    1.42
   6   1  12   12.47    1.58
   6  -5   7   13.81    1.94
  -6   5  -7   11.93    2.92
  -6   5  -7   15.45    2.23
  -2  -9 -13   12.92    1.74
   2   9  13   10.76    2.19
   2   9  13   11.95    1.66
   2   9  13   12.78    2.05
  -2  -9 -13   12.58    1.54
   2   9  13   11.93    1.75
  -2  -9 -13   12.86    1.93
   4   6  -5   11.08    1.73
  -4  -6   5   11.71    2.52
   4   6  -5   10.75    2.09
   7   3  -2   43.95    2.69
   7   3  -2   33.51    3.15
  -7  -3   2   39.61    2.70
   7   3  -2   42.69    2.59
  -7  -3   2   44.25    2.83
  -8   1   0   59.40    3.99
  -8   1   0   60.08    3.48
   8  -1   0   54.67    3.17
   8  -1   0   58.91    3.25
   8  -1   0   58.88    3.26
  -1  -1  12   44.70    2.82
   1   1 -12   45.02    2.96
   1   1 -12   43.09    2.88
   2   9  -3   11.30    1.77
   2   9  -3   10.13    2.51
   2   9  -3   10.11    1.40
  -2  -9   3    8.25    2.50
   2   3 -10   59.19    2.87
  -2  -3  10   55.74    3.96
   2   3 -10   52.18    2.37
   2   3 -10   58.35    2.74
   1   5  -9   -0.66    0.74
   1   5  -9    0.48    0.55
   1   5  -9   -0.99    1.73
   1   5  -9   -0.70    1.42
  -8   1  -6    0.55    1.15
   8  -1   6    1.16    1.21
  -8   1  -6   -1.44    2.72
   8  -1   6    0.39    1.79
   8  -1   6    2.05    2.16
   3  11   4   25.62    2.11
   3  11   4   29.27    2.87
  -3 -11  -4   31.82    2.84
   3  11   4   29.71    2.07
   6   8   3   19.11    1.89
   6   8   3   21.75    2.04
   6   8   3   22.92    2.10
   6   8   3   19.72    1.98
   7   0  10   11.98    1.42
   7   0  10    9.62    2.00
  -7   0 -10    6.98    1.92
  -4  -8 -13    8.14    1.53
   4   8  13   10.59    1.95
   4   8  13    9.28    1.83
   4   8  13   11.70    1.87
  -4  -8 -13    7.27    1.52
   4   9  12    4.87    2.01
  -4  -9 -12    5.44    1.51
  -4  -9 -12    4.23    1.57
  -4  -9 -12    6.72    1.67
   4   9  12    5.35    1.80
   4   9  12    4.32    1.83
  -6   1 -11    1.31    2.03
   6  -1  11    1.49    1.82
   6  -1  11    0.88    1.21
  -6   1 -11    1.30    1.11
  -4  -6 -14  235.90   10.46
  -4  -6 -14  226.34   10.57
   4   6  14  247.94   10.75
  -4  -6 -14  234.37   10.64
   4   6  14  230.60   10.80
   4   6  14  229.37   10.83
   8   3   7   17.29    2.27
  -8  -3  -7   16.06    1.76
   8   3   7   15.38    1.80
   8   3   7   13.14    1.39
   5   1  13   19.75    2.27
  -5  -1 -13   14.77    1.02
  -5  -1 -13   18.65    1.64
   5   1  13   23.02    1.91
  -5   1 -12   25.05    1.77
   5  -1  12   23.13    1.62
   5  -1  12   20.99    2.37
   0  -6 -14   -0.53    2.05
   0   6  14   -0.56    1.81
   0  -6 -14    0.55    1.50
   0   6  14   -0.12    1.81
   0   6  14   -0.30    1.83
   0  -6 -14    0.72    1.96
   8   0   0    9.94    1.59
   8   0   0   10.78    1.80
  -8   0   0   12.69    2.56
  -8   0   0    9.94    1.43
   8   0   0   10.16    1.73
   8   0   0    9.48    1.44
   2  -1  13   80.28    4.95
  -2   1 -13   75.01    3.96
  -2   1 -13   80.31    4.02
   2  -1  13   84.66    4.26
  -2   1 -13   76.87    4.32
   0  -3 -14   97.50    5.10
   0  -3 -14   97.04    5.03
   0   3  14   99.60    5.11
   0   3  14  105.02    5.51
   0  -3 -14  100.63    5.08
   0  -3 -14  104.78    5.08
   6  -3  -7   96.17    5.18
  -6   3   7   89.89    4.82
   6  -3  -7   97.90    4.83
   6  -3  -7   93.75    4.92
   6  -3  -7   87.24    5.07
  -5  -7   2    5.61    2.31
   5   7  -2    7.88    1.78
   5   7  -2    8.45    1.64
   2  11  10    5.12    2.52
   2  11  10    3.81    2.00
  -2 -11 -10    4.64    1.67
  -2 -11 -10    3.33    1.48
   2  11  10    3.47    1.55
  -2 -11 -10    2.99    1.48
   2  11  10    5.39    1.55
   2  10  -1    9.96    1.51
   2  10  -1   10.56    1.38
  -2 -10   1    6.88    1.39
   2  10  -1    9.52    2.51
   2  10  -1   11.11    1.77
   7   0  -4    5.01    1.66
   7   0  -4    6.29    2.30
   7   0  -4    7.87    1.83
   7   0  -4    4.59    1.40
  -7   0   4    4.83    1.68
  -7   0   4    4.11    1.94
   7   4  -1    6.15    2.13
  -7  -4   1    5.25    1.72
   7   4  -1    5.38    1.52
  -7  -4   1    4.78    1.73
   7   4  -1    3.84    1.52
  -1  -9 -13   39.96    2.67
   1   9  13   36.01    3.06
   1   9  13   43.16    2.56
  -1  -9 -13   42.81    2.85
   1   9  13   47.83    2.99
   1   9  13   41.92    2.78
   1   6  -8    2.83    1.37
   1   6  -8    1.60    2.03
   1 -11  -9   29.05    3.29
  -1  11   9   21.63    2.48
  -1  11   9   23.75    3.00
  -1  11   9   20.66    1.92
   1 -11  -9   22.27    2.18
  -5   3   9   29.17    2.60
  -5   3   9   29.53    2.21
   5  -3  -9   28.72    2.29
   5  -3  -9   29.79    2.81
   5  -3  -9   29.83    2.81
   5  -3  -9   28.36    2.59
   8   0   7    1.48    2.01
   8   0   7    1.18    1.90
  -8   0  -7    0.05    2.81
  -8   0  -7    1.48    1.26
   8   0   7    1.98    1.30
   6  -2  -7   54.02    3.40
  -6   2   7   51.87    3.27
   6  -2  -7   58.26    3.26
   6  -2  -7   56.67    3.64
   6  -2  -7   48.14    3.54
  -3  10   8   22.79    2.45
   3 -10  -8   34.66    2.15
  -3  10   8   28.61    1.91
   3 -10  -8   25.07    2.49
   2  -9 -11   90.46    4.49
  -2   9  11   89.56    4.42
   2  -9 -11   84.11    5.18
  -2   9  11   79.61    4.74
   6   1  -6    1.70    2.09
   6   1  -6   -1.02    1.58
   6   1  -6    1.28    1.83
  -6  -1   6   -0.32    2.00
   7  -5  -3   19.61    2.11
   7  -5  -3   20.71    1.72
  -7   5   3   20.94    2.57
   7  -5  -3   14.32    1.12
   7  -5  -3   15.40    3.00
   7  -5  -3   19.35    2.66
   7  -5  -3   22.67    3.11
  -7   5   3   19.36    2.97
  -2 -10 -12   22.95    2.01
  -2 -10 -12   20.12    1.84
   2  10  12   20.35    1.87
   2  10  12   21.22    2.34
  -2 -10 -12   21.46    2.15
   2  10  12   18.54    2.52
   2  10  12   24.20    2.01
   4  -2  12   22.72    1.74
  -4   2 -12   14.68    2.40
  -4   2 -12   14.09    1.34
   4  -2  12   17.01    2.45
   1  10  12   27.83    2.28
   1  10  12   31.85    2.76
   1  10  12   32.64    2.61
  -1 -10 -12   31.74    2.04
  -1 -10 -12   26.94    2.24
  -1 -10 -12   31.78    2.45
   1  10  12   34.37    2.17
   1  10  12   29.68    2.88
  -2  11   1    8.95    1.12
  -2  11   1    4.93    2.07
   2 -11  -1    4.88    2.61
  -2  11   1    8.28    2.62
   2 -11  -1    5.82    1.58
  -2  11   1    4.28    0.66
  -2  11   1    6.41    1.85
  -5  -8 -12   44.43    2.75
  -5  -8 -12   48.93    2.70
   5   8  12   46.60    2.96
  -4   8  -5   20.91    1.73
  -4   8  -5   16.86    2.76
  -4   8  -5   28.32    2.79
  -4   8  -5   22.61    2.47
  -4   8  -5   26.15    2.18
   6   6  12   14.76    1.79
  -6  -6 -12   13.85    1.75
   6   6  12    7.95    1.33
   6   6  12   13.08    2.03
   6   6  12   12.23    1.70
   6   6  12   15.91    1.44
  -6  -6 -12   17.78    1.91
   3  11   9    7.86    1.67
  -3 -11  -9    4.79    1.70
   3  11   9    6.79    2.02
   3  11   9    3.45    1.52
   1  -9 -12    3.74    2.68
   1  -9 -12    4.43    1.58
  -1   9  12    1.75    2.14
   1  -9 -12    2.16    2.01
  -1   9  12    1.61    1.98
  -1   9  12    3.64    1.52
   5  -4  -9   64.45    4.09
   5  -4  -9   66.02    3.86
  -5   4   9   70.65    3.95
   5  -4  -9   70.35    4.26
   5  -4  -9   70.66    4.42
  -5   4   9   65.39    3.62
   5  -4  -9   64.95    3.70
  -4  10   1    1.39    1.11
  -4  10   1    0.66    1.57
  -4  10   1    2.29    2.52
  -4  10   1    3.67    2.66
  -4  10   1   -0.40    1.97
   4 -10  -1    0.20    2.67
   4 -10  -1    0.84    1.39
  -4  10   1   -0.52    2.51
  -2  -1 -14   11.12    2.06
  -2  -1 -14   14.88    1.76
  -2  -1 -14   10.45    1.23
   2   1  14   16.51    2.64
  -2  -1 -14   14.28    1.81
   2   1  14   14.78    1.74
   5   9   2   22.48    2.03
   5   9   2   23.65    2.11
   5   9   2   23.58    2.16
   5   9   2   20.94    2.34
   0  11  10   45.03    2.66
   0  11  10   39.08    3.26
   0 -11 -10   47.57    3.73
   0 -11 -10   46.97    2.76
   0 -11 -10   44.61    2.62
   0  11  10   38.87    3.41
   0   8  -6   16.28    1.47
   0   8  -6   15.69    1.76
   5  -9   0    1.22    2.80
  -5   9   0    1.56    1.52
   5  -9   0    2.70    1.36
  -5   9   0    2.70    2.43
  -5   9   0    4.68    2.82
  -5   9   0    1.29    2.24
   8  -2   5    1.24    0.40
  -8   2  -5    1.70    1.07
  -8   2  -5    3.72    1.63
   8  -2   5    2.71    1.69
   8  -2   5    3.60    2.21
   8  -2   5    2.30    1.18
  -8   2  -5    3.80    1.13
  -8   2  -5    0.86    2.67
   8  -2   5    1.73    0.48
   0  -2  12   47.58    2.82
   0   2 -12   40.60    2.68
   0  -2  12   45.61    3.67
   0   2 -12   50.85    2.69
   8   2   1    7.98    1.53
  -8  -2  -1    7.44    2.43
   8   2   1    5.90    1.53
   8   2   1    8.09    1.93
   3   9  -2   30.13    2.40
   3   9  -2   33.29    3.00
   3   9  -2   34.00    2.20
   5  -9  -4    6.41    1.04
  -5   9   4    9.37    2.25
  -5   9   4    7.40    1.01
   5  -9  -4    6.31    1.77
  -5   9   4    7.21    1.80
   7   2  -3   30.40    2.33
  -7  -2   3   31.51    2.44
  -7  -2   3   28.53    2.42
   7   2  -3   28.65    2.34
   7   2  -3   28.54    2.11
   4   3  -8   -0.08    1.64
   4   3  -8    0.17    2.20
   4   3  -8   -0.16    1.70
  -4  -3   8   -0.11    2.30
   7  -6   0    0.96    0.97
   7  -6   0    3.15    1.48
   7  -6   0    4.61    2.63
  -7   6   0   -0.11    2.66
   7  -6   0    2.06    2.15
   1   4 -10    4.33    0.81
   1   4 -10    4.83    1.56
   1   4 -10    4.97    1.90
   1   4 -10    2.79    1.09
   7  -4  -4   77.82    5.15
   7  -4  -4   92.68    4.65
  -7   4   4   88.35    4.75
   7  -4  -4   98.46    4.51
   7  -4  -4   85.74    4.10
   7  -4  -4   91.88    5.30
  -7   4   4   83.63    4.94
  -3   1 -13   21.92    1.78
  -3   1 -13   21.36    1.77
  -3   1 -13   18.33    2.44
   3  -1  13   19.16    2.57
   3  -1  13   19.82    1.82
   4   2  14   11.38    2.26
  -4  -2 -14    7.23    2.03
   4   2  14   12.25    1.70
  -4  -2 -14    8.36    1.35
  -4  -2 -14   11.76    1.62
   1  -1 -13   65.60    3.45
   1  -1 -13   57.20    3.54
   1  -1 -13   53.47    3.44
  -1   1  13   60.19    4.13
  -1   1  13   65.16    3.63
   8  -2   0   13.73    1.82
   8  -2   0   17.29    1.69
  -8   2   0   16.95    2.82
   8  -2   0   15.91    2.41
   8  -2   0   18.09    1.95
  -8   2   0   15.23    2.25
   1  10  -2   92.46    4.52
   1  10  -2   95.84    5.42
   1  10  -2  104.81    4.63
   1  10  -2   86.78    4.76
   7   3  11   12.16    1.00
   7   3  11    9.53    0.83
   7   3  11   21.10    1.73
  -7  -3 -11   21.95    2.33
   7   3  11   22.02    2.26
  -7  -3 -11   21.14    1.86
   4  -8  -9   19.42    2.42
   4  -8  -9   19.74    1.84
  -4   8   9   18.94    2.16
   4  -8  -9   17.36    2.96
  -4   8   9   19.77    1.86
   4  -8  -9   17.12    3.13
  -4   8   9   19.62    2.45
  -3   9  -4    1.31    1.36
  -3   9  -4    1.21    2.46
  -3   9  -4    0.44    1.31
  -3   9  -4    4.08    2.31
  -3   9  -4    0.15    2.18
   6  -4  -7   54.98    3.31
   6  -4  -7   50.71    3.67
   6  -4  -7   49.81    3.09
  -6   4   7   48.78    3.34
   6  -4  -7   50.54    3.69
   4 -10  -5   48.91    4.28
  -4  10   5   55.82    3.38
   4 -10  -5   61.11    2.93
   4 -10  -5   55.09    3.36
  -4  10   5   57.59    2.86
  -4  10   5   49.18    3.60
   7  -6   1    1.78    0.82
   7  -6   1    1.21    0.79
   7  -6   1    0.87    1.30
  -7   6  -1   -0.16    2.03
   7  -6   1    1.26    2.39
   7  -6   1    1.11    2.04
  -7  -6  -2   13.13    2.14
   7   6   2   10.86    1.64
   7   6   2   11.71    1.72
   7   6   2   10.02    2.15
  -1  10  11   80.64    3.93
  -1  10  11   61.43    4.32
   1 -10 -11   83.55    3.96
   1 -10 -11   69.56    3.65
   8   4   5    1.96    2.12
  -8  -4  -5    0.99    2.43
   8   4   5    1.11    1.32
   8   4   5    1.44    1.52
   8   4   5    2.52    1.94
   6  -6  -6   33.79    2.03
   6  -6  -6   31.09    2.39
   6  -6  -6   25.61    3.07
  -2   5 -10   11.72    2.32
  -2   5 -10   14.82    1.42
   2  -5  10   13.47    2.74
  -2   5 -10   11.06    2.30
   2  -5  10   14.53    1.39
   7   7   6   52.34    3.47
   7   7   6   62.90    3.40
   7   7   6   58.36    3.55
   3   1  14  101.24    3.31
  -3  -1 -14   94.03    4.62
   3   1  14  103.60    4.09
  -3  -1 -14  101.67    4.77
  -3  -1 -14   87.28    4.95
   8   4   6   13.96    2.23
   8   4   6   16.95    1.87
   8   4   6   15.37    2.26
   8   4   6   15.21    1.55
   6   8  10   73.88    4.10
   6   8  10   83.15    4.23
   6   8  10   77.25    3.89
   6   8  10   73.10    4.04
  -5   2   9    2.94    1.84
   5  -2  -9    2.32    2.15
  -5   2   9    0.80    1.49
   5  -2  -9    0.25    1.57
   5  -2  -9    1.16    1.99
   5  -2  -9    1.36    2.20
   0  11   0   48.77    3.73
   0  11   0   48.87    2.71
   0 -11   0   42.50    3.16
   0  11   0   43.09    2.97
   0  11   0   44.37    2.46
  -8   3  -2    6.69    2.75
   8  -3   2    5.16    1.24
   8  -3   2    6.09    2.13
   8  -3   2    5.34    1.55
   8  -3   2    6.45    1.43
   8  -3   2    5.31    2.57
  -8   3  -2   10.13    1.99
  -1  11   0   10.55    1.04
   1 -11   0   10.90    2.44
  -1  11   0   13.99    1.92
  -1  11   0   10.26    1.06
  -1  11   0   12.04    1.44
  -1  11   0    9.68    2.08
  -1  -9   4   36.68    3.35
   1   9  -4   31.11    2.57
   1   9  -4   44.23    2.38
   1   9  -4   39.59    3.37
   8   3   2    1.66    1.42
  -8  -3  -2    2.70    0.71
  -8  -3  -2    2.30    2.27
   8   3   2    3.33    1.91
   3   0 -11   -0.81    1.71
  -3   0  11    0.86    2.24
  -3   0  11    0.56    1.47
   3   0 -11   -0.01    1.64
   3   0 -11    1.34    1.88
   3   0 -11   -0.72    1.99
   7   7   7   50.02    3.10
   7   7   7   47.33    3.03
   7   7   7   51.53    2.94
   7  -6  -1    3.47    2.82
   7  -6  -1    3.17    1.10
   7  -6  -1    1.42    2.59
  -7   6   1    4.12    2.73
   7  -6  -1    3.59    1.64
   7  -6  -1    0.96    2.26
  -8  -1   0    8.17    2.39
  -8  -1   0    8.23    1.44
   8   1   0    8.28    1.57
   8   1   0    8.96    1.54
   8   1   0   10.61    1.89
   8   1   0    9.21    1.67
  -4   9  -3   -0.57    2.33
  -4   9  -3    2.84    2.45
  -4   9  -3    4.04    2.47
  -4   9  -3    3.32    1.50
  -4   9  -3    4.39    1.62
   7   2  11   49.98    3.30
   7   2  11   51.81    2.95
  -7  -2 -11   43.33    2.94
   4  10   2   42.71    2.69
   4  10   2   39.55    2.59
  -4 -10  -2   33.40    2.46
   4  10   2   43.06    3.12
   4  10   2   36.92    2.73
   1  -1  13   12.26    2.70
   1  -1  13   11.41    1.67
  -1   1 -13   12.58    1.77
  -1   1 -13   14.49    2.25
  -1   1 -13   13.96    1.86
  -8  -2  -8   32.51    2.24
   8   2   8   22.85    1.40
   8   2   8   26.55    2.00
   3   9  13   16.29    2.33
   3   9  13   22.87    2.06
   3   9  13   20.25    2.23
  -3  -9 -13   21.64    2.02
  -3  -9 -13   18.00    1.78
   3   9  13   17.26    1.94
  -3  -9 -13   21.89    2.05
  -7  -4 -11   49.58    2.87
   7   4  11   54.25    3.32
   7   4  11   52.22    3.04
   7   4  11   48.14    2.69
   5   7  13   38.99    2.68
  -5  -7 -13   39.25    2.54
  -5  -7 -13   39.70    2.40
   5   7  13   36.19    2.53
  -5  -7 -13   45.10    2.74
   5   7  13   39.90    2.59
   5   7  13   30.19    2.27
   8  -3   3    0.93    1.17
   8  -3   3   -0.22    2.08
   8  -3   3    0.22    1.25
  -8   3  -3    1.90    1.52
  -8   3  -3   -1.80    2.83
   8  -3   3   -0.75    1.52
   8  -3   3    2.68    2.41
   8  -3   3    0.64    1.09
  -8   3  -3    0.86    1.81
   3  10   0   46.06    2.82
   3  10   0   47.55    2.85
   3  10   0   43.60    2.96
  -3 -10   0   35.46    2.05
   3  10   0   49.46    3.53
   2 -10 -10   24.80    1.73
   2 -10 -10   26.70    2.48
  -2  10  10   26.44    2.75
   2 -10 -10   31.76    2.17
  -2  10  10   25.66    2.59
  -2  10  10   25.92    2.06
   8   4   4    3.94    1.94
  -8  -4  -4    1.77    2.38
   8   4   4    1.74    1.38
   8   4   4    2.44    2.09
   8   4   4    3.86    1.63
   7   5   0   10.00    1.65
  -7  -5   0    8.69    1.87
   7   5   0    5.41    2.04
  -7  -5   0    5.75    1.79
   7   5   0   10.54    1.68
   2  -4  11   38.54    3.58
  -2   4 -11   25.16    2.80
   2  -4  11   48.58    2.60
  -2   4 -11   22.64    2.06
   8  -3   1    6.57    1.50
  -8   3  -1    5.17    1.99
   8  -3   1    4.13    1.63
  -8   3  -1    5.74    2.76
   8  -3   1    7.54    2.27
   8  -3   1    7.33    2.64
   8  -3   1    5.90    1.33
   7   7   5   13.35    1.77
   7   7   5   15.16    1.76
   7   7   5   13.49    1.97
   7   7   5   19.16    2.11
   6  -1  -7   18.29    2.40
   6  -1  -7   16.69    2.59
   6  -1  -7   16.50    1.99
   6  -1  -7   17.45    2.25
  -6   1   7   15.06    2.04
  -2   6  -9   22.51    2.47
  -2   6  -9   23.08    1.77
   2  -6   9   25.29    3.13
  -2   6  -9   24.49    2.93
  -2   6  -9   27.62    1.70
  -3   8  -6   -2.86    2.39
  -3   8  -6   -2.08    2.36
  -3   8  -6    0.40    1.19
   1   7  -7    7.41    1.41
  -1  -7   7    5.07    2.64
   1   7  -7    5.39    2.31
   6  -7  -5   42.96    2.45
  -6   7   5   36.50    3.49
   6  -7  -5   37.25    3.39
   6  -7  -5   35.15    3.66
   6  -7  -5   30.47    3.58
   6  -7  -5   44.86    2.93
  -6   7   5   42.72    2.75
   2   8  14    8.80    1.97
   2   8  14    5.52    1.64
  -2  -8 -14    4.35    1.60
  -2  -8 -14    6.93    1.86
   2  -8 -12   11.85    1.73
   2  -8 -12    6.66    2.70
   2  -8 -12    8.94    2.67
  -2   8  12    8.07    2.18
  -2   8  12    9.96    1.68
  -1   5 -10   13.59    1.49
  -1   5 -10   12.67    2.32
  -1   5 -10    9.03    1.99
   1  -5  10   14.53    2.80
  -5   5   9   69.53    3.74
   5  -5  -9   64.64    4.28
   5  -5  -9   63.87    3.25
  -5   5   9   74.06    4.17
   5  -5  -9   74.75    4.63
   5  -5  -9   76.41    4.46
   5  -5  -9   82.68    3.93
   5  -5  -9   73.63    4.02
   4   7  -4    2.67    1.56
  -4  -7   4    4.15    2.41
   4   7  -4    4.54    1.94
   6  -8  -1    0.13    2.20
   6  -8  -1    0.56    2.83
   6  -8  -1    0.55    0.48
  -6   8   1   -1.90    1.51
   6  -8  -1    0.12    1.41
  -3   4  12  157.62    7.71
   3  -4 -12  148.04    7.26
   3  -4 -12  158.75    7.41
   3  -4 -12  164.08    7.60
   3  -4 -12  148.32    7.06
   3  -4 -12  147.12    7.42
  -3   4  12  167.64    7.74
   8   1   8   53.16    3.31
  -8  -1  -8   49.12    2.76
   8   1   8   50.68    2.97
   8   1   8   53.27    3.26
  -7   6  -2    5.14    2.16
  -7   6  -2    2.82    1.12
   7  -6   2    3.11    0.59
   7  -6   2    3.90    0.59
   7  -6   2    3.87    1.18
   7  -6   2    4.93    2.11
  -5  -1   8   66.70    4.14
   5   1  -8   63.17    3.47
   5   1  -8   69.00    3.88
  -3  11   4   22.02    2.33
   3 -11  -4   26.08    2.24
   3 -11  -4   32.61    3.50
  -3  11   4   23.04    1.49
  -3  11   4   24.04    2.65
  -3  11   4   23.08    3.06
   2  -4 -13   82.58    4.32
   2  -4 -13   74.46    3.92
  -2   4  13   84.62    4.48
   2  -4 -13   79.80    4.52
   2  -4 -13   66.59    4.32
   5   9  11    6.59    1.89
  -5  -9 -11    9.64    1.65
  -5  -9 -11    8.59    1.64
   5   9  11    9.31    1.94
   4  -9  -8   10.44    3.01
  -4   9   8   10.91    2.03
  -4   9   8   14.05    1.55
   4  -9  -8   12.41    2.14
   4  -9  -8   11.10    3.09
   4  -9  -8   17.53    1.60
   5  -7  -8    3.94    2.89
   5  -7  -8    2.08    1.43
  -5   7   8    2.03    1.37
   5  -7  -8    0.43    2.72
   5  -7  -8    2.36    2.01
  -5   7   8    4.69    1.79
   5  -7  -8    3.72    2.54
  -2  11   8   -1.05    1.23
  -2  11   8    0.61    2.22
  -2  11   8    0.18    1.93
  -2  11   8    0.24    0.32
  -2  11   8    1.00    2.55
   2 -11  -8   -3.11    2.85
   2 -11  -8   -0.63    1.77
   2 -11  -8   -0.99    1.22
  -2   0  12   45.98    2.88
   2   0 -12   45.93    2.98
   2   0 -12   48.61    2.89
   2   0 -12   41.89    2.54
   8   3   8   41.45    2.35
   8   3   8   49.69    2.81
  -8  -3  -8   48.66    2.86
   3   2 -10   19.43    2.48
  -3  -2  10   17.08    2.66
   3   2 -10   13.26    1.36
   3   2 -10   19.81    1.91
   3   2 -10   20.43    2.03
   3   2 -10   20.64    2.21
   1   1  14   -0.54    2.39
  -1  -1 -14   -0.93    1.87
   1   1  14   -0.26    1.55
  -1  -1 -14   -0.65    1.57
  -1  -1 -14    0.75    1.76
   8   4   7   25.25    2.43
   8   4   7   21.30    2.02
  -8  -4  -7   21.21    1.91
   8   4   7   17.63    1.64
   5  10   7  104.72    5.44
   5  10   7   99.53    5.52
   5  10   7  108.40    5.42
   5  10   7  120.15    5.37
   3  11   3   34.80    3.03
  -3 -11  -3   36.61    2.88
   3  11   3   33.49    2.29
   3  11   3   30.06    2.29
  -2   5  13  110.78    5.64
  -2   5  13  115.59    5.65
   2  -5 -13   93.10    5.56
   2  -5 -13  117.35    5.72
   2  -5 -13  116.32    5.36
   2  -5 -13  106.56    5.50
   2  -5 -13  100.38    5.08
   6   7   0   49.30    3.28
  -6  -7   0   50.52    3.09
  -6  -7   0   40.70    2.22
   6   7   0   53.11    3.07
   6   7   0   51.64    3.14
   6  -8  -2    0.81    2.26
   6  -8  -2    0.43    1.55
  -6   8   2    1.64    1.57
   6  -8  -2    0.79    0.82
  -6  -4   4   18.43    2.34
   3 -11  -3    4.90    2.96
  -3  11   3    5.37    2.68
  -3  11   3    8.80    1.90
  -3  11   3    6.53    2.25
   3 -11  -3    8.41    1.74
   0 -12  -6    0.39    1.65
   0 -12  -6    1.69    2.83
   0  12   6    0.27    1.20
   0  12   6   -0.95    2.59
   0  12   6   -1.22    2.04
   7  -5   5    7.06    0.55
   7  -5   5    8.92    0.55
  -7   5  -5   10.56    1.59
  -7   5  -5   10.74    3.24
  -7   5  -5   15.09    1.14
  -7   5  -5   13.87    2.06
   0 -12  -5    9.30    1.76
   0  12   5   10.72    1.34
   0  12   5    8.70    2.63
   0  12   5    8.24    2.63
   0  12   5   10.37    2.07
   0 -12  -5    3.74    2.77
   1  -6   9   20.50    3.00
  -1   6  -9   24.43    1.75
  -1   6  -9   21.38    2.67
   0   7  14   29.15    2.26
   0   7  14   22.14    2.47
   0   7  14   29.73    2.46
   0  -7 -14   24.48    1.98
   0  -7 -14   29.00    2.67
   0  -7 -14   28.44    2.23
   0  -2 -14   54.54    3.35
   0   2  14   59.64    4.04
   0  -2 -14   55.49    3.31
   0   2  14   58.44    3.43
   0  -2 -14   53.57    3.33
   0  -2 -14   61.48    3.50
   3  -5 -12   65.35    3.41
   3  -5 -12   72.90    4.43
   3  -5 -12   73.52    4.26
  -3   5  12   64.82    3.88
  -3   5  12   78.30    4.09
   3  -5 -12   64.00    3.75
   7   7   8   51.47    2.87
  -7  -7  -8   53.93    3.10
   7   7   8   43.28    2.89
   7   7   8   47.13    2.99
  -1 -12  -6   25.37    3.14
   1  12   6   17.73    2.73
   1  12   6   17.80    1.64
  -1 -12  -6   21.88    2.13
   7   6  10    5.06    1.61
   7   6  10    6.26    1.60
  -7  -6 -10    5.69    1.59
   7   6  10    6.23    1.51
  -7   2  -9   24.81    3.42
  -7   2  -9   25.49    2.25
  -7   2  -9   20.81    1.45
   7  -2   9   26.92    2.26
   7  -2   9   32.48    1.95
   6  -8   0    2.94    1.39
  -6   8   0    2.07    2.30
  -6   8   0    2.06    1.44
  -6   8   0   -1.38    2.92
   6  -8   0    4.39    2.17
  -6   8   0    1.42    0.95
   6  -8   0    1.58    2.87
  -7   3  -8   28.67    2.35
   7  -3   8   31.29    1.84
  -7   3  -8   27.62    1.93
  -7   3  -8   27.32    3.44
  -7   3  -8   26.62    2.21
   7  -3   8   29.41    2.33
   5  10   6   93.29    5.05
   5  10   6  102.00    5.14
   5  10   6  106.21    4.93
   5  10   6   96.20    5.13
  -4   7  10   52.72    3.29
  -4   7  10   54.47    3.14
   4  -7 -10   46.48    3.77
   4  -7 -10   54.67    3.06
   4  -7 -10   50.25    3.36
   4  -7 -10   46.71    3.98
  -4   7  -7   31.41    1.92
  -4   7  -7   34.90    2.69
  -4   7  -7   23.80    2.55
  -4   7  -7   34.64    3.19
  -4  10   0   -0.78    2.65
   4 -10   0   -1.48    2.77
  -4  10   0    1.08    1.27
  -4  10   0    0.40    0.55
  -4  10   0    1.50    2.69
   4 -10   0    0.35    1.35
  -4  10   0   -0.30    1.56
  -4  10   0   -0.40    1.89
  -4  10   0    1.43    2.47
   5  -8  -7   30.51    3.48
   5  -8  -7   30.80    2.73
  -5   8   7   29.57    2.42
   5  -8  -7   34.74    2.19
  -5   8   7   30.05    2.00
  -3   5 -10    1.22    0.98
  -3   5 -10   -1.26    2.18
   3  -5  10    0.36    1.02
  -3   5 -10    0.60    0.96
   3  -5  10   -1.13    2.44
  -3   5 -10    0.21    2.15
  -3   5 -10   -1.64    2.31
  -3 -10 -12   31.78    2.19
   3  10  12   34.02    2.65
  -3 -10 -12   27.28    2.31
   3  10  12   35.04    2.88
  -3 -10 -12   32.39    2.33
   3  10  12   29.88    2.40
   2   8  -5   -0.88    1.39
   2   8  -5   -1.48    1.59
  -2  -8   5    0.42    2.56
   2   8  -5   -3.46    2.40
   3  -9 -10   32.07    2.18
   3  -9 -10   31.42    2.60
  -3   9  10   26.06    2.68
   3  -9 -10   23.99    1.63
  -3   9  10   30.34    2.21
   3  -9 -10   31.14    3.25
  -3   9  10   29.46    2.53
   0  10  12    1.09    2.32
   0 -10 -12    1.80    1.96
   0 -10 -12    2.68    1.51
   0  10  12    0.97    1.22
   0  10  12    1.30    1.96
   0  10  12    1.43    1.61
   0  10  12    2.15    2.25
   0 -10 -12    1.41    1.26
  -3  11   5   39.38    1.63
   3 -11  -5   40.38    2.84
  -3  11   5   35.71    2.75
   3 -11  -5   47.29    2.41
   3 -11  -5   38.68    3.90
  -3  11   5   36.98    2.46
  -3   3  12  161.83    7.67
   3  -3 -12  159.66    7.42
   3  -3 -12  159.05    7.33
   3  -3 -12  141.27    7.38
   3  -3 -12  147.53    7.14
   3  -3 -12  158.46    7.36
  -4  -7 -14  121.63    5.82
   4   7  14  126.63    6.13
   4   7  14  124.07    6.18
  -4  -7 -14  133.04    6.04
  -4  -7 -14  115.85    5.91
   4   7  14  130.30    6.21
   4  10  11   66.51    3.63
  -4 -10 -11   65.62    3.62
  -4 -10 -11   75.09    3.78
  -4 -10 -11   63.67    3.64
   4  10  11   60.38    3.81
   4  10  11   68.41    3.69
   8  -1  -1   18.41    1.63
  -8   1   1   19.04    2.19
  -8   1   1   18.35    2.72
   8  -1  -1   18.20    2.01
   8  -1  -1   17.96    1.96
   8  -1  -1   20.21    1.94
   1  -4  11   12.58    1.51
  -1   4 -11    5.26    2.07
  -1   4 -11    9.18    1.63
  -1   4 -11    7.58    1.62
   1  -4  11   11.59    2.56
  -1   8  13   11.95    1.81
  -1   8  13   16.67    2.11
   1  -8 -13   15.71    2.29
   1  -8 -13    9.19    1.72
  -1   8  13   13.43    2.30
   1  -8 -13   13.00    1.41
  -5   9  -1   11.84    2.61
  -5   9  -1   11.52    3.01
  -5   9  -1    8.05    2.51
  -5   9  -1    8.97    1.58
   5  -9   1   12.53    2.99
   5  -9   1    9.99    1.49
  -6  -5   3   42.12    3.08
   6   5  -3   44.69    2.85
   1   8  14   47.63    2.91
   1   8  14   43.44    2.95
  -1  -8 -14   47.39    2.80
   1   8  14   37.02    3.16
  -1  -8 -14   42.52    2.86
  -1  -8 -14   36.04    2.49
  -8   3  -4   10.64    2.97
   8  -3   4   14.22    1.33
   8  -3   4   15.26    1.87
  -8   3  -4   17.13    2.03
  -8   3  -4   15.08    1.72
   8  -3   4   14.85    2.27
   8  -3   4   13.98    1.11
   8  -3   4   17.16    2.58
   8  -3   4   14.93    1.46
   8  -1   7    5.48    1.92
   8  -1   7    3.58    1.31
  -8   1  -7    4.90    2.85
  -8   1  -7    2.74    1.22
   8  -1   7    2.36    2.03
   1  12   5   10.35    1.48
   1  12   5   11.73    2.69
   1  12   5   16.25    2.22
  -1 -12  -5   13.01    1.84
   1  12   5   14.75    1.51
  -1 -12  -5   16.99    2.85
  -5   8  -4   31.70    2.17
  -5   8  -4   32.05    3.43
  -5   8  -4   36.80    2.45
  -5   8  -4   38.79    3.09
  -5   8  -4   30.12    2.92
   5  -9  -5   26.05    1.74
  -5   9   5   27.09    2.25
  -5   9   5   25.55    2.64
   5  -9  -5   27.59    2.38
  -5   9   5   20.86    1.58
   6  -6   6   11.28    1.83
  -6   6  -6    7.18    2.94
  -6   6  -6    3.48    0.37
  -3  -8   4    0.34    2.49
   3   8  -4    0.99    1.60
   3   8  -4    2.38    1.50
   3   8  -4    0.99    2.18
   7  -6  -2   11.32    2.51
   7  -6  -2   16.87    1.48
   7  -6  -2   17.99    2.06
  -7   6   2   11.43    2.82
   7  -6  -2   13.77    3.07
   7  -6  -2   14.02    2.91
   5  10   8   68.90    4.20
   5  10   8   72.48    4.04
   5  10   8   70.68    4.08
   5  10   8   86.84    4.06
   4   0 -10   22.25    2.15
  -4   0  10   21.85    2.63
   4   0 -10   25.00    2.56
   4   0 -10   27.41    2.38
   1  12   7   16.04    1.76
   1  12   7   19.52    1.70
  -1 -12  -7   19.18    3.22
  -6   7  -4   36.24    2.09
   6  -7   4   35.40    2.65
  -6   7  -4   36.05    3.81
  -6   7  -4   42.75    3.18
   0   9  13   23.49    2.35
   0   9  13   19.42    2.72
   0   9  13   22.80    2.13
   0  -9 -13   23.24    2.44
   0  -9 -13   25.46    2.22
  -3   4 -11    1.22    1.25
   3  -4  11    0.61    2.41
  -3   4 -11    5.58    2.51
   3  -4  11    0.40    1.16
  -3   4 -11    2.69    1.11
  -3   4 -11   -0.99    2.03
  -3   4 -11    0.46    2.26
   1   3 -11   -0.89    1.91
  -1  -3  11    0.12    1.39
   1   3 -11    1.69    1.85
   1   3 -11    0.82    1.59
  -7  -1   4    8.23    1.93
  -7  -1   4    4.10    1.90
   7   1  -4    4.32    1.86
   7   1  -4    5.57    1.77
  -5   7  -6   25.78    2.24
  -5   7  -6   30.58    2.77
  -5   7  -6   26.36    3.03
  -5   7  -6   22.68    2.44
  -5   7  -6   23.90    1.61
  -3  10  -2    0.04    2.35
  -3  10  -2    1.81    2.65
  -3  10  -2    2.93    1.53
   3 -10   2   -0.25    2.52
  -3  10  -2    0.13    1.68
  -3  10  -2    2.68    2.47
   8  -3   0    1.80    1.62
   8  -3   0    1.70    2.62
  -8   3   0    2.29    1.97
  -8   3   0    0.40    2.63
   8  -3   0    0.95    1.29
   8  -3   0    0.85    2.22
   6   8   2   34.73    2.52
   6   8   2   33.82    2.55
   6   8   2   32.22    2.39
   6   8   2   35.07    2.37
   6  -5  -7    6.52    2.68
   6  -5  -7    4.58    2.03
   6  -5  -7    3.85    0.59
   6  -5  -7    3.02    1.60
   6  -5  -7    6.55    2.63
  -1  10  -3    2.02    1.55
  -1  10  -3    2.83    1.62
  -1  10  -3    4.68    0.93
  -1  10  -3    2.07    0.86
  -6  -3   5   12.34    2.30
   3  11  10   52.14    3.33
  -3 -11 -10   40.46    2.83
   3  11  10   41.71    2.93
   3  11  10   54.37    2.95
  -3 -11 -10   45.44    2.87
  -3 -11 -10   46.13    2.76
   2   2 -11   41.93    3.33
   2   2 -11   66.42    3.17
   2   2 -11   36.19    2.66
  -2  -2  11   60.70    4.21
   2   2 -11   57.38    2.88
  -2  -2  11   61.03    3.39
   2   2 -11   61.58    3.25
   2  -3 -13   29.73    2.84
   2  -3 -13   36.63    2.50
  -2   3  13   36.93    2.60
   2  -3 -13   35.93    2.88
   0 -12  -7    2.60    1.69
   0  12   7   -0.24    2.07
   0  12   7    2.34    2.57
   0  12   7    1.76    1.26
   0 -12  -7   -1.10    2.90
   0  12   7    0.32    2.17
   0  12   7    2.82    1.25
   6   0  12    2.42    1.82
   6   0  12    2.85    1.33
  -6   0 -12    3.80    1.24
  -6   0 -12    1.06    2.07
   4 -10  -6   54.40    4.38
  -4  10   6   54.75    2.89
   4 -10  -6   60.37    3.50
  -4  10   6   53.84    3.60
  -4  10   6   53.40    3.35
   4 -10  -6   58.81    3.04
   5   5  -5    1.47    1.68
  -5  -5   5   -0.79    2.16
   5   5  -5   -0.69    2.19
  -3  -8 -14    7.78    1.72
  -3  -8 -14    9.71    1.82
   3   8  14    7.00    1.92
   3   8  14    8.86    1.80
   8   4   3   11.24    2.32
   8   4   3    8.40    1.60
   8   4   3   11.77    2.07
  -8  -4  -3   10.30    2.42
   0  12   4   39.96    2.27
   0 -12  -4   36.61    3.46
   0  12   4   34.04    2.81
   0 -12  -4   39.98    2.65
   0  12   4   39.02    3.54
   0  12   4   39.23    2.26
  -8   2  -6   14.08    1.79
  -8   2  -6   10.01    2.88
  -8   2  -6   12.35    1.34
   8  -2   6   12.83    1.44
  -8   2  -6   10.47    1.27
   8  -2   6   14.56    2.03
   8  -2   6   17.68    2.41
   7   1  11    5.85    1.41
   7   1  11    6.18    2.03
  -7  -1 -11    4.95    2.02
   7   7   4   12.36    1.99
   7   7   4   19.68    2.12
   7   7   4   14.10    1.72
   7   7   4   13.40    1.83
  -5  -4   6    2.25    2.15
   5   4  -6    3.43    1.73
   5   4  -6    5.52    2.40
   2  11   1   10.94    1.85
   2  11   1    6.77    1.62
  -2 -11  -1   10.36    2.04
   2  11   1    7.18    2.42
   2  11   1    9.37    1.48
  -8   0   1    3.46    2.35
   8   0  -1    2.40    1.34
   8   0  -1    2.43    1.54
   8   0  -1    0.89    1.66
   8   0  -1    2.49    1.75
  -8   0   1    2.02    1.46
  -6  -4 -13    7.66    1.03
  -6  -4 -13    9.67    1.68
   6   4  13   11.12    1.70
   6   4  13    8.48    1.70
   6   4  13    8.66    1.38
  -6  -4 -13    6.35    1.99
  -5  -4 -14    6.13    1.17
  -5  -4 -14    7.79    1.90
   5   4  14    7.65    2.00
  -5  -4 -14    3.14    1.60
   5   4  14    4.49    1.62
   5   4  14    5.19    1.98
   5   4  14    9.07    1.45
   7   5  11   33.63    2.48
  -7  -5 -11   32.82    2.29
   7   5  11   30.33    2.12
   8  -2  -1   46.97    2.74
   8  -2  -1   40.12    3.35
   8  -2  -1   47.66    2.84
  -8   2   1   48.02    3.16
  -8   2   1   42.34    3.56
   8  -2  -1   39.88    2.68
  -3  11   2   -0.09    0.40
   3 -11  -2    1.50    1.54
   3 -11  -2   -2.05    2.79
  -3  11   2   -0.43    2.57
  -3  11   2   -0.50    2.67
  -3  11   2   -0.66    1.78
  -3  11   2   -0.76    2.09
   5  -1  -9    8.88    2.10
   5  -1  -9    9.53    2.33
   5  -1  -9    9.31    2.13
   5  -1  -9    8.36    1.81
  -5   1   9    8.80    2.06
   3  -8 -11   48.42    3.87
   3  -8 -11   54.85    3.10
  -3   8  11   50.51    3.01
   3  -8 -11   50.95    4.00
   3  -8 -11   50.07    3.44
  -3   8  11   48.83    3.37
  -1 -11   0    6.51    2.04
   1  11   0   11.59    1.40
   1  11   0    9.97    1.87
   1  11   0   11.19    2.64
   1  11   0   10.60    1.61
  -1 -11 -11   40.71    2.55
  -1 -11 -11   45.14    2.73
   1  11  11   38.05    3.40
   1  11  11   43.27    2.69
  -1 -11 -11   44.04    2.88
   1  11  11   41.66    3.06
   5  -4  10   13.84    2.50
  -5   4 -10   17.11    2.11
  -5   4 -10   20.65    1.30
  -5   4 -10   15.69    2.30
   5  -4  10   17.13    1.34
  -6   8   3   -0.73    1.62
  -6   8   3   -2.63    2.79
   6  -8  -3   -1.15    2.61
   6  -8  -3    1.75    2.29
   6  -8  -3    0.10    1.00
   6  -8  -3   -1.39    1.68
  -1   9  -5    1.11    0.99
  -1   9  -5   -0.53    1.39
  -1   9  -5   -0.14    1.42
  -1   9  -5   -2.14    1.84
  -2  11   0   -2.16    1.97
  -2  11   0   -0.66    1.08
  -2  11   0    0.18    0.44
  -2  11   0   -0.26    2.47
  -2  11   0   -0.24    0.40
   2 -11   0   -0.13    2.47
  -2  11   0   -0.48    1.67
   5  10   5   89.55    4.71
   5  10   5   87.29    4.79
   5  10   5   86.87    4.66
   5  10   5   96.45    4.57
   2  -3  12    6.48    1.42
  -2   3 -12    4.16    1.41
   2  -3  12    8.53    2.46
  -2   3 -12    6.68    1.51
  -2   3 -12    6.62    1.41
   6   3  13   67.30    3.34
   6   3  13   66.03    3.33
   6   3  13   52.33    2.81
  -6  -3 -13   70.53    3.76
   7  -2  -5   33.04    2.12
  -7   2   5   32.03    2.70
  -7   2   5   32.19    2.83
   7  -2  -5   34.33    2.67
   7  -2  -5   33.80    2.43
   7  -2  -5   35.61    3.11
   7  -2  -5   30.37    3.07
  -3   6  -9    6.99    0.96
  -3   6  -9    3.65    2.33
  -3   6  -9    9.49    2.49
   3  -6   9    6.98    2.50
  -3   6  -9    7.92    2.21
  -3   6  -9    4.39    1.13
   4   2  -9    0.29    1.83
   4   2  -9   -0.02    1.98
   4   2  -9    0.31    0.88
   4   2  -9    1.74    2.38
   4   2  -9    0.70    1.68
  -4  -2   9    1.59    2.31
   2   5  15   25.25    2.50
   2   5  15   34.41    2.45
  -2  -5 -15   36.26    2.72
  -2  -5 -15   33.22    2.63
   2   5  15   32.70    2.05
   2   5  15   32.89    2.46
  -2  -5 -15   39.67    2.69
  -2   6  13   95.97    5.13
   2  -6 -13  100.39    5.34
   2  -6 -13   96.92    5.10
   2  -6 -13   82.96    5.21
   2  -6 -13  101.81    4.94
  -2   6  13  101.88    5.07
  -2   6  13   97.80    5.16
  -2   6  13  100.42    5.09
   7  -1  10   22.20    1.73
  -7   1 -10   15.61    2.16
   6   9   7   31.98    2.54
   6   9   7   35.73    2.57
   6   9   7   32.88    2.38
   6   9   7   40.80    2.64
   8   0   8   13.12    2.13
  -8   0  -8   11.85    3.03
   8   0   8   13.77    1.56
   8   0   8   12.99    2.04
  -8   0  -8   12.81    1.49
  -7   4  -7   14.22    2.02
   7  -4   7   17.40    1.16
  -7   4  -7   19.22    2.11
  -7   4  -7   14.17    3.16
   7  -4   7   15.72    2.10
  -4   1 -13   12.46    1.35
   4  -1  13   17.61    1.71
  -4   1 -13   15.68    1.55
   4  -1  13   14.07    2.43
   6  -8   1   29.15    2.68
   6  -8   1   33.89    2.10
  -6   8  -1   25.52    1.83
  -6   8  -1   36.79    3.16
  -6   8  -1   29.79    3.46
  -6   8  -1   32.92    2.09
   5   5  14   11.63    1.75
   5   5  14    6.76    2.04
  -5  -5 -14    5.01    1.90
  -5  -5 -14    8.31    1.29
   5   5  14    5.41    1.57
   5   5  14   11.28    1.93
  -2   7  -8    4.67    1.30
  -2   7  -8    3.85    1.01
  -2   7  -8    3.81    2.09
  -2   7  -8    2.71    2.53
   2  -7   8    2.77    2.48
   2   4  15   21.02    2.52
  -2  -4 -15   22.52    2.08
  -2  -4 -15   21.11    2.21
   2   4  15   16.16    1.91
   2   4  15   21.24    2.04
  -7   6  -3    6.33    2.18
  -7   6  -3    4.63    1.25
   7  -6   3    7.86    2.17
   7  -6   3    6.30    1.06
   6   9   6   88.93    4.83
   6   9   6   90.94    4.78
   6   9   6  103.23    4.87
   6   9   6   99.37    4.93
  -2 -11 -11    8.02    1.67
  -2 -11 -11   10.52    1.63
   2  11  11   12.51    2.16
   2  11  11    8.90    1.73
   2  11  11   13.72    2.67
  -2 -11 -11   11.91    1.90
  -5   0 -13    7.74    1.35
  -5   0 -13    2.43    0.54
   5   0  13    6.06    2.03
   5   0  13    7.71    1.50
   7  -5  -4   53.83    2.91
   7  -5  -4   41.34    3.62
  -7   5   4   50.08    3.52
   7  -5  -4   51.63    2.50
   7  -5  -4   48.14    3.75
  -7   5   4   48.38    3.70
   4   9  -1   28.76    2.26
   4   9  -1   30.98    2.89
   4   9  -1   30.51    2.21
   7  -3  -5    0.87    1.21
   7  -3  -5    0.76    1.32
  -7   3   5   -0.82    2.28
   7  -3  -5   -1.96    2.49
   7  -3  -5    0.49    1.90
  -7   3   5   -0.13    2.07
   7  -3  -5    0.54    2.55
   7  -3  -5    1.30    1.57
  -8  -2   0   16.46    1.72
   8   2   0   19.71    1.98
   8   2   0   23.04    2.21
   8   2   0   18.17    1.91
  -8  -2   0   20.44    2.52
   8   2   0   20.08    1.84
   0  10  -3   12.81    1.82
   0  10  -3   16.12    1.40
   0  10  -3   13.95    1.37
   0  10  -3   13.39    2.70
  -4  -1 -14   19.29    1.86
   4   1  14   20.51    1.79
  -4  -1 -14   21.09    1.65
   4   1  14   23.39    2.54
   1  12   4    1.41    1.31
   1  12   4    1.33    2.59
   1  12   4   -0.90    1.34
   1  12   4   -0.29    1.83
  -1 -12  -4    1.32    2.47
  -5  -3 -14   45.00    2.45
   5   3  14   50.56    3.09
   5   3  14   56.34    3.42
  -5  -3 -14   56.04    2.93
  -5  -3 -14   43.51    3.17
   5  -3  11   19.09    1.53
  -5   3 -11    9.19    2.76
  -5   3 -11   17.98    1.38
  -5   3 -11   16.97    2.33
   5  -3  11   16.71    2.54
  -1   7  -8   24.79    2.40
  -1   7  -8   34.32    3.25
   1  -7   8   33.08    3.41
  -1   7  -8   37.03    2.08
  -1   7  -8   27.55    2.14
   4  11   7    8.72    2.31
   4  11   7    9.91    1.73
   4  11   7   12.27    2.06
   4  11   7   15.69    1.90
   8   4   8   17.82    2.32
   8   4   8   14.43    1.46
  -8  -4  -8   12.76    1.70
   8   4   8    9.99    1.77
  -1  12   5   34.40    3.08
  -1  12   5   39.99    2.93
   1 -12  -5   39.06    3.75
   1 -12  -5   40.70    2.76
  -1  12   5   34.70    2.14
   3  -6 -12    4.19    2.61
  -3   6  12    4.44    1.61
  -3   6  12    3.19    2.17
   3  -6 -12    2.42    2.76
   3  -6 -12    5.42    1.69
   8   3   1   20.98    2.29
  -8  -3  -1   19.31    2.55
  -8  -3  -1   19.26    1.64
   8   3   1   21.98    2.02
   8   3   1   20.81    1.87
   3 -11  -6   20.34    2.22
  -3  11   6   22.47    1.64
   3 -11  -6   24.68    1.69
   3 -11  -6   23.30    3.43
  -3  11   6   21.24    2.36
  -3  11   6   18.96    2.63
  -5   5  -9   23.55    2.27
  -5   5  -9   21.62    2.34
  -5   5  -9   19.59    1.89
   5  -5   9   20.45    1.15
  -5   5  -9   12.46    2.65
   5   8  -1    1.93    1.56
   5   8  -1    0.57    1.63
  -5  -8   1    2.62    2.25
   5   8  -1    0.92    1.79
   4  -4 -11   14.30    2.58
   4  -4 -11   13.88    2.01
  -4   4  11    9.77    1.73
  -4   4  11   14.83    2.18
   4  -4 -11    9.94    2.44
   4  -4 -11   11.71    1.57
   4  -4 -11   12.24    2.85
   1  12   8   32.68    2.38
   1  12   8   34.65    3.36
  -1 -12  -8   30.44    3.41
   1  12   8   41.54    2.34
  -2   9  -5    1.08    2.47
  -2   9  -5   -0.44    0.53
  -2   9  -5    0.76    0.53
  -2   9  -5   -1.05    1.38
  -2   9  -5   -0.30    2.16
  -2   9  -5    1.35    1.28
  -6  -7 -12   30.03    2.35
   6   7  12   18.85    2.03
   6   7  12   25.52    2.09
   6  -3  10   32.68    2.25
   6  -3  10   40.63    2.14
  -6   3 -10   33.31    2.16
  -6   3 -10   27.29    3.35
   3   5  15    9.92    1.86
   3   5  15   14.19    1.83
  -3  -5 -15   12.41    1.78
  -3  -5 -15   14.32    2.07
   3   5  15   13.62    1.93
  -3  -5 -15   12.05    1.85
   5   6  -4   -0.48    2.11
  -5  -6   4   -1.09    2.29
   5   6  -4   -0.23    1.54
  -6  -5 -13   10.42    1.72
   6   5  13   11.19    1.78
   6   5  13   14.05    2.18
  -6  -5 -13   11.44    1.25
  -6  -5 -13   12.60    2.01
   6   5  13   12.85    1.70
   6   5  13   12.68    1.62
   4  11   6    2.74    1.56
   4  11   6    3.88    1.46
   4  11   6    6.29    1.93
   4  11   6    3.21    2.18
  -1  11  10    8.88    2.67
  -1  11  10    8.60    2.62
   1 -11 -10    9.36    3.07
  -1  11  10    6.19    1.01
   1 -11 -10    8.23    1.94
  -1  11  10    6.63    1.60
   1 -11 -10    8.64    1.36
   1 -11 -10    3.99    1.44
   7   7   9   16.81    1.92
  -7  -7  -9   20.80    1.99
   7   7   9   19.45    1.87
   7   7   9   15.19    1.89
  -2  10  -3    0.95    0.32
  -2  10  -3    0.96    1.49
  -2  10  -3    0.99    0.29
  -2  10  -3    2.89    2.15
  -2  10  -3    1.79    1.52
  -2  10  -3    2.56    2.54
   6   9   8   11.77    1.88
   6   9   8   13.99    2.03
   6   9   8   13.89    1.72
   5  10   9   40.20    2.92
   5  10   9   42.38    2.83
   5  10   9   47.20    2.85
   5  10   9   41.55    2.97
   3   4  15   17.29    1.88
   3   4  15   18.99    2.48
  -3  -4 -15   16.04    1.90
  -3  -4 -15   14.19    2.14
   3   4  15   12.53    1.87
  -3  -4 -15   18.88    1.98
   3   4  15   18.62    1.98
  -6   4  -9   25.15    2.38
   6  -4   9   18.94    1.86
  -6   4  -9   14.52    3.11
   6  -4   9   21.02    1.30
   7  -1  -5   45.12    2.96
   7  -1  -5   38.10    2.78
   7  -1  -5   46.29    3.35
  -1  12   6   16.82    1.54
   1 -12  -6   19.38    3.23
  -1  12   6   19.40    2.67
   1 -12  -6   18.14    2.07
  -1  12   6   17.90    2.30
  -1  12   6   15.30    2.92
  -3   3 -12   10.93    1.35
   3  -3  12   10.22    1.48
  -3   3 -12    5.63    1.18
   3  -3  12    7.22    2.46
  -3   3 -12    9.75    1.42
   1  -5 -14   34.32    2.87
  -1   5  14   33.59    2.51
  -1   5  14   29.47    2.47
   1  -5 -14   34.88    3.03
   6   0  -7    0.35    2.01
   6   0  -7    1.21    1.66
  -6   0   7    1.84    1.99
   6   0  -7    0.96    2.28
   6   0  -7    0.40    1.91
   5  -6  -9   38.36    3.39
   5  -6  -9   32.85    2.53
  -5   6   9   34.87    2.97
   5  -6  -9   39.39    3.69
   5  -6  -9   36.91    2.91
   5  -6  -9   37.84    3.40
  -5   6   9   31.12    2.26
  -7  -6  -1    0.79    1.73
  -7  -6  -1    2.91    1.69
   7   6   1   -0.19    2.04
   7   6   1    0.43    1.49
  -6  -6   2   40.45    3.16
   6   6  -2   30.76    2.96
   6   6  -2   37.47    2.53
   6   6  -2   37.30    2.49
   1 -12  -4   52.20    4.10
  -1  12   4   48.85    2.57
   1 -12  -4   51.77    3.15
  -1  12   4   48.16    3.90
  -1  12   4   48.70    3.24
  -1  12   4   42.10    3.40
   1  -4 -14    6.94    2.41
  -1   4  14    4.63    1.74
   1  -4 -14    6.41    1.70
   1  -4 -14    5.15    2.12
  -4   3  11   64.50    3.79
   4  -3 -11   66.64    3.93
   4  -3 -11   76.33    4.20
   4  -3 -11   65.57    4.05
  -4   3  11   78.33    4.04
  -2  -6 -15   47.29    3.07
   2   6  15   38.73    3.07
   2   6  15   50.51    3.04
   2   6  15   47.61    2.75
   2   6  15   49.49    3.09
  -2  -6 -15   53.02    3.17
  -2  -6 -15   46.53    3.00
   3  -2 -12   48.84    3.18
  -3   2  12   54.41    3.63
   3  -2 -12   45.34    3.25
   3  -2 -12   53.58    3.39
   4  11   8   45.57    2.98
   4  11   8   47.45    3.39
   4  11   8   54.18    2.99
   4  11   8   44.83    3.16
   5   9   1    1.97    1.93
  -5  -9  -1    0.37    1.08
   5   9   1    1.14    1.73
  -3  10   9   -0.32    1.31
   3 -10  -9    2.49    1.92
  -3  10   9   -0.05    1.93
   3 -10  -9    0.75    0.82
   3 -10  -9   -0.22    1.33
  -5  -3   7   31.18    2.96
   5   3  -7   27.16    2.99
   5   3  -7   32.62    2.48
   1   8  -6   33.31    2.10
   1   8  -6   25.14    2.23
   1   8  -6   31.93    3.19
  -1  -8   6   29.32    3.30
   6   8  11   58.38    3.36
   6   8  11   51.39    3.27
   6   8  11   50.06    3.20
   0  12   8    8.50    1.46
   0 -12  -8    8.92    1.83
   0  12   8   10.13    2.34
   0  12   8   11.12    2.79
   0 -12  -8   10.21    1.50
   0  12   8   10.14    1.37
   0 -12  -8   10.05    3.17
   0  12   8    8.55    2.24
  -2 -12  -6   20.54    3.00
   2  12   6   21.62    2.87
   2  12   6   20.97    1.97
   1  -3  12   19.59    1.78
  -1   3 -12   19.02    1.92
  -1   3 -12   13.32    1.84
  -1   3 -12   18.65    1.78
   1  -3  12   16.44    2.82
  -1   3 -12   17.18    2.43
   8  -3   5   29.97    1.83
  -8   3  -5   22.38    3.29
  -8   3  -5   21.32    2.19
   8  -3   5   27.65    1.73
  -8   3  -5   24.82    1.97
  -8   3  -5   26.51    1.67
   8  -3   5   25.83    2.26
   8  -3   5   25.68    2.80
   8  -3   5   23.06    2.55
   2  12   7   22.01    1.95
   2  12   7   20.09    2.81
  -2 -12  -7   18.84    2.95
   0 -12  -3   24.32    3.02
   0  12   3   23.49    2.40
   0  12   3   21.91    1.69
   0  12   3   25.58    1.80
   0  12   3   26.32    3.15
   0   5 -10   15.88    1.88
   0   5 -10   17.90    2.04
   0  -5  10   21.05    2.98
   6   9   5   51.57    3.13
   6   9   5   49.14    3.04
   6   9   5   49.17    3.09
   4  -5 -11    7.35    1.77
  -4   5  11    8.10    1.71
  -4   5  11    7.23    2.17
   4  -5 -11    6.34    2.54
   4  -5 -11    6.93    1.27
   4  -5 -11    6.92    2.95
   4  -5 -11    5.56    2.19
   4  -5 -11    5.94    2.39
   8   2   9   72.81    3.13
   8   2   9   75.80    2.75
  -8  -2  -9   72.11    3.74
   6   2  13   60.20    3.26
   6   2  13   54.93    3.33
  -6  -2 -13   57.01    3.17
   8   5   6    1.64    1.39
   8   5   6    0.23    1.54
   8   5   6    1.52    1.95
   8   5   6    0.32    1.97
  -8  -1   1   11.46    1.75
   8   1  -1   18.79    2.00
   8   1  -1   13.24    1.91
   8   1  -1   12.56    1.77
   8   1  -1   11.17    1.60
  -8  -1   1   13.97    2.41
   0   6  -9   16.30    1.66
   0   6  -9   22.49    1.77
  -6  -2   6    9.91    2.29
   6   2  -6   15.22    2.11
   0   9  -5   14.96    1.85
   0   9  -5   19.42    1.55
   0   9  -5   15.24    2.90
   0   1 -13    5.43    2.05
   0   1 -13    1.28    1.87
   0  -1  13    5.94    2.58
   0  -1  13    7.06    1.64
   7  -6  -3   30.02    3.57
   7  -6  -3   35.57    2.19
   7  -6  -3   30.42    3.37
  -7   6   3   31.59    3.43
   7  -6  -3   35.85    2.61
   7  -6  -3   33.98    3.15
   2   0  14   71.82    3.80
  -2   0 -14   65.83    4.03
  -2   0 -14   73.13    3.75
   2   0  14   67.29    4.53
  -2   0 -14   66.94    3.67
  -8   3   1    8.14    2.71
  -8   3   1   11.06    2.17
   8  -3  -1    7.11    2.73
   8  -3  -1   11.57    1.59
   8  -3  -1   11.49    2.44
   8  -3  -1   10.69    1.87
  -1  -5 -15   55.69    3.30
   1   5  15   44.06    3.13
   1   5  15   56.91    3.24
   1   5  15   53.76    3.24
  -1  -5 -15   55.75    3.46
  -1  -5 -15   55.05    3.28
   1   5  15   59.35    3.04
  -2  -3 -15   -0.46    1.73
  -2  -3 -15    0.11    1.58
   2   3  15    1.46    2.27
   2   3  15    1.10    1.57
   2   3  15    0.34    1.37
   0  11  11    1.74    2.07
   0  11  11    0.77    1.54
   0  11  11   -0.81    2.59
   0 -11 -11   -0.47    1.33
   0 -11 -11   -1.36    2.87
   0  11  11    0.20    2.33
   0 -11 -11    3.61    1.56
   0  11  11   -0.30    1.17
   8   3   9   48.92    2.90
   8   3   9   44.72    2.40
  -8  -3  -9   56.40    3.14
   8   5   5    4.60    1.47
   8   5   5    4.63    1.64
   8   5   5    5.98    2.02
   8   5   5    4.87    2.06
   3 -11  -1    3.68    2.81
   3 -11  -1    1.87    1.48
  -3  11   1    0.76    2.53
  -3  11   1   -1.60    1.82
  -3  11   1    1.33    2.05
  -3  11   1    3.51    2.84
  -3  11   1    2.18    0.88
  -1   0  13   48.14    3.02
  -1   0  13   49.28    3.82
   1   0 -13   52.58    3.19
   1   0 -13   46.42    3.02
   1   0 -13   44.93    3.12
   2  -2 -13    1.82    2.16
  -2   2  13    3.16    1.66
   2  -2 -13    1.05    1.77
   2  -2 -13    1.79    1.78
   2  -2 -13    1.24    2.05
   3   6  15   29.57    2.01
  -3  -6 -15   37.47    2.55
  -3  -6 -15   33.75    2.54
   3   6  15   40.38    2.58
   3   6  15   38.28    2.59
  -3  -6 -15   36.84    2.60
  -4  10  -1   -0.10    1.84
  -4  10  -1    0.66    0.80
   4 -10   1   -1.12    2.80
  -4  10  -1   -1.23    2.46
  -4  10  -1    0.26    1.57
  -4  10  -1    0.63    1.42
   4 -10   1   -0.04    1.33
  -4  10  -1   -0.87    2.68
  -4  10  -1    0.89    2.79
   6  -2  11   30.51    2.13
  -6   2 -11   32.43    2.91
  -6   2 -11   38.97    2.16
   6  -2  11   32.50    2.82
   4  11   5   15.94    2.18
   4  11   5   15.31    2.37
   4  11   5   16.76    1.83
   4  11   5   14.92    1.76
   4   8  -3   53.80    3.70
   4   8  -3   56.70    3.17
  -4  -8   3   52.61    3.85
   8  -4   2    1.50    2.53
   8  -4   2    0.80    1.39
   8  -4   2    1.88    2.16
   8  -4   2    1.30    1.18
  -8   4  -2    1.79    2.02
  -8   4  -2    1.80    1.75
   8  -4   2    2.00    1.14
  -8   4  -2    2.37    2.79
   8  -4   2    2.09    1.47
   5  10   4   31.84    2.62
   5  10   4   42.12    2.56
   5  10   4   39.78    2.70
   5  10   4   33.79    2.81
   7   4  -2    1.07    1.53
  -7  -4   2    0.48    1.80
  -7  -4   2    1.16    1.59
   7   4  -2   -0.13    2.26
   7   4  -2   -0.55    1.54
   4   9  13   -1.22    1.78
   4   9  13   -1.56    1.99
   4   9  13   -1.07    1.88
  -4  -9 -13   -2.93    1.73
  -4  -9 -13   -1.72    1.47
  -4  -9 -13    0.20    1.59
   6  -8  -4   10.58    3.01
  -6   8   4   10.10    1.82
   6  -8  -4   11.31    2.87
   6  -8  -4   14.36    1.36
  -6   8   4    7.94    2.81
   6  -8  -4   11.24    1.95
   6  -8  -4    9.75    2.55
   5   6  14   -1.19    1.64
  -5  -6 -14   -0.94    1.64
  -5  -6 -14   -0.33    1.81
   5   6  14   -0.36    1.56
   5   6  14    0.70    1.86
   5   6  14    0.02    0.39
  -5  -6 -14    0.29    1.25
   4  10   1   52.02    3.63
   4  10   1   49.12    3.04
   4  10   1   54.18    3.13
  -4 -10  -1   30.10    1.94
  -1  -4 -15   64.04    3.91
  -1  -4 -15   66.33    3.74
  -1  -4 -15   79.27    3.94
   1   4  15   69.95    3.58
   1   4  15   74.26    4.04
   3  11   2   36.16    2.57
  -3 -11  -2   40.67    2.79
   3  11   2   44.05    2.65
   3  11   2   41.51    3.31
  -8   4  -1    1.82    2.83
   8  -4   1    2.01    1.17
   8  -4   1    2.21    2.13
  -8   4  -1    1.62    2.06
   8  -4   1    2.69    2.56
   8  -4   1    1.70    1.52
   8  -4   1    2.91    1.43
   2  12   5   41.00    2.38
  -2 -12  -5   41.63    3.45
   2  12   5   32.91    2.42
   2  12   5   37.62    3.39
   7  -4  -5   16.32    2.82
   7  -4  -5   18.60    2.95
   7  -4  -5   18.16    1.88
  -7   4   5   17.08    2.66
   7  -4  -5   17.99    1.41
  -7   4   5   17.84    2.45
   7  -4  -5   17.75    3.08
   7  -4  -5   18.53    2.26
   7  -4  -5   14.33    1.38
   8   4   2   17.40    2.17
   8   4   2   12.24    2.41
   8   4   2   13.91    1.75
  -8  -4  -2   15.75    2.44
   7   7   3   -0.17    1.62
   7   7   3   -0.38    1.83
   7   7   3    0.49    1.54
  -1   6  14   63.08    3.63
   1  -6 -14   64.91    3.87
   1  -6 -14   56.34    3.37
   1  -6 -14   70.71    3.70
   1  -6 -14   69.77    4.09
  -1   6  14   59.50    3.66
  -1   6  14   64.20    3.70
  -1   6  14   67.32    3.70
  -7  -3   3    9.01    2.00
  -7  -3   3   10.31    1.68
   7   3  -3   10.51    2.50
   7   3  -3    9.56    1.80
   7   3  -3    9.73    1.65
  -1  11  -1   23.25    2.33
  -1  11  -1   21.08    1.35
  -1  11  -1   16.82    1.32
   1 -11   1   21.42    2.73
  -1  11  -1   22.51    2.09
   1 -12  -7    7.00    3.00
   1 -12  -7    5.67    1.34
  -1  12   7    4.41    1.28
   1 -12  -7    5.26    1.79
  -1  12   7    4.11    2.41
  -1  12   7    5.09    2.72
  -1  12   7    5.76    2.12
  -1  12   7    6.22    1.18
   3   3  15   36.32    2.50
  -3  -3 -15   41.13    2.79
  -3  -3 -15   41.61    2.68
   3   3  15   29.45    2.30
   3   0  14   37.36    3.26
  -3   0 -14   35.96    2.31
  -3   0 -14   32.70    2.81
  -3   0 -14   33.29    2.31
   3   0  14   36.27    2.48
   8   5   7    0.57    1.92
   8   5   7   -1.64    1.34
   8   5   7    1.13    1.62
   8   5   7   -2.29    2.03
  -5   9  -2   31.64    3.16
   5  -9   2   32.61    2.14
  -5   9  -2   27.62    2.07
  -5   9  -2   29.75    3.04
  -5   9  -2   26.04    3.35
  -5   9  -2   27.52    2.15
   2 -11  -9    0.40    2.87
   2 -11  -9   -0.01    1.26
  -2  11   9    1.59    2.59
  -2  11   9    1.27    1.95
  -2  11   9   -0.29    1.29
   2 -11  -9   -0.64    1.75
   5  -9  -6   28.60    1.98
   5  -9  -6   29.97    3.56
  -5   9   6   29.21    2.79
   5  -9  -6   31.61    2.55
  -5   9   6   28.68    1.88
  -5   9   6   28.21    2.45
   6  -5   8   11.23    1.67
  -6   5  -8   10.31    2.97
  -6   5  -8   13.18    2.23
   2  12   8   61.93    4.11
   2  12   8   80.42    3.83
  -2 -12  -8   58.11    4.28
   2  12   8   69.87    3.68
  -2 -12  -8   65.21    3.63
  -3   7  -8   25.14    2.97
  -3   7  -8   23.20    1.28
   3  -7   8   23.08    3.03
  -3   7  -8   22.68    1.66
  -3   7  -8   20.16    2.79
  -3   7  -8   23.15    2.56
   6   9   9    0.26    1.87
   6   9   9   -0.53    1.54
  -6  -9  -9    0.13    1.55
   6   9   9    0.70    1.74
  -8  -1  -9    3.35    1.41
   8   1   9    7.49    1.75
   8   1   9    3.40    1.48
   8   1   9    4.89    2.00
  -1   3  14   11.01    1.84
   1  -3 -14    9.07    1.90
   1  -3 -14    8.16    1.86
   1  -3 -14   10.33    2.24
  -1   3  14    5.90    2.26
   1  -3 -14   12.61    2.41
   0  11  -1   30.04    3.14
   0  11  -1   25.81    1.67
   0 -11   1   25.11    2.60
   0  11  -1   21.52    2.21
   0  11  -1   26.13    1.73
   5  -2  12   -0.95    2.24
  -5   2 -12   -0.99    1.11
   5  -2  12    0.07    1.23
   2  10  -2   -0.63    1.25
   2  10  -2    0.76    1.67
   2  10  -2   -2.44    2.47
  -1  12   3   21.93    1.57
   1 -12  -3   21.75    3.18
   1 -12  -3   21.29    2.09
  -1  12   3   19.86    3.02
  -1  12   3   18.02    2.32
  -1  12   3   16.01    2.60
  -1  12   3   24.84    3.25
  -1  12   3   20.59    1.52
   6  -7  -6   30.18    2.70
  -6   7   6   28.93    2.43
   6  -7  -6   26.25    3.48
   6  -7  -6   34.78    2.17
   6  -7  -6   21.06    3.35
   0  -8 -14   36.60    2.33
   0   8  14   43.67    2.90
   0  -8 -14   40.15    2.92
   0  -8 -14   36.64    2.61
   0   8  14   40.49    3.05
   0   8  14   34.91    2.68
  -5  -2 -14   42.97    2.25
   5   2  14   44.68    3.20
  -5  -2 -14   42.06    2.69
  -5  -2 -14   46.71    3.18
   5   2  14   45.91    2.84
   6  -8   2   33.42    2.09
  -6   8  -2   25.54    2.06
  -6   8  -2   29.63    3.58
  -6   8  -2   32.18    2.12
   0   4 -11   73.16    3.57
   0  -4  11   69.88    4.77
   0   4 -11   85.85    3.62
   0   4 -11   45.21    3.43
   0  -4  11   81.33    4.01
   0   4 -11   51.42    3.51
  -5  -8 -13   47.06    2.59
   5   8  13   46.82    2.95
  -5  -8 -13   40.74    2.64
   5   8  13   37.51    2.78
  -5  -8 -13   37.67    2.79
   5   8  13   46.02    2.87
   5   8  13   42.33    2.85
   0   1  14    9.84    1.78
   0  -1 -14    6.44    1.75
   0  -1 -14    6.68    2.03
   0   1  14    8.86    2.71
   4  11   9   39.42    3.16
   4  11   9   46.57    3.11
  -4 -11  -9   41.78    2.79
   4  11   9   37.51    2.91
  -5   6  -8   62.25    3.21
  -5   6  -8   51.37    3.09
  -5   6  -8   39.57    2.22
  -5   6  -8   62.23    3.52
  -5   6  -8   49.50    3.69
   1  12   3    6.24    1.91
  -1 -12  -3    5.25    2.50
   1  12   3    9.74    1.34
   1  12   3    6.60    2.72
   1  12   3    6.59    1.44
   1   6  15    8.99    2.01
   1   6  15   12.20    1.98
   1   6  15   13.82    1.84
  -1  -6 -15   13.24    1.87
  -1  -6 -15   10.65    2.25
   3   5  -8    3.81    1.65
   3   5  -8    5.20    2.14
  -3  -5   8    4.77    2.40
  -4  10   7   56.84    4.00
  -4  10   7   61.30    3.77
  -4  10   7   70.32    3.39
   4 -10  -7   79.95    3.87
   4 -10  -7   71.02    4.22
  -7   0 -11    1.82    1.94
   7   0  11    4.43    1.34
   7   0  11    2.69    1.98
   8  -4   3    6.16    2.16
   8  -4   3    9.88    1.23
   8  -4   3    8.72    1.24
   8  -4   3    5.69    2.61
   8  -4   3    7.26    1.63
   8  -4   3   12.54    1.29
  -8   4  -3    7.97    1.88
  -8   4  -3    5.94    2.88
  -8   4  -3    5.38    2.06
   2  -7 -13   40.30    2.73
   2  -7 -13   34.34    2.24
  -2   7  13   44.29    3.15
  -2   7  13   47.11    2.96
   2  -7 -13   45.29    3.09
   2  -7 -13   41.86    3.37
   2  -7 -13   47.45    3.49
  -2   7  13   38.04    2.76
   4  -2 -11  120.10    5.78
   4  -2 -11  107.63    5.56
  -4   2  11  104.79    5.58
   4  -2 -11  103.95    5.55
   2  10  13   36.28    2.79
   2  10  13   34.07    2.48
  -2 -10 -13   32.76    2.55
   2  10  13   29.98    2.92
  -2 -10 -13   35.99    2.29
   2  10  13   34.70    2.36
  -2 -10 -13   33.73    2.48
   1  12   9   45.74    3.81
  -1 -12  -9   49.76    2.96
   1  12   9   56.03    2.82
  -1 -12  -9   51.38    4.01
   1  12   9   44.81    2.94
  -4   5 -10   54.81    2.89
   4  -5  10   65.32    4.40
  -4   5 -10   53.58    2.91
  -4   5 -10   74.79    2.93
  -4   5 -10   46.88    3.31
   4  -5  10   68.56    3.27
  -4   5 -10   69.24    3.90
  -4   5 -10   60.81    3.80
  -4   5 -10   48.08    3.96
   8   5   4   12.00    1.71
  -8  -5  -4   15.98    2.64
   8   5   4   12.96    1.88
   8   5   4   15.99    2.21
   8   5   4   11.05    2.22
  -7   5  -6   42.96    3.99
   7  -5   6   46.48    3.13
  -7   5  -6   41.11    2.96
  -7   5  -6   41.67    2.71
   6  -6  -7   -4.54    3.02
   6  -6  -7   -1.05    1.58
   6  -6  -7   -2.13    2.74
   6  -6  -7   -1.10    2.03
  -4   4 -11   -0.53    1.03
  -4   4 -11    1.30    1.01
  -4   4 -11    1.13    1.44
  -4   4 -11    3.93    1.98
  -4   4 -11    1.02    2.19
   4  -4  11    2.36    2.39
  -4   4 -11    0.07    0.87
   4  -4  11    1.25    1.15
  -4   4 -11   -3.29    2.74
   1   2 -12    7.91    2.11
  -1  -2  12   17.63    1.83
   1   2 -12   10.58    2.07
  -4   9  -4    9.55    2.45
  -4   9  -4   12.66    2.69
  -4   9  -4   10.09    2.64
  -4   9  -4   12.74    1.64
  -4   9  -4   12.44    1.92
   7   6  11    4.41    1.52
   7   6  11    7.11    1.75
  -7  -6 -11    8.36    1.64
   7   6  11    5.69    1.59
   7   0  -5   62.48    4.02
   7   0  -5   65.51    3.67
   7   0  -5   63.55    3.71
  -7   0   5   64.13    3.79
   3   6  -7   42.37    3.34
   3   6  -7   57.62    3.12
  -3  -6   7   52.33    3.89
  -3  11   7   37.27    2.12
  -3  11   7   33.77    2.76
  -3  11   7   27.00    2.97
  -3  11   7   24.44    3.27
   3 -11  -7   36.26    2.10
   3 -11  -7   31.47    2.59
   3 -11  -7   27.82    3.70
  -6  -6 -13    5.08    1.23
  -6  -6 -13    2.14    1.61
  -6  -6 -13    2.20    1.59
   6   6  13    1.70    1.65
   6   6  13    7.30    2.04
   6   6  13    4.58    0.90
   6   6  13    3.40    0.95
   6   6  13    3.74    1.49
   6   6  13    4.54    1.59
  -8   4   0   -0.34    2.70
   8  -4   0    0.09    1.23
   8  -4   0    0.57    1.61
   8  -4   0   -0.54    1.30
  -8   4   0   -0.58    2.05
   8  -4   0   -1.96    2.67
   8  -4   0   -0.31    2.21
   5   9  12    7.47    2.01
  -5  -9 -12    3.11    1.56
  -5  -9 -12    3.26    1.55
   8  -1  -2    3.55    1.80
   8  -1  -2    9.87    1.79
  -8   1   2    2.57    2.42
   8  -1  -2    4.79    1.70
  -8   1   2    3.50    1.93
   8  -1  -2    4.80    1.36
   3   1 -11   13.97    1.96
  -3  -1  11   20.25    1.97
   3   1 -11   16.27    2.27
  -3  -1  11   19.56    2.85
   3   1 -11   11.65    1.72
   3   1 -11   19.29    2.00
   0   7  -8   16.01    1.72
   0   7  -8   20.68    1.56
   0   7  -8   13.74    1.42
  -8   2  -7   56.58    2.87
  -8   2  -7   42.77    2.60
  -8   2  -7   48.92    3.03
  -8   2  -7   47.39    4.08
   8  -2   7   57.13    3.61
  -8   2  -7   54.78    2.70
   8  -2   7   58.05    3.14
   8  -2   7   61.27    3.58
   3  11  11   39.80    2.49
   3  11  11   33.59    2.81
   3  11  11   29.87    2.48
   3  11  11   30.62    3.13
  -3 -11 -11   34.26    2.45
  -3 -11 -11   33.53    2.34
  -3 -11 -11   28.75    2.38
  -7  -5   1    1.84    1.92
   7   5  -1    1.83    1.57
  -7  -5   1    1.33    1.49
   7   5  -1   -0.45    2.10
   8  -1   8    0.96    1.99
   8  -1   8   -2.25    1.87
  -8   1  -8   -0.49    1.81
   8  -1   8    2.45    1.35
  -8   1  -8    0.72    2.95
  -8   1  -8    0.37    1.23
  -7   6  -4   21.55    3.40
  -7   6  -4   19.65    1.22
  -7   6  -4   25.84    2.54
  -7   6  -4   17.87    1.72
   7  -6   4   22.82    2.53
   2  -2  13   33.93    3.31
   2  -2  13   37.30    2.46
  -2   2 -13   32.42    2.89
  -2   2 -13   32.69    2.34
  -2   2 -13   34.81    2.31
   5  10  10   45.44    3.24
   5  10  10   51.32    3.29
   5  10  10   55.66    3.20
  -5 -10 -10   52.83    3.11
   5  10  10   57.85    3.34
   5   7  -3   10.83    1.74
  -5  -7   3   10.56    2.58
   1  10  13   36.81    2.59
   1  10  13   31.90    2.99
  -1 -10 -13   34.37    2.23
   1  10  13   34.63    3.06
  -1 -10 -13   37.63    2.68
   1  10  13   36.94    2.35
  -1 -10 -13   34.17    2.48
   1  10  13   39.56    2.87
   4   8  14   30.08    2.49
  -4  -8 -14   30.11    2.22
   4   8  14   28.12    2.32
  -4  -8 -14   30.28    2.20
   4   8  14   30.09    2.47
  -4   8  -6   20.04    2.71
  -4   8  -6   16.35    2.09
  -4   8  -6   13.96    2.85
  -4   8  -6   13.50    2.24
  -4   8  -6   14.06    1.50
   8  -2  -2   20.02    1.99
   8  -2  -2   20.79    2.21
  -8   2   2   21.04    2.93
   8  -2  -2   23.25    2.04
  -8   2   2   22.02    2.47
   8  -2  -2   20.52    1.67
   5   0  -9   34.32    2.59
  -5   0   9   35.56    3.06
   5   0  -9   36.61    2.90
   8   4   9   42.48    2.55
  -8  -4  -9   48.87    2.89
   8   4   9   51.39    2.92
   6   9   4   66.49    3.78
   6   9   4   67.34    3.81
   6   9   4   69.07    3.77
  -2  -7 -15    4.72    1.95
  -2  -7 -15    4.70    1.68
   2   7  15    4.42    2.05
   2   7  15    4.76    1.85
   7   3  12   37.28    1.86
  -7  -3 -12   47.69    2.80
  -7  -3 -12   47.49    3.20
   7   3  12   52.32    2.90
   7   3  12   58.57    2.63
  -2  -9 -14   14.96    1.88
   2   9  14   14.68    1.88
   2   9  14   12.36    2.10
  -2  -9 -14   13.83    2.03
   2   9  14   13.30    1.76
   4  -6 -11   66.46    4.12
   4  -6 -11   66.56    4.64
  -4   6  11   56.03    3.95
   4  -6 -11   61.84    4.35
  -4   6  11   73.48    3.68
   4  -6 -11   80.59    3.94
  -4   6  11   62.30    3.76
   1   0  14   25.81    2.14
   1   0  14   22.07    3.02
  -1   0 -14   22.64    2.24
  -1   0 -14   17.34    2.40
   2   5  -9    1.34    1.26
   2   5  -9   -0.03    2.09
  -2  -5   9    3.19    2.43
   2   5  -9    1.00    1.63
  -3   7  12   18.75    1.98
   3  -7 -12   11.80    1.17
   3  -7 -12   13.87    2.96
   3  -7 -12   13.08    2.86
   3  -7 -12   20.69    1.95
  -3   7  12   14.62    2.38
   7   2  -4    6.78    1.88
   7   2  -4    4.54    1.78
  -7  -2   4    4.86    1.99
   2   9  -4   26.77    2.35
   2   9  -4   29.30    3.11
  -2  -9   4   28.06    3.16
   2   9  -4   31.56    2.15
   3  10  -1   31.69    2.20
   3  10  -1   33.38    2.55
   3  10  -1   29.84    3.05
  -1  -3 -15   27.54    2.22
  -1  -3 -15   22.58    2.38
   1   3  15   16.51    1.81
   1   3  15   26.61    2.76
  -1  -3 -15   22.66    2.17
  -1  -3 -15   20.29    2.28
   1   3  15   26.55    2.12
  -1   8  -7   13.20    1.98
  -1   8  -7   13.16    2.79
  -1   8  -7   13.32    1.30
   1  -8   7   13.52    2.85
  -1   8  -7   11.24    1.62
  -1   8  -7    7.11    0.83
   6   8   1   27.59    2.21
  -6  -8  -1   25.02    1.79
   6   8   1   29.83    2.34
   6   8   1   23.21    2.19
  -2  -6   8    1.72    2.48
   2   6  -8    1.15    1.93
   2   6  -8    1.15    1.54
  -2   8  -7   -0.03    2.10
  -2   8  -7   -0.72    2.55
  -2   8  -7    0.20    0.82
   2  -8   7   -1.43    2.44
  -2   8  -7    0.56    1.31
   7   7  10   16.69    1.90
   7   7  10   20.44    2.00
  -7  -7 -10   20.64    2.03
   7   7  10   15.77    1.83
   4  10  12   21.40    2.14
   4  10  12   20.04    2.29
  -4 -10 -12   19.28    1.92
  -4 -10 -12   21.10    2.04
   4  10  12   18.10    2.51
  -4 -10 -12   18.85    2.04
  -3   9  -5    4.90    2.21
  -3   9  -5    4.97    1.42
  -3   9  -5    3.59    2.54
  -3   9  -5    4.00    2.46
   7   4  12   45.60    2.07
  -7  -4 -12   50.04    2.92
   7   4  12   51.93    2.62
  -3  -4   9   22.73    2.93
   3   4  -9   22.74    2.64
   3   4  -9   29.70    2.10
   3   4  -9   23.40    2.24
  -2 -12  -4   22.29    2.74
   2  12   4   20.98    1.86
   2  12   4   23.45    3.02
   2  12   4   22.59    1.90
  -4  -5 -15   12.30    1.83
   4   5  15   11.20    1.87
   4   5  15   14.46    1.77
   4   5  15   10.99    2.19
  -4  -5 -15   12.56    2.00
  -4  -5 -15   12.46    1.64
  -1  10  12   42.54    3.51
  -1  10  12   48.77    3.37
  -1  10  12   54.53    3.03
   1 -10 -12   49.02    2.74
   1 -10 -12   56.36    3.12
   4   4  15   59.33    3.77
  -4  -4 -15   50.55    3.35
   4   4  15   56.98    3.40
  -4  -4 -15   57.73    3.15
  -4  -4 -15   50.12    2.92
   4   4  15   56.23    3.15
   8   5   8    7.36    1.70
   8   5   8    6.95    1.46
   8   5   8    6.67    2.05
  -8  -5  -8    8.10    1.65
   8   5   8    7.23    2.18
   1  10  -3   35.86    2.68
   1  10  -3   42.94    3.59
   1  10  -3   41.01    2.38
  -6   7  -5   51.12    3.35
  -6   7  -5   37.47    2.08
  -6   7  -5   43.48    3.87
  -4   8  10   13.95    1.81
   4  -8 -10   13.99    2.99
  -4   8  10   15.96    2.43
   4  -8 -10   13.68    2.30
  -4   8  10   16.42    2.15
   4  -8 -10   14.19    1.82
   4  -8 -10   14.59    3.15
  -4   9   9    0.63    2.22
   4  -9  -9   -0.57    0.61
  -4   9   9   -0.04    1.38
   4  -9  -9    0.49    1.40
  -4   9   9    1.44    1.92
   4  -9  -9   -0.67    2.02
   4  -9  -9    0.05    2.90
   4  -9  -9    0.45    2.90
  -2   9  12   55.67    3.10
   2  -9 -12   61.04    3.25
   2  -9 -12   42.81    4.04
  -2   9  12   43.91    3.47
   0 -12  -9   15.42    3.26
   0  12   9   14.79    1.47
   0  12   9   11.03    2.81
   0 -12  -9    7.18    1.53
   3  -2  13   31.50    2.18
  -3   2 -13   31.55    2.05
   3  -2  13   26.81    2.95
  -3   2 -13   25.51    2.03
   4  11   4   37.16    3.08
   4  11   4   38.98    2.56
  -4 -11  -4   29.27    2.66
   4  11   4   44.86    2.69
   4  11   4   35.41    2.81
  -2  10  11   60.04    3.33
   2 -10 -11   64.80    3.39
   2 -10 -11   60.19    3.68
   2 -10 -11   54.54    2.95
  -2  10  11   53.81    3.79
   6  -3  -8   45.17    3.54
   6  -3  -8   51.55    3.15
   6  -3  -8   49.12    3.34
  -6   3   8   53.60    3.50
   6  -3  -8   55.83    3.76
   3   9  -3   36.75    3.24
   3   9  -3   34.19    2.61
   3   9  -3   38.65    2.44
  -3  -9   3   37.24    3.39
   5   2  -8   42.23    3.01
   5   2  -8   50.35    3.21
  -5  -2   8   45.36    3.44
   0  12   2   36.24    2.23
   0  12   2   32.60    2.75
   0  12   2   40.72    2.33
   0  12   2   40.18    3.65
   0 -12  -2   35.32    3.25
  -8   0   2    5.55    2.30
   8   0  -2   10.12    1.88
   8   0  -2    5.77    1.75
  -8   0   2    7.09    1.64
   8   0  -2    9.68    1.74
   8   0  -2    8.68    1.49
   2 -11   1   -0.06    2.51
  -2  11  -1    0.76    0.31
  -2  11  -1    0.09    0.30
  -2  11  -1    2.04    2.48
  -2  11  -1    1.76    1.70
  -2  11  -1    1.11    1.88
  -2  11  -1   -1.93    2.80
  -4   6  -9   27.52    1.44
  -4   6  -9   24.08    3.12
  -4   6  -9   33.97    3.09
  -4   6  -9   31.84    2.79
   4  -6   9   29.14    3.09
  -4   6  -9   25.65    2.50
  -4   6  -9   26.44    1.73
   5  -8  -8    4.58    2.97
   5  -8  -8    3.80    3.00
  -5   8   8    8.57    1.48
  -5   8   8    5.18    1.87
   5  -8  -8    7.75    1.50
   5  -8  -8    6.10    2.13
   2  12   9   62.34    3.43
   2  12   9   62.31    3.28
  -2 -12  -9   57.61    3.42
   2  12   9   58.33    3.76
   2  12   9   52.38    4.03
   6   7  -1   81.18    4.97
  -6  -7   1  106.02    5.62
   6   7  -1   98.64    4.82
   6   7  -1  100.72    4.84
   2   1 -12   32.96    2.63
   2   1 -12   32.03    2.44
  -2  -1  12   29.09    2.26
   2   1 -12   29.84    2.09
  -1  12   8    4.11    2.47
  -1  12   8    1.51    2.64
   1 -12  -8    0.93    1.31
  -1  12   8    2.17    1.31
   1 -12  -8    0.40    1.71
  -1  12   8   -0.50    2.01
  -1  12   8    0.78    1.10
   1 -12  -8    2.80    2.99
   6   1  13   23.80    1.97
   6   1  13   21.24    2.31
  -6  -1 -13   16.09    2.55
  -6  -1 -13   25.91    1.88
  -4  -5   7    5.35    2.40
   4   5  -7    8.29    2.23
   4   5  -7    8.27    1.77
  -4   3 -12    0.40    0.87
   4  -3  12   -0.42    1.23
   4  -3  12   -0.11    2.38
  -4   3 -12    0.62    2.22
  -4   3 -12   -0.79    0.90
  -4   3 -12    0.10    1.13
  -4   3 -12   -0.42    0.65
  -4   3 -12   -0.46    1.08
   3   7  15   43.92    3.13
   3   7  15   55.33    3.19
  -3  -7 -15   51.45    2.99
  -3  -7 -15   50.77    2.99
   3   7  15   53.82    3.19
  -3  -7 -15   42.01    2.99
  -1  -9 -14   63.93    3.56
   1   9  14   68.85    3.72
  -1  -9 -14   59.72    3.69
   1   9  14   67.05    3.78
  -8   3  -6   28.83    3.66
  -8   3  -6   37.63    2.05
  -8   3  -6   35.94    2.35
  -8   3  -6   28.96    2.44
   8  -3   6   38.53    2.17
   8  -3   6   33.68    2.66
   8  -3   6   34.85    2.96
  -8   3  -6   31.64    2.47
   8  -3   6   30.23    2.81
   4   1 -10    5.75    2.06
   4   1 -10    6.56    1.86
   4   1 -10    5.54    1.58
   4   1 -10    8.38    2.06
  -4  -1  10    6.97    2.45
  -8  -3   0   31.44    2.17
   8   3   0   30.72    2.33
   8   3   0   29.35    2.22
  -8  -3   0   27.72    2.76
  -3   1  12    4.04    1.59
   3  -1 -12    3.89    1.90
  -3   1  12    7.48    2.40
   3  -1 -12    4.26    2.02
   3  -1 -12    5.03    2.05
   3  -1 -12    3.39    2.15
   8  -4   4   15.00    1.31
   8  -4   4   14.31    2.67
  -8   4  -4   14.41    3.28
   8  -4   4   16.33    2.29
   8  -4   4   14.76    1.27
  -8   4  -4   14.88    2.14
   8  -4   4   11.53    0.93
  -8   4  -4   14.58    1.93
   6  -1  12   36.20    3.03
  -6   1 -12   39.28    2.26
   6  -1  12   46.14    2.62
  -6   1 -12   32.83    3.00
  -7  -2 -12    4.08    2.05
   7   2  12    0.26    1.49
   7   2  12    2.13    1.17
  -2  -2 -15    3.13    1.91
   2   2  15    2.37    1.59
  -2  -2 -15    1.85    1.78
  -2  -2 -15    3.95    1.63
  -2  -2 -15    2.78    1.06
   2   2  15    4.26    2.62
  -3  10  -3    0.54    1.56
  -3  10  -3    0.38    2.45
  -3  10  -3   -3.14    2.45
  -3  10  -3   -2.35    2.64
  -3  10  -3    1.93    1.53
  -1   9  13    1.37    1.87
  -1   9  13    1.72    2.20
   1  -9 -13    1.06    1.57
   1  -9 -13    1.71    2.10
   1  -9 -13    0.54    2.74
  -1   9  13    1.33    1.57
   2  11   0    3.04    1.53
   2  11   0    0.72    1.76
   2  11   0   -0.44    1.32
  -2 -11   0   -0.31    1.68
   2  11   0    1.40    2.38
   6  -4  -8   45.45    2.93
   6  -4  -8   48.33    3.89
   6  -4  -8   45.87    3.20
   6  -4  -8   48.01    3.63
   6  -4  -8   41.13    3.51
  -6   4   8   43.39    3.16
   7  -7   0    0.54    1.45
   7  -7   0    1.14    2.61
   7  -7   0   -1.41    2.43
   7  -7   0    3.47    0.76
  -7   7   0    1.77    1.41
   1  -7 -14   81.76    4.42
   1  -7 -14   76.22    4.20
   1  -7 -14   86.06    4.68
  -1   7  14   72.91    4.26
  -1   7  14   74.26    4.14
  -1   7  14   82.40    4.26
   1  -7 -14   72.29    3.86
  -5   8  -5   17.33    2.53
  -5   8  -5   17.46    3.07
  -5   8  -5   20.35    2.11
  -5   8  -5   23.85    2.68
  -5   8  -5   17.73    1.61
   8   0   9    0.39    1.61
  -8   0  -9   -0.50    2.98
  -8   0  -9    1.05    1.81
   8   0   9    2.68    1.40
   8   0   9    0.75    1.95
  -8   0  -9    1.12    1.29
   3   7  -6   17.73    2.38
   3   7  -6   17.62    1.96
  -3  -7   6   17.54    2.93
  -6   2   8   62.35    3.72
   6  -2  -8   66.48    4.15
   6  -2  -8   67.35    3.68
   6  -2  -8   62.37    3.82
   6  -2  -8   56.45    3.88
  -3  11   0    2.68    1.03
  -3  11   0    8.31    2.97
  -3  11   0    2.60    1.84
  -3  11   0    3.05    2.01
   3 -11   0    0.96    2.73
   3 -11   0    3.17    1.51
  -3  11   0    3.11    2.61
   8   2  -1   56.11    3.18
   8   2  -1   53.57    3.20
  -8  -2   1   48.94    3.48
  -8  -2   1   59.61    3.24
   8   2  -1   50.39    3.03
   2 -12  -5   36.78    2.64
   2 -12  -5   37.10    3.86
  -2  12   5   39.84    2.21
  -2  12   5   31.42    3.14
  -2  12   5   35.28    2.87
  -1  12   2   10.57    1.20
  -1  12   2   13.59    1.41
  -1  12   2   12.04    3.00
  -1  12   2   15.75    2.43
   1 -12  -2   14.83    2.90
  -1  12   2   11.01    2.04
  -7   7   1    5.70    1.51
   7  -7  -1    1.88    2.97
   7  -7  -1    5.56    1.66
   7  -7  -1    7.72    1.06
   7  -7  -1    7.90    2.61
   7  -7  -1    8.24    2.89
  -7   7   1    6.34    2.99
  -2  -4  10    8.08    2.57
   2   4 -10    9.68    1.77
   2   4 -10   11.40    1.49
   2   4 -10   10.95    2.19
   4   6  -6   12.86    2.38
   4   6  -6   13.92    1.91
  -4  -6   6   13.11    2.63
   6   9  10   22.91    2.25
   6   9  10   24.81    2.40
  -6  -9 -10   22.19    2.07
   6   9  10   21.70    2.06
  -3 -10 -13   39.98    2.73
   3  10  13   32.97    3.01
   3  10  13   40.11    2.98
  -3 -10 -13   39.89    2.57
  -3 -10 -13   44.50    2.78
   3  10  13   39.58    2.61
   3  10  13   44.10    2.75
   3   2  15   52.46    2.78
  -3  -2 -15   51.14    3.10
   3   2  15   60.87    3.63
  -3  -2 -15   60.21    3.28
   5  10   3   23.00    2.49
   5  10   3   24.59    2.10
   5  10   3   22.43    2.17
   5  10   3   21.91    2.29
   8  -3  -2   27.24    2.12
  -8   3   2   29.74    2.64
   8  -3  -2   29.06    2.43
   8  -3  -2   26.87    3.24
   8  -3  -2   26.40    2.93
  -8   3   2   23.35    2.98
  -1   2 -13   29.79    2.42
   1  -2  13   30.10    3.25
   1  -2  13   35.12    2.41
  -1   2 -13   29.63    2.77
  -1   2 -13   34.67    2.35
   2 -12  -4   14.25    3.26
  -2  12   4   13.60    2.57
   2 -12  -4   20.11    2.03
  -2  12   4   18.59    1.46
  -2  12   4   17.10    2.31
   1   7  15    1.04    1.85
  -1  -7 -15    1.25    2.03
   1   7  15    0.16    2.07
  -1  -7 -15   -0.13    1.56
   8   5   3   74.92    3.98
   8   5   3   78.09    4.18
   8   5   3   74.80    4.03
   8   5   3   63.02    4.33
  -8  -5  -3   71.89    4.29
  -8   4   1   -1.07    2.12
   8  -4  -1    0.60    1.25
   8  -4  -1    1.35    2.24
   8  -4  -1   -1.09    1.74
   8  -4  -1   -0.61    1.31
   8  -4  -1   -1.02    2.78
  -8   4   1   -0.27    2.72
   7  -3   9   23.21    2.19
   7  -3   9   25.82    1.67
  -7   3  -9   22.68    3.60
  -7   3  -9   24.13    2.10
  -7   3  -9   22.49    2.37
  -7   3  -9   19.26    1.61
   3   9  14    4.36    1.77
   3   9  14    4.64    1.71
   3   9  14    3.70    1.96
  -3  -9 -14    4.17    1.82
   3   9  14    2.19    2.00
  -3  -9 -14    5.27    1.51
  -3  -9 -14    6.51    1.72
  -7   6   4   32.06    3.05
   7  -6  -4   36.24    2.71
   7  -6  -4   35.75    2.29
  -7   6   4   33.19    3.33
   7  -6  -4   37.06    3.64
   7  -6  -4   33.96    3.34
   7  -6  -4   27.83    3.60
   7  -5  -5   13.36    0.96
  -7   5   5   20.18    2.86
   7  -5  -5   26.82    2.38
  -7   5   5   24.55    2.69
   7  -5  -5   30.40    1.93
   7  -5  -5   18.98    1.08
   7  -5  -5   28.98    3.40
   7  -5  -5   19.69    3.08
  -4  -6 -15    3.93    1.76
   4   6  15    8.49    1.96
   4   6  15    3.91    0.56
   4   6  15    5.89    1.71
   4   6  15   10.92    1.82
  -4  -6 -15    7.10    1.57
   6  -8  -5    7.93    3.06
   6  -8  -5    7.95    3.08
  -6   8   5    8.51    1.85
   6  -8  -5    7.50    2.64
   6  -8  -5   12.98    2.13
   6  -8  -5   11.60    1.41
  -4  -3 -15   65.46    3.44
   4   3  15   69.25    3.86
  -4  -3 -15   61.05    3.22
   4   3  15   69.86    4.29
  -4  -3 -15   54.37    3.65
   0  -3  12   24.93    3.07
   0   3 -12   22.54    2.37
   0  -3  12   30.13    2.16
   0   3 -12   30.33    2.27
   0   3 -12   30.27    2.38
   7   8   7   14.73    1.25
   7   8   7   19.19    1.99
  -4 -11 -10   69.77    3.84
   4  11  10   71.46    4.00
   4  11  10   80.23    3.96
  -4 -11 -10   73.39    3.92
   4  11  10   68.27    4.17
  -5  -7 -14    0.30    1.71
  -5  -7 -14    1.74    1.35
  -5  -7 -14   -0.53    1.53
   5   7  14   -1.28    1.93
   5   7  14    0.54    1.65
   5   7  14    0.72    1.74
   5  -7  -9   18.12    2.96
   5  -7  -9   19.95    1.94
   5  -7  -9   15.86    3.28
  -5   7   9   16.92    1.85
  -5   7   9   20.16    2.15
   5  -7  -9   14.27    3.02
   5  -7  -9   17.83    2.34
   1  -2 -14   55.59    3.38
   1  -2 -14   53.89    3.41
  -1   2  14   57.15    3.97
  -1   2  14   58.08    3.45
   1  -2 -14   59.81    3.57
   6   1  -7    9.32    2.39
  -6  -1   7    7.82    2.34
   6   1  -7    6.79    1.84
   6   1  -7    9.18    2.06
   2   7  -7    4.31    1.58
   2   7  -7    2.29    2.18
  -2  -7   7    4.37    2.66
  -4  -4   8   10.80    2.48
   4   4  -8    8.42    1.81
   4   4  -8    9.16    2.41
  -6   6  -7    7.52    2.31
  -6   6  -7    8.37    3.02
  -4   0 -14   15.64    1.53
  -4   0 -14   19.89    1.78
   4   0  14   14.85    2.59
   4   0  14   18.90    1.87
   7  -7   1    7.70    1.42
   7  -7   1    5.71    0.49
  -7   7  -1   11.49    2.49
   7  -7   1    4.98    2.50
  -7   7  -1    6.08    1.40
   7  -7   1    7.97    0.52
   1  11  -1   18.57    2.13
  -1 -11   1   16.94    2.14
   1  11  -1   21.60    1.72
   1  11  -1   22.24    2.95
   1  11  -1   20.65    1.63
   1  11  12    3.50    2.25
   1  11  12    5.09    2.54
   1  11  12    1.96    1.43
   1  11  12    0.26    1.58
  -1 -11 -12    0.52    1.89
  -1 -11 -12    2.08    1.43
  -1 -11 -12    1.22    1.56
   1  11  12    2.45    2.14
   7   8   6    6.81    1.14
   7   8   6    9.76    1.80
  -7  -5 -12   45.08    2.76
   7   5  12   43.02    2.59
   7   5  12   43.85    2.79
  -2 -11 -12    5.50    1.70
   2  11  12   11.54    2.57
  -2 -11 -12   11.09    1.62
  -2 -11 -12    9.51    1.91
   2  11  12    8.38    1.72
   2  11  12   12.08    2.22
   7  -2  10   39.01    2.70
  -7   2 -10   37.33    2.85
  -7   2 -10   29.59    3.87
   7  -2  10   44.56    2.45
   7   7   2    9.50    1.67
   7   7   2    8.00    1.79
   7   7   2    6.83    2.04
  -7  -7  -2    6.73    1.91
   5  -4 -10   36.94    3.63
  -5   4  10   39.22    2.62
   5  -4 -10   42.11    2.82
   5  -4 -10   39.86    3.06
   5  -4 -10   37.24    3.24
  -5   4  10   40.10    3.01
   5  -4 -10   40.55    3.52
  -8  -4  -1   29.84    2.78
   8   4   1   29.39    2.21
   8   4   1   26.06    2.91
  -8  -4  -1   30.42    2.12
   2 -12  -6   26.66    3.68
   2 -12  -6   27.19    2.40
  -2  12   6   17.16    3.14
  -2  12   6   26.47    1.85
  -2  12   6   25.09    1.55
  -2  12   6   31.39    2.60
  -2  12   6   24.57    2.87
   2 -12  -6   32.27    1.98
   2  -1 -13   23.66    2.52
   2  -1 -13   16.67    2.30
   2  -1 -13   23.12    2.23
  -2   1  13   23.06    2.18
   5  -3 -10    3.46    1.79
   5  -3 -10    2.05    2.34
   5  -3 -10    3.91    2.53
  -5   3  10    3.17    1.59
   5  -3 -10    4.05    2.16
  -5   3  10    0.99    2.00
   1   9  -5   16.88    2.77
   1   9  -5   14.56    1.91
   1   9  -5   16.14    1.62
  -1  -9   5   17.38    2.92
   7   6   0    8.80    1.69
  -7  -6   0    7.12    1.94
  -7  -6   0    6.74    1.58
   7   6   0    6.07    2.18
  -6   8  -3   39.90    3.93
   6  -8   3   44.77    2.46
  -6   8  -3   39.76    2.46
  -6   8  -3   49.66    3.60
  -1 -12  -2    3.16    2.37
   1  12   2    2.76    1.82
   1  12   2    2.04    1.24
   1  12   2    4.52    1.48
   1  12   2    3.88    2.61
  -5   1 -13    0.12    1.24
   5  -1  13    0.56    2.12
  -5   1 -13   -0.22    0.36
   5  -1  13   -0.84    1.32
  -5   1 -13    0.27    0.34
   7   8   8   42.35    2.33
   7   8   8   54.67    3.12
   7   8   8   58.55    3.03
   0  -5 -15   16.51    2.43
   0   5  15   18.44    2.03
   0   5  15   14.02    2.04
   0   5  15   17.22    1.99
   0  -5 -15   17.53    2.36
  -3   9  11   39.18    2.62
   3  -9 -11   40.37    3.06
  -3   9  11   35.28    3.10
  -3   9  11   39.29    2.92
   3  -9 -11   42.17    2.70
   3  -9 -11   36.49    3.74
   3  -9 -11   37.09    3.61
  -4  10  -2   14.38    2.78
  -4  10  -2   18.16    1.93
  -4  10  -2   17.82    3.04
  -4  10  -2   12.44    2.97
  -4  10  -2   14.55    1.87
  -4  10  -2   12.78    2.02
   7  -4   8   17.11    1.99
   7  -4   8   12.12    1.05
  -7   4  -8   13.48    3.28
  -7   4  -8    9.03    2.06
  -7   4  -8   12.24    2.00
   5   1  14    8.43    2.19
  -5  -1 -14    5.54    0.86
   5   1  14    8.90    1.72
  -5  -1 -14   10.18    1.55
   4  -1 -11   86.33    4.74
  -4   1  11   89.53    5.10
   4  -1 -11   94.50    4.97
   4  -1 -11   93.30    4.91
   3  12   7   53.11    3.05
   3  12   7   43.18    3.29
   3  12   7   51.61    3.74
   6   8  12   37.45    2.67
   6   8  12   38.24    2.68
   5 -10  -2   -0.40    2.92
   5 -10  -2    0.78    1.52
  -5  10   2    1.00    0.47
  -5  10   2    2.79    2.96
  -5  10   2   -0.19    2.52
  -5  10   2   -0.91    1.70
  -5  10   2    0.26    2.09
  -2  12   3    3.63    2.31
   2 -12  -3    6.28    3.03
   2 -12  -3    3.32    1.69
  -2  12   3    2.21    2.72
  -2  12   3    3.31    0.99
  -2  12   3    6.24    2.09
  -8  -3 -10   47.70    2.83
   8   3  10   50.08    3.04
   8   3  10   50.59    2.66
   7  -7  -2   -1.23    1.71
  -7   7   2   -1.30    2.92
   7  -7  -2   -2.03    2.57
   7  -7  -2   -2.61    3.00
  -7   7   2    0.56    1.49
   7  -7  -2    0.39    2.77
   7  -7  -2   -1.10    1.11
   5 -10  -3   -1.34    2.96
   5 -10  -3    0.92    0.63
  -5  10   3    0.37    2.10
   5 -10  -3   -1.41    1.68
  -5  10   3   -2.04    2.94
  -5  10   3   -1.00    1.75
   0   8  -7   16.02    1.55
   0   8  -7   13.01    1.75
   0   8  -7    8.90    1.20
  -1  11  11   24.83    2.13
   1 -11 -11   22.18    1.78
   1 -11 -11   23.47    2.03
  -1  11  11   24.20    2.94
  -1  11  11   26.03    3.04
   1 -11 -11   25.42    3.43
   8   2  10   18.27    1.76
   8   2  10   15.03    2.34
   8   2  10   12.08    1.84
  -8  -2 -10   14.21    1.72
   1  12  10   39.56    2.61
  -1 -12 -10   35.66    3.73
   1  12  10   31.91    3.42
   1  12  10   42.69    2.45
  -1 -12 -10   38.25    2.76
  -1 -12 -10   39.14    2.57
   1  12  10   35.47    3.07
   0  10  13    2.36    2.50
   0 -10 -13    1.85    1.26
   0  10  13    0.94    2.00
   0 -10 -13    1.48    1.58
   0 -10 -13    1.86    2.01
   0  10  13    0.71    1.63
  -5   7  -7   30.16    2.91
  -5   7  -7   25.21    2.46
  -5   7  -7   22.66    1.55
  -5   7  -7   27.41    2.38
  -5   7  -7   23.06    3.15
  -3   8  -7   11.81    2.61
  -3   8  -7   16.90    2.82
  -3   8  -7   13.16    1.48
  -3   8  -7    8.76    0.52
  -3   8  -7    8.39    0.51
   3   3 -10   34.03    3.23
   3   3 -10   49.59    3.04
   3   3 -10   40.48    2.66
   3   3 -10   47.06    2.89
  -3  -3  10   47.91    3.79
   3  12   6   67.67    3.48
   3  12   6   65.08    3.92
   3  12   6   60.79    3.57
  -3 -12  -6   57.77    3.99
   3  12   6   67.79    4.34
   0  -4 -15   70.03    4.11
   0   4  15   56.48    3.47
   0  -4 -15   65.76    3.93
   0   4  15   75.19    3.75
   0  -4 -15   78.98    4.07
   0  -4 -15   75.87    4.17
   8   5   9   14.54    1.86
   8   5   9   15.57    2.19
   8   5   9   21.28    2.41
   8   5   9   13.25    1.61
  -8  -5  -9   17.63    1.91
  -5   9  -3   25.90    2.14
  -5   9  -3   24.04    2.04
  -5   9  -3   23.20    3.28
  -5   9  -3   31.35    3.03
  -5   9  -3   24.53    3.01
  -1  10  -4   -0.73    1.54
  -1  10  -4    0.99    1.57
  -1  10  -4    0.94    0.89
  -1  10  -4    0.08    0.91
   6   9   3   49.51    3.24
   6   9   3   50.11    3.22
   6   9   3   58.60    3.28
   5   9   0   15.91    2.08
   5   9   0   18.61    2.40
   7   8   5    0.35    1.47
   7   8   5    0.65    1.65
   2  12   3    7.23    1.53
   2  12   3    4.91    2.48
   2  12   3    3.27    1.37
   2  12   3    5.80    1.98
  -2 -12  -3    5.48    2.34
  -3  11   8   10.57    2.78
  -3  11   8   10.39    1.45
   3 -11  -8   13.26    3.30
  -3  11   8   10.73    2.13
  -3  11   8   10.44    2.58
   3 -11  -8   13.88    2.08
   3 -11  -8   11.99    1.48
  -5   9   7   33.91    2.74
  -5   9   7   36.51    2.24
   5  -9  -7   43.17    2.44
   5  -9  -7   37.60    2.91
   5  -9  -7   30.05    3.85
   6  -5  -8   11.50    0.95
   6  -5  -8   12.98    2.88
   6  -5  -8   14.89    2.21
   6  -5  -8   16.49    1.91
   6  -5  -8   16.53    2.99
   6  -5  -8   13.45    3.26
  -6   5   8   16.23    2.46
   3  11   1   44.37    3.47
   3  11   1   40.39    3.00
   3  11   1   44.87    2.82
  -3 -11  -1   36.73    2.50
   3  11   1   47.88    2.81
   8   1  -2   28.65    2.40
  -8  -1   2   23.48    2.62
   8   1  -2   27.60    2.12
  -8  -1   2   28.86    2.31
   8   1  -2   29.14    2.33
   7   1  -5   35.90    2.74
   7   1  -5   41.66    2.85
  -7  -1   5   39.47    3.04
  -3 -12  -8   35.82    2.66
   3  12   8   37.19    2.97
   3  12   8   37.62    3.27
   3  12   8   37.20    2.69
   3  12   8   44.88    2.65
  -1  -2 -15    6.69    1.97
   1   2  15    8.17    1.79
   1   2  15    8.65    2.70
  -1  -2 -15    8.34    1.86
  -1  -2 -15    9.60    1.80
  -1  -2 -15    4.07    1.94
   5  -5 -10   79.06    5.01
   5  -5 -10   78.45    4.71
   5  -5 -10   75.16    4.65
   5  -5 -10   78.30    4.38
   5  -5 -10   71.13    3.65
  -5   5  10   81.47    4.19
  -5   5  10   78.41    4.55
   5  -5 -10   94.43    4.34
   5  10  11   28.35    2.30
   5  10  11   23.09    2.33
  -5 -10 -11   22.22    2.08
   5  10  11   21.63    2.45
  -5 -10 -11   23.75    2.15
   6   4  -5   45.16    3.89
  -6  -4   5   58.38    3.82
   6   4  -5   68.01    3.61
   6   7  13    0.62    1.69
   6   7  13   -0.52    1.51
  -6  -7 -13    0.75    1.29
  -6  -7 -13    0.86    1.68
   6   7  13   -0.13    1.65
   6   7  13    0.70    1.94
   0   6  15   12.84    2.00
   0  -6 -15   13.45    2.39
   0   6  15   11.18    1.96
   0  -6 -15   10.99    1.85
   0  -6 -15   15.84    2.36
   0   6  15   10.68    2.04
  -6  -5   4   53.89    3.63
   6   5  -4   58.46    3.47
   4   7  -5   23.40    2.75
   4   7  -5   38.54    2.51
  -4  -7   5   36.47    3.45
   3 -10 -10    9.17    3.08
   3 -10 -10    6.02    1.50
  -3  10  10    6.25    1.57
   3 -10 -10    7.92    1.07
  -3  10  10    9.41    2.15
  -3  10  10    9.62    2.38
   3 -10 -10    6.98    2.08
  -7   7  -2    2.74    1.24
  -7   7  -2    2.41    1.22
   7  -7   2    5.47    1.23
   7  -7   2    8.94    2.51
   6  -1  -8   18.82    2.10
   6  -1  -8   16.63    2.44
   6  -1  -8   15.37    2.59
   6  -1  -8   16.87    2.34
  -6   1   8   17.35    2.25
   7  -3  -6   11.58    1.84
   7  -3  -6   13.14    2.16
   7  -3  -6   12.72    2.77
   7  -3  -6   10.37    2.74
  -7  -1 -12    1.61    2.02
   7   1  12    0.67    1.40
   7   1  12    0.09    2.00
   7  -2  -6   21.39    2.36
   7  -2  -6   18.58    2.07
   7  -2  -6   17.46    2.80
   7  -2  -6   22.55    2.88
  -5  10   1    0.61    2.07
   5 -10  -1    0.28    2.98
  -5  10   1    1.96    2.59
  -5  10   1    4.64    2.68
  -5  10   1   -1.28    1.64
  -5  10   1    2.47    3.04
   5 -10  -1    0.52    1.48
   2  -8 -13    2.42    1.67
   2  -8 -13   -0.45    2.39
   2  -8 -13   -1.71    2.68
  -2   8  13    1.96    1.59
  -2   8  13    0.66    1.93
   2  -8 -13    1.70    2.77
  -2   8  13   -0.33    2.14
   2  -8 -13    1.48    1.11
   4  -7 -11   57.93    3.73
  -4   7  11   64.88    3.74
  -4   7  11   59.58    3.52
   4  -7 -11   59.02    4.15
   4  -7 -11   59.55    4.45
   4  -7 -11   59.34    3.43
   1   6  -9   15.82    2.12
   1   6  -9   15.98    1.73
   1   6  -9    8.50    0.90
  -4   7  -8   33.52    2.78
  -4   7  -8   36.85    3.14
  -4   7  -8   25.05    1.78
  -4   7  -8   24.37    3.23
  -4   7  -8   26.92    2.59
   4 -10  -8   40.55    2.38
  -4  10   8   37.21    2.31
  -4  10   8   32.08    2.74
   4 -10  -8   35.76    2.90
   4  11   3   36.65    2.50
   4  11   3   31.19    2.67
   4  11   3   30.75    2.97
   4  11   3   34.54    2.42
  -4 -11  -3   32.97    2.71
   5 -10  -4    2.40    1.73
   5 -10  -4    1.07    3.05
   5 -10  -4    0.95    0.88
  -5  10   4   -1.47    2.19
  -5  10   4    2.43    1.82
  -4  11   3   -0.58    2.12
  -4  11   3    0.33    1.91
   4 -11  -3    3.95    1.64
  -4  11   3   -0.06    0.45
  -4  11   3   -0.14    2.67
   4 -11  -3    0.75    2.99
   1   5 -10   15.18    2.18
   1   5 -10   11.29    0.78
   4   9  -2   30.95    2.97
  -4  -9   2   30.36    3.08
   4   9  -2   28.92    2.23
   8   6   6   12.42    2.22
   8   6   6   13.71    1.76
   8   6   6   16.37    1.98
   8   6   6   16.19    2.22
  -7   6  -5   20.99    3.50
  -7   6  -5   20.33    2.53
   7  -6   5   25.11    2.64
  -7   6  -5   18.46    1.91
   2  12  10   26.54    3.23
   2  12  10   28.97    2.30
  -2 -12 -10   27.07    2.40
  -2 -12 -10   30.05    2.29
   2  12  10   31.82    2.23
   2  12  10   29.23    2.77
  -2  11  10    2.70    2.37
   2 -11 -10   -0.04    1.94
  -2  11  10    1.36    2.05
   2 -11 -10   -1.78    3.02
   2 -11 -10    1.93    1.42
  -2  11  10    1.12    1.43
   2 -11 -10    1.75    1.14
  -2  11  10    1.24    2.60
  -8   4  -5   35.93    2.03
  -8   4  -5   36.35    2.56
   8  -4   5   35.86    2.04
   8  -4   5   39.60    2.97
   8  -4   5   39.60    3.14
   8  -4   5   38.72    2.11
  -8   4  -5   33.90    2.40
  -8   4  -5   35.92    2.72
   2   8  15    3.35    1.91
  -2  -8 -15    1.21    1.93
   2   8  15    2.54    2.10
  -2  -8 -15    1.32    1.63
  -4   2 -13    0.56    1.15
   4  -2  13    1.64    1.31
   4  -2  13    2.95    2.42
  -4   2 -13    1.84    1.25
   5  -2 -10   10.39    2.55
   5  -2 -10    7.25    2.22
   5  -2 -10    7.53    1.87
  -5   2  10   10.29    2.07
   5  -2 -10    9.40    2.35
  -5   2  10   10.27    1.77
   4 -11  -4    2.10    3.10
   4 -11  -4   -0.69    0.83
   4 -11  -4   -0.93    1.72
  -4  11   4   -0.91    1.89
  -4  11   4    0.99    0.81
  -4  11   4    1.05    2.21
  -4  11   4    1.43    2.69
  -2  12   7   16.62    2.68
  -2  12   7   16.51    1.14
  -2  12   7   22.62    1.66
  -2  12   7   15.29    3.04
  -2  12   7   20.44    2.43
   2 -12  -7   24.79    1.75
   2 -12  -7   16.01    3.42
   2 -12  -7   18.56    2.19
   8   4  10   42.07    2.38
  -8  -4 -10   46.08    2.81
   8   4  10   39.39    2.76
   5   8  -2   -0.43    1.88
   5   8  -2   -0.28    1.72
  -5  -8   2   -0.38    2.30
   5   8  -2   -0.85    1.54
   7  -1  11   53.82    2.96
  -7   1 -11   44.91    3.15
   8   6   7    3.92    1.51
   8   6   7    4.33    1.71
   8   6   7    2.95    1.95
   8   6   7    3.50    2.07
   4  10   0   21.64    2.06
   4  10   0   18.42    2.67
   4  10   0   20.16    2.04
  -2  10  -4    5.51    0.46
  -2  10  -4    7.79    2.75
  -2  10  -4    3.55    1.47
  -2  10  -4    4.65    0.46
  -2  10  -4    6.19    2.29
  -2  10  -4    7.51    1.61
   1 -12  -9    2.47    1.86
   1 -12  -9    0.99    3.07
  -1  12   9    0.52    2.65
  -1  12   9    1.85    1.46
  -1  12   9    1.39    2.16
   1 -12  -9    1.54    1.38
  -1  12   9    2.87    2.78
  -3 -12  -5   70.44    4.34
   3  12   5   59.22    3.56
   3  12   5   69.57    3.51
   3  12   5   67.54    4.35
   4   3  -9    7.10    2.07
   4   3  -9    6.56    2.52
   4   3  -9    8.09    1.86
  -4  -3   9    6.44    2.51
   4   3  -9    7.29    1.91
   8  -5   1    0.84    1.49
  -8   5  -1   -0.32    2.96
  -8   5  -1    0.09    2.20
   8  -5   1    0.98    2.30
   8  -5   1    0.60    2.66
   8  -5   1    0.01    1.10
   8   1  10    1.16    2.01
   8   1  10   -0.47    1.37
  -8  -1 -10   -1.12    1.44
  -8  -1 -10   -1.05    1.97
   8   1  10    0.13    1.26
  -7  -8  -9   64.92    3.63
   7   8   9   55.92    3.10
   7   8   9   63.08    3.06
   2   3 -11   25.01    2.36
   2   3 -11   21.67    2.52
   2   3 -11   22.39    2.03
  -2  -3  11   20.21    2.98
   2   3 -11   23.15    1.75
   0  12  10   46.02    3.73
   0  12  10   44.87    2.83
   0 -12 -10   54.55    4.09
   0 -12 -10   42.98    2.80
   0 -11 -12    4.47    2.95
   0 -11 -12    7.23    1.60
   0  11  12    4.30    1.30
   0  11  12    5.22    1.74
   0  11  12    1.61    2.48
   0 -11 -12    4.10    1.35
   0  11  12    3.28    2.64
   0 -11 -12    3.37    2.04
   0  11  12    3.52    2.13
   7   7  11    1.89    1.64
   7   7  11    1.83    1.54
   7   7  11    1.23    2.09
   7   7  11    2.84    1.71
  -7  -7 -11    1.64    1.64
   8  -2   8   22.24    1.68
   8  -2   8   15.52    2.23
  -8   2  -8   14.49    2.08
   8  -2   8   15.91    2.32
  -8   2  -8   14.25    1.41
  -8   2  -8   14.27    1.57
  -8   2  -8   17.21    1.52
  -1  11  -2    3.50    0.88
  -1  11  -2    4.22    1.94
  -1  11  -2    5.92    0.95
  -1  11  -2    4.74    1.69
  -4  -7 -15   18.19    2.15
   4   7  15   23.59    2.17
  -4  -7 -15   20.84    1.98
   4   7  15   18.89    2.17
   4   7  15   19.25    2.28
  -4  -7 -15   22.89    2.19
   8   6   5   19.77    2.03
   8   6   5   27.45    2.47
   8   6   5   19.70    2.19
   8   6   5   18.16    2.48
  -4  -2 -15   32.18    2.92
   4   2  15   41.04    3.13
   4   2  15   40.00    2.45
  -4  -2 -15   42.12    2.58
  -4  -2 -15   35.90    2.30
   0   9  14   36.94    2.80
   0  -9 -14   34.54    2.85
   0   9  14   29.95    2.98
   0  -9 -14   35.60    2.66
   0   9  14   33.40    2.53
   3   8  -5    2.20    1.65
   3   8  -5    1.29    2.17
  -3  -8   5    6.35    2.76
   0  10  -4    7.79    1.73
   0  10  -4    6.34    2.77
   0  10  -4   11.93    1.34
   0  12   1   19.69    3.09
   0 -12  -1   18.94    2.73
   0  12   1   19.15    2.23
   0  12   1   22.19    1.82
   0  12   1   15.14    1.51
  -8   5  -2    9.71    2.14
   8  -5   2   11.63    1.28
   8  -5   2    8.66    2.77
   8  -5   2   10.83    1.43
  -8   5  -2   12.44    3.19
   8  -5   2    7.67    2.36
   8  -5   2    9.74    1.19
  -8   5  -2   10.18    2.26
  -4  11   2    2.16    2.72
  -4  11   2    0.61    1.04
  -4  11   2    2.72    2.86
  -4  11   2    1.33    2.12
  -4  11   2    1.21    1.85
   4 -11  -2   -0.39    2.95
   4 -11  -2   -0.99    1.60
   8  -4  -2    5.91    1.29
   8  -4  -2    7.63    1.50
  -8   4   2    8.20    2.26
  -8   4   2    6.04    2.85
   8  -4  -2    8.08    1.94
   8  -4  -2    8.57    2.93
   8  -4  -2    8.09    2.46
   0   0 -14   -0.73    2.00
   0   0 -14   -0.75    1.65
   0   0  14    0.32    2.63
   0   0 -14    0.25    1.95
   0   0  14    0.72    1.67
   6  -7  -7   18.76    2.37
   6  -7  -7   15.45    3.14
  -6   7   7   14.68    2.05
   6  -7  -7   16.57    1.81
  -6   7   7   15.83    1.64
   3  11  12   24.84    2.20
  -3 -11 -12   23.99    2.08
  -3 -11 -12   23.01    2.25
   3  11  12   21.26    2.85
  -3 -11 -12   25.47    2.17
   3  11  12   23.14    2.52
   6   4  14   16.31    1.60
  -6  -4 -14   13.73    1.25
  -6  -4 -14   18.30    2.29
   6   4  14   22.16    2.14
  -6  -4 -14   18.68    1.98
   6   4  14   18.08    1.97
   6   4  14   14.99    2.42
  -8  -5  -2   80.85    4.52
   8   5   2   70.69    4.71
   8   5   2   82.85    4.34
  -8   2   3   80.43    4.41
   8  -2  -3   76.00    3.99
   8  -2  -3   82.19    4.31
  -8   2   3   76.13    4.72
   8  -2  -3   73.77    3.87
   8  -2  -3   87.88    4.24
   2 -12  -2    2.08    1.65
   2 -12  -2   -1.12    2.85
  -2  12   2    0.67    0.79
  -2  12   2    1.59    1.07
  -2  12   2    0.40    2.25
  -2  12   2   -0.02    1.91
  -2  12   2    2.05    2.68
   2  -1  14   57.20    4.24
  -2   1 -14   48.55    3.63
  -2   1 -14   50.90    3.21
   2  -1  14   61.75    3.44
   6   3  -6   40.76    3.50
  -6  -3   6   50.70    3.61
   0  -3 -15  102.16    5.43
   0  -3 -15  103.71    5.47
   0   3  15  104.13    5.45
   0   3  15  113.27    5.95
   0  -3 -15  111.99    5.51
   0  -3 -15  114.23    5.56
   3  -8 -12   86.27    4.27
  -3   8  12   82.80    4.21
  -3   8  12   70.87    4.46
   3  -8 -12   72.73    4.95
   3  -8 -12   70.80    4.87
  -2  -8   6   13.39    2.96
   2   8  -6   11.80    1.67
   2   8  -6    9.09    1.80
   2   8  -6   14.44    2.57
   1   1 -13   18.67    2.39
   1   1 -13   20.97    2.17
  -1  -1  13   21.45    2.05
  -1  -1  13   18.97    3.04
   8  -5   0    1.71    2.72
  -8   5   0    4.53    2.94
   8  -5   0    6.21    1.73
   8  -5   0    6.11    1.25
   8  -5   0    3.51    2.34
  -8   5   0    4.53    2.28
   3  12   9    2.94    2.09
  -3 -12  -9    4.55    1.85
   3  12   9    6.57    1.63
   3  12   9    4.85    1.72
   8  -1  -3   22.71    2.11
   8  -1  -3   24.04    2.22
  -8   1   3   22.71    2.84
   8  -1  -3   23.92    1.91
   8  -1  -3   28.08    2.38
   8  -1  -3   23.68    2.96
   7  -7  -3    4.11    1.90
  -7   7   3    3.38    2.95
   7  -7  -3    4.04    2.86
   7  -7  -3    2.33    2.73
   7  -7  -3    2.87    1.27
  -7   7   3    3.21    1.61
   7  -7  -3    1.53    3.05
  -1  12   1    4.58    1.31
  -1  12   1    2.92    2.90
  -1  12   1    4.85    2.22
  -1  12   1    3.95    0.96
  -1  12   1    2.85    1.88
   1 -12  -1    5.01    2.62
   7  -4  -6   -1.81    2.05
   7  -4  -6   -0.85    1.63
   7  -4  -6   -2.69    2.71
   7  -4  -6    0.46    2.72
   7  -4  -6    0.17    1.16
   7  -4  -6   -0.41    1.11
   6  -9  -2    9.20    0.74
  -6   9   2    5.73    1.73
   6  -9  -2    3.86    3.09
   6  -9  -2    9.00    1.73
  -6  -6   3   67.48    4.25
   6   6  -3   66.95    3.75
   7  -1  -6   47.29    3.17
   7  -1  -6   46.48    3.01
   7  -1  -6   45.17    3.55
  -7   1   6   44.96    3.06
  -3  -8 -15   33.34    2.50
   3   8  15   36.33    2.78
   3   8  15   33.50    2.59
  -3  -8 -15   36.07    2.55
  -2   5 -11    3.01    1.49
   2  -5  11    1.80    2.66
   2  -5  11    6.36    1.28
  -2   5 -11    4.77    2.34
  -2   5 -11    4.17    2.26
  -2   5 -11    7.84    1.34
  -2   5 -11    5.07    2.18
  -6   9   1    4.12    1.63
  -6   9   1    6.60    3.29
   6  -9  -1    4.19    3.13
   6  -9  -1    6.57    1.58
   7   6  12    4.99    1.48
  -7  -6 -12    9.89    1.72
   7   6  12    7.85    1.72
   7   6  12    6.80    1.60
   7  -5   7    5.23    1.96
  -7   5  -7    3.61    3.22
  -7   5  -7    7.17    2.11
  -7   5  -7    4.00    1.82
   1   7  -8    6.57    1.51
   1   7  -8    3.18    2.37
  -1  -7   8    4.21    2.77
  -4  11   5    6.55    2.83
  -4  11   5    8.36    1.18
  -4  11   5    6.43    2.05
   4 -11  -5    7.91    1.14
   4 -11  -5    9.16    3.32
  -4  11   5    9.95    2.44
   4 -11  -5   10.77    1.93
  -8   1  -9    4.19    1.96
  -8   1  -9    4.43    1.33
   8  -1   9    5.71    2.08
   8  -1   9    4.84    1.34
  -1   9  -6   -0.69    1.22
  -1   9  -6    0.67    1.50
  -1   9  -6    2.38    1.05
   6   9  11   49.56    3.04
   6   9  11   40.59    2.90
   6   9  11   36.92    2.61
  -6  -9 -11   39.56    2.67
   5   1  -9   41.96    2.68
   5   1  -9   46.97    3.15
  -5  -1   9   47.59    3.65
   1  -8 -14   63.02    3.53
   1  -8 -14   70.32    3.92
  -1   8  14   61.35    3.94
  -1   8  14   68.05    3.84
  -1   8  14   62.40    3.67
   1  -8 -14   54.60    3.11
   7   8   4    6.55    1.76
   7   8   4    3.96    1.94
   7   8   4    6.91    1.64
   3  -1  14   15.90    2.70
   3  -1  14   15.50    1.80
  -3   1 -14   13.24    1.64
  -3   1 -14   13.48    1.69
  -3   1 -14   11.12    2.38
   0  11  -2   10.57    1.90
   0  11  -2   10.76    1.30
   0  11  -2   10.87    1.30
   0  11  -2    9.44    2.82
  -2   6 -10    5.64    1.23
   2  -6  10    3.21    2.64
  -2   6 -10    6.39    2.43
  -2   6 -10    2.60    1.30
  -2   6 -10    3.03    2.20
   8  -3   7   60.29    3.65
  -8   3  -7   50.23    3.25
  -8   3  -7   57.55    3.14
  -8   3  -7   54.12    3.13
  -8   3  -7   55.41    2.86
   8  -3   7   57.99    3.02
   6   0  13    8.68    2.16
  -6   0 -13    5.41    2.35
  -6   0 -13   10.16    1.49
   6   0  13    9.66    1.63
   8   6   8    3.45    2.15
   8   6   8    2.50    1.48
   8   6   8    5.18    1.71
   8   6   8    2.44    1.92
   4  11  11   83.42    4.71
  -4 -11 -11   81.57    4.47
  -4 -11 -11   90.00    4.44
   4  11  11  102.28    4.72
   4  11  11   85.90    4.91
   1   4 -11    6.82    1.28
   1   4 -11   17.56    1.91
   1   4 -11    9.39    2.08
   1   4 -11   15.55    2.08
   6   5  14   25.28    2.03
   6   5  14   27.39    2.61
   6   5  14   22.26    2.23
  -6  -5 -14   25.62    2.44
   6   5  14   30.63    2.30
  -6  -5 -14   23.17    2.15
  -6  -5 -14   21.47    1.59
   5   5  -6   10.54    2.47
  -5  -5   6   13.10    2.51
   5   5  -6   15.64    2.03
  -1  -8 -15   12.95    1.97
   1   8  15    8.45    2.06
  -1  -8 -15    7.07    1.69
   1   8  15   10.42    1.91
  -1  -8 -15    9.53    2.16
   1   8  15    4.99    2.36
   6   3  14   54.51    3.26
  -6  -3 -14   52.36    2.70
  -6  -3 -14   36.30    1.96
   6   3  14   56.45    3.32
  -2   9  -6   -0.10    1.11
  -2   9  -6    0.34    2.23
  -2   9  -6    0.14    1.40
  -2   9  -6    0.43    0.62
  -2   9  -6    2.69    2.72
  -2   9  -6    1.53    0.68
   5 -10   0   11.31    1.63
   5 -10   0    7.99    3.13
  -5  10   0    9.37    2.75
  -5  10   0   13.39    2.93
  -5  10   0    8.63    3.26
  -5  10   0   10.70    1.78
  -3  11  -1    9.05    1.23
  -3  11  -1    8.46    2.05
  -3  11  -1    8.58    1.88
   3 -11   1    9.59    2.91
  -3  11  -1    9.67    2.72
  -3  11  -1    9.26    3.07
  -3  11  -1    5.27    2.69
   7   4  -3    3.67    2.42
   7   4  -3    4.94    1.62
  -7  -4   3    5.00    2.05
  -2  -1 -15   24.11    2.06
   2   1  15   23.43    2.14
   2   1  15   20.05    3.01
  -2  -1 -15   23.34    2.12
  -2  -1 -15   13.44    1.43
  -2  -1 -15   19.83    2.40
  -5  -9 -13   50.68    2.97
  -5  -9 -13   48.56    2.95
   5   9  13   51.17    3.08
   5   9  13   37.36    3.02
  -6   4 -10   17.49    3.21
   6  -4  10   15.62    1.55
  -6   4 -10   20.36    2.31
   6  -4  10   20.67    1.36
   5  10   2    8.70    1.95
   5  10   2    9.85    1.78
  -5 -10  -2    3.84    1.57
   5  10   2    9.31    1.81
   5  10   2    7.85    2.20
  -5  10   5    5.20    1.94
  -5  10   5    4.07    2.30
  -5  10   5    8.33    1.12
   5 -10  -5    6.36    1.85
   5 -10  -5    5.77    1.15
   0   7  15   47.79    3.53
   0   7  15   60.09    3.49
   0  -7 -15   59.95    3.67
   0   7  15   59.96    3.48
   0   7  15   56.80    3.46
   0  -7 -15   49.65    3.07
   0  -7 -15   57.32    3.34
  -3  -1 -15   43.33    3.22
  -3  -1 -15   48.37    2.91
  -3  -1 -15   43.42    2.76
   3   1  15   49.79    3.16
   3   1  15   58.83    3.98
   4   9  14   25.52    2.33
   4   9  14   23.65    2.40
  -4  -9 -14   25.46    2.16
  -4  -9 -14   23.18    2.05
   4   9  14   23.63    2.43
   6   8   0   40.35    2.93
   6   8   0   51.25    2.98
   6   8   0   46.45    3.07
  -6   9   3    0.97    1.70
   6  -9  -3    0.83    1.69
   6  -9  -3    0.62    0.85
   8  -5   3    9.50    2.41
   8  -5   3   12.44    1.21
   8  -5   3   10.17    1.16
   8  -5   3   12.15    1.19
  -8   5  -3   12.78    2.24
  -8   5  -3    9.34    3.25
   8  -5   3   13.22    2.76
  -8   5  -3    9.69    2.25
   0   2 -13   43.92    3.16
   0  -2  13   45.63    3.86
   0  -2  13   48.24    2.92
   0   2 -13   54.79    3.08
  -3   4  13   81.91    4.65
   3  -4 -13   82.73    4.34
   3  -4 -13   94.16    4.85
   3  -4 -13   90.78    5.15
  -3   4  13   96.24    4.79
   3  -4 -13   88.18    4.62
   3  -4 -13   76.94    4.86
   5  -6 -10   82.07    4.63
   5  -6 -10   80.60    4.99
   5  -6 -10   80.46    4.95
   5  -6 -10   83.02    5.27
   5  -6 -10   81.52    4.33
  -5   6  10   75.73    4.04
  -5   6  10   76.24    4.53
   8  -3  -3   79.71    4.15
   8  -3  -3   79.81    4.95
   8  -3  -3   71.88    3.90
  -8   3   3   79.62    4.99
  -8   3   3   85.02    4.70
   8  -3  -3   86.57    4.32
   5  -4  11   28.45    2.99
  -5   4 -11   24.30    2.75
  -5   4 -11   18.83    3.21
  -5   4 -11   25.12    2.46
   5  -4  11   27.58    1.81
  -5   4 -11   30.23    1.71
   6  -8  -6   24.85    2.55
   6  -8  -6   24.24    1.87
   6  -8  -6   18.55    3.04
   6  -8  -6   23.66    3.44
  -6   8   6   25.52    2.36
   6  -8  -6   18.84    3.43
   6  -3  11   36.67    1.93
  -6   3 -11   21.28    3.42
   6  -3  11   21.00    1.77
  -3   5  13   61.78    3.66
  -3   5  13   63.49    3.78
   3  -5 -13   64.21    3.95
   3  -5 -13   54.94    4.03
   3  -5 -13   58.36    3.23
   3  -5 -13   68.39    4.41
   3  -5 -13   61.01    3.58
  -6   9   0   15.26    1.80
  -6   9   0   16.46    3.51
  -6   9   0   10.93    1.21
   6  -9   0   18.97    1.80
  -6   9   0   18.17    2.78
   6  -9   0   16.92    3.40
  -3   0  12   -1.56    2.56
   3   0 -12   -1.53    1.97
   3   0 -12   -0.12    1.76
   3   0 -12    1.23    1.83
   3   0 -12    1.12    2.21
  -3   0  12    0.41    1.59
   5   4  -7    2.02    2.47
  -5  -4   7   -0.08    2.31
   5   4  -7    0.97    1.74
  -1   1  14   68.43    3.87
   1  -1 -14   65.64    3.76
  -1   1  14   70.12    4.61
   1  -1 -14   64.90    3.91
   1  -1 -14   64.76    3.86
   5   4  15    3.46    1.69
   5   4  15    1.94    2.08
  -5  -4 -15    1.65    1.66
   5   4  15    1.35    1.45
  -5  -4 -15    1.04    1.20
  -5  -4 -15    1.57    1.99
  -7   7  -3   26.66    2.88
  -7   7  -3   17.84    1.49
   7  -7   3   23.67    2.69
  -7   7  -3   17.02    1.68
  -7   7  -3   20.99    3.63
   7  -7   3   21.49    1.53
   8   6   4   69.30    3.56
  -8  -6  -4   57.62    3.87
   8   6   4   49.83    3.56
   8   6   4   54.18    3.43
   8   6   4   54.07    3.21
   8   6   4   57.01    3.29
   5   6  -5    7.64    2.56
  -5  -6   5   19.28    2.77
   5   6  -5   20.61    2.12
  -2   4 -12    5.28    2.42
  -2   4 -12    5.38    1.56
  -2   4 -12   12.27    1.52
  -2   4 -12    9.99    1.66
   2  -4  12    9.64    2.76
   2  -4  12   10.87    1.43
  -4   9  -5   15.99    2.85
  -4   9  -5   18.82    2.83
  -4   9  -5   15.48    2.09
  -4   9  -5   13.55    1.66
  -4   9  -5   12.63    2.47
  -7  -3   4    5.24    2.08
   7   3  -4    3.51    1.80
  -8  -3   1   22.64    2.12
  -8  -3   1   19.09    2.39
   8   3  -1   20.23    1.98
   8   3  -1   21.02    2.07
   5   5  15   37.21    2.65
  -5  -5 -15   40.94    2.63
   5   5  15   41.08    2.99
  -5  -5 -15   35.52    2.77
  -5  -5 -15   34.52    2.21
   5   5  15   34.18    2.85
   5   5  15   38.06    2.49
  -5   5 -10    8.15    0.69
  -5   5 -10   14.54    2.91
  -5   5 -10   15.89    1.86
  -5   5 -10   20.57    0.99
  -5   5 -10    7.16    0.65
  -5   5 -10   18.63    2.39
  -5   5 -10   23.37    2.47
   5  -5  10   16.81    1.13
  -4 -10 -13    1.63    1.55
   4  10  13    2.61    1.71
  -4 -10 -13    3.95    1.77
  -4 -10 -13   -0.31    1.68
   4  10  13    0.99    1.98
   4  10  13    2.38    2.21
  -2  11  -2   -0.86    2.81
  -2  11  -2    2.36    1.73
  -2  11  -2    2.16    1.82
   3  -5  11    7.30    2.81
   3  -5  11    8.55    1.22
  -3   5 -11    8.86    1.46
  -3   5 -11    6.25    2.48
  -3   5 -11    5.42    2.56
  -3   5 -11    9.92    1.25
  -3   5 -11    7.06    2.27
  -3   5 -11    7.81    1.16
  -1   6 -10   23.53    1.79
  -1   6 -10   14.90    2.26
  -1   6 -10   20.38    2.79
   1  -6  10   17.27    3.09
  -1   5 -11   17.47    2.08
   1  -5  11   30.04    3.37
  -1   5 -11   15.32    2.36
   7  -6  -5   46.14    3.94
   7  -6  -5   44.36    2.72
  -7   6   5   42.48    3.44
   7  -6  -5   38.00    3.82
  -7   6   5   43.64    3.70
   7  -6  -5   47.78    3.09
  -7  -5   2    3.22    1.08
   7   5  -2    6.17    1.69
   7   5  -2    3.68    2.39
  -7  -5   2    7.97    2.10
  -6   7  -6   15.44    3.25
  -6   7  -6   20.27    2.57
  -4  11   1    3.65    2.99
   4 -11  -1    1.17    1.53
  -4  11   1    0.25    2.66
  -4  11   1    2.97    1.27
  -4  11   1   -0.13    2.99
   4 -11  -1    2.48    2.96
  -4  11   1   -0.49    2.10
  -4  11   1   -0.09    1.76
   2  -5 -14   62.89    3.87
  -2   5  14   66.56    3.84
   2  -5 -14   69.57    3.58
   2  -5 -14   55.42    3.24
  -2   5  14   67.97    3.86
   2  -5 -14   61.61    4.09
  -3 -12  -4   57.15    3.77
   3  12   4   55.99    3.95
   3  12   4   58.69    3.17
   3  12   4   52.74    3.22
  -8   0   3    1.92    2.34
   8   0  -3    2.37    1.90
   8   0  -3    1.69    2.53
   8   0  -3    4.46    1.76
   8   0  -3    3.83    1.46
  -8   0   3    3.65    1.75
  -8   5   1   -1.44    2.86
   8  -5  -1   -0.62    1.24
   8  -5  -1   -1.40    2.77
   8  -5  -1   -2.72    2.52
   8  -5  -1   -1.23    1.73
  -8   5   1    0.57    2.24
   5   8  14   42.20    2.88
  -5  -8 -14   42.01    2.72
   5   8  14   33.14    2.55
   5   8  14   38.64    2.78
   5   8  14   44.89    2.86
  -5  -8 -14   46.53    2.98
  -5  -8 -14   42.87    2.64
   6  -6  -8   -0.13    2.82
   6  -6  -8   -2.37    3.24
   6  -6  -8   -0.62    2.11
  -6   6   8    0.56    1.44
   6  -6  -8    0.64    1.69
   6  -6  -8    0.33    2.97
  -9  -1  -4   21.32    3.12
   9   1   4   24.25    1.92
   9   1   4   20.65    2.13
   9   1   4   24.95    2.51
   2  10  -3    6.66    1.82
   2  10  -3    8.03    2.61
   2  10  -3    8.27    1.52
   2  -4 -14   28.95    3.16
  -2   4  14   30.50    2.52
   2  -4 -14   27.84    2.28
   2  -4 -14   21.05    2.84
   2  -4 -14   30.09    2.77
   8   5  10   31.85    2.43
   8   5  10   30.13    2.13
  -8  -5 -10   36.42    2.51
  -9   0  -4   21.46    3.21
   9   0   4   22.58    2.06
   9   0   4   23.65    1.88
   5  11   7   54.74    3.47
   5  11   7   50.30    3.53
   5  11   7   48.08    3.30
   7   7   1    8.01    2.21
   7   7   1    8.85    1.85
   7   7   1    8.00    1.78
  -7  -7  -1    5.88    1.66
  -6   5  -9   21.94    2.57
  -6   5  -9   14.85    3.17
   6  -5   9    9.43    0.57
  -2  12   8   10.22    2.22
   2 -12  -8   11.47    2.04
  -2  12   8   10.47    2.96
   2 -12  -8    9.37    3.26
  -2  12   8    5.04    0.58
   2 -12  -8   14.70    1.57
  -2  12   8   11.56    2.58
  -2  12   8   12.95    1.47
   9   1   5   45.49    2.87
  -9  -1  -5   39.84    3.64
   9   1   5   42.13    2.55
   9   1   5   45.19    2.44
   8   4   0   26.10    2.17
  -8  -4   0   23.25    2.21
   8   4   0   25.53    2.97
  -8  -4   0   25.33    2.53
   8   4   0   24.89    2.22
   1  12   1   36.44    2.31
  -1 -12  -1   32.14    2.88
   1  12   1   33.13    2.76
   1  12   1   42.71    2.56
   1  12   1   39.90    3.50
  -5   1  10   60.71    3.94
   5  -1 -10   60.18    3.74
   5  -1 -10   56.56    3.49
   5  -1 -10   51.64    3.45
  -3   6 -10    3.27    2.48
  -3   6 -10    9.56    2.54
  -3   6 -10   10.72    1.14
  -3   6 -10    7.10    2.42
   3  -6  10   10.72    2.77
  -3   6 -10    6.66    1.22
   2  12   2   -1.47    1.90
   2  12   2   -0.80    1.39
  -2 -12  -2    2.46    2.20
   2  12   2    0.01    1.49
   2  12   2   -1.60    2.48
  -1   1 -14   14.31    2.38
  -1   1 -14   14.76    2.07
  -1   1 -14    9.70    1.83
   1  -1  14   10.55    1.87
   1  -1  14   13.21    2.87
   3   2 -11   32.33    2.55
   3   2 -11   33.21    2.38
   3   2 -11   30.46    2.22
  -3  -2  11   27.28    3.12
  -6   8  -4   24.77    3.68
  -6   8  -4   31.42    3.12
  -6   8  -4   27.40    1.88
   4   8  -4   51.43    3.05
  -4  -8   4   54.95    4.09
   4   8  -4   46.12    3.41
   5  11   8   25.06    2.51
   5  11   8   24.57    2.60
   5  11   8   21.45    2.24
   5  11   8   30.88    2.36
   7   8  10   61.40    3.75
  -7  -8 -10   71.24    3.90
   7   8  10   69.02    3.68
  -2   7  -9    1.35    1.05
  -2   7  -9    0.26    1.34
   2  -7   9    0.44    2.67
  -2   7  -9    1.03    2.13
  -2   7  -9    1.94    2.63
   9   0   3   12.35    1.84
   9   0   3   14.09    1.73
   9   0   3   13.85    1.68
   9   0   3   13.72    2.17
  -9   0  -3   13.88    2.99
   8   2  -2   43.30    2.91
   8   2  -2   46.95    2.92
  -8  -2   2   39.43    3.02
  -8  -2   2   46.50    2.95
   8   2  -2   41.64    2.73
   6  10   7   59.84    3.53
   6  10   7   72.89    3.68
   6  10   7   55.75    3.61
   6  10   7   60.60    3.65
   6   0  -8   -0.97    2.06
  -6   0   8    0.49    2.15
   6   0  -8    0.25    1.75
   6   0  -8    1.18    2.39
   6   0  -8    0.23    2.07
  -8   0 -10    2.86    1.40
  -8   0 -10    3.64    2.01
   8   0  10    2.23    2.05
   8   0  10    2.90    1.38
  -3   4 -12   13.84    2.86
  -3   4 -12   17.83    2.67
  -3   4 -12   10.00    1.52
   3  -4  12   23.51    1.80
  -3   4 -12   17.17    1.69
   3  -4  12   21.46    3.05
   4 -11  -6   24.81    2.37
  -4  11   6   27.38    2.50
   4 -11  -6   24.05    1.70
  -4  11   6   26.06    2.87
  -4  11   6   25.66    1.83
   2  10  14   22.86    2.03
  -2 -10 -14   23.60    2.36
  -2 -10 -14   22.64    1.94
   2  10  14   24.62    2.53
   2  10  14   24.74    2.25
   2  10  14   18.26    2.58
  -2 -10 -14   22.67    2.19
  -5   3 -12    1.69    2.81
   5  -3  12    6.16    2.52
  -5   3 -12    6.63    1.19
   5  -3  12    5.76    1.30
  -5   3 -12    5.02    2.33
   6   9   2   60.98    3.46
   6   9   2   51.34    3.38
   6   9   2   52.42    3.38
   1  12  11   64.66    4.08
  -1 -12 -11   67.72    3.60
   1  12  11   68.23    4.45
  -1 -12 -11   66.74    3.88
  -1 -12 -11   75.89    4.79
  -1 -12 -11   64.07    3.69
   1  12  11   68.33    3.71
   3  -3 -13   52.86    3.81
   3  -3 -13   62.35    3.83
   3  -3 -13   62.09    3.43
  -3   3  13   62.91    3.69
   4   0 -11   25.58    2.53
   4   0 -11   20.29    2.64
  -4   0  11   23.15    2.95
  -4   0  11   22.59    2.17
   4   0 -11   24.23    2.26
  -9   0  -5    5.55    2.94
   9   0   5    3.17    1.05
   9   0   5    5.48    1.35
   9   0   5    3.99    1.54
  -4   9  10    4.82    1.63
   4  -9 -10    6.68    1.60
   4  -9 -10    4.95    2.24
   4  -9 -10    3.41    3.03
   4  -9 -10    6.15    3.27
  -4   9  10    6.98    2.41
  -4   9  10    5.04    2.02
   4  -9 -10    4.00    0.87
   3  10  -2   18.78    2.19
   3  10  -2   16.70    2.79
   3  10  -2   22.08    1.89
   0   9  -6   11.85    1.55
   0   9  -6   15.83    1.52
   0   9  -6   12.08    1.85
   6  10   8   20.20    2.27
   6  10   8   27.02    2.37
   6  10   8   20.50    2.17
   6  10   8   21.01    2.11
   2  11  -1    0.30    1.77
   2  11  -1    3.02    2.44
   2  11  -1    0.65    1.31
   2  11  -1    1.58    1.35
  -5  -3 -15   47.87    2.78
  -5  -3 -15   37.47    3.10
   5   3  15   44.08    2.92
   5   3  15   45.04    3.31
  -5  -3 -15   38.64    2.26
   5  11   6   30.10    2.51
   5  11   6   34.14    2.39
   5  11   6   34.84    2.74
   5  11   6   33.26    2.80
   6   6  14    9.44    2.23
   6   6  14    9.68    1.76
   6   6  14   15.86    1.88
  -6  -6 -14   10.15    1.81
  -6  -6 -14   11.53    2.04
   6   6  14   10.81    1.90
  -6  -6 -14    8.10    1.34
   9   1   3   22.62    2.43
   9   1   3   23.24    2.13
   9   1   3   20.20    1.93
  -9  -1  -3   24.37    3.15
   7   0  12   19.48    1.81
  -7   0 -12   15.84    2.42
   3  12  10    7.01    2.28
   3  12  10    8.49    1.73
  -3 -12 -10    4.84    1.90
   3  12  10    6.27    1.70
   3  -6 -13   28.93    2.90
  -3   6  13   28.64    2.77
   3  -6 -13   25.40    3.18
   3  -6 -13   32.14    3.43
  -3   6  13   29.93    2.44
   3  -6 -13   27.44    2.40
   6   2  14   21.31    2.31
  -6  -2 -14   22.33    2.02
   6   2  14   23.08    2.07
  -8  -6  -9    4.59    1.69
   8   6   9    4.98    1.69
   8   6   9    3.80    1.49
   8   6   9    3.31    1.95
  -2   0  13   68.57    3.81
   2   0 -13   68.30    3.64
   2   0 -13   66.30    3.68
   2  -6 -14   56.54    4.11
  -2   6  14   65.89    3.86
   2  -6 -14   67.80    4.35
  -2   6  14   67.17    3.76
   2  -6 -14   66.00    3.77
  -2   6  14   58.49    3.78
  -2   6  14   66.16    3.76
   2  -6 -14   65.30    4.01
   5  -8  -9   -0.42    2.92
  -5   8   9    1.41    1.48
  -5   8   9   -0.67    1.91
   5  -8  -9   -1.85    2.13
   5  -8  -9    0.06    1.47
   5  -8  -9    0.74    3.22
  -5   0 -14    1.12    0.68
  -5   0 -14    1.23    1.38
   5   0  14    0.98    1.45
   5   0  14    2.63    2.14
   9   2   5   47.36    3.14
  -9  -2  -5   42.55    3.69
   9   2   5   37.76    2.73
   9   2   5   38.46    2.35
   9   2   5   39.19    2.44
  -8   4  -6   36.95    2.80
  -8   4  -6   42.93    2.23
  -8   4  -6   34.72    2.63
  -8   4  -6   41.54    2.76
   8  -4   6   37.49    3.04
   8  -4   6   39.12    2.10
   8  -4   6   42.83    2.18
  -7  -4 -13   44.61    2.80
   7   4  13   43.06    2.29
   7   4  13   34.95    2.23
   6   2  -7   48.80    3.30
   6   2  -7   47.88    3.42
  -6  -2   7   50.98    3.68
   3 -11  -9    7.38    1.44
   3 -11  -9    7.41    2.07
  -3  11   9    4.74    2.14
  -3  11   9    6.47    1.44
   7  -5  -6   13.42    3.33
   7  -5  -6    9.57    2.98
   7  -5  -6   11.84    1.12
   7  -5  -6   10.45    2.90
   7  -5  -6   16.31    2.30
   7  -5  -6   15.82    1.82
   5   6  15    3.96    1.75
  -5  -6 -15    4.07    1.77
  -5  -6 -15    2.69    1.38
   5   6  15    1.60    1.68
   5   6  15    3.66    1.92
   5   6  15    1.21    2.03
  -5  -6 -15    4.56    2.01
  -1   7  -9    9.26    1.62
  -1   7  -9   10.50    2.04
   1  -7   9   12.35    2.93
  -1   7  -9   12.31    1.53
   6  -9  -4    2.44    1.82
  -6   9   4    1.69    1.78
   6  -9  -4    1.98    1.08
  -3  10  -4    3.51    2.61
  -3  10  -4    2.12    1.55
  -3  10  -4    4.37    1.47
  -3  10  -4    2.87    2.48
  -3  10  -4    3.93    2.76
   7   0  -6   43.19    3.57
   7   0  -6   45.42    3.18
  -7   0   6   50.61    3.43
   7   0  -6   50.12    3.14
   6  10   6   85.45    4.25
   6  10   6   72.99    4.20
   6  10   6   75.91    4.27
   6  10   6   77.63    4.25
   6  10   6   77.51    4.09
  -1   4 -12    8.44    1.77
  -1   4 -12    6.99    2.23
   1  -4  12   13.09    2.76
  -1   4 -12    8.98    1.84
  -1   4 -12   14.20    1.71
   1  -4  12   13.59    1.64
  -4  10  -3   13.48    2.89
  -4  10  -3    7.36    2.88
  -4  10  -3    8.86    2.68
  -4  10  -3   10.09    1.78
  -4  10  -3   10.97    1.93
  -1  -1 -15    0.65    2.06
  -1  -1 -15    0.58    1.77
  -1  -1 -15    1.58    1.75
   1   1  15   -0.43    2.65
   1   1  15    3.96    1.71
  -1  -1 -15    1.21    1.98
   6  -2  12   22.81    1.68
   6  -2  12   28.24    2.78
  -6   2 -12   32.25    2.02
  -6   2 -12   29.51    2.93
  -2 -12 -11    3.68    1.92
   2  12  11    6.53    1.69
   2  12  11    7.12    1.69
  -2 -12 -11    5.96    1.62
  -2 -12 -11    6.30    1.65
   2  12  11    4.25    2.65
   2  12  11    5.31    2.25
   7   3  13   16.62    1.95
   7   3  13   13.94    1.57
  -7  -3 -13   14.08    1.86
  -2  12   1    1.13    2.17
  -2  12   1    1.00    2.74
  -2  12   1   -0.39    1.10
  -2  12   1    0.35    0.50
  -2  12   1    0.56    1.83
  -2  12   1    0.06    0.58
   2 -12  -1    1.11    2.70
   1   8  -7   23.72    1.92
   1   8  -7   20.17    2.06
  -1  -8   7   20.22    3.16
   4  11   2   56.15    3.17
  -4 -11  -2   46.11    2.85
   4  11   2   52.14    3.17
   4  11   2   48.19    3.67
   9   1   6   18.43    1.40
   9   1   6   16.29    1.60
  -9  -1  -6   17.43    3.13
   9   1   6   22.60    1.99
  -4   4  12   33.95    2.78
   4  -4 -12   31.45    3.00
   4  -4 -12   29.86    2.98
   4  -4 -12   34.34    3.42
   4  -4 -12   30.54    2.21
  -4   4  12   30.14    2.44
   4  -4 -12   29.44    2.58
  -9  -2  -4   25.62    3.18
   9   2   4   29.95    2.70
   9   2   4   27.76    2.34
   9   2   4   28.16    2.11
   6   7  -2   55.09    3.25
   6   7  -2   53.03    3.24
  -6  -7   2   62.89    4.12
  -5   6  -9   29.74    1.59
  -5   6  -9   32.20    3.40
  -5   6  -9   40.90    2.83
  -5   6  -9   24.08    1.52
  -5   6  -9   39.11    2.61
  -5   6  -9   45.26    3.12
   5  10  12    6.50    1.80
   5  10  12    9.61    2.02
  -5 -10 -12    5.83    1.75
  -5 -10 -12    6.24    1.75
   5  10  12    8.34    2.16
   1  10  14   51.47    3.35
  -1 -10 -14   45.29    2.75
   1  10  14   47.81    2.83
  -1 -10 -14   47.41    3.21
   1  10  14   52.99    3.20
   1  10  14   42.43    3.52
  -1 -10 -14   51.05    3.05
  -5   8  -6    9.07    2.25
  -5   8  -6    9.72    2.94
  -5   8  -6   15.18    2.02
  -5   8  -6   13.81    2.54
  -5   8  -6    9.51    1.35
  -4  -2  10    0.43    2.43
   4   2 -10   -1.14    1.91
   4   2 -10    0.49    2.15
   4   2 -10   -0.29    1.87
   4   2 -10   -0.37    0.83
  -6   9  -1   19.23    2.91
  -6   9  -1   14.27    1.54
   6  -9   1   18.86    1.75
  -6   9  -1   13.95    3.46
  -6   9  -1   15.01    1.81
  -4   8  -7   22.48    2.39
  -4   8  -7   24.93    3.03
  -4   8  -7   17.71    1.65
  -4   8  -7   17.16    2.40
  -4   8  -7   21.35    3.10
   0  -2 -15   60.36    3.82
   0   2  15   68.75    3.86
   0   2  15   68.50    4.60
   0  -2 -15   71.84    3.79
   0  -2 -15   62.60    3.77
   0  -2 -15   63.84    3.88
   9  -1   3   37.16    2.36
   9  -1   3   37.38    2.40
  -9   1  -3   37.94    3.42
   9  -1   3   37.31    3.42
  -9   1  -3   17.78    1.07
   9  -1   3   35.91    2.51
   2 -10 -12   41.15    2.41
   2 -10 -12   49.57    2.89
  -2  10  12   47.46    2.96
  -2  10  12   45.22    3.54
   7  -7  -4    8.16    2.14
   7  -7  -4    7.02    3.07
   7  -7  -4    3.30    2.81
   7  -7  -4    3.00    1.39
   7  -7  -4    7.04    3.15
  -7   7   4    4.95    2.87
   9  -1   4    5.60    2.73
   9  -1   4    9.05    1.96
   9  -1   4    6.98    1.46
   9  -1   4    9.33    1.59
   9  -1   4    7.73    1.39
  -9   1  -4    6.49    3.02
  -8  -3 -11    4.84    1.59
   8   3  11    4.94    1.26
   8   3  11    8.11    1.72
   8   3  11    6.72    2.21
  -8   5  -4   31.46    2.75
   8  -5   4   30.79    2.88
  -8   5  -4   30.44    2.65
   8  -5   4   30.04    1.69
   5  11   9   68.32    4.16
   5  11   9   72.10    4.08
   5  11   9   75.48    4.28
   5  11   9   76.89    4.02
  -5  -3   8    6.62    2.49
   5   3  -8    8.62    2.78
   5   3  -8    6.76    2.09
  -2  -5 -16   27.98    2.58
  -2  -5 -16   30.96    2.65
   2   5  16   27.60    2.34
   2   5  16   30.68    2.38
  -2  -5 -16   34.17    2.61
   2   5  16   22.36    2.30
  -2   3  14   11.41    2.00
   2  -3 -14    8.99    2.36
   2  -3 -14    5.33    1.92
   2  -3 -14    5.65    2.61
   2  -3 -14    4.73    2.28
  -3  12   4    8.03    2.05
  -3  12   4    7.76    2.40
  -3  12   4    6.63    0.97
   3 -12  -4    5.63    3.26
   3 -12  -4    8.83    1.84
  -7  -2   5    6.50    2.18
   7   2  -5    8.93    2.02
   9   2   6   33.63    2.22
   9   2   6   35.71    2.12
   9   2   6   39.74    2.61
  -9  -2  -6   33.11    3.54
  -4   1 -14   11.07    1.57
   4  -1  14   10.43    1.59
   4  -1  14    6.85    2.48
  -4   1 -14    8.28    1.35
   7   8   3   11.94    1.79
   7   8   3   10.99    1.96
   7   8   3    9.63    1.96
   7   8   3    9.88    2.09
  -5  10  -1   20.46    1.58
  -5  10  -1   18.28    2.87
   5 -10   1   21.55    1.85
  -5  10  -1   27.43    3.16
  -5  10  -1   18.20    1.88
   5 -10   1   14.65    3.38
  -5  10  -1   17.72    3.42
   2  11  13   29.85    2.41
  -2 -11 -13   25.81    2.29
   2  11  13   29.79    2.24
   2  11  13   27.05    3.04
   2  11  13   33.51    2.82
  -2 -11 -13   25.77    2.44
  -2 -11 -13   28.54    2.10
  -3   9  -6   11.64    1.57
  -3   9  -6   11.14    2.68
  -3   9  -6   13.48    2.99
  -3   9  -6   12.67    2.37
  -5   9  -4   21.23    1.84
  -5   9  -4   19.66    2.83
  -5   9  -4   15.49    3.16
  -5   9  -4   20.41    2.14
  -5   9  -4   23.28    2.89
   4  -5 -12   -2.86    3.02
   4  -5 -12    0.80    2.52
  -4   5  12    0.75    1.70
   4  -5 -12   -0.74    1.81
   4  -5 -12    1.57    1.33
  -4   5  12   -1.09    2.15
   1   3 -12   11.52    2.15
   1   3 -12   16.61    2.03
  -1  -3  12   10.46    1.71
   5   7  -4    7.43    1.82
  -5  -7   4    8.41    2.67
   5   7  -4    5.89    2.32
   9   0   2    7.30    2.04
  -9   0  -2    8.19    2.90
   9   0   2    7.43    1.56
   9   0   2    7.93    1.70
  -9   0  -2    4.52    0.74
   1 -10 -13   20.84    2.16
  -1  10  13   14.67    2.33
  -1  10  13   12.75    2.59
  -1  10  13   17.28    1.95
   1 -12 -10    1.60    1.46
  -1  12  10    0.19    2.77
  -1  12  10    0.01    0.96
   1 -12 -10   -1.50    3.25
  -1  12  10    3.74    1.63
  -1  12  10    3.39    2.22
  -5   9   8   22.44    1.92
  -5   9   8   25.74    2.45
   5  -9  -8   26.23    2.60
   5  -9  -8   26.32    2.04
  -2  -2  12   19.29    3.13
  -2  -2  12   22.29    2.06
   2   2 -12   12.09    1.70
   2   2 -12   22.42    1.80
   2   2 -12   22.75    2.38
   2   2 -12   20.25    2.14
   3   5  16    2.71    1.73
  -3  -5 -16    0.74    1.75
  -3  -5 -16    1.98    1.97
  -3  -5 -16   -0.28    1.72
   3   5  16    0.46    2.22
   3   5  16    1.56    1.83
   3   5  16   -0.16    1.73
  -3  12   5    3.07    2.41
  -3  12   5    6.90    2.12
   3 -12  -5    7.15    1.84
   3 -12  -5    7.13    3.28
  -3  12   5    4.75    1.09
  -3  12   5    4.33    0.66
   7   6  -1    7.83    1.77
  -7  -6   1    5.26    2.15
  -7  -6   1    1.64    1.03
   7   6  -1    2.70    2.24
   8  -4  -3   33.76    3.33
  -8   4   3   35.88    3.64
   8  -4  -3   34.63    2.73
   8  -4  -3   35.75    2.44
   8  -4  -3   37.85    3.69
  -8   4   3   36.94    3.05
   4   8  15   40.22    2.82
   4   8  15   38.54    2.83
   4   8  15   37.37    2.82
  -4  -8 -15   37.03    2.56
   6  10   9    9.78    1.88
   6  10   9    9.62    2.05
   6  10   9    7.45    1.80
   6  10   9    9.12    2.04
   1  11  -2   21.35    1.72
   1  11  -2   18.40    2.16
   1  11  -2   23.53    3.09
   1  11  -2   19.86    1.74
   1  10  -4   29.09    3.31
   1  10  -4   25.54    2.32
   1  10  -4   29.13    2.07
   4   1  15   15.44    1.90
  -4  -1 -15   17.12    1.72
  -4  -1 -15   17.77    1.92
   4   1  15   16.92    2.69
   1  11  13    1.34    1.64
   1  11  13    1.48    1.44
  -1 -11 -13    2.33    1.99
  -1 -11 -13    1.74    1.43
   1  11  13    0.97    2.35
   1  11  13    2.79    2.57
  -1 -11 -13    1.67    1.62
   1  11  13    2.04    2.15
   5 -10  -6    9.53    1.30
  -5  10   6    8.32    1.98
  -5  10   6    7.49    1.22
   5 -10  -6    7.11    2.03
   6   8  13   10.33    1.84
   6   8  13    8.85    1.91
  -6  -8 -13    7.58    1.54
  -4   8  11   51.26    3.33
   4  -8 -11   47.12    3.94
   4  -8 -11   45.66    4.22
  -4   8  11   48.79    3.54
   4  -8 -11   48.45    3.02
  -4   8  11   49.72    3.08
  -8  -2 -11    5.15    2.11
  -8  -2 -11    8.18    1.60
   8   2  11    7.71    1.58
   8   2  11    2.99    0.83
   8   2  11    6.16    2.17
   8   6   3   45.08    2.89
  -8  -6  -3   37.54    3.09
   8   6   3   31.44    2.71
   8   6   3   37.31    2.54
   8   6   3   37.06    2.60
   8   6   3   31.32    2.98
  -2   3 -13    2.63    1.66
   2  -3  13    4.96    1.52
   2  -3  13    6.40    2.61
  -2   3 -13    1.66    1.56
   3  11   0   10.88    2.04
   3  11   0    9.37    1.70
   3  11   0   10.94    2.68
   3  11   0   11.74    1.83
   8   5   1   28.28    2.95
   8   5   1   31.60    2.34
  -8  -5  -1   29.60    2.22
  -8  -5  -1   30.94    2.71
   9   0   6   -0.31    0.70
  -9   0  -6    0.21    2.83
   9   0   6   -3.15    2.00
   9   0   6   -0.06    1.43
   9   0   6    0.81    2.42
   3  10  14    8.26    2.15
   3  10  14    8.86    2.32
   3  10  14    9.51    1.80
  -3 -10 -14    5.68    1.88
   3  10  14    6.18    1.81
  -3 -10 -14    6.73    1.60
   4  -3 -12   49.78    3.54
   4  -3 -12   56.55    3.74
  -4   3  12   63.97    3.72
  -4   3  12   60.54    3.57
   2   4  16    2.18    1.75
   2   4  16    1.91    1.64
  -2  -4 -16    0.20    1.94
  -2  -4 -16   -1.07    1.75
   2   4  16    1.60    2.36
   7   5  13   29.28    2.07
   7   5  13   27.36    1.65
  -7  -5 -13   30.79    2.34
   7   5  13   35.01    2.51
  -3   7  -9   18.50    3.04
  -3   7  -9   12.34    2.79
  -3   7  -9   15.81    1.53
  -3   7  -9   19.60    2.65
  -3   7  -9   18.71    1.20
   3  -7   9   16.05    2.91
   7  -6   6   20.04    2.42
  -7   6  -6   20.75    2.51
  -7   6  -6   17.42    1.98
  -7   6  -6   18.45    3.72
  -2  -6 -16   68.59    3.93
   2   6  16   76.96    4.04
   2   6  16   78.31    4.01
  -2  -6 -16   73.32    4.04
   2   6  16   72.27    3.61
  -9   1  -2   15.72    1.22
   9  -1   2   23.49    2.05
  -9   1  -2   23.36    3.15
   9  -1   2   21.32    1.91
  -3  12   3   -0.06    0.61
   3 -12  -3   -1.74    3.05
  -3  12   3    1.83    1.90
   3 -12  -3    0.15    1.67
  -3  12   3   -0.57    2.27
  -8  -4 -11   21.20    1.98
   8   4  11   22.98    2.18
   8   4  11   16.02    1.47
  -8   5   2    0.82    2.91
   8  -5  -2    2.37    1.81
  -8   5   2    1.65    2.25
   8  -5  -2    1.76    1.35
   8  -5  -2    1.44    2.79
   8  -5  -2    4.60    2.60
   5  11   5    8.68    2.19
   5  11   5    8.26    2.05
   5  11   5    4.77    1.79
   5  11   5   10.60    1.74
   3   4  16    3.16    1.71
   3   4  16    1.51    2.42
   3   4  16    4.02    1.76
  -3  -4 -16    3.18    1.80
  -3  -4 -16    3.78    2.03
  -3  -4 -16    2.39    1.78
  -4  11   0    1.17    1.74
   4 -11   0    2.59    1.53
  -4  11   0    3.49    2.09
  -4  11   0    3.21    1.48
  -4  11   0    3.18    0.69
  -4  11   0    3.41    3.03
  -4  11   0    2.50    2.65
  -4  11   0   -2.86    2.94
   4 -11   0    4.70    3.09
  -4  10   9    9.83    2.13
   4 -10  -9   14.83    1.62
  -4  10   9   12.24    1.61
   4 -10  -9   10.86    2.22
   0 -12 -11    5.14    1.50
   0 -12 -11    4.11    1.60
   0  12  11    5.29    1.29
   0 -12 -11    2.24    3.21
   0  12  11    4.69    2.82
   0  12  11    7.07    1.68
  -9  -2  -3   23.66    3.07
   9   2   3   30.78    2.71
   9   2   3   27.83    2.18
   9  -1   5    0.29    0.78
   9  -1   5    0.25    1.40
  -9   1  -5    2.72    2.97
   9  -1   5   -0.88    2.57
   9  -1   5    1.81    1.92
   2   9  15    5.63    1.72
   2   9  15    1.38    2.21
   2   9  15    3.02    1.85
  -2  -9 -15    2.78    1.96
   2   9  15    3.67    2.11
   9   1   2   38.96    2.55
   9   1   2   35.28    2.51
   9   1   2   38.32    2.89
  -9  -1  -2   30.36    3.35
  -7   3 -10   19.46    3.70
   7  -3  10   38.17    2.10
  -7   3 -10   26.24    2.54
  -7   3 -10   17.94    1.37
   7  -3  10   28.20    2.39
  -6   6  -8   10.01    3.04
  -6   6  -8   12.49    2.46
   3   9  -4   11.07    1.79
  -3  -9   4   15.70    2.87
   3   9  -4   13.17    1.98
   3   9  -4   16.20    2.69
  -2  -9   5   55.12    4.19
   2   9  -5   59.55    3.17
   2   9  -5   55.05    4.08
   2   9  -5   49.86    3.28
   3   6  16   33.98    2.68
  -3  -6 -16   33.34    2.57
  -3  -6 -16   31.63    2.54
   3   6  16   37.25    2.57
   3   6  16   26.14    2.56
  -1  12   0   -0.17    1.82
   1 -12   0    0.82    2.52
  -1  12   0   -0.04    0.86
  -1  12   0    0.18    0.87
  -1  12   0    0.96    2.18
  -1  12   0   -0.86    1.33
  -7  -2 -13   -0.80    2.15
  -7  -2 -13    1.97    1.53
   7   2  13    0.64    1.55
   7   2  13    1.13    1.53
   6  10   5   27.16    2.42
   6  10   5   25.76    2.42
   6  10   5   30.30    2.29
   6  10   5   26.58    2.44
   0  13   6   11.54    1.46
   0  13   6   10.31    2.35
   0 -13  -6    9.24    3.12
   0  13   6    9.81    2.94
   0  13   6    7.57    2.40
   0 -13  -6    9.46    1.96
   8   1  -3    8.52    1.98
  -8  -1   3    4.86    2.30
  -8  -1   3    7.09    1.95
   8   1  -3    8.13    1.64
   8   1  -3    6.07    1.83
  -1  11  12   43.12    2.80
   1 -11 -12   42.12    2.72
   1 -11 -12   40.61    2.40
   2  -9 -13   20.07    3.38
  -2   9  13   27.33    2.62
  -2   9  13   29.73    2.28
  -2   9  13   18.93    2.71
   2  -9 -13   31.60    2.36
   0  12   0   28.96    2.49
   0  12   0   28.91    1.85
   0 -12   0   23.68    2.76
   0  12   0   26.38    1.85
   0  12   0   30.91    2.17
   0  -8 -15   79.87    4.22
   0  -8 -15   94.90    4.79
   0   8  15   94.66    4.84
   0   8  15   92.35    4.72
   0   8  15   78.81    4.82
   7   7  12    1.81    1.67
   7   7  12    3.29    1.76
   7   7  12    4.27    1.58
  -3   3 -13    3.21    1.36
   3  -3  13    2.62    1.46
   3  -3  13    3.80    2.53
  -3   3 -13    6.26    1.50
  -3   3 -13    1.92    1.18
  -1   5  15    6.07    1.94
  -1   5  15    4.64    1.91
   1  -5 -15    4.41    2.58
   1  -5 -15    4.08    2.29
   3  12   3   38.31    2.49
  -3 -12  -3   41.35    3.09
   3  12   3   33.72    2.51
   3  12   3   32.90    3.25
  -1 -13  -6    2.38    2.87
   1  13   6    2.21    1.35
   1  13   6   -1.03    2.64
   1  13   6    1.30    2.08
  -7   4  -9   22.95    2.39
   7  -4   9   21.92    2.11
  -7   4  -9   19.79    2.42
   7  -4   9   21.10    1.32
  -7   4  -9   17.33    3.47
   5   9  -1   14.54    2.31
   5   9  -1   13.99    1.82
   5   9  -1   11.58    2.07
   7  -7   4   12.88    2.38
  -7   7  -4   12.23    1.69
  -7   7  -4   15.19    2.62
  -1 -13  -7    8.00    3.15
   1  13   7   12.30    1.63
   1  13   7    7.70    2.72
   1  13   7    7.91    2.86
   1  13   7    6.53    1.54
   6   9  12   49.37    3.33
   6   9  12   54.84    3.39
  -3  12   6   22.52    2.89
   3 -12  -6   26.15    2.37
  -3  12   6   27.19    2.62
   3 -12  -6   26.12    1.81
   3 -12  -6   25.63    3.79
  -3  12   6   24.27    1.73
   5  -2  13    9.87    2.60
  -5   2 -13    8.97    1.35
  -5   2 -13    3.14    0.37
   5  -2  13    8.25    1.44
   0  -6  10   14.14    3.07
   0   6 -10   18.26    1.80
   0   6 -10    8.70    1.51
   0 -13  -5    8.86    1.93
   0  13   5   10.78    1.41
   0 -13  -5    8.02    3.12
   0  13   5    5.44    2.37
   0  13   5   10.29    2.29
   9   3   5   34.98    2.31
  -9  -3  -5   30.75    3.39
   9   3   5   42.54    3.07
   9   3   5   34.33    2.63
   0  13   7   -0.17    1.30
   0  13   7    0.69    2.30
   0  13   7    0.49    1.38
   0  13   7   -0.39    2.28
   0 -13  -7   -5.24    3.11
   3  -2 -13    4.16    2.25
  -3   2  13    6.01    2.47
   3  -2 -13    6.80    2.35
   4  11  12   39.26    2.98
   4  11  12   41.87    3.47
   4  11  12   43.40    3.22
  -4 -11 -12   38.44    2.78
  -4 -11 -12   44.78    2.73
   4  11  12   51.89    3.01
  -4 -11 -12   36.17    2.79
   5  -7 -10   45.46    3.29
   5  -7 -10   40.78    3.79
   5  -7 -10   46.19    2.89
   5  -7 -10   40.17    3.67
  -5   7  10   46.84    3.09
  -5   7  10   43.72    2.82
   5  -7 -10   42.84    4.13
   9   2   7    7.53    1.72
   9   2   7    7.12    1.14
  -9  -2  -7    6.78    3.07
   6  -3  -9   49.72    3.73
   6  -3  -9   56.79    3.65
   6  -3  -9   54.94    3.37
   6  -3  -9   56.46    3.98
  -2  11  11   24.87    2.64
   2 -11 -11   19.91    1.63
  -2  11  11   20.61    2.09
   2 -11 -11   21.93    1.99
  -9  -1  -7    1.11    3.01
   9   1   7    1.53    2.06
  -9  -1  -7    0.96    1.42
   9   1   7    0.68    0.72
   9   1   7    2.03    1.53
   4  12   7    3.64    2.40
   4  12   7    2.55    2.07
   4  12   7    3.61    1.81
   4  12   7    3.01    1.61
  -5  -2 -15   15.76    1.86
  -5  -2 -15   12.37    2.46
  -5  -2 -15   14.44    1.31
   5   2  15   20.41    2.52
   5   2  15   17.30    2.07
  -1   4  15    5.01    1.83
   1  -4 -15    4.43    1.85
   1  -4 -15    3.51    2.49
   1  -4 -15    4.61    2.31
  -1   4  15    4.30    1.77
   2  -7 -14   32.22    2.57
   2  -7 -14   34.56    3.44
  -2   7  14   35.66    2.93
  -2   7  14   35.62    2.97
  -2   7  14   34.17    2.64
  -2   7  14   33.99    2.76
   2  -7 -14   27.86    2.04
   2  -7 -14   30.83    3.26
  -4   5 -11   33.24    3.54
   4  -5  11   46.88    3.85
  -4   5 -11   36.91    2.12
  -4   5 -11   28.47    2.59
   4  -5  11   48.24    2.52
  -4   5 -11   48.23    3.28
  -4   5 -11   33.84    2.19
  -4   5 -11   39.54    3.26
  -4   5 -11   50.64    2.21
   6  -4  -9   83.48    4.40
   6  -4  -9   80.98    4.98
   6  -4  -9   76.75    4.83
   6  -4  -9   80.93    4.61
   9   3   6   19.25    2.52
  -9  -3  -6   15.35    3.11
   9   3   6   13.59    1.56
   9   3   6   12.75    1.96
   0   5 -11    9.51    1.77
   0  -5  11   16.52    3.00
   0   5 -11   13.12    2.12
  -4   6  12   26.25    2.27
   4  -6 -12   22.36    3.07
   4  -6 -12   25.48    3.49
  -4   6  12   23.14    2.75
   4  -6 -12   27.86    2.38
   4 -11  -7   32.18    2.68
   4 -11  -7   32.40    2.07
  -4  11   7   32.47    2.70
  -4  11   7   30.14    2.07
   7  -2  11   44.33    2.41
  -7   2 -11   27.11    4.02
   7  -2  11   33.22    2.55
  -7   2 -11   30.78    2.90
  -2   8  -8    1.09    0.96
  -2   8  -8   -1.03    2.23
  -2   8  -8    1.45    1.39
   2  -8   8    1.01    2.63
   8  -2   9   30.69    2.04
  -8   2  -9   27.80    1.93
  -8   2  -9   23.69    2.46
   8  -2   9   29.79    2.60
   4  12   8    4.68    1.85
   4  12   8    2.60    2.10
   4  12   8    1.08    1.66
   4  12   8    1.51    2.33
   1  -6 -15   24.43    2.16
  -1   6  15   28.30    2.53
  -1   6  15   27.60    2.49
   1  -6 -15   25.02    2.76
   1  -6 -15   29.38    3.02
  -1   6  15   24.67    2.55
  -3   7  13    1.34    2.35
   3  -7 -13    1.31    1.14
   3  -7 -13    2.52    3.01
  -3   7  13    3.86    2.20
  -3   7  13    3.01    1.77
   3  -7 -13    0.47    2.80
   3  -7 -13    5.05    1.76
   3   9  15   -0.36    1.78
   3   9  15    0.84    2.06
  -3  -9 -15    0.87    1.88
   5  11  10   53.20    3.51
   5  11  10   51.34    3.50
   5  11  10   61.39    3.34
   5  11  10   52.05    3.41
  -2  12   9   11.20    2.35
   2 -12  -9   18.84    1.76
  -2  12   9   15.31    1.67
   3 -10 -11   11.66    1.23
  -3  10  11   12.01    1.80
   3 -10 -11   12.37    1.71
  -3  10  11   11.26    2.22
  -9   2  -3    0.35    1.81
  -9   2  -3    2.15    2.96
   9  -2   3    1.44    1.76
   9  -2   3    0.28    2.81
   9  -2   3    0.06    1.24
   9  -2   3   -0.65    2.22
   9  -2   3    0.88    1.49
   9  -2   3   -1.29    1.43
  -1  -5 -16   53.80    3.38
   1   5  16   59.26    3.04
  -1  -5 -16   59.10    3.60
   1   5  16   55.32    3.39
   1   5  16   47.75    3.19
   1  13   5    1.57    2.10
   1  13   5   -0.61    2.76
   1  13   5    0.76    1.29
  -1 -13  -5    1.78    2.79
   1  13   5   -2.06    1.37
   8  -2  -4    2.17    2.72
   8  -2  -4   -0.40    2.00
   8  -2  -4    1.11    1.56
  -8   2   4    1.97    2.48
   8  -2  -4    2.21    1.37
   8  -2  -4   -0.02    1.68
  -8   3  -8   14.67    1.47
   8  -3   8   16.46    1.47
  -8   3  -8   11.21    1.69
   8  -3   8   13.61    2.26
  -8   3  -8   14.78    2.12
  -8   3  -8   15.49    1.85
  -1  -9 -15   25.14    2.59
   1   9  15   25.30    2.59
   1   9  15   20.62    2.98
   6  -9  -5   -1.55    1.91
   6  -9  -5   -0.08    2.97
  -6   9   5    0.98    1.83
   6  -9  -5    1.10    1.17
   5   7  15   20.25    2.40
  -5  -7 -15   20.29    1.86
  -5  -7 -15   21.03    2.26
   5   7  15   23.05    2.24
   5   7  15   21.02    2.23
  -3 -11 -13   18.16    2.08
  -3 -11 -13   17.08    2.15
   3  11  13   17.13    2.74
   3  11  13   19.76    2.15
   3  11  13   16.05    2.39
  -3 -11 -13   18.04    1.90
   7  -8  -1    8.58    1.69
  -7   8   1    8.25    1.64
   7  -8  -1    8.20    2.61
  -3  11  -2   14.46    2.91
  -3  11  -2   12.95    1.96
  -3  11  -2    8.58    2.71
  -3  11  -2   12.45    2.01
  -1   8  -8    3.65    1.59
   1  -8   8    1.76    2.69
  -1   8  -8    5.54    1.36
  -1   8  -8    6.38    1.90
   1  -9 -14   20.22    2.11
  -1   9  14   22.33    2.28
  -1   9  14   26.52    2.55
  -1   9  14   23.14    2.78
   9   3   4   15.79    1.99
  -9  -3  -4   13.92    2.87
   9   3   4   19.96    2.41
   9   3   4   13.82    1.72
  -8  -1 -11    5.58    1.52
  -8  -1 -11    4.93    2.07
   8   1  11    6.60    1.56
   8   1  11    3.48    2.17
   7   8  11   29.05    2.46
   7   8  11   28.17    2.40
   4  -4  12   10.58    1.38
  -4   4 -12   11.40    1.27
  -4   4 -12    6.96    2.53
  -4   4 -12    5.73    2.94
  -4   4 -12    7.87    1.08
  -4   4 -12    3.62    1.42
  -4   4 -12    4.12    1.01
   4  -4  12    7.32    2.71
  -4   4 -12    5.84    1.25
  -3  12   2    2.43    1.96
   3 -12  -2    1.84    1.61
   3 -12  -2   -0.24    3.00
  -3  12   2   -0.16    2.22
  -3  -6   8    4.38    2.60
   3   6  -8    6.30    1.79
   3   6  -8    3.46    2.31
  -9   0  -1    1.31    2.74
   9   0   1   -0.01    1.71
  -9   0  -1    2.10    1.11
   9   0   1    0.99    1.96
   9   0   1    0.63    1.47
   1  -3  13   28.97    2.21
  -1   3 -13   32.17    2.19
  -1   3 -13   22.66    2.77
   1  -3  13   28.12    3.25
  -1   3 -13   26.27    2.30
   4  10  -1   39.42    3.31
   4  10  -1   39.25    2.57
   4  10  -1   34.63    2.66
   8   6  10    4.76    1.73
   8   6  10    5.08    1.56
  -8  -6 -10    5.88    1.77
   8   6  10    6.62    1.97
   5  10   1    7.73    1.84
   5  10   1    8.04    1.82
   5  10   1    5.38    1.93
   5  10   1    7.51    2.31
   7  -8   0    5.59    1.53
   7  -8   0    3.91    2.48
  -7   8   0    4.45    2.72
  -7   8   0    4.09    1.53
   4  12   6   18.43    2.39
   4  12   6   21.27    2.73
   4  12   6   21.32    2.07
   4  12   6   21.30    1.96
   1  13   8   15.49    3.17
  -1 -13  -8   19.25    3.51
   1  13   8   21.82    1.87
   1  13   8   20.04    1.95
   9  -1   1    1.14    1.50
   9  -1   1    2.49    1.90
  -9   1  -1    2.26    2.85
  -9   1  -1    1.73    1.11
   9  -1   1    2.57    1.69
   8   7   7   44.70    3.23
   8   7   7   46.33    3.11
   8   7   7   48.59    2.94
   6   7  14   -1.45    0.97
  -6  -7 -14    0.11    1.32
   6   7  14   -1.75    1.70
   6   7  14   -0.99    1.53
   6   7  14    0.03    1.67
   6  10  10    6.99    1.89
   6  10  10    6.09    2.06
   6  10  10    8.98    2.06
   6  10  10   11.77    2.00
   3   5  -9   33.50    2.47
  -3  -5   9   31.95    3.34
   3   5  -9   25.20    2.81
   3   5  -9   28.34    2.18
   9  -2   2   19.53    2.06
   9  -2   2   17.54    1.77
   9  -2   2   18.43    3.14
   9  -2   2   16.42    2.60
  -9   2  -2   20.31    2.25
  -9   2  -2   18.12    3.23
   9  -2   2   18.79    1.92
   3  -9 -12   74.83    4.08
  -3   9  12   66.96    4.31
   3  -9 -12   73.83    4.98
  -3   9  12   72.68    3.91
   2   3  16    7.40    2.70
   2   3  16    6.30    1.81
  -2  -3 -16    5.25    1.78
  -2  -3 -16    4.97    1.97
   0   7  -9   16.60    1.66
   0   7  -9    8.45    1.33
  -9   2  -4    2.62    3.13
   9  -2   4    4.28    1.45
   9  -2   4    3.70    2.19
   9  -2   4    2.59    1.22
   9  -2   4    3.82    2.75
   9  -2   4    4.35    1.85
  -9   2  -4    1.04    1.78
   6  -9   2   20.08    1.72
  -6   9  -2   19.93    2.99
  -6   9  -2   17.74    1.80
  -6   9  -2   19.48    1.86
  -6   9  -2   17.29    3.58
  -4   6 -10   30.80    3.17
  -4   6 -10   22.30    3.24
   4  -6  10   31.71    3.35
  -4   6 -10   29.04    2.93
  -4   6 -10   25.18    2.51
  -4   6 -10   25.61    1.72
   6   1  14    0.47    2.03
   6   1  14    1.78    1.56
  -6  -1 -14    0.33    1.44
   2   7  16   45.82    2.92
   2   7  16   32.52    3.05
  -2  -7 -16   37.42    2.70
  -2  -7 -16   42.62    2.92
   2   7  16   39.65    2.83
   2   7  16   39.06    2.62
   8   7   6   44.80    3.25
   8   7   6   44.45    3.05
   8   7   6   46.28    2.89
  -3 -12 -11   13.21    1.83
   3  12  11   11.23    1.94
   3  12  11   17.00    2.57
  -3 -12 -11    8.07    1.83
  -3 -12 -11   14.20    2.08
   3  12  11   21.10    2.07
   3  12  11   16.78    2.87
   3   3  16   33.55    3.35
  -3  -3 -16   31.75    2.56
   3   3  16   30.90    2.46
  -3  -3 -16   30.86    2.47
  -1  -6 -16   13.23    2.05
   1   6  16   11.99    2.04
   1   6  16   16.09    1.86
  -1  -6 -16   13.40    2.48
   1   6  16   11.09    2.09
   1   6  16   14.57    2.14
   6  -1  13    7.87    1.19
   6  -1  13   15.36    1.63
  -6   1 -13   15.34    1.61
   6  -1  13   12.43    2.44
  -5   7  -8   15.67    2.28
  -5   7  -8   15.92    2.66
  -5   7  -8   13.46    1.28
  -5   7  -8   16.57    2.27
  -5   7  -8   10.84    3.18
   5   0 -10   87.17    4.79
   5   0 -10  106.74    5.19
  -5   0  10  116.68    6.32
   7   9   7   10.88    2.01
   6  -2  -9    7.89    2.43
   6  -2  -9    9.94    2.72
   8  -1  -4    3.39    1.97
  -8   1   4    3.35    1.72
   8  -1  -4    3.85    1.68
   8  -1  -4    2.91    1.72
   8  -1  -4    3.63    1.47
  -8   1   4    4.84    2.42
   9  -1   6    7.40    2.09
  -9   1  -6   10.69    1.45
   9  -1   6   10.62    1.58
   9  -1   6   10.50    2.67
  -9   1  -6    7.37    3.13
   6  -8  -7   41.36    3.23
  -6   8   7   32.97    2.71
   6  -8  -7   43.12    2.63
  -6   8   7   38.60    2.34
   4  -2 -12   53.87    3.59
  -4   2  12   63.46    4.06
   4  -2 -12   60.78    3.81
  -8  -5 -11   33.48    2.48
   8   5  11   32.64    2.22
   8   5  11   32.55    2.56
  -1  -4 -16   48.14    3.08
   1   4  16   54.40    3.65
   1   4  16   47.75    3.01
  -1  -4 -16   49.52    3.32
   6  -7  -8    8.53    2.24
   6  -7  -8    8.82    1.70
  -6   7   8    5.88    1.53
   6  -7  -8    5.08    3.01
   6  -7  -8    4.25    2.99
   2  -2 -14   -1.16    2.16
   2  -2 -14   -0.48    1.88
  -2   2  14    1.64    1.78
   2  -2 -14    0.51    2.28
  -2   0 -15   31.84    2.82
  -2   0 -15   39.14    2.47
  -2   0 -15   34.32    2.44
   2   0  15   40.94    3.67
   2   0  15   37.60    2.67
   0  13   4   16.54    2.43
   0  13   4   17.11    2.64
   0  13   4   18.45    1.64
   0  13   4   19.03    1.64
   0 -13  -4   18.09    2.22
   0 -13  -4   23.15    3.33
   9   3   7   27.81    2.70
  -9  -3  -7   23.65    3.28
   9   3   7   23.61    2.23
   9   3   7   23.66    1.77
   8  -3  -4   19.12    1.85
  -8   3   4   22.95    2.95
   8  -3  -4   22.66    2.42
   8  -3  -4   18.82    1.64
   8  -3  -4   28.83    2.19
   0  13   8    2.29    1.42
   0  13   8    5.24    1.41
   0 -13  -8    2.73    3.17
   0  13   8    3.65    2.31
  -8   1 -10   17.59    1.72
   8  -1  10   15.91    2.45
   8  -1  10   21.56    1.79
  -8   1 -10   14.38    2.33
  -1  11  -3   -0.56    0.86
  -1  11  -3   -0.67    1.80
  -1  11  -3    1.57    1.72
   9   0   7    6.03    1.55
   9   0   7    6.51    2.46
   9   0   7    6.71    2.12
  -9   0  -7    2.12    3.06
  -9   0  -7    5.87    1.47
  -8   6  -1    0.27    2.31
  -8   6  -1    2.95    3.16
   8  -6   1   -0.13    2.33
   8  -6   1    3.71    1.46
   8  -6   1    1.47    2.83
   8  -6   1    2.25    1.08
  -7   8   2    6.69    3.38
   7  -8  -2    6.74    2.99
   7  -8  -2    5.86    2.65
  -7   8   2    8.72    1.71
   7  -8  -2    9.06    1.83
   9   2   2   18.57    1.96
   9   2   2   21.63    2.38
   9   2   2   15.40    1.95
  -9  -2  -2   16.96    2.97
   0  10  14   11.72    1.92
   0 -10 -14    8.28    1.81
   0  10  14    6.54    2.59
   0  10  14   14.25    2.34
   8  -5   5   25.53    2.73
  -8   5  -5   22.81    1.55
  -8   5  -5   28.98    2.48
  -8   5  -5   21.58    2.02
  -4  -5 -16    2.18    1.76
   4   5  16    6.01    1.95
   4   5  16    5.87    2.31
   4   5  16    5.33    1.74
  -4  -5 -16    4.84    2.01
  -4  -5 -16    5.73    1.63
   7  -3  -7   15.26    3.09
   7  -3  -7   14.86    2.07
   7  -3  -7   18.98    2.37
   7  -3  -7   13.50    2.85
  -1  10  -5   -0.44    1.61
  -1  10  -5   -0.80    1.48
  -1  10  -5   -0.09    0.96
  -1  10  -5    1.07    1.02
  -3   0 -15   17.96    2.58
  -3   0 -15   21.61    1.99
   3   0  15   22.38    2.09
  -3   0 -15   20.45    2.03
   3   0  15   20.64    3.00
   4  12   9   15.17    2.57
   4  12   9   16.07    2.39
   4  12   9   13.83    2.05
   4  12   9   16.68    2.06
   7   9   8   14.94    2.07
   7   6  13   26.70    2.20
   7   6  13   30.93    2.42
   0   1 -14    7.47    2.12
   0   1 -14   13.25    1.94
   0  -1  14   12.81    1.88
   0   1 -14    5.61    2.23
   0  -1  14   10.80    2.95
   0  11  13    4.01    1.78
   0  11  13    1.92    2.19
   0 -11 -13    1.83    1.36
   0 -11 -13    3.99    1.67
   3   7  16  103.64    4.95
   3   7  16  111.53    5.08
  -3  -7 -16  100.49    4.97
  -3  -7 -16   92.41    4.92
  -8   6   0    9.84    3.27
   8  -6   0    7.60    1.22
   8  -6   0    7.68    2.99
   8  -6   0    9.82    2.59
   8  -6   0    8.83    1.72
  -7   5  -8    6.43    3.22
   7  -5   8    5.88    1.89
  -7   5  -8   10.59    2.24
  -7   5  -8    6.91    2.00
   2  12   1   -0.33    1.39
  -2 -12  -1   -2.53    2.05
   2  12   1   -2.59    1.94
   2  12   1   -0.18    2.51
   2  12   1   -0.26    1.56
  -6   5   9   32.60    2.41
   6  -5  -9   34.30    2.84
   6  -5  -9   41.67    3.69
   6  -5  -9   32.52    3.34
   6  -5  -9   33.05    2.57
   6  -5  -9   26.01    1.63
   8   7   8   13.50    1.82
   8   7   8   11.58    1.96
   8   7   8   10.40    2.13
   5  11   4   -0.09    2.08
   5  11   4    1.39    1.92
   5  11   4    0.38    1.62
   5  11   4   -0.43    1.74
   1 -13  -6   50.35    3.24
  -1  13   6   40.46    3.68
  -1  13   6   50.18    3.47
   1 -13  -6   47.83    4.35
  -1  13   6   49.44    2.71
   1   0 -14   53.09    3.42
  -1   0  14   53.13    3.21
  -1   0  14   46.91    4.00
   1   0 -14   46.40    3.34
   1   0 -14   49.37    3.20
  -1  13   5   37.81    3.08
  -1  13   5   35.73    2.16
  -1  13   5   25.32    3.19
   1 -13  -5   31.03    3.84
   1 -13  -5   38.35    2.74
   5   2  -9   18.90    2.49
  -5  -2   9   22.80    2.91
   7   9   6   -0.16    1.75
   7  -6  -6   50.44    3.42
   7  -6  -6   44.03    4.26
   7  -6  -6   38.11    4.06
  -2  12   0    2.50    2.76
  -2  12   0    5.08    2.13
  -2  12   0    4.61    1.27
   2 -12   0    4.13    2.80
  -2  12   0    5.69    1.92
  -4  -4 -16   28.84    2.33
   4   4  16   32.93    3.08
   4   4  16   29.16    2.40
  -4  -4 -16   23.45    2.57
  -4  -4 -16   24.70    2.08
   7  -8   1   12.15    1.55
  -7   8  -1   12.87    1.62
  -7   8  -1   13.04    2.91
   7  -8   1   12.30    2.60
  -4  -9   3   32.67    3.27
   4   9  -3   33.21    2.37
   4   9  -3   27.33    2.97
   4   9  -3   25.95    2.50
   7  -2  -7   26.68    3.01
   7  -2  -7   30.88    3.20
   7  -2  -7   26.18    2.64
   7  -2  -7   26.67    2.39
   7   1  -6   16.63    2.73
   7   1  -6   14.83    2.27
  -7  -1   6   20.82    2.63
   0   4 -12   33.73    2.30
   0   4 -12   20.89    2.38
   0   4 -12   29.99    2.50
   0  -4  12   29.86    2.26
   0  -4  12   28.34    3.33
   0   4 -12   17.97    2.31
   9   1   1   26.39    2.28
   9   1   1   29.03    2.54
  -9  -1  -1   25.31    1.63
  -9  -1  -1   24.68    3.11
   9   1   1   29.77    2.29
   3   7  -7    8.42    1.81
   3   7  -7    5.72    2.24
  -3  -7   7    6.99    2.88
   3 -12  -7   29.03    1.97
   3 -12  -7   27.88    2.53
  -3  12   7   29.25    2.74
  -3  12   7   27.85    1.96
   2   6  -9    5.31    2.27
   2   6  -9    9.03    1.41
  -2  -6   9   12.85    2.92
   6  10   4   51.22    3.32
   6  10   4   51.68    3.31
   6  10   4   54.22    3.32
  -6  -1   8   12.45    2.56
   6   1  -8   14.81    2.63
   1  -3 -15   39.79    3.28
  -1   3  15   41.27    2.88
  -1   3  15   41.24    3.51
   1  -3 -15   41.13    3.10
   1  -3 -15   35.19    2.80
   5   8  -3    8.53    2.45
   5   8  -3   11.22    1.81
  -5  -8   3   13.09    2.83
   4   5  -8   26.37    2.34
  -4  -5   8   25.06    3.08
   4   5  -8   21.10    2.80
  -2  10  -5   12.79    1.61
  -2  10  -5    9.80    2.53
  -2  10  -5   14.94    1.88
  -1 -12   0   17.12    2.37
   1  12   0   25.84    1.88
   1  12   0   27.51    2.14
   1  12   0   21.05    2.38
   4   6  -7    1.14    1.74
   4   6  -7    2.04    2.47
  -4  -6   7   -0.49    2.53
   2  13   7   25.16    2.14
  -2 -13  -7   31.76    3.62
   2  13   7   30.74    3.27
  -1  -9   6   21.21    3.18
   1   9  -6   14.75    2.00
   1   9  -6   19.87    1.82
   8   7   5   50.18    3.55
   8   7   5   56.76    3.25
   8   7   5   51.50    3.36
  -5  10  -2   18.90    1.99
  -5  10  -2   14.58    3.38
  -5  10  -2   18.96    1.92
  -5  10  -2   19.07    3.01
   8  -6   2    6.39    0.93
   8  -6   2    8.23    2.48
  -8   6  -2    8.60    2.40
  -8   6  -2    2.97    3.25
   8  -6   2    7.10    2.81
   6   9   1   48.38    3.20
   6   9   1   50.82    3.27
   7  -7  -5   22.53    3.65
   7  -7  -5   26.52    2.08
   7  -7  -5   22.09    3.46
  -7   7   5   24.94    3.29
   7  -7  -5   28.29    2.61
   7   7   0   32.04    2.58
  -7  -7   0   34.72    2.81
   7   7   0   35.85    2.47
   7   7   0   23.88    2.92
   7   1  13    7.67    1.80
   7   1  13    9.89    1.68
  -7  -1 -13    7.83    1.57
  -9   2  -1    4.50    3.03
  -9   2  -1    3.90    2.00
   9  -2   1    5.42    1.74
   9  -2   1    4.39    2.51
   9  -2   1    2.21    1.47
   9  -2   1    1.54    2.83
  -8  -3   2   16.98    2.09
  -8  -3   2   11.44    2.13
   8   3  -2   11.25    1.82
   9   3   3   10.11    1.88
   9   3   3    7.72    2.19
  -9  -3  -3    6.76    2.71
  -6   8  -5   14.61    3.47
  -6   8  -5   19.29    2.75
  -6   8  -5   12.44    1.35
   8   6   2   16.01    1.91
  -8  -6  -2   13.40    2.25
   8   6   2   13.25    2.46
   8   6   2   13.85    2.02
   6   8  -1   31.28    2.99
   6   8  -1   38.02    2.63
   6   8  -1   34.36    2.73
  -6  -8   1   37.64    3.19
   4   6  16   -0.84    1.80
   4   6  16    0.62    1.77
   4   6  16    2.13    2.11
  -4  -6 -16    0.51    1.59
  -4  -6 -16    1.40    1.95
   7  -4  -7    1.04    1.68
   7  -4  -7    4.61    2.86
   7  -4  -7    2.11    2.72
   7  -4  -7    2.06    2.14
  -8   4  -7   29.99    2.40
  -8   4  -7   27.38    2.43
   8  -4   7   27.13    1.64
   8  -4   7   29.78    2.63
  -8   4  -7   30.25    1.91
  -8   4  -7   31.81    2.49
   2   5 -10   -0.45    1.22
   2   5 -10    0.88    2.21
   2   5 -10   -0.97    1.69
  -2  -5  10    1.24    2.57
   8   4  -1    8.64    2.64
  -8  -4   1   10.45    1.95
   8   4  -1   11.07    1.84
  -8  -4   1    8.45    1.97
   1  13   4    4.96    1.46
   1  13   4    4.77    2.89
   1  13   4    5.12    1.42
  -1 -13  -4    5.47    2.82
   1  13   4    1.87    2.14
  -7  -8  -2   30.66    2.40
   7   8   2   26.24    2.67
   7   8   2   33.90    2.38
   7   8   2   27.12    2.47
   7   8   2   26.77    2.50
  -3   8  -8   14.28    3.04
  -3   8  -8   11.69    1.52
  -3   8  -8    9.72    2.42
  -3   8  -8   11.65    2.75
  -3  -1  12   32.16    2.48
   3   1 -12   24.22    2.37
  -3  -1  12   29.85    3.33
  -4 -12  -5   39.23    3.17
   4  12   5   47.27    2.98
   4  12   5   44.22    3.22
   4  12   5   48.18    3.50
   4  12   5   46.86    2.86
   9  -2   5   14.52    1.63
   9  -2   5   15.03    1.47
  -9   2  -5   12.67    1.88
   9  -2   5   11.75    2.39
   9  -2   5   15.37    2.13
   9  -2   5   14.58    2.79
  -9   2  -5    8.63    3.16
  -2 -13  -6   24.47    3.31
   2  13   6   25.16    3.17
   2  13   6   20.20    2.01
   1  -7 -15   53.33    3.09
  -1   7  15   61.97    3.66
  -1   7  15   65.20    3.79
   1  -7 -15   58.91    4.02
  -1   7  15   61.56    3.70
  -1   7  15   55.65    3.70
  -3  -4  10   51.15    3.98
   3   4 -10   58.59    3.25
   3   4 -10   53.25    3.38
   3   4 -10   46.53    2.87
  -6  -5   5   22.66    2.82
   6   5  -5   23.76    3.09
  -8   5   3    8.40    2.96
   8  -5  -3   11.71    3.22
   8  -5  -3    9.54    2.07
   8  -5  -3    7.41    1.57
   8  -5  -3    8.45    2.77
   8  -5  -3    5.73    3.12
   5   9  14   49.39    3.41
  -5  -9 -14   61.22    3.44
   5   9  14   62.41    3.60
   5   9  14   61.82    3.56
  -1 -12 -12    1.82    1.51
   1  12  12    3.14    2.34
   1  12  12    2.93    2.77
   1  12  12    1.68    1.64
   1  12  12    4.68    1.50
  -1 -12 -12    3.03    1.71
  -9  -2  -8    0.16    1.54
   9   2   8   -0.54    1.57
  -9  -2  -8   -1.00    2.94
   5 -10  -7   33.47    2.74
   5 -10  -7   30.01    2.05
  -5  10   7   31.30    2.66
  -5  10   7   30.27    2.04
   0  11  -3    8.27    1.35
   0  11  -3    8.97    1.26
   0  11  -3    5.59    1.78
   5  -4 -11   10.32    2.70
   5  -4 -11   10.14    2.91
  -5   4  11   11.93    1.84
   5  -4 -11   11.96    3.10
  -5   4  11   10.47    2.39
  -1  13   7   37.60    2.34
   1 -13  -7   29.70    3.77
  -1  13   7   35.97    2.17
  -1  13   7   35.63    3.03
   0  -1 -15   19.77    2.40
   0  -1 -15   22.08    2.25
   0   1  15   25.58    3.23
   0  -1 -15   18.59    2.44
   0   1  15   22.16    2.26
  -7   1 -12   51.95    3.65
   7  -1  12   76.10    3.91
  -4   3 -13    2.08    1.24
  -4   3 -13    2.37    2.44
   4  -3  13    4.60    2.66
   4  -3  13    2.95    1.38
  -4   3 -13    4.21    1.31
  -8   6   1    7.49    2.50
  -8   6   1    7.88    3.06
   8  -6  -1    5.79    3.03
   8  -6  -1    8.65    1.86
   8  -6  -1   10.76    1.36
   8  -6  -1    8.85    2.65
  -2  11  -3    6.88    1.75
  -2  11  -3   10.08    1.85
  -2 -13  -8   39.60    3.78
   2  13   8   51.03    2.83
   2  13   8   43.76    2.87
   2  13   8   39.34    3.69
   2  12  12    4.87    2.24
   2  12  12    2.70    2.68
  -2 -12 -12    2.48    1.59
  -2 -12 -12    2.85    1.70
   2  12  12    2.95    1.66
   1  13   9   29.76    2.04
   1  13   9   23.70    3.33
  -1 -13  -9   27.44    3.69
   1  13   9   21.54    2.13
  -1  13   4   19.53    2.50
  -1  13   4   15.95    2.82
   1 -13  -4   18.96    2.18
   1 -13  -4   20.37    3.41
  -1  13   4   20.06    1.56
   7   9   9   40.72    2.84
  -4  11  -1   10.33    2.19
  -4  11  -1    5.99    2.83
  -4  11  -1   10.84    1.09
  -4  11  -1   11.16    1.80
   4 -11   1    7.00    3.16
  -4  11  -1   10.66    3.05
  -4  11  -1   11.19    1.93
   1   2 -13   -0.97    1.79
   1   2 -13   -0.42    2.10
  -1  -2  13   -0.83    1.58
   2  -2  14   11.70    1.81
   2  -2  14    8.80    2.81
  -2   2 -14   13.97    1.96
  -2   2 -14   11.41    1.83
  -2   2 -14   13.65    2.53
   4  11   1   41.24    2.87
   4  11   1   45.22    3.52
   4  11   1   46.53    2.93
   6   4  -6   44.74    3.76
  -6  -4   6   46.44    3.57
   2   7  -8   11.19    1.81
  -2  -7   8    7.85    3.03
   9   1   8    8.27    2.23
  -9  -1  -8    5.96    1.59
  -9  -1  -8    8.31    3.28
   9   1   8    6.98    1.65
   9   1   8    5.76    2.23
   1   7  16    1.08    1.86
   1   7  16    0.89    1.96
  -1  -7 -16    3.79    2.26
  -1  -7 -16    4.05    1.75
   1   7  16    2.29    2.07
   4  10  14    0.64    1.79
   4  10  14    1.27    2.13
  -4 -10 -14    1.95    1.77
   4  10  14    2.13    2.13
  -4 -10 -14    0.59    1.59
   4  10  14    0.87    1.85
  -7   8   3    1.66    1.75
   7  -8  -3    2.05    3.01
  -7   8   3    2.82    3.11
   7  -8  -3    0.60    2.68
   7  -8  -3    2.90    1.86
  -8   0   4   28.89    2.78
  -8   0   4   29.22    2.53
   8   0  -4   27.55    2.20
   8   0  -4   31.77    2.63
   8   0  -4   29.53    3.18
   8   0  -4   30.66    2.53
  -3  11  10    0.63    2.19
   3 -11 -10   -0.04    1.46
  -3  11  10    1.31    1.47
  -3   2 -14    1.56    1.46
  -3   2 -14    4.14    1.56
   3  -2  14    2.94    1.54
   3  -2  14    2.87    2.57
  -5   3  11    0.75    1.61
  -5   3  11   -1.51    2.11
   5  -3 -11   -0.81    2.78
   5  -3 -11   -0.44    2.42
  -6   7  -7   12.73    3.21
  -6   7  -7   15.42    2.67
   9   4   6   23.42    2.30
   9   4   6   24.54    1.95
  -9  -4  -6   21.62    3.24
   9   4   6   30.70    2.78
  -4  -1  11    2.23    2.57
   4   1 -11    1.15    2.04
   3 -12  -1    5.00    3.02
  -3  12   1    5.69    2.10
  -3  12   1    5.30    2.36
  -3  12   1    6.61    1.05
   3 -12  -1    7.51    1.72
  -4   7  12   50.78    3.65
   4  -7 -12   51.32    3.17
   4  -7 -12   45.43    3.91
   4  -7 -12   48.91    4.25
  -4   7  12   50.47    3.16
  -4   7  -9   19.95    3.18
  -4   7  -9   19.85    1.59
  -4   7  -9   24.21    2.82
  -4   7  -9   19.89    2.50
  -4   7  -9   23.29    3.12
   0  10  -5    4.07    1.48
   0  10  -5    6.28    1.77
   0  10  -5    9.48    1.39
   5  -5 -11   44.91    3.66
   5  -5 -11   55.05    3.18
   5  -5 -11   45.00    4.12
  -5   5  11   50.73    3.10
   5  -5 -11   41.12    2.44
   5  -5 -11   47.42    3.79
   8   7   9   23.47    2.40
   8   7   9   28.95    2.39
   8   7   9   26.11    2.18
  -1  -3 -16   19.84    2.37
   1   3  16   26.47    3.21
   1   3  16   25.44    2.37
  -1  -3 -16   21.37    2.48
  -1  -3 -16   23.82    2.25
   7   9   5    4.37    1.71
   7   9   5    7.12    1.89
   7   9   5    6.98    1.92
  -9  -3  -8    4.90    1.65
  -9  -3  -8    5.62    2.99
   9   3   8    4.87    1.74
   9   3   8    3.08    1.20
   4   4  -9   20.61    2.87
   4   4  -9   21.30    2.27
  -4  -4   9   18.54    2.87
   8  -4  -4   31.14    2.40
   8  -4  -4   34.07    3.79
   8  -4  -4   32.19    2.69
  -8   4   4   24.92    3.12
  -5 -10 -13    1.63    1.74
   5  10  13    1.35    2.20
   5  10  13    0.23    2.03
   9   4   5   31.05    2.52
   9   4   5   29.69    2.24
   9   4   5   37.38    2.87
  -9  -4  -5   25.19    3.21
  -6  -6   4   13.47    2.66
   5  11  11   26.37    2.58
  -5 -11 -11   29.49    2.47
   5  11  11   28.08    2.74
   5  11  11   30.42    2.58
   5  11  11   30.69    2.56
   0   8  -8    6.89    1.69
   0   8  -8    2.63    1.43
   4   7  -6   16.84    2.69
  -4  -7   6   24.89    3.27
   4   7  -6   26.33    2.30
  -7  -4   4    3.08    2.19
   9  -1   0    9.22    2.65
  -9   1   0   10.45    2.92
   9  -1   0   11.67    2.05
   9  -1   0   12.22    1.96
   9  -1   0   13.92    1.83
  -9   1   0   12.55    1.55
   1 -12 -11    2.95    1.58
   1 -12 -11    1.92    1.35
  -1  12  11    2.71    1.64
  -1  12  11    1.36    2.85
   4  12  10   30.13    3.03
   4  12  10   37.91    2.99
   4  12  10   43.40    2.63
   4  12  10   28.91    2.59
  -1   0 -15   24.99    2.48
  -1   0 -15   21.17    2.65
   1   0  15   27.70    2.39
   1   0  15   25.58    3.38
  -1   0 -15   29.82    2.37
   8   2  -3   17.47    2.25
   8   2  -3   11.72    1.82
  -8  -2   3   12.47    2.19
  -8  -2   3   12.72    2.16
   0  13   3   28.91    1.88
   0  13   3   22.85    2.81
   0  13   3   25.53    2.60
   0  13   3   29.02    2.01
   0 -13  -3   26.28    3.34
   4   3  16   53.06    3.80
  -4  -3 -16   45.41    2.72
  -4  -3 -16   44.98    3.31
   4   3  16   47.19    3.13
  -4  -3 -16   46.23    2.97
   7  -1  -7   40.33    3.46
  -7   1   7   33.74    2.83
   0  13   9    6.15    1.58
   0 -13  -9    3.32    1.51
   0  13   9   11.35    1.51
   0 -13  -9    7.07    3.39
  -2 -13  -5   19.18    2.97
   2  13   5   15.65    3.02
   2  13   5   16.45    1.80
   2  13   5   15.82    1.81
  -6   1   9    6.29    2.22
   6  -1  -9    3.76    2.72
   6  -1  -9    3.93    2.24
  -4   9  -6    9.19    2.12
  -4   9  -6   10.60    1.56
  -4   9  -6   10.76    2.41
  -4   9  -6   15.85    2.92
  -4   9  -6   11.02    2.97
   3  12   2   20.21    2.90
   3  12   2   18.43    2.03
   3  12   2   23.63    2.05
   7   5  -3    6.67    2.59
   7   5  -3    8.84    1.80
  -7  -5   3    9.31    2.27
  -8  -5   0   39.23    2.71
  -8  -5   0   31.79    2.66
   8   5   0   38.37    2.58
   8   5   0   30.00    3.19
   8   0  11   16.79    1.76
  -8   0 -11   12.53    1.67
   8   0  11   12.47    2.38
  -8   0 -11   11.25    2.28
   5  -1  14    4.31    1.55
  -5   1 -14    4.33    1.42
   5  -1  14    6.66    2.47
  -4  10  -4   10.66    1.74
  -4  10  -4   11.35    2.10
  -4  10  -4    9.05    2.66
  -4  10  -4    5.83    2.81
   8  -6   3   13.30    2.56
  -8   6  -3   13.93    2.55
   3  -1 -13    1.86    1.95
   3  -1 -13    1.69    2.03
  -3   1  13    2.01    2.59
  -3   1  13    1.16    1.66
  -9   0   0    9.04    2.80
   9   0   0   12.05    1.82
   9   0   0   11.72    2.05
   9   0   0   12.14    1.98
  -9   0   0   12.43    1.68
  -7   8  -2   10.26    3.52
  -7   8  -2   10.19    1.51
  -7   8  -2    9.79    1.43
  -7   8  -2   16.29    2.94
   7  -8   2    7.91    2.37
   2  -8 -14    9.33    3.14
   2  -8 -14    7.12    2.88
  -2   8  14    8.58    2.13
  -2   8  14    8.60    2.37
  -2   8  14    5.90    1.86
   2  -8 -14    6.10    1.27
   9   4   7   38.84    2.76
  -9  -4  -7   37.45    3.67
   9   4   7   38.67    2.38
   6  10  11    7.03    2.13
   5   1  15    1.46    1.62
  -5  -1 -15    1.36    2.45
   5   1  15    3.76    2.33
  -5  -1 -15    2.61    1.56
   4   9  15   41.42    3.00
  -4  -9 -15   37.28    2.61
   4   9  15   38.77    2.85
   9  -1   7   15.71    2.34
   9  -1   7   19.34    1.81
  -9   1  -7   16.74    1.67
  -9   1  -7   11.11    3.41
   9  -1   7   15.99    2.59
   4   0  15   10.71    1.78
  -4   0 -15    5.72    1.45
  -4   0 -15   10.56    1.69
   4   0  15   11.15    2.63
  -4  11   8   34.86    2.30
   4 -11  -8   32.34    2.82
  -4  11   8   33.70    2.93
   4 -11  -8   34.85    2.23
  -9   3  -2   -1.23    2.07
   9  -3   2   -1.39    1.46
  -9   3  -2    1.01    3.09
   9  -3   2   -3.94    2.96
   9  -3   2   -0.35    1.64
   9  -3   2   -0.48    1.31
   9  -3   2    0.14    2.33
   9  -3   3    5.39    1.32
  -9   3  -3    6.20    2.08
   9  -3   3    4.12    2.78
   9  -3   3    7.06    1.48
   9  -3   3    4.19    2.41
   9  -3   3    6.19    1.76
  -9   3  -3    4.94    3.14
   2   4 -11    3.13    2.26
   2   4 -11    6.88    1.81
  -2  -4  11    5.84    2.73
   2   4 -11    3.80    2.12
   2   4 -11    2.66    1.30
   2   1 -13   52.92    3.56
  -2  -1  13   56.37    3.37
   8   7   4   32.89    2.51
   8   7   4   29.97    2.86
   8   7   4   29.05    2.59
  -8  -7  -4   29.63    2.95
   8   7   4   33.32    2.45
  -7   7  -5    9.68    3.59
   7  -7   5    7.45    2.19
  -7   7  -5    8.00    2.51
  -7   7  -5    7.05    1.75
   2  13   9   56.01    3.96
   2  13   9   62.23    3.37
  -2 -13  -9   51.12    4.17
   2  13   9   50.03    4.30
   2  13   9   66.53    3.56
  -3  -2 -16   54.89    3.22
   3   2  16   53.37    4.01
   3   2  16   50.02    3.21
  -3  -2 -16   47.18    3.08
  -6   9   6   11.38    2.08
   6  -9  -6    7.64    3.39
   6  -9  -6   12.88    2.24
   6  -9  -6   15.38    1.53
  -2  -2 -16   19.12    2.46
   2   2  16   22.47    3.18
  -2  -2 -16   20.06    2.17
   2   2  16   20.75    2.16
  -2  -2 -16   23.81    2.31
   6   4  15   41.87    2.94
   6   4  15   36.34    2.32
  -6  -4 -15   36.30    3.07
  -6  -4 -15   42.29    2.76
   6   4  15   42.70    2.77
  -2  -8 -16   19.38    2.41
  -2  -8 -16   20.27    2.09
   2   8  16   15.02    2.56
   2   8  16   26.73    2.46
  -1  13   8   24.07    1.93
  -1  13   8   19.75    2.67
   1 -13  -8   16.79    3.60
   1 -13  -8   26.43    1.96
   0   9  15   62.83    3.68
   0   9  15   54.19    3.99
   0   9  15   67.10    3.87
   6  -6  -9   16.56    3.24
  -6   6   9   21.39    2.01
   6  -6  -9   22.94    2.27
   6  -6  -9   20.67    3.70
   6  -6  -9   24.31    3.43
   2  11  -2    9.13    1.95
   2  11  -2    7.30    1.46
   2  11  -2    7.70    1.57
   9   2   1    5.45    1.65
  -9  -2  -1    4.84    2.63
   9   2   1    4.14    1.68
   9   2   1    7.88    2.14
   9   2   1    7.72    1.83
  -3   8  13   33.81    2.51
   3  -8 -13   28.27    3.64
   3  -8 -13   24.38    3.43
   3  -8 -13   32.71    2.51
  -3   8  13   25.65    2.95
  -8  -3 -12    2.55    1.61
   8   3  12    2.37    1.64
  -5   9  -5    4.31    2.56
  -5   9  -5    4.21    2.44
  -5   9  -5    2.65    1.38
  -5   9  -5    0.39    2.87
  -5   9  -5    6.97    1.94
  -6  -5 -15   32.13    2.06
   6   5  15   45.75    2.93
  -6  -5 -15   35.88    2.89
   6   5  15   38.85    2.79
   6   5  15   36.75    2.49
  -6  -5 -15   40.06    2.67
   4   7  16   13.91    2.21
   4   7  16   18.78    2.17
   4   7  16   15.36    2.16
  -4  -7 -16   12.17    2.14
  -4  -7 -16   15.31    1.93
   7  -5  -7    1.72    1.12
   7  -5  -7    3.47    3.05
   7  -5  -7    0.27    2.84
   7  -5  -7    1.52    1.65
   7  -5  -7    3.22    2.17
  -9   2   0    3.69    2.02
  -9   2   0   -0.21    2.94
   9  -2   0    5.09    1.64
   9  -2   0    3.46    2.94
   9  -2   0    4.12    2.62
   9  -2   0    4.35    1.78
   3   8  -6   -0.39    1.67
  -3  -8   6    1.34    2.80
  -9  -4  -4    3.44    2.68
   9   4   4    0.70    1.56
   9   4   4    0.31    2.18
   9   4   4    0.22    1.75
   5  -9  -9    6.50    1.59
   5  -9  -9    7.76    3.44
  -5   9   9    8.95    1.64
  -5   9   9    6.52    2.04
  -1  13   3    9.24    2.53
   1 -13  -3    9.61    1.91
  -1  13   3   11.67    1.40
  -1  13   3    9.85    1.23
   1 -13  -3    9.07    3.16
  -1  13   3   10.43    2.20
  -1  12  -1    3.80    2.16
   1 -12   1    1.03    2.53
  -1  12  -1    0.64    0.89
  -1  12  -1   -0.47    1.42
  -1  12  -1    2.09    1.81
  -7  -3   5    1.05    2.19
   8  -6  -2    0.10    1.23
   8  -6  -2    1.36    1.87
  -8   6   2    0.28    3.11
   8  -6  -2    1.60    3.02
   8  -6  -2    2.36    2.68
   5   8  15   68.06    4.02
   5   8  15   66.42    3.96
  -5  -8 -15   67.84    3.63
   5   8  15   75.15    4.02
   8   6  11   12.44    2.02
   8   6  11   12.57    1.77
   8   6  11   15.64    2.01
  -9   0  -8   30.47    2.15
   9   0   8   28.33    2.24
   9   0   8   30.09    2.76
  -9   0  -8   20.47    3.67
   9   0   8   29.90    2.72
  -2   9  -7    4.87    1.56
  -2   9  -7    3.97    2.37
  -6   9  -3   11.76    3.34
  -6   9  -3   10.85    2.78
  -6   9  -3   11.77    1.62
   0 -12 -12   41.62    2.66
   0  12  12   29.84    2.06
   0  12  12   31.44    2.97
   0 -12 -12   35.48    2.42
   0  12  12   25.33    3.39
   9  -2   6   10.95    2.37
   9  -2   6   12.43    2.63
   9  -2   6    9.61    2.17
  -9   2  -6   12.24    3.43
  -9   2  -6   12.32    1.47
  -9   2  -6    9.59    1.77
   9  -2   6   15.86    1.61
  -6  -3   7   53.52    3.89
   4  -1 -12   39.68    3.12
   4  -1 -12   30.50    2.78
  -4   1  12   42.12    3.53
   7  -6   7    2.33    1.94
  -7   6  -7    0.37    2.25
  -7   6  -7   -2.27    3.47
  -7   6  -7   -0.77    1.80
  -1   9  -7    6.84    1.29
   1  -9   7    8.38    2.87
  -1   9  -7    1.95    1.96
  -1   9  -7    6.11    1.63
   9   3   2    1.98    1.64
   9   3   2    2.41    1.56
   9   3   2    3.09    2.14
  -9  -3  -2    1.18    2.63
  -8  -4 -12   37.85    2.59
   8   4  12   38.68    2.74
   7   9  10   56.58    3.44
  -6   4 -11   21.21    2.25
   6  -4  11   20.85    1.52
  -6   4 -11   11.54    3.31
  -1   2 -14   12.67    2.59
   1  -2  14   13.92    2.99
   1  -2  14   15.51    1.93
  -1   2 -14   14.74    1.91
  -1   2 -14   10.47    2.09
  -2  12  10    5.85    1.53
   2 -12 -10    5.18    1.51
  -2  12  10    1.78    2.26
   4  -9 -11   22.02    2.13
  -4   9  11   21.12    2.48
  -4   9  11   22.51    2.15
   4  -9 -11   22.02    3.72
   3 -12  -8   29.66    2.05
  -3  12   8   29.39    2.04
  -3  12   8   24.90    2.77
   4  12   4   29.58    2.38
   4  12   4   24.26    2.61
   4  12   4   32.20    2.31
   4  12   4   28.43    3.01
  -4 -12  -4   28.86    2.87
   3   8  16   70.81    3.91
  -3  -8 -16   55.34    3.47
  -3  -8 -16   66.31    3.60
   3   8  16   64.51    3.81
   0   3 -13   21.42    2.28
   0   3 -13   17.53    2.08
   0   3 -13   15.47    2.35
   0  -3  13   17.02    3.08
   0  -3  13   17.01    1.92
   9  -3   1    0.11    1.40
  -9   3  -1   -0.11    2.08
   9  -3   1   -0.18    1.58
   9  -3   1   -1.47    2.99
   9  -3   1   -0.50    1.72
  -9   3  -1   -0.79    3.02
   9  -3   1    0.50    2.51
   9  -3   4   21.07    3.08
   9  -3   4   16.15    2.59
   9  -3   4   19.80    1.77
   9  -3   4   18.15    1.59
  -9   3  -4   20.89    2.35
  -9   3  -4   18.40    3.63
   9  -3   4   17.46    2.14
   1  13   3    6.79    1.55
   1  13   3    7.97    2.11
  -1 -13  -3    5.12    2.65
   1  13   3    5.81    1.39
  -5   2  11   16.10    2.03
  -5   2  11   18.32    2.55
   5  -2 -11   15.86    2.59
   5  -2 -11   17.68    2.88
   0  12  -1    6.19    1.21
   0 -12   1    3.68    2.33
   0  12  -1    5.27    1.17
   0  12  -1    3.68    1.90
   0  12  -1    5.30    1.60
   7   8  12   23.76    2.28
   7   8  12   27.72    2.42
   5  -8 -10   11.04    3.62
  -5   8  10   12.26    1.81
  -5   8  10   13.23    2.23
   5  -8 -10   11.15    1.80
   0   5  16   24.58    2.13
   0   5  16   22.14    2.32
   0   5  16   21.79    2.26
   0  -5 -16   26.15    2.76
   0  -5 -16   24.48    2.75
   5  11   3    8.53    1.79
   5  11   3    9.24    2.35
   5  11   3    9.23    1.87
   5  11   3   10.34    2.10
  -3  10  -5    8.85    2.54
  -3  10  -5    6.59    1.63
  -3  10  -5    5.93    2.83
   2  10  -4   11.79    2.07
   2  10  -4   16.85    1.85
   6   9  13   20.94    2.30
  -6  -9 -13   24.52    2.14
   6   9  13   25.66    2.44
   5 -11  -3    2.92    1.72
  -5  11   3    0.73    2.33
  -5  11   3    0.63    1.89
   1  -2 -15   70.94    4.23
  -1   2  15   88.11    5.38
  -1   2  15   87.08    4.71
   1  -2 -15   80.33    4.43
  -4 -11 -13   60.13    3.62
   4  11  13   71.47    3.76
   4  11  13   63.03    3.91
  -4 -11 -13   64.00    3.54
   3  10  -3   -0.12    2.57
   3  10  -3    3.14    1.61
   3  10  -3    3.34    1.87
   3  11  -1    5.78    1.78
   3  11  -1    2.96    1.54
   3  11  -1    6.19    2.59
   3  11  -1    6.40    2.00
   3  11  -1    2.21    1.61
   7   7  13    3.79    1.43
   7   7  13    2.24    1.74
   7   7  13    2.31    1.70
  -5   6  11   41.67    2.76
   5  -6 -11   43.53    3.67
   5  -6 -11   44.72    4.15
   5  -6 -11   37.94    3.67
   5  -6 -11   43.28    2.97
  -4  10  10    2.02    1.53
   4 -10 -10    2.55    1.47
  -4  10  10   -0.90    2.10
  -2  -8   7    8.25    2.98
   2   8  -7    7.89    1.72
   6  10   3   14.25    2.13
   6  10   3   11.18    2.05
   6  10   3   13.96    2.18
   3  12  12   19.39    2.93
   3  12  12   10.81    2.02
  -3 -12 -12   12.16    1.83
   3  12  12   14.64    2.46
   3  12  12   18.66    2.05
  -7  -6   2    8.87    2.39
   7   6  -2    7.39    2.55
   7   6  -2   10.48    1.91
  -8  -2 -12    3.16    1.56
   8   2  12    0.41    1.60
  -8  -2 -12   -0.36    2.18
  -6  -3 -15    8.83    1.76
   6   3  15   11.30    2.12
   6   3  15   11.69    1.87
  -6  -3 -15    8.28    2.35
   3   3 -11   31.29    3.31
   3   3 -11   36.18    2.45
  -3  -3  11   38.69    3.65
  -6   5 -10    9.66    2.33
  -6   5 -10    2.31    2.99
   8  -5   6   17.65    2.48
  -8   5  -6    8.34    3.74
  -8   5  -6   11.86    1.91
  -8   5  -6   16.06    2.20
   2  -1 -14   30.20    2.60
  -2   1  14   34.90    2.73
   2  -1 -14   32.68    2.89
   2  11  14   23.68    2.12
  -2 -11 -14   20.82    1.93
   2  11  14   20.62    2.86
   2  11  14   25.16    2.60
   2  11  14   25.12    2.35
   9   1   0   12.17    2.14
  -9  -1   0   12.30    2.80
   9   1   0   10.52    1.70
  -9  -1   0   12.45    1.63
   9   1   0   12.61    1.91
   9   1   0   13.46    1.96
   6   8  14    8.66    2.00
  -6  -8 -14    8.36    1.59
   6   8  14    8.83    1.94
  -5  11   2   -1.73    2.26
   5 -11  -2    2.05    1.64
  -5  11   2    2.24    3.31
  -5  11   2    2.33    1.89
   1  13  10   35.99    3.80
   1  13  10   48.04    2.67
   1  13  10   41.05    2.81
  -1 -13 -10   39.03    2.65
  -1 -13 -10   37.30    3.96
   0   6  16   -0.41    1.78
   0   6  16   -0.39    1.98
   0  -6 -16    1.69    1.85
   0   6  16   -0.66    1.93
   0  -6 -16   -1.76    2.38
   0  -6 -16   -2.14    2.34
  -5   8  -7    6.24    2.07
  -5   8  -7    7.99    1.25
  -5   8  -7    8.24    2.19
  -5   8  -7    6.36    2.59
  -5   8  -7    6.56    2.96
   9   4   8   27.24    1.99
   9   4   8   30.84    2.44
   6   0  14   15.19    2.59
  -6   0 -14   19.69    2.83
   6   0  14   22.77    2.06
  -6   0 -14   20.30    1.87
   2  10  15   35.13    2.92
  -2 -10 -15   32.78    2.30
  -2 -10 -15   32.96    2.72
   2  10  15   25.88    3.03
   2  10  15   32.72    2.49
  -7   8   4   -1.12    1.79
  -7   8   4   -0.83    3.09
   7  -8  -4    0.98    3.24
   7  -8  -4   -1.22    1.95
   7  -8  -4    1.75    2.79
   7  -8  -4   -1.27    1.23
  -5  11   4   -2.14    1.96
   5 -11  -4   -0.11    1.76
  -6   3 -12   29.38    1.86
  -6   3 -12   17.34    3.63
   6  -3  12   33.39    2.05
   6  -3  12   25.41    3.00
   1   6 -10   14.84    2.27
   1   6 -10   17.26    1.97
  -6  -7   3   14.82    2.80
   5   5  -7    0.57    2.64
  -5  -5   7   -0.47    2.44
   7   9   4   20.38    2.09
   7   9   4   21.25    2.26
   7   9   4   19.76    2.30
   7   4  14   25.28    2.34
  -7  -4 -14   23.46    2.28
  -2 -13  -4    5.30    2.65
   2  13   4    3.67    1.47
   2  13   4    3.40    2.76
   2  13   4    1.83    2.14
   2  13   4    5.18    1.56
  -1   8  15   66.54    4.12
  -1   8  15   62.11    3.91
   1  -8 -15   60.62    3.21
  -1   8  15   77.15    4.07
  -9  -2  -9    5.91    3.22
  -9  -2  -9    3.13    1.63
   9   2   9    5.40    2.14
   9   2   9    6.97    1.69
   8   7  10    5.92    1.73
   8   7  10    5.11    1.92
   8   7  10    9.90    1.89
  -4   2 -14   -0.70    1.38
   4  -2  14   -0.69    1.45
   4  -2  14   -1.99    2.57
   0  -4 -16   85.74    4.70
   0  -4 -16   84.84    4.76
   0   4  16   97.26    5.33
   0   4  16   84.88    4.80
   5   6  -6    1.18    2.53
  -5  -6   6   -2.42    2.62
   2 -13  -5    8.76    3.50
  -2  13   5    8.08    1.27
   2 -13  -5    8.17    1.99
  -2  13   5    8.05    2.63
  -2  13   5    9.91    2.27
  -6  -6 -15    6.71    1.37
  -6  -6 -15   10.29    2.19
   6   6  15    6.16    1.94
   6   6  15    5.82    1.91
   6   6  15    6.63    1.72
   1  11  -3   14.42    1.65
   1  11  -3   12.45    2.02
   1  11  -3   15.05    1.62
   4   3 -10    7.91    2.69
   4   3 -10    5.63    1.97
  -4  -3  10    5.10    2.63
   1   8  16   11.61    2.28
   1   8  16    9.66    2.40
  -1  -8 -16   11.37    1.83
  -1  -8 -16   11.58    2.38
   1  11  14   10.30    1.95
  -1 -11 -14   10.76    1.62
   1  11  14   11.63    2.42
   1  11  14   13.03    1.71
  -6  10   2    2.17    3.41
  -6  10   2   10.60    1.94
   6 -10  -2    8.61    1.81
  -5   5 -11   20.14    2.71
  -5   5 -11   17.50    2.43
  -5   5 -11   15.79    3.26
   5  -5  11   20.70    2.97
   2 -10 -13   47.21    3.04
  -2  10  13   49.76    3.12
   4   8  -5   28.66    2.92
   4   8  -5   33.36    2.59
  -4  -8   5   31.61    3.50
  -8  -1   4   43.57    3.13
   8   1  -4   37.77    2.70
   8   1  -4   49.60    3.10
  -8  -1   4   41.38    3.05
   1   5 -11   16.30    2.46
   1   5 -11   23.68    2.14
  -2  13   6   16.10    2.40
  -2  13   6   11.64    1.44
   2 -13  -6   10.65    3.54
  -9  -3  -9   21.78    2.07
   9   3   9   20.47    2.13
   7   0  13   19.43    2.26
  -7   0 -13   18.50    2.73
   7   0  13   24.01    2.03
   7   3  14   16.92    1.97
  -7  -3 -14   18.63    2.02
   7   3  14   15.48    1.96
  -8   6  -4    7.14    1.53
  -8   6  -4   10.59    2.34
   8  -6   4   11.79    2.53
  -3  11  -3   10.45    1.90
  -3  11  -3    6.80    2.70
  -3  11  -3   10.59    2.89
  -3  11  -3   11.49    1.82
   5  -4  12   10.98    2.71
   5  -4  12   11.43    1.41
  -5   4 -12    6.98    3.22
  -5   4 -12    7.68    2.45
  -8   3  -9   15.91    2.24
   8  -3   9   15.92    1.43
  -8   3  -9   10.68    3.65
   8  -3   9   12.32    2.17
  -1  -7   9   15.04    3.30
   1   7  -9   17.03    1.94
   5  10   0   14.58    2.52
   5  10   0   14.71    2.04
   5  10   0   14.25    2.19
   4  12  11   32.94    3.05
   4  12  11   27.18    2.54
   8   5  12   37.75    2.39
   8   5  12   39.99    2.78
  -7  -5 -14   44.19    2.86
   7   5  14   34.48    2.37
   7   5  14   45.02    2.86
  -7  -5 -14   34.08    2.98
  -2  13   4    3.78    2.51
   2 -13  -4    1.39    1.78
   2 -13  -4    1.66    3.27
  -2  13   4    1.15    1.06
  -2  13   4    3.77    2.10
   9   4   3    1.09    1.74
   9   4   3    3.58    2.20
   9   4   3   -0.53    1.63
  -9  -4  -3    0.81    2.55
   2 -12   1    3.58    2.82
  -2  12  -1    2.92    1.33
  -2  12  -1    2.55    1.93
  -2  12  -1    1.88    2.10
   5   1 -10   63.78    3.98
  -5  -1  10   64.32    4.37
   5   5  16    9.94    1.79
  -5  -5 -16   10.11    1.53
  -5  -5 -16    9.76    2.25
   5   5  16   12.56    2.51
   5   5  16   13.07    2.03
   8   6   1    5.99    2.43
  -8  -6  -1    4.87    2.02
   8   6   1    4.76    1.77
   2  13  10   56.87    3.98
  -2 -13 -10   47.20    4.22
   2  13  10   62.95    3.52
   2  13  10   49.24    4.33
   2  13  10   61.21    3.33
  -4  -2 -16   26.44    2.10
  -4  -2 -16   23.65    2.84
   4   2  16   34.48    3.31
   4   2  16   30.61    2.48
  -4  -2 -16   30.35    2.33
  -3  12   0   13.85    2.26
  -3  12   0   16.63    1.41
   3 -12   0   13.11    3.26
  -3  12   0   15.52    2.46
  -7   0   7   33.36    3.06
   7   0  -7   31.96    3.28
  -5  10  -3   11.32    3.26
  -5  10  -3    9.69    1.72
  -5  10  -3    9.23    2.87
  -5  10  -3    9.39    1.91
  -5  10  -3    7.24    2.83
   8  -2  10   30.82    2.58
   8  -2  10   33.57    2.12
  -8   2 -10   20.74    3.98
  -8   2 -10   25.27    2.59
   1   2  16    6.12    1.85
  -1  -2 -16    6.73    1.91
   1   2  16    8.44    2.93
  -1  -2 -16    2.78    2.16
  -1  -2 -16    4.73    2.13
  -6  10   3    8.77    1.95
  -6  10   3    4.13    3.39
   6 -10  -3    9.74    1.95
   1 -11 -13   28.24    1.97
  -1  11  13   27.44    2.94
  -1  11  13   31.57    2.42
  -2  11  12   40.46    2.78
   2 -11 -12   43.51    2.87
  -6  10   1    9.89    1.88
  -6  10   1    7.57    3.63
  -6  10   1   12.13    2.89
   6 -10  -1   11.90    1.76
   8  -5  -4   10.99    3.30
  -8   5   4   16.29    3.06
   8  -5  -4   18.96    3.60
   8  -5  -4   20.27    1.93
   8  -5  -4   18.66    2.42
  -7   8  -3    3.01    1.29
   7  -8   3    3.87    2.24
  -7   8  -3    6.39    3.58
  -7   8  -3    8.76    2.81
  -7   8  -3    6.32    1.47
  -9  -1  -9    0.42    1.54
  -9  -1  -9   -0.09    3.34
   9   1   9    0.71    1.54
   9   1   9   -0.50    2.06
   9   1   9   -0.04    2.22
   0  13   2   11.53    2.46
   0  13   2   12.24    1.64
   0 -13  -2   10.48    2.83
   0  13   2   12.22    1.37
   0  13   2   13.21    2.25
  -5  11   1    6.25    1.94
   5 -11  -1    9.48    1.75
  -5  11   1   11.09    3.42
  -5  11   1    7.77    2.28
  -3 -13  -7   25.72    3.26
   3  13   7   31.33    2.51
   3  13   7   32.39    3.35
   3  13   7   31.75    2.91
   9  -3   0    1.13    2.53
  -9   3   0   -0.58    2.93
  -9   3   0    3.26    2.18
   9  -3   0    1.09    1.74
   9  -3   0   -0.43    1.58
   9  -3   0    0.31    1.42
   9  -3   0    1.40    3.06
   9  -3   5   28.23    2.91
  -9   3  -5   24.06    3.86
   9  -3   5   26.83    1.98
   9  -3   5   29.57    3.22
   9  -3   5   27.92    2.49
  -9   3  -5   30.10    2.54
   1  10  15   21.28    2.95
   1  10  15   20.06    2.37
   1  10  15   24.16    2.62
  -4   8  -8    5.33    1.29
  -4   8  -8    4.93    2.14
  -4   8  -8    8.65    2.87
  -4   8  -8    6.70    2.99
  -4   8  -8    9.44    2.41
   0 -13 -10    3.29    1.58
   0  13  10    5.89    1.69
   5   4  -8   -0.86    2.68
  -5  -4   8    1.00    2.39
  -3 -10 -15    5.42    1.65
   3  10  15    6.02    2.25
  -3 -10 -15    4.24    1.99
   3  10  15    8.22    1.95
   3  10  15    6.03    1.82
   3  10  15    3.33    2.15
  -5  -9   2   32.73    3.27
   5   9  -2   35.25    2.54
   5   9  -2   32.25    2.90
   5   4  16   47.84    3.29
  -5  -4 -16   44.30    2.59
  -5  -4 -16   43.54    3.30
   5   4  16   59.35    3.72
  -5  -4 -16   49.37    3.04
  -2   6 -11   -1.50    2.31
  -2   6 -11    0.95    1.34
   2  -6  11    0.39    2.81
  -2   6 -11    0.83    1.29
  -2   6 -11    2.63    2.49
   2  12   0    1.61    1.40
   2  12   0    1.03    1.91
   2  12   0    1.28    1.60
   8   7   3   16.75    2.01
  -8  -7  -3   14.45    2.39
   8   7   3   16.08    2.09
   8   7   3   15.31    2.50
   3  13   8   56.24    3.85
   3  13   8   56.98    4.17
   3  13   8   56.98    3.40
   3  13   8   67.52    3.56
  -3 -13  -8   46.03    3.93
  -1  13   9    3.55    2.33
  -1  13   9    5.68    1.60
   1 -13  -9    7.54    1.53
   8  -2  -5    0.77    1.41
   8  -2  -5    1.91    1.78
   8  -2  -5    1.26    2.90
  -8   2   5    3.10    2.54
   7  -7  -6   26.01    2.14
   7  -7  -6   28.59    2.73
   7  -7  -6   25.31    3.76
  -3   9  -7   10.65    2.78
  -3   9  -7    7.90    1.56
  -6   8   8   17.40    2.23
  -6   8   8   20.28    1.83
   6  -8  -8   20.93    2.67
   6  -8  -8   24.03    2.05
  -1  10  14    9.19    2.29
  -1  10  14   11.28    1.94
   9  -1  -1   25.68    2.41
   9  -1  -1   27.23    2.37
   9  -1  -1   30.23    2.48
  -9   1   1   24.25    3.13
  -9   1   1   24.58    2.04
   7   8   1   52.88    3.04
   7   8   1   44.36    3.11
   7   8   1   38.88    3.35
  -7  -2   6    1.07    2.30
  -5  11   5   -0.47    0.97
  -5  11   5    2.94    2.04
   5 -11  -5    2.65    1.85
   5 -10  -8   34.80    2.99
  -5  10   8   37.06    2.36
   5 -10  -8   38.40    2.38
  -5  10   8   34.19    2.91
  -3 -11 -14   30.19    2.28
   3  11  14   31.49    2.86
   3  11  14   37.23    2.67
   3  11  14   24.96    3.00
   3  11  14   31.16    2.46
  -3 -11 -14   30.54    2.58
  -2   5 -12   -1.32    1.38
  -2   5 -12   -1.07    2.56
   2  -5  12    0.32    2.82
  -2   5 -12   -0.29    2.37
  -2   5 -12   -1.04    1.65
  -2   5 -12   -0.02    1.55
  -4  11  -2   13.68    2.01
  -4  11  -2   14.91    3.13
  -4  11  -2   13.57    3.01
  -4  11  -2   13.04    2.03
  -4  11  -2   10.07    2.11
  -2  -3  12   13.14    3.03
   2   3 -12   12.61    1.53
   2   3 -12   15.63    2.14
   2   3 -12   13.74    2.38
   2   3 -12   11.46    2.59
  -4  12   4    3.51    2.01
   4 -12  -4    0.88    1.72
  -4  12   4   -0.55    2.42
   0   7  16   26.32    2.52
   0  -7 -16   21.97    2.12
   0   7  16   26.07    2.41
   0   7  16   20.07    2.53
   0   9  -7    8.94    1.83
   0   9  -7   10.29    1.53
  -6   6  -9    5.92    2.41
  -6   6  -9    2.70    3.01
   8  -3  -5    4.33    2.12
  -8   3   5    7.40    2.61
   8  -3  -5    5.64    1.34
   8  -3  -5    5.41    2.93
   8  -3  -5    5.78    1.75
   5  11  12   47.36    3.09
  -5 -11 -12   42.48    2.92
   5  11  12   42.67    3.36
   5  11  12   45.34    3.14
  -7   4 -10    7.65    2.36
  -7   4 -10   12.71    2.10
  -7   4 -10    4.59    3.37
   7  -4  10    9.28    1.79
  -5   6 -10   37.80    3.23
  -5   6 -10   33.88    3.02
  -1  13   2    1.27    1.03
   1 -13  -2    2.25    2.88
  -1  13   2    1.58    2.39
  -1  13   2   -0.79    2.04
  -1  13   2    3.20    1.29
   7  -3  11   11.93    1.80
  -7   3 -11   11.67    2.48
   7  -3  11   16.73    1.47
  -7   3 -11    7.81    3.67
  -6   0   9   23.66    2.91
   6   0  -9   26.86    2.95
   9   5   6    3.42    2.35
   9   5   6    1.47    1.80
  -9  -5  -6    0.49    2.78
   9   5   6    1.61    1.53
  -3 -13  -6   39.37    3.64
   3  13   6   39.41    3.59
   3  13   6   36.98    2.68
   3  13   6   40.80    2.58
   1  10  -5   23.38    1.93
   1  10  -5   20.19    2.22
  -4  12   3   -0.48    2.01
   4 -12  -3    1.09    1.69
  -4  12   3    0.83    2.29
   8  -6  -3    0.01    1.33
  -8   6   3   -0.68    2.96
   8  -6  -3   -1.72    2.81
   8  -6  -3   -0.33    1.96
   8  -6  -3    0.20    3.13
   2 -13  -7   20.22    1.74
  -2  13   7   18.96    2.60
  -2  13   7   18.31    1.68
  -4   8  12   44.94    2.88
   4  -8 -12   41.71    2.87
   4  -8 -12   38.27    4.11
  -4   8  12   34.06    3.05
   5   7  -5   18.53    2.89
  -5  -7   5   29.06    3.32
   5   6  16   15.18    2.14
   5   6  16   16.20    2.02
   5   6  16   13.86    2.34
  -5  -6 -16   14.44    2.31
  -5  -6 -16   14.13    1.69
  -8  -1 -12    9.25    1.69
  -8  -1 -12    8.73    2.35
   8   1  12   14.42    1.81
   9  -2  -1    5.63    1.89
   9  -2  -1    5.29    1.94
   9  -2  -1    1.87    2.80
  -9   2   1    3.26    2.82
   9  -2  -1    3.64    1.67
  -8   4  -8    2.43    1.90
  -8   4  -8    3.33    1.24
  -8   4  -8    0.49    3.43
   8  -4   8    1.43    2.07
  -3   5  14   36.04    2.94
   3  -5 -14   33.45    3.64
   3  -5 -14   30.09    2.22
  -3   5  14   35.09    2.80
   3  -5 -14   29.05    3.24
  -9   1  -8   28.78    2.09
  -9   1  -8   21.11    3.80
   9  -1   8   31.89    2.83
   9  -1   8   30.95    2.86
   9  -1   8   31.19    2.29
   6   2  15    5.87    2.09
  -6  -2 -15    8.11    1.72
   6   2  15    9.16    1.78
   9   5   7    2.99    1.49
   9   5   7    3.57    1.88
  -9   0   1   14.92    1.90
   9   0  -1   13.15    2.16
   9   0  -1   12.01    1.73
   9   0  -1   14.91    2.11
  -9   0   1   10.34    2.77
   6  10  12   20.53    2.50
   6   9   0   17.50    2.24
   6   9   0   13.86    2.08
  -4  12   5   -0.59    1.97
  -4  12   5   -0.06    0.98
   4  10  -2   31.86    2.37
   4  10  -2   29.25    2.70
   7   9  11   48.39    3.13
   7   9  11   45.03    3.18
   6  -2  13   25.26    1.93
  -6   2 -13   26.13    1.91
   6  -2  13   20.97    2.86
   6   2  -8   22.92    2.85
  -6  -2   8   21.97    2.94
   1  12  -1   15.72    1.88
   1  12  -1   14.85    1.60
   1  12  -1   15.47    1.58
   1  12  -1   13.74    2.17
   9  -2   7   18.03    2.61
  -9   2  -7   16.25    3.70
   9  -2   7   21.46    2.53
   9  -2   7   27.59    1.94
  -9   2  -7   21.00    1.78
   9  -2   7   20.31    2.74
   3  -5  12   16.54    1.54
  -3   5 -12    8.78    1.63
   3  -5  12   12.74    3.11
  -3   5 -12    9.78    1.31
  -3   5 -12   13.38    1.47
  -3   5 -12   15.43    2.83
  -3   5 -12    7.06    2.78
  -3  10  12   48.89    3.42
  -3  10  12   46.27    3.02
   3 -10 -12   48.85    3.05
  -4  -8 -16   20.64    2.16
   4   8  16   15.03    2.32
  -4  -8 -16   19.50    2.23
   4   8  16   22.03    2.32
   4   8  16   22.38    2.34
   7  -6  -7   27.09    3.78
   7  -6  -7   25.18    3.49
   7  -6  -7   26.38    2.82
   7  -6  -7   36.50    2.50
  -2  13   3   -0.83    2.38
   2 -13  -3   -0.65    1.79
   2 -13  -3   -0.45    3.12
  -2  13   3   -1.49    2.15
   6 -10  -4    4.46    1.86
  -6  10   4    1.54    1.85
  -2   1 -15   55.68    3.92
  -2   1 -15   56.52    3.45
   2  -1  15   60.53    4.45
   2  -1  15   62.66    3.58
  -2   1 -15   63.97    3.49
  -8   1   5   34.69    2.72
   8  -1  -5   33.37    2.81
   8  -1  -5   30.19    3.44
   8  -1  -5   33.44    2.31
  -3   6 -11   13.41    2.72
  -3   6 -11   12.25    2.72
   3  -6  11   11.03    3.03
  -3   6 -11    9.18    1.32
  -3   6 -11    8.60    1.57
   3  -4 -14   35.36    3.42
   3  -4 -14   47.42    3.94
   3  -4 -14   41.37    2.71
  -3   4  14   46.79    3.19
  -9  -4  -9   33.43    2.50
   9   4   9   27.86    1.99
   9   4   9   29.00    2.42
   0  -3 -16   62.08    3.85
   0  -3 -16   62.05    3.78
   0   3  16   70.99    4.63
   0   3  16   66.07    3.92
   0  -3 -16   55.72    3.63
   3  -1  15   16.12    1.92
   3  -1  15   14.10    2.96
  -3   1 -15    9.69    2.57
  -3   1 -15   12.56    1.82
  -6  10   0   15.97    3.82
  -6  10   0   17.83    2.00
   6 -10   0   17.35    1.81
  -6  10   0   12.16    3.08
   2  -7  10    3.51    2.91
  -2   7 -10    2.44    2.30
  -2   7 -10    2.82    1.43
  -5   3 -13   11.31    2.61
  -5   3 -13   12.25    1.45
   5  -3  13   13.12    1.56
  -5   3 -13    9.57    3.26
   5  -3  13   12.13    2.81
   3  13   9   29.86    2.30
   3  13   9   25.81    2.79
   3  13   9   23.36    2.23
   3  13   9   26.16    3.07
   9   5   5    2.45    1.61
   9   5   5    0.94    2.38
  -9  -5  -5    1.73    2.70
   9   5   5    2.48    1.84
  -8   1 -11   10.11    3.85
   8  -1  11   14.36    1.66
  -8   1 -11   10.29    2.37
  -7  -2 -14    0.57    2.38
   7   2  14    1.33    1.61
  -7  -2 -14    1.55    1.61
   7   2  14    0.39    1.77
  -9  -3  -1    0.77    2.46
   9   3   1   -0.94    1.60
   9   3   1   -1.75    2.13
  -5   1  11   38.10    3.38
   5  -1 -11   42.31    3.35
   0   0  15    1.94    2.80
   0   0 -15    0.49    2.24
   0   0 -15    1.24    2.15
   0   0  15   -1.27    1.78
   1   4 -12   25.97    2.36
   1   4 -12   23.44    2.50
   1   4 -12   15.72    2.61
  -1   6 -11    8.05    1.55
   1  -6  11    7.11    3.06
  -1   6 -11    1.30    2.06
   2  12  13   15.00    2.03
   2  12  13   14.27    1.85
   2  12  13   15.05    2.60
  -2 -12 -13   14.39    1.85
   2  12  13   11.06    2.80
  -6   8  -6    4.93    2.17
  -6   8  -6    2.39    3.16
  -6   8  -6    3.75    2.47
   4  12   3   32.05    2.55
   4  12   3   36.30    2.51
   4  12   3   31.58    3.16
   9   2   0    4.40    1.89
   9   2   0    4.42    2.09
   9   2   0    4.75    1.64
  -9  -2   0    6.59    2.61
   7   7  -1   12.19    2.73
   7   7  -1   16.29    2.04
  -7  -7   1   17.97    2.56
  -1  -1  14   13.23    3.09
  -1  -1  14   15.11    2.00
   1   1 -14   11.85    2.37
   1   1 -14   11.88    2.33
   6  -7  -9    1.90    3.46
   6  -7  -9    0.36    3.16
   6  -7  -9    1.97    3.10
  -6   7   9    0.48    1.47
   6  -7  -9   -0.56    1.61
   3   9  -5    1.09    1.85
   3   9  -5    1.35    1.70
  -3  -9   5    3.35    2.83
   1  12  13    1.73    1.49
  -1 -12 -13    5.90    1.80
  -1 -12 -13    1.40    1.54
   1  12  13    2.52    2.72
   1  12  13   -0.82    2.32
   1  12  13    3.24    1.72
  -9   4  -2    9.81    3.44
   9  -4   2    8.25    2.50
   9  -4   2    7.63    2.99
   9  -4   2    9.52    1.51
  -9   4  -2    8.97    2.23
  -5  -3 -16   45.16    3.48
  -5  -3 -16   47.46    3.05
   5   3  16   57.74    3.96
   5   3  16   56.93    3.56
  -8  -4   2    1.86    1.95
   8   4  -2    0.93    1.73
   8   4  -2    1.44    2.77
   3  12   1    8.52    2.14
   3  12   1   11.54    1.91
   3  12   1    8.75    1.77
   3  12   1   10.20    2.68
   7   6  14   36.76    2.70
   7   6  14   32.38    2.37
   6  11   8   18.25    2.33
   6  11   8   18.01    2.21
   1  13   2   21.10    1.94
   1  13   2   18.05    2.47
   1  13   2   21.02    1.77
  -1 -13  -2   18.23    2.88
   8   8   7   46.95    3.28
   8   8   7   48.71    3.05
   8   8   7   41.81    3.16
   2  -5 -15   25.24    3.19
   2  -5 -15   21.13    2.05
   2  -5 -15   16.21    2.83
  -2   5  15   24.44    2.53
   5  -7 -11   33.49    3.92
  -5   7  11   31.91    2.45
   5  -7 -11   31.19    3.60
   4  11   0   27.43    3.18
   4  11   0   34.06    2.58
   4  11   0   34.50    2.57
   3   1  16   35.32    2.68
   3   1  16   38.70    3.68
  -3  -1 -16   32.27    2.48
  -3  -1 -16   35.09    2.59
   1   8  -8   19.90    1.95
   1   8  -8   14.61    2.02
  -1  -8   8   16.69    3.37
  -7   5  -9    2.08    3.35
  -7   5  -9    5.79    2.19
   7  -5   9    1.69    1.71
  -7   5  -9    1.06    2.19
   3  -6 -14   30.10    3.61
  -3   6  14   29.29    2.85
  -3   6  14   34.85    2.69
   3  -6 -14   27.65    3.29
  -4  12   2    5.14    2.01
   4 -12  -2    2.92    1.72
  -4  12   2    0.56    1.22
  -4  12   2    4.24    2.26
   6  11   7   25.55    2.45
   6  11   7   30.78    2.65
   6  11   7   27.05    2.52
  -6   9   7   20.18    2.33
  -6   9   7   20.05    1.75
   6  -9  -7   21.57    1.85
  -4  11   9   25.54    2.07
  -4  11   9   25.89    2.68
   4 -11  -9   27.03    2.12
  -2   4 -13   -2.48    2.59
  -2   4 -13    0.22    1.67
  -2   4 -13    0.38    1.58
  -2   4 -13   -1.00    1.49
   2  -4  13   -1.21    2.85
   2  -4  13    0.36    1.40
  -1   5 -12   13.46    1.75
  -1   5 -12    5.58    2.16
  -1   5 -12    7.89    1.99
   1  -5  12   12.19    3.00
  -1   5 -12   13.31    1.96
   2   1  16   27.06    3.40
   2   1  16   23.85    2.34
  -2  -1 -16   21.47    2.35
  -2  -1 -16   22.04    2.65
  -2  -1 -16   22.01    2.26
  -1  11  -4    3.28    1.76
  -3  12   9   20.09    2.60
  -3  12   9   22.28    1.91
   3 -12  -9   24.42    1.93
   6   7  15    3.75    1.84
   6   7  15    2.36    1.73
   6   7  15    2.38    1.87
  -6  -7 -15    2.77    1.42
  -2   9  14    7.58    1.87
  -2   9  14    3.92    2.24
   2  13   3    1.82    1.54
   2  13   3    2.14    1.46
  -2 -13  -3    3.03    2.51
   2  13   3   -2.19    2.13
  -7   2 -12   24.23    2.85
  -7   2 -12   19.93    4.02
   7  -2  12   19.83    2.05
   7  -2  12   34.50    2.07
   2   9  16    2.23    2.16
   2   9  16    2.30    2.39
   2   9  16    0.92    2.05
  -2  -9 -16    2.97    2.17
   9   0   9    0.32    1.59
  -9   0  -9    2.97    3.50
   9   0   9    0.08    2.01
  -9   0  -9   -2.24    1.52
   9   0   9   -1.47    2.22
   8   8   8   25.21    2.30
   8   8   8   23.77    2.52
   8   8   8   23.19    2.44
  -3   0  13    8.84    1.89
  -3   0  13   11.15    2.98
   3   0 -13    7.58    2.05
   9  -4   3   15.31    3.03
   9  -4   3   13.11    2.55
   9  -4   3   12.64    1.52
   9  -4   3   10.55    1.85
  -9   4  -3    8.94    3.50
  -9   4  -3   11.68    2.27
   8  -4  -5   23.05    3.73
  -8   4   5   19.18    3.04
   8  -4  -5   17.42    3.30
   8  -4  -5   23.31    2.54
   8  -4  -5   21.41    2.17
  -8  -3   3    2.03    1.82
   8   3  -3    2.26    1.70
  -8  -3   3    4.48    2.05
  -5  11   0    6.32    1.86
  -5  11   0   10.89    3.37
   5 -11   0    7.29    1.65
   9   5   8   22.38    2.22
   9   5   8   17.89    1.83
  -9   4  -1   11.81    2.30
   9  -4   1   12.28    2.69
   9  -4   1   14.03    1.59
   9  -4   1   13.98    3.15
  -9   4  -1   12.00    3.34
   5   0  15   -2.29    1.59
   5   0  15   -2.15    2.42
  -5   0 -15    0.63    1.52
   2   9  -6   34.41    2.37
   2   9  -6   24.95    2.47
  -2  -9   6   32.22    3.63
   7   9   3   12.43    2.15
   7   9   3   12.52    1.95
   7   9   3   14.09    2.13
  -3 -13  -5   24.67    3.05
   3  13   5   16.93    3.02
   3  13   5   19.76    2.03
   3  13   5   22.86    1.98
  -1   7 -10    3.84    2.00
  -1   7 -10    1.87    1.41
   1  -7  10    1.66    2.96
  -1   7 -10    1.61    1.52
  -7   8   5    1.98    1.82
   7  -8  -5    1.23    1.32
   7  -8  -5    0.20    3.06
   7  -8  -5   -1.44    3.28
   7  -8  -5   -0.22    2.06
   8   8   6   61.23    4.13
   8   8   6   77.33    4.16
   8   8   6   73.10    3.94
  -8   7   0    6.57    3.47
   8  -7   0   10.38    2.96
   8  -7   0   14.43    3.20
   0 -11 -14    1.94    1.43
   0  11  14   -0.98    2.34
   0  11  14   -0.14    1.71
   1  13  11   53.83    3.25
  -1 -13 -11   49.00    3.07
   1  13  11   53.19    3.75
  -2   4  15    2.43    1.91
   2  -4 -15    3.52    1.86
   2  -4 -15    5.63    2.99
   2  -4 -15    2.47    2.44
   3 -11 -11    2.87    1.65
  -3  11  11    2.77    1.61
  -3  11  11    4.22    2.28
   2  -6 -15   31.96    3.36
   2  -6 -15   22.61    3.11
  -2   6  15   32.72    2.73
  -2   6  15   33.27    2.79
  -3   4 -13   19.45    2.88
  -3   4 -13   17.05    1.88
   3  -4  13   25.00    1.94
  -3   4 -13   14.42    3.11
  -3   4 -13   11.77    1.66
   3  -4  13   22.97    3.30
  -7   7  -6    3.64    2.47
   7  -7   6    1.32    1.88
  -7   7  -6    3.66    1.78
  -7   7  -6    5.64    3.45
  -6   9  -4    8.39    3.31
  -6   9  -4    4.53    1.44
  -6   9  -4    5.73    2.49
  -6   9  -4    2.98    2.53
   6  11   9   24.89    2.63
   6  11   9   31.38    2.59
   1 -12 -12   20.58    1.85
   1 -12 -12   26.61    2.19
  -1  12  12   26.73    2.35
   5   3  -9   -0.12    2.25
  -5  -3   9   -0.28    2.61
   5   3  -9    1.08    2.85
   8   7  11    2.56    1.68
   8   7  11    2.07    1.81
   8   7  11    2.16    1.82
   5  11   2   17.35    2.63
   5  11   2   19.38    2.16
   5  11   2   20.80    2.17
   5  11   2   17.59    2.35
   0   2 -14   17.45    2.62
   0   2 -14   15.21    2.38
   0  -2  14   21.60    2.11
   0   2 -14   17.39    2.14
   0  -2  14   14.72    3.22
   5  12   8   12.69    2.00
   5  12   8   11.46    2.37
   5  12   8   13.19    2.38
   4  -5 -13    8.35    3.46
   4  -5 -13    5.81    2.66
   4  -5 -13    5.46    1.49
  -4   5  13    6.48    1.95
  -4   5  13    7.53    2.38
   6   8  -2   -1.36    2.01
  -6  -8   2    0.62    2.53
   6   8  -2   -1.44    1.84
   4  -4 -13   31.80    3.71
  -4   4  13   32.57    2.72
   4  -4 -13   27.41    2.22
  -4   4  13   26.09    2.48
   4  -4 -13   28.40    3.04
  -4  12   6   -0.04    2.08
  -4  12   6   -0.30    1.17
   4 -12  -6   -0.12    1.94
  -8   7  -1    6.54    2.64
   8  -7   1    7.38    2.79
  -8   7  -1    4.78    3.47
  -5  11   6    1.99    2.02
  -5  11   6   -0.07    1.08
  -3   7 -10    4.50    2.64
  -3   7 -10    5.50    1.29
   3  -7  10   10.13    2.99
  -3   7 -10    9.36    2.81
   9   4   2    0.04    1.65
  -9  -4  -2    1.16    2.48
   9   4   2    0.02    2.18
   8   5  -1   18.97    2.09
   8   5  -1   12.84    2.87
  -8  -5   1   19.73    2.42
   8   6  12   46.81    3.04
   8   6  12   35.93    2.55
   6  -4 -10   41.85    3.64
   6  -4 -10   46.95    4.04
   6  -4 -10   44.41    4.18
  -9   3   1   -1.13    2.94
   9  -3  -1   -0.66    3.13
   9  -3  -1   -1.05    2.74
   9  -3  -1    2.77    1.56
   9  -3  -1    0.15    1.83
   5  10  14   19.42    2.47
  -5 -10 -14   16.59    2.04
  -9   3  -6   13.97    3.66
   9  -3   6   18.81    1.66
  -9   3  -6   18.81    2.14
   9  -3   6   18.86    2.68
   9  -3   6   19.02    2.85
   9  -3   6   17.62    2.29
   5  12   7    1.01    2.11
   5  12   7    0.83    1.76
   5  12   7    1.65    2.08
  -4   0  12    2.29    2.75
  -4   0  12    0.59    1.79
   4   0 -12   -0.23    2.36
   1  -1 -15   46.27    3.32
  -1   1  15   54.66    3.42
   1  -1 -15   48.52    3.44
  -1   1  15   53.74    4.33
   6  10   2   15.65    2.19
   6  10   2   16.35    2.27
   6  10   2   13.39    2.28
   3   9  16   -1.80    2.13
  -3  -9 -16   -2.20    2.00
   3   9  16    0.75    1.82
   9   5   4    2.99    1.85
  -9  -5  -4    5.85    2.65
   9   5   4    2.15    1.69
   9   5   4    5.17    2.52
   3   2 -12   49.61    3.15
  -3  -2  12   51.34    4.15
   3  -3 -14   18.55    3.13
   3  -3 -14   15.50    2.72
   3  -3 -14   19.69    2.20
  -3   3  14   21.57    2.91
  -2  11  -4    7.81    1.85
  -2  13   8   22.29    2.72
  -2  13   8   19.89    1.81
   2 -13  -8   19.85    1.76
   3  -9 -13   52.67    3.34
  -3   9  13   52.93    3.27
   3  -9 -13   51.24    4.47
   6  11   6   60.88    3.75
   6  11   6   57.79    3.68
   6  11   6   61.54    3.47
   6  11   6   59.39    3.65
   7  -3  -8   32.81    3.57
   7  -3  -8   32.06    3.29
   6  -3 -10   30.11    3.16
   6  -3 -10   37.05    3.52
   9   1  -1    7.00    1.92
   9   1  -1    6.17    2.06
   9   1  -1    6.27    1.66
  -9  -1   1    3.89    2.52
  -9  -1   1    5.31    1.75
  -8   6  -5    6.00    1.66
  -8   6  -5    5.96    3.62
   8  -6   5    3.06    2.29
  -8   6  -5    4.33    2.25
   8  -7  -1    9.57    1.83
   8  -7  -1    5.72    2.87
   8  -7  -1    7.78    3.21
  -8   7   1    6.64    3.44
   5   7  16    7.33    1.95
  -5  -7 -16    6.41    2.05
  -5  -7 -16    7.01    1.61
   5   7  16    3.59    1.92
  -5   7  -9    8.62    3.14
  -5   7  -9    5.31    2.21
  -5   7  -9    9.55    2.43
  -5   7  -9    7.75    2.60
   2  13  11   57.95    3.97
   2  13  11   64.94    3.39
   2  13  11   52.21    4.30
   2  13  11   57.22    3.48
   5   9  15   67.38    4.03
   5   9  15   69.25    3.98
  -5  -9 -15   65.37    3.64
   3  13  10   15.84    1.96
   3  13  10   11.67    1.93
   3  13  10    9.35    2.57
   5  12   9   30.95    2.93
   5  12   9   30.12    2.62
   5  12   9   35.15    2.93
   9   2  10    3.51    1.66
  -9  -2 -10    0.95    1.60
   8   8   9   37.67    2.68
   8   8   9   40.88    2.87
   8   8   9   35.74    2.90
   9   3  10    4.72    1.74
  -9  -3 -10    5.19    1.73
  -4  -2  11    2.93    2.66
   4   2 -11    1.11    2.08
   2 -12 -11    0.90    1.50
  -2  12  11    1.66    2.36
  -2  12  11    0.52    1.57
   7  -4  -8   25.23    2.38
   7  -4  -8   23.05    3.44
   7  -4  -8   20.94    3.12
  -1  10  -6    5.05    1.67
  -9   4  -4   15.30    3.74
  -9   4  -4   19.06    2.40
   9  -4   4   18.40    3.14
   9  -4   4   19.78    1.69
   9  -4   4   21.33    2.71
  -8   5  -7    3.11    2.09
  -8   5  -7    3.67    1.82
  -8   5  -7    0.11    3.69
  -8   5  -7    4.75    1.90
   8  -5   7    2.88    2.11
  -6  10   5    1.41    1.97
   6 -10  -5    3.89    1.97
   8   0  -5   29.78    2.35
  -8   0   5   34.33    2.92
   8   0  -5   38.72    3.53
   0  11  -4    0.27    1.72
   0  11  -4    1.48    1.15
   0   8  16   42.23    3.15
   0  -8 -16   36.56    2.47
   0   8  16   48.38    3.24
   0   8  16   35.81    3.29
   0   8  16   50.06    3.20
   7   8  13    6.23    1.91
   7   8  13    7.03    1.92
   7   8  13    5.47    1.53
   4  12  12   68.06    3.89
   4  12  12   70.14    3.76
   4  12  12   66.10    4.12
   4  12  12   50.73    4.25
  -6  10  -1   14.05    3.05
  -6  10  -1   11.14    3.67
  -6  10  -1   10.16    1.80
   6 -10   1   11.71    1.63
  -6  10  -1    6.15    1.48
   1  -1  15    9.73    3.09
  -1   1 -15    9.64    2.48
   1  -1  15    8.14    1.89
  -1   1 -15    8.29    1.89
  -1   1 -15    7.72    2.17
   9  -4   0    1.14    1.37
   9  -4   0    1.59    3.11
   9  -4   0   -0.55    2.52
  -9   4   0    1.65    3.05
  -9   4   0    0.38    2.24
   9  -4   0    1.04    1.74
  -4  -9   4   33.54    3.54
   4   9  -4   24.33    2.97
   4   9  -4   33.32    2.48
   4   9  -4   29.01    2.63
  -2  13   2   -0.46    2.09
  -2  13   2    1.05    2.33
   2 -13  -2    2.95    2.98
  -2  13   2    1.69    1.12
   0  10  15   36.70    3.02
   0  10  15   33.84    2.72
  -3  -5 -17    1.69    2.07
  -3  -5 -17    4.27    1.95
   3   5  17    2.37    1.86
   3   5  17    1.59    2.50
  -2  10  -6   17.57    2.71
  -2  10  -6   19.62    2.02
  -1   9  15   26.77    2.49
  -1   9  15   27.35    2.73
  -1   9  15   23.97    2.94
   3  12  13   21.07    2.30
   3  12  13   24.47    2.75
   3  12  13   20.54    3.03
   4  10  15   10.26    2.29
  -4 -10 -15    9.84    1.97
   4  10  15   10.68    2.09
  -7   8  -4    4.49    1.67
  -7   8  -4    1.72    3.53
  -7   8  -4    1.00    2.61
  -4  10  -5    8.80    2.61
  -4  10  -5    6.21    1.63
  -4  10  -5    7.40    2.90
  -4  10  -5    6.53    2.17
  -5  -8   4   14.05    2.99
   5   8  -4   11.08    2.62
   6  -5 -10   30.00    3.63
   6  -5 -10   34.05    4.08
   6  -5 -10   26.37    3.40
  -6   5  10   28.01    2.34
   2   5  17   26.05    2.44
  -2  -5 -17   25.32    2.64
   2   5  17   25.44    3.00
  -2  -5 -17   21.04    2.49
   7  -9  -1   21.34    2.95
   7  -9  -1   22.84    2.10
  -7   9   1   23.44    2.14
   4  -1  15   -2.87    2.61
  -4   1 -15    1.95    1.55
   4  -1  15   -0.72    1.56
   1   9  16   32.41    2.88
   1   9  16   38.31    2.75
  -1  -9 -16   23.67    2.10
  -6   7  -8    1.52    2.43
  -6   7  -8    5.43    3.17
  -1  13  10    5.21    2.50
   1 -13 -10   10.22    1.68
  -1  13  10   10.12    1.81
  -8   7  -2    9.41    2.78
   8  -7   2    6.89    2.73
  -1  12  -2    0.99    2.11
  -1  12  -2    2.38    1.86
   7  -2  -8   32.13    3.28
   7  -2  -8   34.96    3.54
   2  -8   9    4.39    2.87
  -2   8  -9    0.71    1.46
  -2   8  -9    1.10    2.31
   5  12   6    0.76    1.75
   5  12   6    3.48    1.69
   5  12   6    2.84    2.11
   5  12   6    0.96    2.20
   8   8   5   11.52    2.03
   8   8   5   10.94    1.89
   8   8   5   11.87    2.41
   1  -4  13   11.09    3.02
  -1   4 -13    8.44    2.01
  -1   4 -13   12.40    2.04
   1  -4  13   11.84    1.67
  -1   4 -13   11.78    2.71
  -1   4 -13    6.84    2.47
  -1   4 -13   13.39    1.84
   4  -6 -13    7.98    2.82
   4  -6 -13    8.76    3.35
  -4   6  13    7.83    1.95
   4  -3 -13   34.12    2.47
   4  -3 -13   27.00    2.99
  -4   3  13   38.49    3.30
   4  -3 -13   35.90    3.09
  -4   3  13   34.91    2.75
   8   2  -4   43.86    2.85
  -8  -2   4   50.34    3.46
   8   7   2   -1.80    1.87
  -8  -7  -2    0.61    2.01
   8   7   2    1.79    2.29
   8   7   2    0.16    1.73
  -2  -6 -17   53.53    3.48
   2   6  17   54.34    3.57
   2   6  17   60.61    3.54
  -2  -6 -17   52.41    3.37
  -4  12   1    9.15    2.35
  -4  12   1    9.05    1.55
  -4  12   1    9.48    2.11
   4 -12  -1   12.27    1.90
   3   6  17    4.22    1.97
   3   6  17    7.33    2.00
  -3  -6 -17    6.64    2.04
  -3  -6 -17    5.93    2.12
   3   6  17    7.41    2.46
   0  13   1   13.42    2.25
   0  13   1    8.01    2.40
   0  13   1   12.10    1.46
   0 -13  -1   11.21    2.71
   0  13   1   14.62    1.77
  -2   0  14   71.82    4.01
  -7   9   2   18.46    2.08
   7  -9  -2   16.35    2.87
   7  -9  -2   21.02    2.12
  -3  12  -1   17.42    2.31
  -3  12  -1   19.37    1.60
  -3  12  -1   14.73    2.39
   3 -12   1   11.63    3.25
   4   1  16   14.30    2.85
   4   1  16   15.92    2.00
  -4  -1 -16   15.44    1.98
   0 -13 -11    4.85    1.65
   0  13  11    4.86    1.67
   7   1  -7   12.00    2.89
  -7  -1   7   11.76    2.57
  -3   7  14    2.45    2.35
  -3   7  14    2.83    1.80
   3  -7 -14    0.89    2.95
  -3   7  14    3.95    2.14
   3  -7 -14    6.92    3.32
   6  11  10   11.61    2.13
   6  11  10   11.73    2.26
  -1  13   1    1.72    2.00
  -1  13   1    1.77    2.42
   1 -13  -1    2.90    2.78
  -1  13   1    2.96    1.36
   0  12  13   31.86    2.50
   0  12  13   29.44    2.97
   0  12  13   20.40    3.23
   0 -12 -13   28.23    2.11
   5  -2  14   13.23    1.70
  -5   2 -14   13.72    1.63
   5  -2  14   14.65    2.91
   9   5   9   26.48    2.44
   9   5   9   25.92    2.02
   8   0  12   28.65    2.20
  -8   0 -12   20.56    2.69
   7  -9   0   14.31    2.68
  -7   9   0   13.45    3.84
  -7   9   0   16.17    1.87
  -7   9   0   20.09    3.20
  -2   3  15    4.77    1.97
   2  -3 -15    2.38    2.34
   2  -3 -15    2.60    1.89
   2  -3 -15   -1.50    2.78
  -4   5 -12   38.95    3.09
  -4   5 -12   28.51    1.87
   4  -5  12   40.22    2.29
  -4   5 -12   24.05    3.53
   4  -5  12   41.24    3.85
  -4   5 -12   34.19    3.23
  -2   7  15   23.13    2.52
  -2   7  15   25.13    2.66
  -2   7  15   27.58    2.68
  -2   7  15   22.04    2.41
   2  -7 -15   16.15    3.11
   2  -7 -15   19.56    1.82
  -5   9  -6    1.62    1.98
  -5   9  -6    3.39    2.35
  -5   9  -6   -1.54    2.96
  -5   9  -6   -0.62    1.31
   7  10   8    1.08    1.94
   7  10   8    0.49    1.93
   6   9  14   36.54    2.93
  -6  -9 -14   38.93    2.64
   6   9  14   47.10    3.11
   4  11  14   24.79    2.47
  -4 -11 -14   19.93    2.26
   4  11  14   22.13    2.68
  -1  -1 -16   -1.53    1.98
   1   1  16   -2.89    3.00
   1   1  16    1.64    1.81
  -1  -1 -16   -0.61    2.16
  -1  -1 -16   -0.10    2.22
   8  -6  -4    5.98    2.12
   8  -6  -4    5.31    1.53
  -8   6   4    7.38    3.03
   8  -6  -4    6.11    3.01
   8  -6  -4    5.26    3.27
   7  -6   8   -2.27    1.70
  -7   6  -8    0.29    3.35
  -7   6  -8   -0.47    1.96
  -7   6  -8    3.05    2.34
   6  -2 -10    1.24    2.40
   6  -2 -10    0.86    2.86
  -6   2  10    1.13    2.14
   1  -8   9    0.35    2.87
  -1   8  -9    0.52    1.89
  -1   8  -9   -0.80    1.57
   8   4  13    6.84    1.83
  -7  -1 -14    2.95    1.60
   7   1  14    4.81    1.67
   7   1  14    4.96    1.97
  -7  -1 -14    4.96    2.41
   7  10   7   18.91    2.29
   7  10   7   15.66    2.23
   5  -9 -10    2.02    1.61
   5  -9 -10    0.87    3.61
  -5   9  10   -1.43    2.05
  -5   9  10    2.19    1.61
  -3  -4 -17    7.14    2.31
   3   4  17    7.18    1.89
   3   4  17    5.43    2.77
  -3  -4 -17    5.32    1.99
  -8   7   2    3.47    3.50
   8  -7  -2    6.36    3.26
   8  -7  -2    5.60    1.87
   8  -7  -2    0.43    2.90
  -8  -3 -13    1.20    2.27
   8   3  13    1.30    1.66
  -9  -1 -10    0.92    3.38
   9   1  10   -1.96    1.70
  -9  -1 -10    0.01    1.51
   5   2  16   12.89    1.94
  -5  -2 -16   10.02    2.62
   5   2  16   10.34    2.57
  -5  -2 -16   16.56    1.96
   0  12  -2    8.53    1.27
   0  12  -2    7.33    2.04
   0  12  -2    7.49    1.98
  -6  -1 -15    2.43    1.61
   6   1  15    3.32    2.21
   6   1  15    2.98    1.75
   9   4  10   22.54    2.25
  -6   1 -14   20.89    2.99
  -6   1 -14   24.55    1.95
   6  -1  14   20.93    2.86
   6  -1  14   25.38    2.06
   0  -2 -16   27.77    2.66
   0   2  16   28.34    3.60
   0  -2 -16   28.39    2.78
   0  -2 -16   23.15    2.75
   0   2  16   29.00    2.55
  -4   6 -11   12.93    1.36
  -4   6 -11   10.00    3.10
   4  -6  11   16.99    3.11
  -9   1   2   51.70    4.01
   9  -1  -2   54.68    3.35
  -9   1   2   57.72    3.29
   9  -1  -2   50.51    3.00
   9  -1  -2   57.29    3.42
  -1  -3  13   22.41    2.18
   1   3 -13   11.17    2.53
   1   3 -13   14.56    2.33
   2   4  17    8.15    1.95
  -2  -4 -17    5.76    2.18
   2   4  17    6.01    2.81
   3  13   4   12.62    1.81
   3  13   4    8.75    2.74
   3  13   4   15.75    1.81
  -7   1 -13   50.75    3.76
   7  -1  13   71.83    3.84
  -9   2   2   29.37    3.37
   9  -2  -2   40.96    2.90
   9  -2  -2   34.55    2.67
  -2   3 -14   -0.02    2.47
  -2   3 -14   -0.78    1.78
   2  -3  14    1.79    2.82
  -2   3 -14    1.23    1.67
   2  -3  14   -0.72    1.57
  -2  -2  13   31.77    2.53
   6  11   5   11.08    2.12
   6  11   5   14.16    1.95
   6  11   5   10.36    2.16
   6  11   5   11.65    2.24
  -7  -5   4   13.70    2.57
   5  12  10   26.69    2.73
   5  12  10   23.56    2.74
   5  12  10   27.20    2.60
   8   6   0    2.73    1.78
  -8  -6   0    1.91    1.95
   8   6   0    2.76    2.57
  -4   9  -7   12.62    1.56
  -4   9  -7    8.63    2.32
  -4   9  -7    7.86    3.06
  -4   9  -7   10.70    2.37
   7   9  12   39.99    3.00
   7   9  12   43.58    3.13
   8  -5  -5   28.66    2.29
   8  -5  -5   21.80    3.64
   8  -5  -5   25.75    3.96
  -8   5   5   28.75    3.39
   8  -5  -5   28.72    2.73
  -4  12   7    3.72    1.29
  -4  12   7    3.50    2.16
   7   7  14   11.13    1.90
   7   7  14   15.37    2.21
   6   5  -6   10.59    2.96
  -6  -5   6    8.68    2.64
  -3   3 -14    9.75    1.62
   3  -3  14    8.77    2.90
   3  -3  14    7.80    1.66
   7  -5  -8    3.58    3.22
   7  -5  -8    2.99    2.88
   7  -5  -8    1.96    1.77
  -7  -4   5    3.81    2.40
   0   6 -11   15.79    2.00
   0  -6  11   12.66    3.21
   0   6 -11    6.88    2.16
   1  -5 -16   -2.06    2.72
  -1   5  16   -0.04    1.84
  -5  10  -4    3.52    3.12
  -5  10  -4    4.92    1.58
  -5  10  -4    7.74    2.70
  -5  10  -4    7.20    2.01
   2  11  -3   14.42    1.82
   2  11  -3   13.20    2.14
   7  10   9    3.64    1.98
   5 -11   1   10.87    1.67
  -5  11  -1    8.27    3.47
  -5  11  -1    8.78    1.95
  -5  11  -1   12.63    1.67
   9  -2   8   24.14    2.60
   9  -2   8   24.24    1.92
  -9   2  -8   21.79    1.84
   9  -2   8   23.82    2.64
  -9   2  -8   18.67    3.82
   9   5   3    7.96    1.82
   9   5   3    5.86    1.74
   9   5   3    6.15    2.02
  -9  -5  -3    6.15    2.55
   9   5   3    4.73    2.58
   7  -9  -3   12.23    2.90
  -7   9   3   14.12    3.63
   7  -9  -3   12.44    2.08
  -7   9   3   14.46    2.05
   5  11  13   11.82    2.64
   5  11  13   14.73    2.48
  -5 -11 -13   18.41    2.19
  -3  -6   9   -1.17    2.76
   3   6  -9    0.84    1.86
   3   6  -9    1.11    2.56
  -2  12  -2    8.81    2.09
  -2  12  -2   11.13    2.03
  -1  -9   7   13.50    3.18
   1   9  -7    9.27    1.90
   1   9  -7   10.63    1.71
  -4   4 -13    9.18    2.73
  -4   4 -13    6.72    3.24
   4  -4  13    9.08    1.46
   4  -4  13    8.89    3.08
  -4  10  11    1.40    2.19
   4 -10 -11    0.82    1.56
  -4  10  11    0.89    1.55
  -3   8  -9   14.36    1.59
  -3   8  -9   10.66    2.88
  -3   8  -9   14.95    2.77
   8   8  10   25.65    2.38
   8   8  10   22.74    2.25
   8   8  10   19.14    2.40
   2   7  17   78.09    4.09
  -2  -7 -17   71.52    3.89
  -2  -7 -17   57.81    3.64
   2   7  17   77.79    4.02
   9  -1   9    3.65    2.30
  -9   1  -9    4.01    3.69
   9  -1   9    8.84    1.52
  -9   1  -9    7.91    1.55
  -1   6  16    8.79    2.11
  -1   6  16    7.71    2.12
   1  -6 -16    9.35    2.86
   1  -6 -16    6.27    1.79
  -6  -6   5    3.73    2.60
   6   6  -5    3.64    2.71
   3  11  -2   -1.61    1.93
   3  11  -2    1.16    1.59
   3  11  -2    0.26    1.55
   7  10   6    5.07    2.03
   7  10   6    7.80    2.07
   0  10  -6    0.06    1.73
  -3  -7 -17   54.36    3.47
   3   7  17   63.46    3.76
  -3  -7 -17   59.64    3.53
   3   7  17   65.42    3.63
  -4  11  -3    9.75    3.10
  -4  11  -3    9.03    2.87
  -4  11  -3    7.97    1.94
  -4  11  -3    7.79    1.88
  -4  11  -3   10.87    2.12
  -6  -1   9   56.82    4.06
   6   1  -9   63.26    4.12
   9  -4   5   20.12    2.97
  -9   4  -5   15.54    3.90
  -9   4  -5   19.87    2.32
   9  -4   5   19.31    2.68
   9   3   0    2.19    2.13
   9   3   0    0.32    1.83
   9   3   0    0.52    1.65
  -9  -3   0   -0.07    2.37
   0   7 -10    8.86    1.77
  -3  13   5    0.18    2.08
  -7   9  -1   12.34    1.72
  -7   9  -1   12.31    3.81
  -7   9  -1   15.70    3.21
   5  12   5    2.91    1.78
   5  12   5   -0.43    2.10
   5  12   5   -0.18    1.74
   5  12   5    1.87    2.21
   3  -2 -14    1.38    1.92
   3  -2 -14   -1.47    2.33
  -3   2  14    0.72    2.63
  -3   2  14    1.28    1.84
  -5  10   9   16.77    2.50
   5 -10  -9   23.49    2.06
  -5  10   9   21.67    1.96
   8   5  13   40.20    2.88
   4  12   2   21.71    2.98
   4  12   2   23.02    2.26
   4  12   2   25.96    2.29
   6  10  13   25.12    2.63
   8  -7   3   12.46    2.73
  -8   7  -3   10.45    2.75
   9   0  -2   43.09    2.93
   9   0  -2   37.52    2.80
  -9   0   2   48.48    2.96
   9   0  -2   37.58    3.66
  -9   0   2   32.74    3.46
   9   0  -2   38.39    2.56
  -9   4   1    0.87    3.00
   9  -4  -1    1.12    1.88
   9  -4  -1    0.82    1.46
   9  -4  -1   -0.20    3.23
   9  -4  -1    1.40    2.74
   5   0 -11   42.41    3.38
  -5   0  11   51.41    4.02
  -5  11   7   12.04    2.19
  -5  11   7   10.33    1.42
   7   8   0   42.74    3.07
   7   8   0   38.18    3.35
   7   8   0   43.71    2.94
   7  -1  -8   29.80    3.37
  -7   1   8   33.43    3.01
   7  -7  -7   14.24    1.90
  -3  13   4   -0.59    2.07
  -4  -9 -16   20.74    2.23
   4   9  16   21.76    2.52
   4   9  16   23.63    2.47
   8   2  13    1.06    1.64
  -8  -2 -13    2.46    2.32
   2 -13  -9   12.99    1.68
  -2  13   9   14.07    2.57
  -2  13   9   12.87    1.66
  -4  -5 -17    3.15    2.14
   4   5  17    3.55    2.02
  -4  -5 -17    2.20    1.71
   4   5  17   -0.17    2.57
   0   5 -12   13.95    2.20
   0  -5  12   14.60    3.18
   0   5 -12   12.02    2.20
   0   5 -12   16.36    2.04
   2  13   2    5.62    1.72
   2  13   2    4.34    2.16
   2  13   2    5.97    1.53
   3   5 -10    8.11    2.73
  -3  -5  10    9.75    3.01
   3   5 -10    8.21    1.78
  -6  -4   7   14.49    2.80
   6   4  -7   13.36    3.15
  -3  -7   8    0.83    2.94
   3   7  -8    3.19    2.35
   3   7  -8    2.33    1.83
   6  -6 -10   18.07    3.44
  -6   6  10   18.88    2.01
   6  -6 -10   22.52    3.91
   6  -6 -10   17.58    3.26
  -7  -6   3   10.41    2.59
   7   6  -3   14.57    2.07
  -6  -8 -15    3.27    1.55
   6   8  15    7.47    2.01
   6   8  15    5.19    1.97
   9   6   7    5.43    1.98
   9   6   7    2.92    1.61
   9   6   7    2.69    2.31
  -1   4  16   23.75    2.44
   1  -4 -16   20.94    2.28
   1  -4 -16   22.36    2.99
  -1   4  16   25.50    3.10
   4   6  -8   11.10    2.67
  -4  -6   8   10.42    2.93
  -3  11  -4   13.65    2.97
  -3  11  -4   15.19    3.00
  -3  11  -4   21.73    2.13
  -8  -8  -4    5.19    2.33
   8   8   4    4.90    2.29
   8   8   4    3.85    1.78
   8   8   4    5.67    1.97
   3  13  11   -0.42    2.91
   3  13  11    0.21    2.45
   3  13  11   -0.04    1.82
   3  13  11    2.69    1.78
   1  13   1   16.40    2.42
   1  13   1   16.49    1.97
   1  13   1   15.47    1.62
  -1  -5 -17   50.07    3.36
  -1  -5 -17   40.77    3.10
   1   5  17   44.86    3.22
   1   5  17   51.21    3.84
  -3  10  -6    6.73    1.65
  -3  10  -6    6.54    2.90
  -3  10  -6    8.33    2.55
   5  10  -1   23.68    2.35
   5  10  -1   21.06    2.71
   9   6   6    8.58    1.74
   9   6   6    6.60    2.43
   9   6   6   10.19    2.03
  -9  -6  -6    8.59    2.83
  -9  -2   1    1.35    2.35
   9   2  -1    2.11    1.64
   9   2  -1   -0.55    2.05
   9   2  -1    0.55    1.91
   4  -9 -12   24.25    4.02
  -4   9  12   25.93    2.42
   4  -9 -12   25.96    2.36
  -4   9  12   31.17    2.81
   9  -3  -2    6.85    3.34
   9  -3  -2    5.29    2.08
   9  -3  -2    5.60    2.96
  -9   3   2    3.38    3.00
   9  -3  -2    6.55    1.71
  -9   3  -7   12.69    3.73
   9  -3   7   17.06    2.59
   1   6  17   49.82    3.36
  -1  -6 -17   52.60    3.54
   1   6  17   54.57    3.43
  -1  -6 -17   43.00    3.11
  -2 -11 -15   36.67    2.48
   2  11  15   39.63    3.19
   2  11  15   37.74    2.89
   2  11  15   38.71    2.70
   5  -8 -11   12.02    3.77
   5  -8 -11   10.17    1.87
  -5   8  11   13.93    2.34
  -5   8  11   13.42    1.89
   2  12  -1   16.46    1.77
   2  12  -1   14.90    1.95
   2  12  -1   11.48    2.18
   2  12  -1   17.40    1.82
  -4  -6 -17    2.68    1.75
   4   6  17    4.62    1.90
   4   6  17    7.46    2.12
  -4  -6 -17    3.62    2.07
   4   6  17    8.40    2.43
   5   2 -10   21.45    2.64
  -5  -2  10   19.69    3.05
  -8   3 -10    3.39    2.18
   8  -3  10    3.51    1.88
  -8   3 -10    9.23    3.72
   4  -7 -13   29.64    3.83
  -4   7  13   31.30    2.60
   4  -7 -13   22.28    3.31
  -4   7 -10    8.83    3.10
  -4   7 -10    8.95    1.30
  -4   7 -10   13.88    2.73
  -5   4  12    2.89    1.81
   5  -4 -12    1.21    2.94
   5  -4 -12    0.72    3.33
   5  -4 -12    1.04    1.50
   5  -4 -12    2.09    2.64
   9   4   1   10.18    1.86
  -9  -4  -1   10.93    2.51
  -3  13   6   -0.69    1.18
  -3  13   6   -1.05    2.22
   7   9   2   44.10    3.12
   7   9   2   45.19    2.95
   7   9   2   50.95    3.22
  -4   2  13   25.66    3.12
   4  -2 -13   20.25    2.78
  -6  10   6   -0.74    1.96
   6 -10  -6   -1.27    2.03
   5   8  16    1.20    2.00
   5   8  16    4.75    1.97
  -5  -8 -16    3.78    1.70
   4   5  -9   18.68    3.03
   4   5  -9   24.71    2.33
  -4  -5   9   19.21    3.11
   7  -8  -6    7.55    2.33
   7  -8  -6    8.24    3.55
  -7   8   6    6.04    2.00
   7  -8  -6    4.36    3.21
   7  -8  -6    5.15    1.48
  -6  10  -2   -0.43    3.51
  -6  10  -2    1.00    1.57
  -3  12  10   11.69    1.72
  -3  12  10    7.83    2.46
   3 -12 -10   11.44    1.65
  -5   5  12   30.17    2.48
   5  -5 -12   22.03    3.17
   5  -5 -12   22.09    3.86
   5  -5 -12   23.45    3.30
  -7  -3   6    0.50    2.37
   6  11  11    2.71    2.16
   6  11  11    6.82    2.13
  -4  -4 -17   37.90    2.56
  -4  -4 -17   32.81    3.08
   4   4  17   49.17    3.28
   4   4  17   50.90    3.98
  -3  -3 -17   24.96    2.48
   3   3  17   27.93    2.51
   3   3  17   25.47    3.39
   4  13   8   11.84    2.49
   4  13   8    9.98    1.96
   4  13   8    9.36    2.73
  -2  13   1    6.82    2.17
   2 -13  -1    6.53    3.04
  -2  13   1    4.71    1.27
  -2  13   1    2.48    2.37
  -5   8  -8    4.43    3.08
  -5   8  -8   -1.14    2.11
  -5   8  -8    1.63    2.14
   9   6   8    2.08    1.59
   9   6   8    2.96    2.33
   9   6   8   -0.13    1.86
   8   7  12    9.79    2.17
   8   7  12    7.64    1.88
   3  10  -4    1.18    1.95
  -3 -10   4    0.99    2.79
   3  10  -4   -1.01    1.73
   7  10  10   26.66    2.53
   6  -8  -9    9.79    3.24
  -6   8   9    9.37    2.19
  -6   8   9   12.78    1.72
   6  -8  -9   10.28    1.77
   6  -8  -9   10.94    3.82
  -4  12   0    8.81    2.37
   4 -12   0    9.25    1.84
  -4  12   0    8.82    2.11
  -4  12   0    7.17    1.76
   3 -13  -3    3.91    1.83
  -3  13   3    1.67    2.43
  -3  13   3    5.71    2.14
  -1 -13 -12   20.77    2.02
   1  13  12   26.21    2.37
   1  13  12   27.02    3.01
  -1 -13 -12   20.09    2.15
   8  -7  -3   -0.56    3.37
  -8   7   3    2.49    3.31
   8  -7  -3    0.45    3.06
   8  -7  -3    4.82    2.06
  -4  -7   7   -1.11    2.88
   4   7  -7    0.77    2.63
  -1   3 -14   35.51    3.33
   1  -3  14   40.85    2.66
  -1   3 -14   41.19    2.72
  -1   3 -14   36.63    2.90
   1  -3  14   36.92    3.87
   2   6 -10    5.27    1.86
   2   6 -10    4.51    2.50
  -2  -6  10    6.27    3.02
  -4 -13  -7   32.03    3.39
   4  13   7   39.57    3.54
   4  13   7   39.52    3.28
   4  13   7   43.79    2.87
   8  -2  11   13.94    2.09
  -8   2 -11   14.64    4.00
  -8   2 -11   11.07    2.40
   8  -2  11   14.42    1.57
   8   1  -5   33.96    3.43
   8   1  -5   30.92    2.43
  -8  -1   5   36.27    3.08
  -2  -3 -17    0.34    2.07
   2   3  17   -1.64    2.97
   2   3  17    0.94    1.84
  -8   4  -9   -0.22    2.03
  -8   4  -9    5.25    3.68
   8  -4   9    0.93    1.92
   1  -7 -16   23.32    2.11
  -1   7  16   28.98    2.72
  -1   7  16   25.30    2.74
  -1   7  16   28.47    2.61
   1  -7 -16   26.94    3.27
  -1   7  16   27.71    2.63
  -9   0 -10    9.42    3.77
   9   0  10   15.11    1.79
  -9   0 -10   12.44    1.71
   9   5  10   16.50    2.16
  -6   9   8   13.50    1.64
   6  -9  -8   13.75    1.75
  -6   9   8   10.70    2.19
   9   6   5    4.65    1.76
   9   6   5    3.87    1.95
  -9  -6  -5    4.36    2.74
   9   6   5    0.97    2.42
  -6  -5 -16   18.59    2.62
   6   5  16   20.22    2.35
   6   5  16   24.56    2.57
   2  10  -5   14.36    1.92
   2  10  -5   12.15    2.11
  -2 -10   5   12.27    3.14
   2  13  12   25.41    3.45
   2  13  12   34.95    2.58
   2  13  12   30.67    3.09
  -2 -13 -12   30.87    2.40
  -6  -7   4   -0.03    2.65
   6   7  -4    1.23    2.76
  -8   6  -6    1.02    3.64
  -8   6  -6    1.66    1.67
   8  -6   6   -0.26    2.27
  -8   6  -6   -1.21    2.22
   1   4  17   41.13    3.02
   1   4  17   40.55    3.75
  -1  -4 -17   37.62    3.08
   8  -3  -6    0.72    1.37
   8  -3  -6    4.07    3.10
   2 -11 -13   68.53    3.93
  -2  11  13   69.38    3.93
   6  -1 -10   10.00    2.86
  -6   1  10   14.21    2.64
  -9   5  -2   12.23    2.53
   9  -5   2   14.31    3.19
  -9   5  -2   15.71    3.74
   9  -5   2   13.07    2.84
   1  11  -4   10.66    1.58
   1  11  -4    9.37    2.01
   3  12   0    5.87    2.14
   3  12   0    4.61    1.62
   3  12   0    5.21    1.69
   3  12   0    4.98    1.80
  -7   9   4    8.30    1.96
  -7   9   4    8.59    3.47
   7  -9  -4    5.92    2.92
   7  -9  -4    8.01    3.46
   7  -9  -4    7.72    2.11
   1  11  15   13.63    2.26
   1  11  15   17.37    2.62
  -1 -11 -15   12.93    1.71
   5  -3 -12    4.97    2.57
   5  -3 -12    6.25    2.93
  -5   3  12    8.26    2.00
  -9   5  -1   21.06    2.76
  -9   5  -1   22.81    3.75
   9  -5   1   22.90    3.50
   9  -5   1   22.67    3.14
   8  -2  -6    6.42    3.02
   8  -2  -6    5.05    1.52
   7  10   5   10.40    2.15
   7  10   5   12.83    2.16
   5  12  11   17.72    2.55
   5  12  11   20.19    2.63
   5  12  11   18.95    2.31
   4 -11 -10    3.24    1.55
  -4  11  10    5.36    1.64
  -4  11  10    3.92    2.30
   6   4  16   12.04    2.03
  -6  -4 -16   10.38    2.46
   6   4  16    9.68    2.33
  -3   0 -16   18.95    2.73
   3   0  16   23.11    3.28
   3   0  16   20.48    2.16
  -3   0 -16   19.60    2.10
  -2  -7   9   23.48    3.54
   2   7  -9   19.25    2.12
   2   7  -9   12.92    2.51
   4  13   9    1.29    1.80
   4  13   9    1.25    2.29
   4  13   9   -0.26    1.86
   4  13   9    1.72    2.50
   2  -2 -15   12.29    2.19
   2  -2 -15    6.26    2.34
  -2   2  15   15.82    2.25
   6   9  -1    1.13    2.00
   6   9  -1    2.00    2.43
  -2   8  15   11.19    2.33
  -2   8  15   11.63    2.50
  -2   8  15    9.98    2.12
   2  -8 -15   11.30    3.31
  -2   8  15   10.06    2.47
  -2   9  -8    4.39    2.40
  -2   9  -8    5.71    1.63
  -3   8  14   15.89    2.16
   3  -8 -14   19.64    3.66
   0   8  -9   -1.58    1.53
   0   8  -9    1.39    1.66
  -7  -4 -15   13.86    2.06
   7   4  15   12.17    2.01
   3  11  15   19.64    2.21
   3  11  15   22.85    2.37
   3  11  15   20.04    2.63
   5  11   1   10.62    2.54
   5  11   1   10.46    1.92
   5  11   1   10.47    2.22
   5  11   1   13.86    2.03
   0 -14  -6   12.83    3.49
   0  14   6   14.81    2.64
   0  14   6   12.37    1.60
   1  14   7   -0.44    1.50
   1  14   7    1.74    1.62
  -1 -14  -7    3.94    3.16
   1  14   7   -1.10    2.47
   6  11   4    6.97    2.15
   6  11   4    5.15    1.98
   6  11   4    5.45    2.10
   6  11   4    8.29    1.88
   4  -3  14   12.44    1.71
   4  -3  14    8.73    3.01
  -4   3 -14   11.57    1.61
  -4   3 -14    5.96    2.73
   2   0  16   22.29    3.45
  -2   0 -16   22.35    2.31
  -2   0 -16   19.35    2.34
  -2   0 -16   20.10    2.77
   2   0  16   21.49    2.22
   0  14   7   12.77    1.63
   0 -14  -7    9.61    3.48
   0  14   7   10.92    2.67
  -1  -7 -17    9.24    1.96
   1   7  17   14.44    2.29
   1   7  17    8.27    2.29
  -6   4 -12    3.01    3.28
   0   9  16   51.49    3.31
   0   9  16   52.35    3.48
   0   9  16   38.92    3.57
   0  -9 -16   43.02    2.64
  -6   5 -11    0.51    3.05
  -6   5 -11    2.32    2.08
   1  12  -2   10.27    1.50
   1  12  -2    9.34    2.05
   2  12  14   16.95    1.97
   2  12  14   16.78    2.64
  -2 -12 -14   15.06    1.90
   2  12  14   12.72    2.13
   2  12  14   14.76    2.94
  -1  11  14   31.23    2.51
  -1  11  14   27.59    2.96
   1 -11 -14   24.17    1.90
   2  10  16    8.37    2.37
   2  10  16   11.91    2.28
   2   5 -11    2.13    1.82
  -2  -5  11    3.01    2.88
   2   5 -11    0.83    2.46
   6  10   1    4.09    1.98
   6  10   1    3.71    2.05
   6  10   1    4.72    2.14
  -6   9  -5    0.84    3.24
  -6   9  -5   -1.46    2.62
  -6   9  -5   -1.60    2.41
   7   5  15   38.36    2.86
  -7  -5 -15   33.96    2.98
   3   4 -11   10.84    2.81
  -3  -4  11   19.32    3.24
   5   9  -3   24.27    2.68
  -5  -9   3   27.97    3.32
   1  14   6    2.54    2.37
  -1 -14  -6    3.24    3.09
   1  14   6    3.54    1.52
   9   3  11    0.15    1.77
  -3  -8   7    6.81    3.12
   3   8  -7    7.90    1.90
   3   8  -7    2.31    2.50
   0  -4  13   20.89    3.36
   0   4 -13   23.79    2.45
   0   4 -13   27.95    2.29
  -3  13   7    6.66    1.36
  -3  13   7    6.95    2.30
  -1   9  -8    4.77    1.68
   1  -9   8    5.38    3.04
   4  13   6   19.55    2.13
   4  13   6   18.75    2.78
   4  13   6   17.16    2.58
   4  13   6   17.95    1.96
  -7   9  -2   10.44    3.74
  -7   9  -2    6.33    1.44
  -7   9  -2   11.91    3.13
  -7   9  -2    7.59    1.54
  -4  -7 -17   -1.00    2.05
   4   7  17    3.74    1.99
  -4  -7 -17    1.91    1.83
   4   7  17   -0.02    1.95
   7  -6  -8   13.54    3.67
   7  -6  -8   16.20    2.15
  -9   5  -3   18.43    3.83
  -9   5  -3   15.04    2.47
   9  -5   3   15.76    3.21
   9  -5   3   20.36    2.90
   1 -13 -11   -0.50    1.58
  -1  13  11   -0.72    1.64
  -1  13  11   -3.53    2.46
   3  13   3    0.34    1.61
   3  13   3    2.54    1.67
  -2  10  14   29.79    2.46
  -2  10  14   28.87    2.96
   4  12  13   41.28    3.05
   4  12  13   45.72    3.36
   4  12  13   38.67    3.55
   9   1  -2   22.57    2.40
   9   1  -2   23.90    2.41
   9   1  -2   24.55    2.14
  -9  -1   2   17.88    2.85
  -9  -1   2   28.77    2.41
   1  14   8    0.51    1.54
   1  14   8    1.83    1.63
  -1 -14  -8    0.64    3.33
   0  -1  15   10.67    3.18
   0   1 -15    3.64    2.40
   0  -1  15    8.72    1.95
   0   1 -15    7.59    2.26
   6   3  -8   25.55    2.93
  -6  -3   8   22.53    3.09
  -2  -8 -17   15.85    2.14
   2   8  17   20.24    2.46
   2   8  17   15.31    2.73
  -2  -8 -17   16.83    2.50
  -5   6  12   40.90    2.85
   5  -6 -12   40.92    4.35
   5  -6 -12   44.85    3.76
   5  -6 -12   36.61    3.73
   8   6  13   17.60    2.22
  -7   8  -5   -1.89    1.77
  -7   8  -5    0.83    3.62
  -7   8  -5   -0.89    2.66
  -6   8  -7   -2.17    2.05
  -6   8  -7   -0.32    3.21
  -6   8  -7    1.35    2.52
  -1   3  16   71.12    4.03
  -1   3  16   61.47    4.65
   1  -3 -16   59.77    4.00
   1  -3 -16   53.79    3.53
  -6  -6 -16    6.18    2.29
   6   6  16    1.83    2.08
   6   6  16    3.33    1.78
   6   6  16    3.87    1.93
  -4  12   8   20.43    2.62
  -4  12   8   21.28    1.82
   4  11  -1   11.24    1.86
   4  11  -1    9.94    1.92
   4  11  -1   10.90    2.24
   4  11  -1   14.59    2.14
   4   4 -10   16.11    3.14
   4   4 -10   19.81    2.29
  -4  -4  10   15.72    3.09
  -9   5   0    9.51    3.43
   9  -5   0   10.12    2.91
   9  -5   0    9.98    3.30
  -1   0  15   19.12    2.23
  -1   0  15   12.61    3.29
   1   0 -15   14.20    2.40
   1  12  14   -0.06    1.82
   1  12  14    1.34    2.73
  -1 -12 -14    2.48    1.58
   1  12  14    2.27    2.44
   9   2  11    5.55    1.70
  -9  -2 -11    4.20    1.69
   3   1 -13   26.08    2.45
  -3  -1  13   31.15    3.71
  -3  -1  13   34.73    2.66
   8   8  11   33.02    2.67
   8   8  11   25.23    2.50
   8   8  11   30.88    2.47
  -7  -7   2   18.76    2.82
   7   7  -2   15.04    2.86
   7   7  -2   21.77    2.25
  -7   7  -7   -0.42    1.88
  -7   7  -7    0.42    2.54
  -7   7  -7    2.58    3.49
   8   1  13   23.35    2.12
  -8  -1 -13   17.92    2.70
   8  -4  -6   13.13    3.25
   8  -4  -6   13.99    2.05
   8  -4  -6   13.79    3.64
   8  -4  -6   18.30    3.38
  -3  -8 -17   73.20    3.94
  -3  -8 -17   61.69    3.79
   3   8  17   74.35    4.05
   3   8  17   85.94    4.28
   9   6   9    8.60    2.01
   9   6   9    7.57    1.64
   9   6   9    4.50    2.30
   0 -14  -5   26.27    3.71
   0  14   5   26.02    2.90
   0  14   5   24.90    1.93
  -9  -5  -2   16.40    2.69
   9   5   2   13.20    2.86
   9   5   2   18.13    2.11
   9   5   2   13.91    2.02
   5  -1  15   13.96    1.79
  -5   1 -15   10.79    1.70
   5  -1  15    9.27    2.78
   8   7   1    2.35    1.82
   8   7   1    1.74    2.45
   8   7   1    2.07    1.94
   5  12   4   16.67    2.60
   5  12   4   15.81    2.08
   5  12   4   16.02    2.40
   5  12   4   14.74    2.00
   7   3  15    0.74    1.66
  -7  -3 -15    1.16    1.70
   0  14   8    3.17    1.47
   0  14   8    0.66    2.44
   3  10  16    1.73    2.02
   3  10  16    2.69    1.91
   3  10  16    2.09    2.21
   8   4  -3   -0.76    1.79
   8   4  -3    1.83    2.88
  -8  -4   3   -0.73    2.11
   8  -7   4   -0.52    2.39
  -8   7  -4   -0.64    1.45
  -8   7  -4   -2.43    3.82
  -8   7  -4   -0.07    2.45
  -9   4  -6    8.29    3.87
  -9   4  -6    8.32    2.00
   9  -4   6    7.45    2.41
   4   1 -12    2.47    2.25
  -4  -1  12    5.78    2.91
  -5  -1 -16    2.09    2.62
   5   1  16    7.31    2.59
  -5  -1 -16    8.19    1.75
   5   1  16    8.32    1.75
  -1  13   0   -2.46    1.47
   1 -13   0   -2.02    2.83
  -1  13   0   -0.29    2.45
  -1  13   0   -0.80    2.05
  -8   1   6   22.64    2.52
   8  -1  -6   24.09    3.42
   8  -1  -6   22.56    2.08
  -4  -3 -17   23.76    2.87
   4   3  17   23.41    2.41
   4   3  17   27.29    3.26
   9   4  11   21.05    2.28
   0  13   0    9.62    2.15
   0  13   0    5.69    1.27
   0  13   0    8.39    1.72
   0  13   0    9.00    2.38
  -7   4 -11    3.54    1.96
  -7   4 -11    4.21    2.51
  -7   4 -11    1.78    3.46
  -3  13   2    6.05    2.20
   3 -13  -2    7.36    1.91
  -3  13   2    5.62    2.48
   7   0  14   10.76    2.24
   7   0  14   13.97    1.90
  -7   0 -14   12.66    2.79
  -7   0 -14   11.82    1.77
  -6  -3 -16   12.14    1.96
  -6  -3 -16    8.70    2.50
   6   3  16   13.76    2.03
   6   3  16   14.11    2.38
   4  10  -3   14.89    2.30
   4  10  -3   19.07    2.12
   9  -4  -2    1.66    2.86
   9  -4  -2    0.03    2.02
   9  -4  -2    0.94    1.52
  -9   4   2   -0.78    3.07
   9  -4  -2   -0.26    3.40
  -8   1 -12   10.94    2.45
  -8   1 -12    8.74    3.99
   8  -1  12   17.41    1.78
   0  13  12   11.46    1.95
   0 -13 -12    9.86    1.82
  -6   3 -13    5.15    3.39
   6  -3  13    7.90    2.62
   3  -2  15   -0.25    1.63
   3  -2  15   -0.44    2.78
  -3   2 -15   -1.51    1.59
  -3   2 -15   -1.05    2.59
   4  13  10    2.78    2.49
   4  13  10    0.12    1.72
   4  13  10    1.35    2.40
   4  13  10    0.17    1.87
   2  -2  15   13.35    3.15
  -2   2 -15    9.49    2.66
  -2   2 -15    8.19    2.05
  -2   2 -15    9.48    1.85
   2  -2  15   11.97    1.91
  -8   5  -8    1.59    3.67
   8  -5   8    2.27    2.04
  -8   5  -8    0.47    1.87
   8  -6  -5   10.28    2.26
  -8   6   5    6.74    3.13
   8  -6  -5    9.36    1.74
   8  -6  -5   10.31    3.59
   8   5  -2    2.09    2.83
  -8  -5   2   -0.37    2.19
   8   5  -2    3.05    1.85
  -9  -6  -4   18.79    2.84
   9   6   4   18.44    2.10
   9   6   4   15.43    2.79
   9   6   4   15.22    2.25
  -5  11  -2    2.52    3.48
  -5  11  -2    8.81    1.84
  -5  11  -2    5.48    1.77
  -1  12  13   17.12    2.13
   1 -12 -13   15.30    2.02
  -6   6 -10    0.43    2.34
  -6   6 -10    0.34    3.09
  -3  12  -2    6.97    2.11
  -3  12  -2    8.58    2.05
   4   8  -6   20.44    2.90
  -4  -8   6   38.95    3.86
  -1 -14  -5   11.45    3.21
   1  14   5   12.05    2.51
   1  14   5    9.72    1.58
  -7   0   8   11.78    2.56
   7   0  -8    9.28    2.91
   2   8  -8   11.48    1.89
  -2  -8   8   10.15    3.20
   0  -1 -16    1.83    2.23
   0   1  16    4.46    3.05
   0  -1 -16    2.37    2.30
   0   1  16    4.63    2.04
  -3  11  12    7.17    1.79
  -3  11  12    9.07    2.44
   3 -11 -12    9.06    1.87
  -1  -2  14   -0.79    3.02
  -1  -2  14    1.27    1.74
  -3  10  13   49.15    3.20
   1  10  16   48.02    3.31
   1  10  16   47.25    3.44
  -5  -6   7    3.49    2.77
   5   6  -7    5.00    2.74
   8   8   3   -0.41    2.39
   8   8   3    3.30    1.79
   8   8   3    0.93    1.91
  -4   8  -9    7.99    2.63
  -4   8  -9    3.07    1.24
  -4   8  -9    3.30    3.02
  -4   8  -9    3.73    2.27
   7  10  11   47.94    3.28
  -7   3 -12    4.32    3.75
  -7   3 -12    5.49    2.56
  -2  12  12    5.31    1.75
   2 -12 -12    3.37    1.64
  -2  12  12    2.85    2.44
  -1  10  15   -0.40    2.28
  -1  10  15   -0.70    1.90
   6   0  15   39.99    3.53
  -6   0 -15   33.59    3.48
   6   0  15   48.08    2.90
  -6   0 -15   42.58    2.68
  -3   9  -8   12.75    1.70
  -3   9  -8   13.54    2.71
  -3   9  -8   10.57    2.88
   7   6  15   36.26    2.86
  -6   7  10    5.48    1.68
   6  -7 -10    8.80    3.32
   6  -7 -10    4.92    1.83
   6  -7 -10    7.45    3.69
   7   8  14   -0.30    1.90
   7   8  14    4.51    1.96
   8   3  -4    5.63    1.84
  -8  -3   4    5.45    2.19
   3  12  14   39.20    3.28
   3  12  14   38.60    2.87
   3  12  14   28.97    3.32
   3  12  14   37.29    2.67
   5  10  15   39.53    3.09
  -5 -10 -15   35.33    2.67
   4   0  16   -0.97    2.64
   4   0  16    2.40    1.69
  -4   0 -16    0.43    1.66
   7   2  -7    2.39    2.74
  -7  -2   7   -0.70    2.47
   5   5  -8    1.59    2.85
  -5  -5   8    1.78    2.64
   1  14   9    9.57    1.78
   5  -2 -12   21.80    3.24
  -5   2  12   17.27    2.23
  -5   2  12   17.62    2.81
  -1  14   6   22.91    2.88
  -1  14   6   22.20    1.82
  -7   5 -10    4.30    2.29
  -7   5 -10   -2.44    3.42
  -7   5 -10    2.28    2.37
   9  -2  -3   32.42    2.56
   9  -2  -3   32.88    2.75
   9  -2  -3   27.81    2.08
  -9   2   3   30.74    3.38
   1   3  17   15.73    3.24
  -1  -3 -17   11.24    2.41
   1   3  17    9.97    2.12
   7   9  13   22.46    2.41
   7   9  13   22.64    2.41
  -2  13  10   11.76    1.78
   2 -13 -10    8.69    1.66
  -2  13  10   10.78    2.61
  -5   5 -12    4.33    2.63
  -5   5 -12    3.64    3.21
  -5   5 -12    7.38    2.24
   5  -5  12    4.17    2.72
  -9   5  -4   13.71    2.39
   9  -5   4   11.22    2.70
   9  -5   4   14.72    2.95
  -9   5  -4    7.15    3.79
  -3   1  14   13.97    2.07
  -3   1  14   16.95    3.18
   3  13  12    3.64    2.92
   3  13  12    3.81    2.47
   3  13  12    2.77    1.90
   3  13  12   -0.06    1.83
  -5  11   8   29.60    2.10
  -5  11   8   26.54    2.72
  -9   1   3   20.32    2.20
   9  -1  -3   15.48    1.76
   9  -1  -3   17.08    2.33
   9  -1  -3   14.32    3.23
  -9   1   3   13.41    2.93
  -2 -14  -7    8.27    3.17
   2  14   7    4.65    1.62
  -1   8  16   46.56    3.22
  -1   8  16   44.88    3.28
  -1   8  16   36.85    3.28
   1  -8 -16   33.35    2.29
  -1   8  16   44.54    3.12
  -2  -4  12    0.32    2.91
   2   4 -12   -0.16    2.56
   4  13   5   25.04    3.03
   4  13   5   28.63    2.30
   4  13   5   23.33    2.31
   4  13   5   28.63    2.77
   9   1  11   18.76    1.99
  -9  -1 -11   12.50    3.94
  -9  -1 -11   16.99    1.93
  -1  14   7   16.00    1.72
  -1  14   7   16.66    2.72
   1  10  -6   24.48    2.10
  -1 -10   6   25.30    3.54
   1  10  -6   19.84    2.32
  -1  11  -5    6.71    1.82
   6  11  12    3.20    2.27
   6  11  12    2.05    2.01
  -1  14   5    5.30    2.53
  -1  14   5    5.08    1.31
   1 -14  -5    4.45    3.44
   2  14   8   17.37    1.99
   2  14   8   14.70    1.90
  -2 -14  -8   13.77    3.50
   9  -2   9    0.67    2.17
  -9   2  -9   -1.59    2.09
  -9   2  -9    2.41    1.46
   4  -8 -13   46.60    4.51
  -4   8  13   41.76    2.97
   7  10   4   11.58    2.20
   7  10   4    9.24    2.12
   9  -5  -1    9.77    3.05
   9  -5  -1    7.00    3.30
  -9   5   1    3.72    3.34
   3   2  17   23.66    2.35
   3   2  17   23.26    3.39
   0  14   4   12.50    1.49
   0  14   4    9.83    1.57
   0 -14  -4    8.13    3.22
   0  14   4   12.86    2.49
   1   0  16   14.88    3.38
  -1   0 -16   14.87    2.60
   1   0  16   18.67    2.28
  -1   0 -16   14.32    2.38
  -4   1  13    0.99    1.86
  -4   1  13    2.65    2.83
   4  -1 -13    3.41    2.49
   8  -7  -4    0.21    3.44
   8  -7  -4   -0.04    2.18
  -8   7   4    4.20    3.18
   8  -7  -4   -0.68    3.21
  -7   9   5   -1.19    1.95
   7  -9  -5    0.91    2.07
   7  -9  -5    1.04    2.96
   7  -9  -5    0.24    3.54
   6   8  -3   -0.08    1.87
  -6  -8   3    0.46    2.67
  -1  -8 -17   -0.65    1.77
   1   8  17   -1.09    2.17
   1   8  17    1.20    2.29
   0  14   9    0.41    1.52
   0  14   9   -1.47    2.49
   5   7  -6    3.82    2.82
  -5  -7   6   10.85    3.03
  -5   6 -11    9.02    2.64
  -5   6 -11    7.92    3.20
  -5   6 -11    5.95    2.46
   8   9   8   20.74    2.31
   8   9   8   18.46    2.40
  -1  12  -3    5.97    1.96
  -3  13   8   12.14    1.53
  -3  13   8    9.59    2.50
  -6  10   7    1.83    2.02
  -6  10   7    1.95    1.29
   5   5  17   29.42    3.03
   5   5  17   22.52    2.13
  -5  -5 -17   20.93    2.64
   5   5  17   23.47    2.54
   8   9   7   41.56    2.92
   8   9   7   36.84    3.02
  -5   4 -13    9.74    2.71
   5  -4  13    8.79    2.76
  -5   4 -13    8.16    3.48
  -2  -1  14   40.03    2.89
  -2  11  -5   10.75    1.92
  -2  11  -5   10.18    2.67
   2   2  17   26.07    3.56
   2   2  17   24.36    2.40
  -2  -2 -17   20.50    2.47
   6   7  16   -1.20    1.94
   6   7  16    0.85    1.82
  -6  -7 -16   -0.02    2.22
   2  13   1   22.81    2.20
   2  13   1   22.02    2.61
   2  13   1   22.70    2.02
   2  14   6    0.01    1.48
  -2 -14  -6    3.71    2.99
  -6  10  -3   -3.11    3.56
  -6  10  -3    1.79    2.64
  -6  10  -3    0.05    1.52
   9  -3  -3   13.66    3.52
   9  -3  -3   10.80    1.88
   9  -3  -3   10.24    2.27
  -9   3   3    5.45    3.02
  -4  12  -1   13.80    2.03
  -4  12  -1   10.32    2.43
  -4  12  -1   11.65    3.37
  -4  12  -1   12.31    2.20
  -9   3  -8    5.07    2.04
   9  -3   8    6.37    2.26
   9   3  -1    5.37    2.22
  -9  -3   1    2.70    2.22
   9   3  -1    6.19    1.81
   0 -11 -15    4.08    1.49
   0  11  15    5.56    1.98
   0  11  15    7.81    2.45
   5  12  12   62.23    3.78
   5  12  12   59.56    4.05
   7   2  15    0.43    1.66
  -7  -2 -15    2.21    1.68
  -5 -11 -14   -0.76    1.92
   5  11  14    0.79    2.17
   5  11  14    1.17    1.98
   0   9  -8    0.19    1.71
   4  12   1   11.31    2.09
   4  12   1   12.28    1.93
  -9   1 -10    2.89    1.53
  -9   1 -10    4.89    2.27
   9  -1  10    5.63    1.54
   8  -5  -6   19.92    2.09
   8  -5  -6   17.03    3.93
   8  -5  -6   15.77    3.53
  -8  -6   1   -0.06    2.15
   8   6  -1   -0.74    2.72
   8   6  -1    0.31    1.85
  -2  13   0    9.49    2.24
  -2  13   0   10.48    2.51
   2 -13   0    7.81    3.20
  -2  13   0   11.84    1.52
   0  -5 -17   65.60    4.14
   0   5  17   82.41    4.98
   0   5  17   73.55    4.38
   0  -6 -17   11.36    2.11
   0   6  17    8.81    2.17
   9   6  10   20.24    2.00
   9   6  10   22.46    2.39
   9   5  11    5.01    1.95
  -9  -4   0   28.05    2.77
   9   4   0   34.40    2.57
  -4  -8 -17    2.50    1.92
   4   8  17    1.61    1.99
  -4  -8 -17    5.68    2.08
   4   8  17    6.33    2.10
  -5   7  12   11.66    1.96
   5  -7 -12   19.09    3.90
  -8   8   0   14.06    3.14
   8  -8   0   11.33    3.00
   5   6  17   23.97    2.52
  -5  -6 -17   25.70    2.73
   5   6  17   26.82    2.33
   5   6  17   30.10    2.96
  -4  10  -6    2.42    3.02
  -4  10  -6    5.32    1.59
  -4  10  -6    6.21    2.19
  -4  10  -6    5.98    2.60
   1   6 -11   11.72    2.55
   1   6 -11   15.63    2.05
 -10  -1  -5    4.91    3.15
  10   1   5    1.74    1.73
   2  14   9   18.47    2.12
   2  14   9   24.54    2.17
  -2 -14  -9   19.87    3.68
   2  14   9   25.19    3.07
  -5  -4   9    1.00    2.63
   5   4  -9    5.63    3.06
   5   4  -9    4.02    2.29
   5   4  17   43.88    3.13
  -5  -4 -17   31.72    3.09
   5   4  17   37.96    3.50
  -3  -3  12   44.88    4.03
   8   9   9   37.57    2.93
   8   9   9   30.80    2.79
   8   9   9   39.02    2.75
  -7   9  -3    2.53    2.95
  -7   9  -3   -0.86    1.58
  -7   9  -3    3.33    3.72
   5 -12  -3    5.28    1.90
  -5  12   3    6.57    2.11
   4  11  15    4.51    1.98
   4  11  15    3.73    2.36
   4  11  15    4.23    2.04
  -7   2 -13    8.04    3.96
  -7   2 -13   15.43    2.81
   0 -12 -14   17.05    1.81
   0  12  14   21.57    2.27
   0  12  14   18.09    2.75
   5   9  16   13.92    2.32
  -5  -9 -16   14.32    2.01
   5   9  16   15.65    2.28
   8  -8  -1    6.96    3.03
  -8   8   1    6.72    3.87
  -6  -9 -15   24.79    2.21
   6   9  15   30.93    2.79
   6   9  15   36.42    2.87
   1  14   4   15.98    2.64
   1  14   4   16.75    1.76
  -1 -14  -4   19.72    3.29
   1  14   4   19.71    1.88
  -4   2 -15    7.85    1.68
   4  -2  15    8.11    1.70
   4  -2  15    7.08    2.89
   6  11   3    1.62    2.06
   6  11   3    3.41    1.98
   6  11   3    1.02    1.79
  -5  10  -5    2.51    2.60
  -5  10  -5    0.18    2.04
  -5  10  -5    2.78    3.04
  -5  10  -5    0.22    1.48
 -10   0  -4    0.74    3.20
  10   0   4   -0.60    1.47
  10   0   4    1.68    1.67
   3   9  -6    0.68    1.78
  -3  -9   6    0.39    3.03
   3   9  -6    2.13    1.95
  -6 -10 -14   39.01    2.77
   6  10  14   40.65    3.06
  -6  11   2   11.57    2.13
  -6  11   2    9.97    3.81
   6 -11  -2   14.43    2.04
  -5  12   4    3.09    2.07
   5 -12  -4    7.59    1.92
  10   1   4    9.68    1.85
  10   1   4    6.43    2.35
 -10  -1  -4    5.88    3.14
  10   1   4    6.80    1.70
  -6   0  10   25.68    3.15
   6   0 -10   28.41    3.22
   1  13   0    4.28    2.12
   1  13   0    5.80    1.40
   1  13   0    5.69    1.78
   6 -11  -3   11.76    2.01
  -6  11   3   13.85    2.18
  -1  14   8   15.15    2.66
  -1  14   8   13.89    1.77
   1   7 -10    5.68    2.24
   1   7 -10   10.84    1.87
  -8   0   6   40.30    3.29
   8   0  -6   34.39    2.52
   8   0  -6   39.40    3.73
   7   9   1   29.40    3.14
   7   9   1   38.20    2.94
   7   9   1   37.75    2.73
  -4  -3  11   21.93    3.29
   4   3 -11   17.99    2.35
   0   3 -14    6.32    2.27
   0  -3  14    2.78    2.98
   0  -3  14    6.28    1.73
   0   3 -14    5.89    1.96
   0   3 -14    5.38    2.55
   9   0  -3   -2.11    2.15
   9   0  -3   -2.82    2.95
  -9   0   3    1.31    1.94
   9   0  -3    1.29    1.59
  -9   0   3    0.62    2.53
   9   0  -3   -1.08    1.94
  -1  14   4    2.73    2.38
   1 -14  -4    0.92    3.32
  -5  -1  11   17.83    3.11
   5   1 -11   14.02    2.66
  -1   2 -15   10.30    1.97
  -1   2 -15    7.44    2.19
  -1   2 -15    5.33    2.64
   1  -2  15    9.46    3.15
   1  -2  15    8.45    1.85
   8   9   6    9.22    2.30
   8   9   6   13.89    2.12
 -10   0  -5    1.07    3.18
  10   0   5    0.36    1.66
  10   0   5    0.85    2.77
  10   0   5   -0.84    2.13
   4  13  11   13.73    2.63
   4  13  11   12.78    2.11
   4  13  11    9.26    2.04
   4  13  11    8.73    2.60
  -6  -2 -16    0.31    1.73
   6   2  16    0.08    1.80
  -6  -2 -16   -0.39    2.61
   6   2  16   -1.96    2.23
   6  -2  14   12.64    2.76
   6  -2  14   13.15    1.67
  -2  12  -3    5.13    1.94
  -4  11  -4    2.88    1.81
  -4  11  -4    2.81    2.77
  -4  11  -4    4.25    2.17
  -4  11  -4    4.33    3.03
  -3  13   1   10.74    2.60
  -3  13   1   11.78    2.31
   3 -13  -1    8.11    3.38
   0  12  -3    1.75    1.90
  -8   8  -1   12.72    3.14
   8  -8   1    7.83    2.76
   1  -2 -16   60.58    4.03
   1  -2 -16   58.23    3.73
  -1   2  16   77.65    5.13
  -1   2  16   70.32    4.23
   8   2  -5   18.20    2.11
  -8  -2   5   23.08    2.81
  10   1   6   -0.97    1.68
 -10  -1  -6   -1.07    3.20
   7  -8  -7    2.52    3.72
   7  -8  -7    5.38    1.62
   4  10  16   13.42    2.41
  -4 -10 -16   12.09    2.12
   8   4  14    0.94    1.80
  -7   6  -9    4.18    3.57
  -7   6  -9    0.31    2.18
  -7   6  -9    0.17    2.46
   6   2  -9   45.93    3.56
  -6  -2   9   49.13    3.96
  -6   7  -9   -0.04    2.18
  -6   7  -9    4.45    3.26
  -6   7  -9    0.72    2.44
   9   2  -2    0.55    2.08
   9   2  -2    2.96    1.73
  -9  -2   2    1.82    2.33
   9   6   3   39.57    2.97
   9   6   3   28.62    3.29
   9   6   3   34.37    2.67
   9   6   3   37.30    2.66
  -9  -6  -3   34.49    3.10
  -2   1  15   38.00    2.91
   2  -1 -15   33.00    2.90
   7  -3  -9   21.26    3.42
   7  -3  -9   16.78    3.02
  -5   9  -7   -3.30    2.25
  -5   9  -7   -1.92    3.05
  -5   9  -7   -2.08    2.14
   1  14  10   13.16    1.88
   7  -4  -9   12.75    3.03
   7  -4  -9   13.93    3.72
   7  -4  -9   16.50    3.42
   0  11  -5   -0.29    1.81
  -5  10  10   13.92    1.88
   5 -10 -10   13.39    1.86
  -5  10  10   14.01    2.50
   5 -10 -10    8.70    3.86
  -2   9  15    1.31    2.24
  -2   9  15    2.46    1.92
   8   7  13   27.67    2.60
 -10  -2  -5   10.51    3.19
  10   2   5    6.72    1.94
  -5  12   2    9.44    2.13
   5 -12  -2    9.79    1.91
  10   0   3   10.06    1.72
  10   0   3    9.10    1.91
 -10   0  -3    6.74    3.32
  -2   6 -12    5.46    2.76
  -2   6 -12    5.00    1.51
   2  -6  12    7.26    3.25
  -2   6 -12    6.67    2.49
  -2   6 -12    2.36    1.77
  -5   9  11   -0.30    1.64
  -5   9  11   -0.22    2.21
   5  -9 -11    1.44    1.71
   5  -9 -11    2.50    3.78
   4   2  17   18.23    3.15
  -4  -2 -17   10.88    2.67
   4   2  17   16.69    2.18
   1   5 -12   12.21    2.57
   1   5 -12   20.48    2.28
   0   4  17   57.86    3.78
   0   4  17   67.24    4.52
   0  -4 -17   60.65    3.96
  -7  -8   1   28.94    3.01
   7   8  -1   28.08    2.74
   7   8  -1   31.00    2.60
   7   8  -1   23.67    3.18
  -3  12  11   -1.61    2.41
  -3  12  11    0.70    1.59
   3 -12 -11    0.41    1.53
  -2 -13 -13    0.87    1.70
   2  13  13    0.50    1.81
   2  13  13   -1.68    2.56
   2  13  13    0.14    2.90
  -8  -3 -14    4.51    2.44
   8   3  14    5.82    1.83
  -6  11   1   11.72    2.10
  -6  11   1   13.49    3.78
   6 -11  -1   12.51    1.88
   5  12   3    8.98    2.54
   5  12   3    5.95    1.93
   5  12   3    9.23    1.93
   5  12   3    8.01    2.25
   2  14   5   -1.99    2.37
   2  14   5    1.39    1.65
   2  14   5   -0.28    1.54
  10   2   6   -2.22    1.80
 -10  -2  -6    0.08    3.09
   8   8  12    0.84    2.07
   8   8  12    0.80    1.87
   2   9  17   -0.62    2.22
  -2  -9 -17    0.43    1.78
   2   9  17   -0.82    2.60
   0   7  17    2.40    2.19
   0   7  17    1.44    2.16
   0  -7 -17    2.74    1.84
  -8   0 -13   10.22    2.58
   8   0  13   19.20    1.98
  -6  11   4    8.38    2.09
   6 -11  -4    7.11    2.03
  -1 -13 -13   17.30    1.95
   1  13  13   19.91    2.81
   1  13  13   17.97    2.21
   7   7  15   16.11    2.30
   7   7  15   15.65    2.03
   7  -7  -8   22.54    3.85
   7  -7  -8   25.16    2.29
   3  -9 -14   30.64    4.08
  -3   9  14   31.93    2.65
   3  13   2    0.02    2.19
   3  13   2    0.63    1.72
   3  13   2   -0.40    1.58
   5 -12  -5    1.09    1.96
  -5  12   5   -0.95    2.11
   9   7   7    9.79    1.87
   9   7   7    9.80    2.42
   9   7   7   10.46    2.10
  -5   7 -10    0.12    2.52
  -5   7 -10    1.12    3.26
   8  -8  -2   10.58    3.51
  -8   8   2    9.58    3.73
   8  -8  -2    9.20    3.19
  -9   5  -5    3.49    2.14
   9  -5   5    2.65    2.34
   8  -6   7   -0.81    2.30
  -8   6  -7    3.05    3.80
  -8   6  -7   -0.17    1.78
  -4  12   9   13.74    1.78
  -4  12   9   17.10    2.63
  -2  -9   7   22.30    3.53
   2   9  -7   22.32    2.18
   2   9  -7   16.98    2.27
  -8   7  -5   -0.65    2.52
  -8   7  -5   -0.49    1.59
  -8   7  -5   -2.48    3.81
   8  -7   5   -2.22    2.32
  10   1   3   10.43    2.01
 -10  -1  -3   11.06    3.21
  10   1   3   12.59    2.42
  10   0   6    9.89    2.90
 -10   0  -6    5.67    3.38
  10   0   6    8.10    2.27
  10   0   6    9.42    1.77
 -10   1  -4    1.34    3.31
  10  -1   4    3.76    1.65
  10  -1   4    3.82    1.47
  10  -1   4    1.72    2.03
  10  -1   4    3.67    3.00
   5  -3  14   16.35    3.11
  -5   3 -14   13.62    2.78
   5  -3  14   17.09    1.74
  -5   3 -14    9.50    3.59
   3   9  17   20.18    2.43
  -3  -9 -17   17.69    2.41
   3   9  17   10.84    2.62
   8   5  14   20.63    2.42
   9   5   1   26.25    3.44
   9   5   1   33.55    2.56
   9  -4   7    1.27    2.26
  -9   4  -7   -0.28    1.91
   6  -4 -11   37.63    4.15
   6  -4 -11   36.89    3.88
   6  -4 -11   28.31    3.44
  10   2   4   11.38    2.03
  10   2   4   12.53    1.67
 -10  -2  -4   12.28    3.18
  -2  10  -7   12.12    2.73
  -2  10  -7   13.78    1.95
  -2   7 -11    2.24    1.52
   2  -7  11    2.33    3.10
  -2   7 -11    3.27    2.75
  -2   7 -11    2.31    2.43
   9   7   8    4.31    1.93
   9   7   8    2.58    2.30
   9   7   8    1.82    1.74
  -3   6 -12    8.21    2.87
   3  -6  12   17.14    3.49
  -3   6 -12   11.93    2.94
  -3   6 -12    9.81    1.40
  -4  -9   5   32.82    3.67
   4   9  -5   28.45    2.65
   2  -5  13    7.94    3.20
  -2   5 -13    3.07    1.79
  -2   5 -13    0.33    2.57
   0  14   3    2.66    1.30
   0  14   3    6.73    2.40
   0  14   3    6.11    1.51
   0 -14  -3    2.82    3.07
   7  10  12   35.50    2.90
   4  13   4   24.04    2.74
   4  13   4   26.03    2.28
   4  13   4   19.63    2.96
   4  13   4   24.83    2.32
   5   8  -5   15.17    2.86
  -5  -8   5   25.01    3.45
  10  -1   3   -0.04    1.46
 -10   1  -3   -1.01    3.27
  10  -1   3    0.04    2.64
  10  -1   3    1.05    1.64
  10  -1   3    0.74    3.01
  -1  10  -7    7.18    1.80
   5   7  17    9.35    2.09
   5   7  17    4.69    2.09
  -5  -7 -17    6.49    2.23
   5   7  17    8.48    2.32
   9  -5  -2    3.11    3.00
   9  -5  -2    3.51    3.40
  -9   5   2    2.17    3.34
  -3   5  15   17.44    2.34
   3  -5 -15   14.20    3.00
   3  -5 -15   19.54    3.55
  -3   5  15   19.45    2.54
   3  -5 -15   16.78    1.91
   9   7   6   30.03    2.43
   9   7   6   22.93    2.92
   9   7   6   32.30    2.69
   8   9  10   52.94    3.29
   8   9  10   37.74    3.07
   8   9  10   49.70    3.16
   9   0  11   11.60    1.81
  -9   0 -11    5.02    3.96
  -9   0 -11    7.37    2.41
  -9   0 -11    7.84    1.68
   9  -4  -3    3.35    2.12
   9  -4  -3    3.93    1.65
   9  -4  -3    6.25    3.57
   9  -4  -3    3.20    3.11
  -9   4   3    0.28    3.18
  -4  10  12    1.21    1.74
   4 -10 -12    0.53    1.78
  -4  10  12    2.91    2.30
   1   8  -9   16.90    2.17
  -1  -8   9   17.85    3.51
   1   8  -9   21.58    2.13
   2  14  10   43.27    3.60
   2  14  10   45.19    2.80
   2  14  10   38.26    2.86
   0  14  10    1.69    1.60
   0 -14 -10    2.88    1.63
  -5   1  12   36.74    3.61
   5  -1 -12   34.56    3.42
  10  -1   5    6.08    3.00
  10  -1   5    7.99    2.23
 -10   1  -5    6.48    3.54
  10  -1   5    7.97    1.74
  -7   2   9   18.96    2.58
   7  -2  -9   16.22    3.28
   3  -5  13   15.00    3.42
  -3   5 -13    9.10    3.04
   3  -5  13   14.40    1.64
  -3   5 -13    9.66    1.40
  -3   5 -13   12.13    2.99
   5   3  17   27.96    3.20
   5   3  17   29.02    2.56
  -5  -3 -17   19.72    2.86
   0  10  16   45.33    3.22
   0  10  16   48.32    3.53
  -8   8  -2    5.51    2.95
   8  -8   2    0.83    2.59
   6  -5 -11   16.50    3.21
   6  -5 -11   16.40    3.94
   6  -5 -11   16.51    3.47
  -6   5  11   14.41    2.08
   7  -5  -9    5.19    3.75
   7  -5  -9   10.75    3.62
   7  -5  -9    3.88    3.01
   2  12  -2   12.93    1.86
   2  12  -2   12.98    2.28
   2  12  -2   15.94    1.80
  10   1   7    3.33    2.68
  10   1   7    6.59    1.78
 -10  -1  -7    3.27    3.31
   6  -9  -9   34.00    2.45
  -6   9   9   33.83    2.39
  -6   9   9   32.66    2.92
   6  -9  -9   26.41    4.34
   6  -3 -11    9.67    3.33
  -1  -2 -17   -0.59    2.27
   1   2  17    2.24    3.16
  -1  -2 -17   -0.33    2.33
   1   2  17    2.97    1.96
   3  11  -3   -0.99    2.05
   3  11  -3    2.54    1.74
   8   9   5    1.57    2.22
   8   9   5    3.55    1.82
   8   9   5   -0.55    1.95
 -10  -2  -7    0.39    3.18
  10   2   7    1.71    1.74
  -1  13  12    2.43    1.69
   1 -13 -12    0.92    1.67
  -3  11  -5    7.34    2.98
  -3  11  -5   11.37    1.93
   3  -6 -15   28.94    3.65
  -3   6  15   32.27    2.81
   3  -6 -15   20.73    3.27
   8   8   2    0.84    2.00
   8   8   2    1.48    2.48
   8   8   2    0.72    1.80
   9   3  12    1.16    1.71
   5  10  -2   20.96    2.79
   5  10  -2   25.23    2.49
  -2  -3  13    1.61    2.99
   2  11  -4   10.48    1.88
   2  11  -4   10.03    2.14
   5  11   0   24.40    2.44
   5  11   0   26.63    2.44
   5  11   0   20.60    2.97
  -7  -5   5   46.22    3.69
  -1  14   9   11.43    2.73
  -1  14   9   16.21    1.90
   3  -4 -15   16.37    3.45
   3  -4 -15   15.88    2.06
   3  -4 -15   14.03    2.90
  10   0   2   12.69    1.87
 -10   0  -2    7.39    3.14
  10   0   2   11.06    2.28
  -3   7 -11    6.51    1.37
  -3   7 -11    8.12    2.93
   3  -7  11    8.44    3.16
  -3   7 -11    5.44    2.80
   1 -14  -3    1.17    3.16
  -1  14   3    1.39    2.25
  -1  14   3    2.19    1.29
   5 -12  -1    8.89    1.85
  -5  12   1   10.60    2.14
  -5  12   1    4.24    2.43
   4  12  14   42.72    3.02
   4  12  14   39.40    3.28
   4  12  14   30.99    3.40
   6  12   8   21.54    2.56
   6  12   8   16.03    2.28
  -7   8  -6    0.82    3.66
  -7   8  -6    1.81    2.71
  -7   8  -6   -0.93    1.90
  -4   9  -8   -0.54    2.39
  -4   9  -8    2.19    3.01
  -4   9  -8   -0.37    2.25
  -4   9  -8    1.48    1.37
  -1   6 -12   -0.97    1.88
   1  -6  12   -0.12    3.18
  -1   6 -12   -0.19    1.99
   4 -11 -11    9.81    1.75
  -4  11  11   10.91    1.79
  -4  11  11    3.76    2.36
   6  10   0    0.14    2.11
   6  10   0   -0.02    2.03
  -8   3 -11    3.24    3.86
  -8   3 -11    3.57    2.43
   7  10   3   36.49    3.01
   7  10   3   41.20    3.04
   9  -6   1   17.33    3.51
  -9   6  -1   13.43    3.85
   9  -6   1   16.00    3.09
   7   1  -8   -1.58    2.82
  -7  -1   8   -1.16    2.50
   3  12  -1    0.31    2.05
   3  12  -1    1.39    1.64
   3  12  -1    2.76    1.87
   3  12  -1    2.62    1.69
  -3  13   9   18.68    1.87
  -3  13   9   19.94    2.76
  -5  11  -3    3.61    3.47
  -5  11  -3    3.66    1.73
  -5  11  -3   -0.17    1.90
   8   2  14   24.81    2.28
  -8  -2 -14   20.21    2.83
   9   7   9    1.13    1.94
   9   7   9    0.82    2.23
   9   7   9    3.88    1.73
   9   4  12    6.03    1.88
   8   7   0    1.51    2.63
   8   7   0   -1.82    1.81
   8   7   0    1.49    2.02
  -6  11   0    5.34    3.77
  -6  11   0    3.88    1.86
  -2  14   6   10.78    2.49
   4  -5 -14   23.60    3.17
   4  -5 -14   28.00    4.01
  -4   5  14   23.51    2.47
  10   3   6   31.05    2.64
 -10  -3  -6   24.29    3.47
  -8   4 -10   -0.68    3.75
  -8   4 -10   -1.99    2.28
   6  12   9   17.07    2.31
   6  12   9   18.97    2.59
  -1  13  -1    0.18    1.55
  -1  13  -1    3.94    2.05
  -1  13  -1   -2.96    2.46
   5   0  16   17.60    2.87
   5   0  16   15.05    1.98
  -5   0 -16   17.80    1.99
  10  -1   2    1.83    3.04
  10  -1   2    0.32    1.57
 -10   1  -2   -3.35    3.29
  10  -1   2   -0.11    2.76
  -6  11   5    1.56    2.03
   6 -11  -5    3.64    1.99
  -1   9  16   38.54    3.07
  -1   9  16   35.24    2.88
  -1   7 -11    0.99    1.60
   1  -7  11   -0.86    3.15
  -2  14   5    5.46    2.35
  -5  -3  10    1.79    2.80
   5   3 -10   -0.84    2.30
  -6   9  -6   -1.33    3.36
  -6   9  -6   -0.49    2.30
   9  -6   2   13.89    2.90
  -9   6  -2    7.12    2.59
  -9   6  -2    9.40    3.80
   9  -6   2    9.42    3.13
   6   8  16   10.24    2.13
   6   8  16    8.84    2.17
 -10  -3  -5   26.84    3.49
  10   3   5   26.42    2.11
  10   3   5   29.04    2.59
  -7  -6   4   35.06    3.43
   7   6  -4   32.09    2.64
 -10  -2  -3    8.37    3.13
  10   2   3   12.33    2.15
   7  -9  -6    2.06    3.06
  -7   9   6   -2.57    1.96
   7  -9  -6   -2.53    3.71
   9   1  -3    4.19    1.73
   9   1  -3    7.44    2.07
  -9  -1   3    9.63    2.45
  -9  -1   3    5.37    2.12
   6  12   7   29.18    2.70
   6  12   7   34.51    2.91
  -5  12   6   -0.11    2.16
   2  -5 -16    6.70    3.12
  -2   5  16    9.57    2.10
   2  -5 -16    4.22    2.68
  -7  -1 -15    9.39    2.74
   7   1  15   17.90    2.05
  -7  -1 -15   14.23    1.89
  -4  13   4    7.20    2.24
  -7  -4   6   20.74    2.89
   7   4  -6   13.76    3.39
   1   9  17   27.54    2.53
   1   9  17   20.95    2.70
  -1  -9 -17   17.08    2.00
   3  -1  16    3.01    1.74
  -3   1 -16    3.46    2.61
   3  -1  16    6.74    2.99
  -3   1 -16    4.93    1.75
   1  14   3   22.44    2.75
   1  14   3   22.18    2.05
   1  14   3   22.98    1.96
   9   2  12   16.74    2.03
  -6   8  10    3.76    1.60
   6  -8 -10    3.33    1.77
   6  -8 -10    3.13    3.83
  -9  -7  -5   17.09    2.92
   9   7   5   10.79    2.63
   9   7   5   14.27    2.04
   9   7   5   12.24    2.23
  -9   6   0   10.47    3.70
   9  -6   0   16.21    3.62
   9  -6   0   15.15    3.16
   6  11  13    2.84    2.30
   6  11  13   -1.28    2.07
   3  14   8   22.59    2.24
   3  14   8   19.55    2.78
  -3 -14  -8   15.35    3.32
   3  14   8   17.95    2.10
   8  -8  -3   14.24    2.24
   8  -8  -3   12.75    3.86
  -8   8   3   11.60    3.79
   8  -8  -3   12.01    3.37
   9   6  11   23.26    2.45
  -8   7   5    7.97    3.36
   8  -7  -5    4.38    2.26
   8  -7  -5    1.78    3.44
   8  -7  -5    5.64    3.68
   4  -4 -14   22.55    3.07
   4  -4 -14   27.87    2.27
  -4   4  14   31.22    2.64
   4  -4 -14   27.32    3.93
   7  -1  14   10.44    2.38
   7  -1  14   12.92    1.77
  -7   1 -14   10.33    2.80
  -4  13   5    2.13    2.22
  -2   6  16   12.30    2.21
   2  -6 -16   14.36    3.28
  -2   6  16   13.82    2.38
   3  13  13    6.43    2.95
   3  13  13    8.33    2.53
   3  13  13    7.60    2.06
  10   0   7   14.12    1.91
 -10   0  -7   11.54    3.60
  10   0   7   12.99    2.88
 -10  -1  -2    7.61    3.06
  10   1   2    3.60    2.25
  -2  13  11   -0.65    2.50
  -2  13  11    0.86    1.62
   2 -13 -11   -0.29    1.55
  -7  10   2   13.68    2.11
   1   4 -13   10.91    2.63
   8  -6  -6   11.51    1.90
   8  -6  -6    7.89    3.72
 -10   1  -6    7.58    3.61
  10  -1   6    7.92    2.27
  10  -1   6    8.03    1.72
  10  -1   6    8.05    2.91
   0  13  -1    0.01    1.63
   0  13  -1    0.32    1.99
   0  13  -1    0.38    2.16
  -3 -14  -7   22.02    3.50
   3  14   7   19.07    2.20
   3  14   7   22.05    2.85
  -7  10   1   13.04    4.02
  -7  10   1   10.02    1.96
  -2   1 -16    7.37    2.68
  -2   1 -16   10.02    2.09
   2  -1  16   10.78    3.18
   2  -1  16    7.65    1.93
   0  -3 -17   47.04    3.37
   0  -3 -17   41.13    3.18
   0   3  17   56.73    4.51
   0   3  17   54.72    3.58
   2  -8  10    4.40    3.10
  -2   8 -10    6.74    1.65
   8   6  14   22.92    2.42
  -1   5 -13    4.41    2.01
   1  -5  13    6.15    3.20
  -1   5 -13    3.36    2.03
  -1   5 -13    3.41    1.71
  10   3   7    1.20    1.80
 -10  -3  -7   -0.94    3.24
   0  13  13   24.53    3.02
   0  13  13   26.24    2.50
   2  14   4    5.13    1.61
   2  14   4    4.80    1.64
   2  14   4    1.63    2.26
  -2   4 -14    1.69    1.70
   2  -4  14    1.80    1.50
  -2   4 -14    0.60    2.79
   2  -4  14    1.95    3.04
  -6  -9   2   -0.92    2.56
   6   9  -2   -0.90    2.07
   2  11  16   15.68    2.12
   2  11  16   19.51    2.41
   2  11  16   22.62    2.77
  -2  14   7   17.45    2.72
   0  -8 -17   19.56    2.04
   0   8  17   21.50    2.49
   0   8  17   13.33    2.55
   0   8  17   23.20    2.62
  -5  11   9   20.57    1.97
  -5  11   9   21.85    2.71
   4  -6 -14    1.21    2.87
   4  -6 -14    2.96    3.49
  -4   6  14    1.96    1.96
   8  -3  -7    5.11    3.33
   8  -3  -7    1.71    2.95
   4  13  12   25.77    3.04
   4  13  12   23.94    3.28
   4  13  12   22.63    2.55
  -3  10  -7   11.27    2.64
  -3  10  -7   14.30    1.85
  -3  10  -7   13.88    3.05
   3  -4  14   31.88    3.88
  -3   4 -14   21.37    3.46
   3  -4  14   31.47    2.23
   3   1  17    8.27    1.97
   3   1  17    9.75    3.14
  -8   2 -12    6.36    2.47
  -8   2 -12    7.52    4.09
  -4  13   3    4.01    2.24
   4 -13  -3    7.21    2.00
  10  -2   3    3.99    1.68
  10  -2   3    3.73    3.17
  10  -2   3    6.51    2.81
 -10   2  -3    5.83    3.44
   2  12  15   21.56    2.78
   2  12  15   13.22    2.91
   2  12  15   20.15    2.36
   5  12  13   36.00    2.90
   5  12  13   32.94    3.08
   5  12  13   24.01    3.24
  10  -2   4    8.42    1.70
 -10   2  -4    6.49    3.65
  10  -2   4    7.77    2.75
  10  -2   4    7.20    3.12
  -2  14   4    0.08    2.27
   3  14   9   25.32    2.98
  -3 -14  -9   17.09    3.47
   3  14   9   29.78    2.44
   3  14   9   24.61    2.37
   6   6  -6   -0.05    2.91
  -6  -6   6   -1.17    2.71
   6  -6 -11   31.78    4.32
   6  -6 -11   28.24    3.85
  -6   6  11   27.95    2.41
  -3  12  -3    7.59    2.01
   5  -8 -12   10.33    3.97
  -5   8  12   15.28    2.49
  -5   8  12   16.86    2.13
   6   5  -7    0.22    2.97
  -6  -5   7    0.49    2.67
  -1 -14 -11   34.36    2.65
   1  14  11   36.57    3.38
   1  14  11   34.41    2.60
   7  11   8    8.82    2.09
   7  11   8   11.58    2.26
   0   0  16    1.69    1.92
   0   0 -16    0.52    2.37
   0   0  16    0.16    3.15
   0   0 -16    0.57    2.41
  -4   9  13   25.21    2.81
  -4   9  13   27.35    2.52
   4  -9 -13   27.99    4.25
  -1  -1  15    0.86    3.21
   1   1 -15    0.43    2.36
  -1  -1  15    0.16    1.79
  -3   0  14   20.43    3.51
  -3   0  14   21.32    2.34
   3  -7 -15   22.37    3.77
  -3   7  15   17.27    2.33
 -10  -3  -4   29.89    3.52
  10   3   4   30.65    2.30
  10   3   4   29.83    2.67
  -7   7  -8    3.33    2.61
  -7   7  -8   -0.47    2.07
   1  12  -3    4.52    1.42
   1  12  -3    7.57    2.04
  -4  -9 -17   21.14    2.38
   4   9  17   24.83    2.61
   4   9  17   21.96    2.59
   6  12  10   11.12    2.49
   6  12  10   12.38    2.20
   6  -2 -11   -2.09    3.00
  -6   2  11   -1.54    2.48
   2  -4 -16   -1.13    3.13
   2  -4 -16    0.94    2.56
   2  -4 -16   -0.69    1.87
   7   9  14   31.98    2.71
   7   9  14   23.95    2.53
  -8  -1   6   45.62    3.49
   8   1  -6   41.08    3.80
   8   1  -6   35.32    2.65
  -4   0  13   -2.30    2.97
   4   0 -13    1.08    2.40
  -6  10   8   -0.50    2.14
  -6  10   8    4.87    1.44
  -7  10   3   10.06    2.04
   7 -10  -3   10.86    2.07
  -7   9  -4    0.42    2.81
  -7   9  -4   -1.99    3.73
  -7   9  -4    0.25    1.72
   9  -6   3    4.33    2.63
  -9   6  -3    6.93    2.52
  -9   6  -3    8.53    3.83
   8  -2  -7   20.41    1.94
  -8   2   7   23.23    2.57
   8  -2  -7   20.15    3.43
   9  -2  -4   18.75    3.52
  -9   2   4   16.93    2.95
  -4  12  -2    6.25    2.09
  -4  12  -2    7.25    3.21
  -4  12  -2    9.90    2.12
 -10  -2  -8    8.34    3.54
  10   2   8    6.93    1.82
   0  10  -7   -0.77    1.78
   3 -13   0    8.15    3.42
  -3  13   0    8.73    2.47
  -3  13   0    6.76    2.29
  -2  -1 -17   16.82    2.76
  -2  -1 -17   21.95    2.53
   2   1  17   26.58    3.66
   2   1  17   22.68    2.42
   8   9  11   52.61    3.41
   8   9  11   51.83    3.23
   8   9  11   42.39    3.18
  -2  11  14   51.04    3.31
   7  11   9    5.45    2.06
   7  11   9    4.13    2.14
  -6  10  -4    0.12    3.54
  -6  10  -4    1.32    2.59
   9   6   2   23.64    3.31
   9   6   2   33.07    2.59
   9   6   2   33.61    2.69
  -8   5  -9   -2.27    3.76
  -8   5  -9    1.20    2.15
  -7  10   0    3.44    1.72
  -7  10   0    5.08    3.94
  -4  13   6    1.18    2.28
   6  -1  15   26.36    2.15
  -6   1 -15   15.42    3.06
   6  -1  15   16.04    3.04
   8  -4  -7    3.38    3.24
   8  -4  -7    2.76    3.09
   6   1  16    8.67    1.83
   6   1  16    8.73    2.50
  -6  -1 -16    8.37    1.85
   3  -3 -15   11.21    2.10
   3  -3 -15   12.65    3.21
  -3   3  15   15.52    3.07
   7  -1  -9   21.73    3.41
  -7   1   9   19.07    2.80
   4  11  -2    9.64    2.24
   4  11  -2    8.80    2.05
   5  13   8   -0.60    2.33
   5  13   8    1.31    1.87
  -8   8  -3   -1.40    2.88
  -8   8  -3   -3.36    3.78
   8  -8   3   -0.21    2.48
   6  12   6   18.52    2.53
   6  12   6   15.60    2.30
   6  12   6   15.94    2.07
   7  11   7   23.45    2.49
   7  11   7   19.12    2.55
  -5   8  -9    2.30    3.22
  -5   8  -9   -4.31    2.49
   3  11  16    8.21    2.16
   3  11  16    7.88    2.03
   3  11  16    8.95    2.52
   3  14   6    6.79    1.84
   9   5  12   14.76    2.29
  10   1   8    9.77    2.76
 -10  -1  -8    5.62    3.60
  10   1   8   10.69    1.86
 -10   2  -2    1.07    3.41
  10  -2   2    6.90    2.94
  10  -2   2    5.04    3.25
  10  -2   2    8.02    1.78
  -4   6 -12    8.19    2.87
  -4   6 -12    7.50    3.21
   4  -6  12   16.84    3.31
   9  -6  -1    7.23    3.14
  -9   6   1   11.25    3.74
   9  -6  -1   11.87    3.62
  -1   8 -10    1.35    1.65
   1  -8  10    1.44    3.14
   7  -6  -9    3.24    3.53
   7  -6  -9    5.44    3.91
  -2  13  -1   11.21    1.58
  -2  13  -1    7.20    2.16
   3   6  18    5.34    2.05
  -3  -6 -18    2.98    2.21
   3   6  18    5.88    2.11
   3   6  18    9.08    2.69
  -3  -6 -18    6.42    2.18
  -6   8  -8   -1.47    3.25
  -6   8  -8    3.82    2.04
   6  11   2   -0.52    1.84
   6  11   2    2.87    2.02
   6  11   2    0.78    2.12
   4   2 -12   11.96    2.34
  -4  -2  12   14.05    3.28
  -3  -2  13   41.13    4.10
  -9   5  -6    1.51    1.79
   9  -5   6    3.55    2.37
  -9   2 -10   -4.24    2.27
  -9   2 -10   -0.72    1.50
   9  -2  10    2.37    2.20
  -4   5 -13   25.27    3.24
   4  -5  13   32.72    3.87
  -4   5 -13   19.72    3.50
   1  12  15    8.27    2.55
   1  12  15    9.77    2.24
  -1 -12 -15    6.42    1.65
  -3   8 -10   11.03    1.53
  -3   8 -10   14.19    2.93
  -3   8 -10    8.77    2.96
   3  -8  10   10.12    3.18
   2  14  11   44.10    3.02
   2  14  11   43.54    3.56
  -3  -5 -18    1.53    2.36
  -3  -5 -18    2.85    2.04
   3   5  18    1.01    2.76
   3   5  18    2.17    1.95
  -5  -8 -17    2.26    2.17
   5   8  17    1.23    1.99
   5   8  17    1.76    2.03
   5  13   9   14.15    2.24
   5  13   9   10.93    2.56
   5  -2  15   17.53    3.21
   5  -2  15   19.31    1.95
   9  -3  -4   19.03    2.59
   9  -3  -4   21.10    3.87
  -9   3   4   17.82    3.13
  -2   7  16   20.08    2.42
   2  -7 -16   21.00    3.50
  -2   7  16   18.71    2.59
   1   9  -8    8.65    1.98
  -1  -9   8    7.53    3.26
  -9   3  -9   -1.40    2.09
   9  -3   9   -2.35    2.18
 -10   2  -5    3.71    3.63
  10  -2   5   10.09    2.79
  10  -2   5   13.47    3.04
  10  -2   5    5.57    2.13
  10  -2   5    9.41    1.70
   3  10  -5   -0.33    2.02
  -3 -10   5   -0.07    2.95
   3  10  -5    0.75    1.86
  -9   1   4    8.74    2.11
   9  -1  -4    4.68    1.62
   9  -1  -4    6.36    3.23
  -9   1   4    3.49    2.56
   9   7  10    1.42    2.25
   9   7  10    2.61    1.95
   9   7  10   -0.78    1.70
   8   9   4   -1.76    1.86
   8   9   4    3.20    2.38
   8   9   4    3.34    2.04
   4  -3 -14   17.61    2.15
  -4   3  14   20.64    2.99
 -10   0  -1    7.65    3.13
  10  -1   1    2.38    2.83
 -10   1  -1   -0.86    3.16
  10  -1   1    1.64    1.65
   7   7  -3   21.36    2.40
  -7  -7   3   22.27    3.10
   1  11  -5    6.93    2.05
   0  -2  15    7.99    1.83
   0   2 -15    9.15    2.63
   0  -2  15    5.89    3.10
   0   2 -15    8.50    2.39
   1  11  16   37.81    3.25
   1  11  16   36.90    3.01
  -1 -11 -16   29.79    2.27
   5  13   7    0.31    2.30
   5  13   7    2.19    1.88
  -5  12   0    5.61    3.62
  -5  12   0    4.84    2.03
   2   6  18   45.56    3.82
   2   6  18   44.03    3.24
  -2  -6 -18   37.87    3.00
  -2  -6 -18   37.17    3.18
   2  13   0   14.28    2.42
   2  13   0   13.34    1.78
   2  13   0   15.49    2.10
   0  14   2   -0.22    2.48
   0  14   2    3.03    1.53
   0  14   2    3.65    2.32
   4  -1  16    5.68    1.77
  -4   1 -16    4.96    1.77
   4  -1  16    4.13    2.86
  -4   1 -16    2.41    2.67
  -7  -3   7    8.64    2.63
   7   3  -7    7.51    2.81
 -10  -3  -8    5.21    3.49
  10   3   8    8.76    1.96
  -9  -1 -12    5.60    2.44
   9   1  12    8.98    1.81
  -2  12  13   20.10    2.21
   3  12  15   21.08    2.25
   3  12  15   20.04    2.41
   3  12  15   22.47    2.82
   6   7  -5   -0.27    2.71
  -6  -7   5    0.68    2.82
   8   5  -3   -0.44    3.06
  -8  -5   3   -0.59    2.32
   8   5  -3    1.66    1.88
   2   5  18    9.08    2.17
  -2  -5 -18    6.95    2.43
  -2  -5 -18    6.65    2.32
   2   5  18   12.22    3.02
   7   8  15   -1.43    1.95
   7   8  15   -0.47    2.01
   8   4  -4    0.19    3.04
   8   4  -4    1.87    1.91
  -8  -4   4   -0.36    2.31
  -1   1  16   53.28    4.50
  -1   1  16   49.21    3.39
   1  -1 -16   39.69    3.22
   5   2  17    2.74    1.80
  -5  -2 -17    1.32    2.66
   5   2  17    1.32    2.54
   9  -5  -3   -0.69    3.05
   9  -5  -3   -2.44    2.16
  -9   5   3   -2.18    3.29
   9  -5  -3   -3.24    3.67
   4 -13  -2   13.79    2.11
  -4  13   2   12.23    2.34
  -2  14   8   19.91    1.85
  -2  14   8   22.36    2.94
   6   4  -8    5.84    2.54
  -6  -4   8    5.72    2.75
   6   4  -8    4.95    3.22
   9   4  -1   28.93    2.48
  -1  11  15   11.31    2.13
  -1  11  15    8.23    2.52
  -1  12  14   32.24    2.58
  -1  12  14   25.51    3.10
   4  13   3    1.65    1.75
   4  13   3    5.11    1.86
  -5  -9   4   34.31    3.65
   5   9  -4   19.48    3.02
   3  14  10   31.69    3.23
   3  14  10   33.30    2.68
   3  14  10   30.99    2.54
 -10  -2  -2   10.96    3.06
  -6  11  -1    1.56    3.82
  -6  11  -1    2.35    1.74
   9   7   4   44.14    2.95
   9   7   4   36.39    3.50
   9   7   4   42.20    3.13
   9   7   4   39.10    2.84
  -9  -7  -4   38.81    3.34
  -1  14  10    3.24    2.60
  -1  14  10    4.20    1.71
   6   1 -10   35.25    3.30
  -6  -1  10   39.66    3.72
   0 -14 -11    0.88    1.61
   0  14  11   -0.77    1.67
   9   3  -2    1.58    1.79
  -6  11   6    2.31    2.10
   4   1  17    7.25    2.80
   4   1  17    8.51    1.89
   7  11  10   -0.18    2.12
   7  11  10   -1.91    1.96
   1 -14  -2    0.97    2.99
  -1  14   2    1.88    2.20
  -1  14   2   -2.78    1.38
  -1  14   2   -0.30    2.67
   5  12   2   21.80    2.30
   5  12   2   20.91    2.91
   5  12   2   21.16    2.59
   5  12   2   22.54    2.38
   4  12   0    1.77    1.91
   4  12   0   -0.68    1.77
  -2  14   3   -0.85    2.30
  -7  -5 -16   14.03    2.55
   7   5  16   12.41    2.16
  -8  -1 -14   14.31    2.79
   8   1  14   21.16    2.12
   2  10  -6   13.76    2.01
   2  10  -6    9.61    2.19
  -2 -10   6    9.80    3.31
  10  -1   7    9.48    1.75
  10  -1   7   10.23    2.78
 -10   1  -7    4.12    3.63
  -4   7  14    2.32    1.94
   4  -7 -14    0.54    3.59
  -4   7 -11    1.96    2.74
   4  -7  11   10.26    3.13
  -4   7 -11    2.80    3.19
   1  -4  14    8.61    1.70
  -1   4 -14   11.88    1.96
  -1   4 -14   10.08    2.21
  -1   4 -14    7.13    2.77
   1  -4  14    8.46    3.22
  -3  11  13   16.81    2.13
  -3  11  13   18.70    2.76
   8   8  13   -2.91    1.93
   8   8  13   -0.09    1.98
  -7  -4 -16    5.21    2.55
   7   4  16   11.44    2.01
  -5  12   7    0.52    2.20
  -7  10   4   13.68    2.17
   7 -10  -4   15.49    2.27
 -10  -4  -6   23.80    3.49
  10   4   6   19.71    2.40
   3   7  18   38.49    2.86
   3   7  18   30.21    2.87
  -3  -7 -18   30.55    2.77
  -3  -7 -18   34.06    2.89
   7  11   6    4.10    2.23
   7  11   6    4.95    2.07
  -9   1 -11    1.91    1.58
  -9   1 -11    0.66    2.34
   8  -7   6   -0.48    2.24
  -8   7  -6   -1.86    1.72
  -8   7  -6   -2.97    3.88
   7  10  13   54.97    3.65
   7  10  13   58.17    3.74
   8  -1  -7   31.53    3.64
  -8   1   7   33.61    3.04
   5  13  10   15.55    2.36
   5  13  10   14.25    2.63
 -10  -3  -3   18.64    3.22
  10   3   3   24.18    2.54
   5  11  15    7.17    2.24
   5  11  15    9.89    2.42
  -3  -4 -18   11.87    2.58
   3   4  18    8.12    3.10
   3   4  18    7.49    2.16
  -3  -6  10    0.11    3.02
   3   6 -10   -3.12    2.69
   8  -8  -4    3.99    3.68
  -8   8   4    2.29    3.48
   8  -8  -4    2.74    3.32
   8  -8  -4    3.49    2.12
  -1   1 -16   11.75    2.71
  -1   1 -16   16.76    2.46
   1  -1  16   15.82    2.13
   1  -1  16   14.03    3.35
  -5 -10 -16   20.42    2.31
   5  10  16   22.03    2.62
  10   0   8   19.50    2.05
 -10   0  -8   14.43    3.80
 -10   0  -8   16.48    1.96
   7   9   0   20.94    2.56
   7   9   0   15.25    2.91
   7   9   0   22.80    2.38
   2   7  18   45.25    3.27
  -2  -7 -18   38.02    2.85
   2   7  18   47.41    3.29
  10   4   7   12.41    2.17
 -10  -4  -7    4.44    3.24
  -4   4 -14   21.61    3.12
  -4   4 -14    9.98    3.55
   4  -4  14   23.93    3.63
  -8   1 -13    8.34    2.54
  -8   1 -13    1.32    4.04
   6  12  11   10.25    2.51
   6  12  11    9.10    2.28
  10   1   1   13.65    2.45
 -10  -1  -1   14.09    3.17
  10  -2   1   -0.72    2.90
 -10   2  -1   -0.58    3.29
  10  -2   1   -2.04    1.72
  10  -2   1   -6.20    3.39
  -7  10  -1   -3.17    3.91
  -9   4  -8    0.65    2.00
   9  -4   8   -0.63    2.21
  -4  12  10   11.75    2.57
  -4  12  10   15.88    1.88
   3  13   1   -1.48    2.16
   3  13   1    0.44    1.62
   3  13   1   -0.83    1.85
   6   5  17   53.15    3.55
  -6  -5 -17   40.62    3.37
  -9   6  -4    1.50    2.31
   9  -6   4    1.56    2.49
   3   7  -9    4.61    2.82
  -3  -7   9    3.78    3.20
   1  13  -1    6.27    1.78
   1  13  -1    2.99    1.40
   1  13  -1    4.36    2.16
  -4  13   7   -0.75    2.31
   2  10  17   21.51    2.58
   2  10  17   18.09    2.69
  -4  -6   9   16.25    3.27
   4   6  -9   12.95    2.97
   2  -3 -16    1.85    2.02
  -2   3  16    1.05    1.97
   2  -3 -16    2.05    3.11
   2   0 -15   44.31    3.40
  -2   0  15   56.42    3.52
   5  -5 -13   -0.36    2.94
   5  -5 -13    1.06    2.91
  -5   5  13    2.98    1.87
   5  -5 -13    2.80    3.73
 -10  -4  -5   12.78    3.15
  10   4   5   17.89    1.95
  10   4   5   19.48    2.35
   8  -5  -7   17.99    3.72
   8  -5  -7   17.36    4.14
   4  10  -4    5.67    2.16
  -4 -10   4    4.32    3.01
   9   5   0   19.17    3.33
   9   5   0   26.35    2.39
  -6   5 -12   -7.66    3.36
  -6   5 -12    0.57    2.01
  -2  10  15   23.96    2.41
  -2  10  15   15.99    2.68
   5  13   6   -0.77    2.29
   5  13   6   -0.28    1.87
   5  13   6   -2.72    2.44
   5  13   6    0.64    1.76
   3  14   5    1.34    1.63
   3  14   5    1.05    1.71
   8   6  -2    3.25    1.94
  -8  -6   2    3.12    2.40
   8   6  -2    3.08    2.82
   5  -4 -13    2.01    3.57
  -5   4  13    1.15    1.89
   5  -4 -13   -0.73    2.87
   0   6 -12    5.73    2.34
   0   6 -12    5.46    2.17
   0  -6  12    5.20    3.26
   0   6 -12    4.36    1.83
   8   3  -5   -2.13    1.87
  -8  -3   5    0.43    2.35
  -4  -5 -18    9.35    2.55
   4   5  18   14.94    2.30
   4   5  18   15.80    3.10
   6  10  15   38.62    3.09
  -6 -10 -15   32.75    2.62
   7  -8  -8   22.49    2.20
  -2  -4 -18   -1.13    2.32
   2   4  18    1.20    1.90
   2   4  18    4.30    3.15
   0  -7  11   -0.20    3.26
   0   7 -11    0.32    2.13
  -9   4   4   -0.05    3.00
   9  -4  -4    7.67    1.85
   9  -4  -4    6.78    2.27
   9  -4  -4    7.00    3.73
  -4  -6 -18    1.78    2.27
   4   6  18   -0.49    2.04
   4   6  18    0.09    2.60
   4   6  18   -3.31    1.98
   5   0 -12   22.93    3.02
  -5   0  12   25.69    3.46
  10  -2   6   15.42    3.00
  10  -2   6   10.02    2.72
  10  -2   6   12.57    2.38
 -10   2  -6    9.56    3.81
   9   0  -4   -0.62    3.15
  -9   0   4    2.07    2.44
  -9   0   4   -0.33    2.13
   9   0  -4    1.33    1.62
  -4  -7   8    6.50    3.16
   4   7  -8    4.91    2.87
   3  -3  15   10.85    1.76
   3  -3  15    6.54    3.19
   6  12   5    5.31    1.85
   6  12   5    2.31    2.16
   6  12   5    4.51    2.02
  -7   4 -12    1.41    2.65
  -7   4 -12    7.17    3.68
  -2   9  -9    4.41    1.67
   3  10  17    5.56    2.04
   3  10  17    8.76    2.39
   1  -6 -17   -3.15    2.98
   1  -6 -17   -0.15    1.82
   8   7  14    6.64    2.02
  -7  -6 -16   39.10    3.21
   7   6  16   47.16    3.27
  -1   5  17    2.46    2.07
  -1   5  17    3.85    2.78
   1  -5 -17    3.16    2.95
  -1  12  -4    4.52    1.96
   6   4  17   14.73    2.22
  -6  -4 -17   10.99    2.63
   6  -4  13    1.90    2.56
  -6   4 -13   -5.48    3.54
  -3  13  10   20.80    2.90
  -3  13  10   23.86    2.09
  -9   6   2    7.25    3.72
   9  -6  -2   12.45    3.74
   9  -6  -2   10.00    3.23
   2  13  14    3.61    1.98
   2  13  14    2.34    2.55
  -2 -13 -14   -1.13    1.74
   2  14   3    8.47    2.39
   2  14   3    8.95    1.68
   2  14   3    8.75    1.78
  -2   3 -15   -0.32    2.68
   2  -3  15    3.54    3.07
   2  -3  15    2.38    1.62
  -2   3 -15    0.84    1.77
  -6  -6 -17   43.72    3.36
   6   6  17   46.22    3.29
   1  14   2   15.81    2.68
   1  14   2   18.03    1.82
   1  14   2   17.69    1.98
   6  -7 -11    9.60    3.93
  -6   7  11    8.71    1.88
   6  -7 -11    9.70    3.30
  -1  -3  14   16.10    2.11
   1   1  17   15.03    2.32
   1   1  17   15.39    3.47
  -1  -1 -17    9.98    2.39
  -1  -1 -17   14.96    2.62
  10   2   9   15.49    2.06
 -10  -2  -9   12.45    3.81
   9   2  -3   15.30    2.06
   3  -8 -15    2.09    3.44
  -3   8  15    0.50    2.26
  -3   8  15    1.02    2.00
  10  -3   3    6.95    2.89
  10  -3   3    9.36    1.73
  10  -3   3    6.01    3.16
 -10   3  -3    4.63    3.74
 -10   3  -3    7.33    2.23
  -7   5 -11    3.68    2.63
  -7   5 -11   -0.54    3.50
  -3  10  14   44.85    3.13
   7  10   2   18.25    2.47
   7  10   2   16.54    2.38
  -5  -2  11    2.31    2.92
   5   2 -11   -2.01    2.51
  -5  10  -6    0.55    2.48
  -5  10  -6    0.96    2.14
  -5  10  -6    0.94    3.11
  -2  -2  14   12.10    2.12
   7   3  16    2.39    1.82
   3   5 -11    1.46    2.77
  -3  -5  11   -1.66    3.09
   8   8   1    8.97    2.00
   8   8   1    4.73    2.64
   8   8   1    8.27    2.17
   0   2  17    9.11    2.18
   0   2  17    6.84    3.34
   0  -2 -17    6.29    2.40
  -8   6  -8    0.79    2.01
  -8   6  -8   -1.62    3.95
  -6   1  11   17.62    3.05
   6  -1 -11   12.78    3.04
  -4  -5  10   25.73    3.50
   4   5 -10   21.88    3.33
  10   4   8    0.46    1.90
 -10  -4  -8   -1.27    3.33
  -6   6 -11   -3.73    3.26
  -6   6 -11   -1.83    2.31
  -1 -13 -14    9.06    1.80
   1  13  14   11.07    2.09
   1  13  14    6.67    2.58
  -4  11  -5    3.05    3.13
  -4  11  -5    1.95    1.76
  -4  11  -5    3.39    2.27
  -3  12  12    0.09    2.39
  -3  12  12    2.44    1.71
   3 -12 -12    0.12    1.66
   0   9  17   20.80    2.64
   0  -9 -17   15.35    1.92
   0   9  17   19.44    2.46
  10  -3   2   13.95    3.10
  10  -3   2   14.74    3.57
  10  -3   2   18.28    2.02
 -10   3  -2   18.13    3.97
   9   6  12    5.31    2.12
  -2   8  16   19.71    2.45
  -2   8  16   22.44    2.66
   2  -8 -16   19.37    3.60
   5  -6 -13    2.31    3.82
  -5   6  13    1.09    1.86
 -10   3  -4   10.71    3.79
  10  -3   4   11.19    3.18
 -10   3  -4   11.81    2.19
  10  -3   4    7.33    2.84
  10   3   9    0.81    1.78
 -10  -3  -9    1.12    3.52
  -1   9  -9    6.33    1.81
   1  -9   9    7.20    3.25
  -2  12  -4   10.46    2.08
  -3   2  15   -0.13    1.89
   3  -2 -15   -1.38    2.06
  -3   2  15   -3.57    2.96
   7  11  11    2.69    2.08
   7  11  11    6.35    2.21
   1   6  18   35.19    2.96
  -1  -6 -18   34.46    2.85
   8   9  12   28.20    2.62
   8   9  12   31.78    2.87
   7  -9  -7   -1.40    3.29
  -7   9   7    0.71    2.03
   7  -9  -7   -3.78    3.91
   4 -13  -1    7.66    1.96
  -4  13   1    6.84    2.57
  -4  13   1    8.63    2.22
   4  11  16   -0.94    2.32
   4  11  16   -0.75    2.01
   8  -8   4    0.75    2.35
  -8   8  -4   -4.29    3.89
  -6  -8   4   12.53    3.04
   6   8  -4    8.14    2.99
   0  -5  13   11.67    3.31
   0   5 -13    8.91    2.50
   0   5 -13   12.54    2.43
  -7   3 -13    1.94    3.83
  -7   3 -13    0.41    2.66
  10   1   9   34.09    2.63
 -10  -1  -9   31.40    2.45
 -10  -1  -9   25.66    4.29
   7   0  15   12.70    1.91
  -7   0 -15    6.58    2.78
   3   8  -8   15.32    2.86
  -3  -8   8   21.38    3.64
   4   4  18   41.03    3.11
  -4  -4 -18   33.60    3.24
   4   4  18   45.99    3.95
   6   9  16   30.33    2.74
   6   9  16   28.80    2.72
   3  14  11   17.16    2.98
   3  14  11   18.70    2.27
   3  14  11   20.71    2.25
  -1  11  -6    6.79    1.88
 -10  -4  -4    4.62    2.89
  10   4   4    1.12    1.97
  10   4   4    3.33    1.68
   9   7  11   13.18    2.17
   4  -2 -14    7.48    2.04
   4  -2 -14    6.01    2.52
  -4   2  14    5.95    2.84
   5 -10 -11    7.51    1.84
   5 -10 -11    6.29    3.98
  -5  10  11    9.89    1.81
  -5  10  11    5.99    2.39
  -2  14   9   25.94    2.11
  -2  14   9   24.65    3.04
  10  -1   0   -0.40    3.02
 -10   1   0    0.91    3.07
   4  13  13   18.34    3.23
   4  13  13   17.44    2.36
   4  13  13   19.34    2.85
   5  -3 -13   15.03    3.16
  -5   3  13   13.52    2.17
  -5   3  13   14.57    2.77
   4   7  18   -0.53    2.38
   4   7  18   -1.15    2.15
  -4  -7 -18    3.71    2.29
   4   7  18    1.03    2.00
  -2  11  -6    2.14    1.83
  -1   7  17    7.77    2.41
   1  -7 -17   11.16    1.95
   1  -7 -17   16.26    3.22
  -1   7  17   15.19    2.30
   0  12  15    3.59    2.03
   0  12  15    2.09    2.50
   1   5  18   51.88    3.42
   1   5  18   47.15    4.14
  -1  -5 -18   41.99    3.13
   1  14  12   17.01    2.16
   1  14  12   18.14    2.91
   6   3  -9   11.09    2.79
  -6  -3   9   15.03    3.02
   5  13  11   18.71    2.37
   5  13  11   20.34    2.79
   0   8 -10   -0.12    1.77
   7  11   5   19.12    2.53
   7  11   5   19.42    2.46
   7   0  -9   -0.88    2.97
  -7   0   9    0.83    2.61
  -4  10  -7    0.71    2.27
  -4  10  -7   -0.74    2.45
  -4  10  -7    0.40    3.10
   1  -4 -17   11.73    2.20
  -1   4  17   13.87    2.30
  -1   4  17   12.42    3.09
   1  -4 -17   17.79    3.01
  -2  -6  11    6.52    3.18
   2   6 -11    5.10    2.57
  -7  -8   2   21.52    3.00
   7   8  -2   24.99    2.70
   7   8  -2   27.44    2.54
   7   8  -2   19.49    3.22
   2   7 -10    6.51    2.68
  -2  -7  10    7.57    3.43
  -1  10  16    1.06    1.99
  -1  10  16    1.85    2.44
   1  10  17   26.19    2.90
   1  10  17   25.49    2.62
   8  -7  -6    3.91    3.71
  -4   8 -10   -1.56    2.79
  -4   8 -10    1.88    3.09
 -10   0   0    7.50    3.05
  -3   9  -9    3.96    2.83
  -3   9  -9    3.63    2.79
  -3   9  -9    4.51    1.58
  -1  13  13   11.54    1.99
   3   8  18   48.12    3.39
  -3  -8 -18   37.38    2.88
   3   8  18   43.09    3.22
   6  11  14   28.45    2.85
  -5  11  -4   -0.97    3.32
  -5  11  -4   -0.56    2.07
  -7  10   5    2.77    1.97
   7 -10  -5    1.94    2.12
   2  14  12   50.42    3.89
   2  14  12   53.53    3.40
  -2  14   2    1.15    2.35
  -5  12  -1   -0.98    1.96
  -5  12  -1    3.36    3.61
   7  -7  -9   13.84    3.72
   7  -7  -9   12.65    4.12
   0  12  -4   -0.58    1.95
  -9   0 -12    1.37    2.43
   9   0  12    6.83    1.68
   2   8  18   44.31    3.26
  -2  -8 -18   32.79    2.67
  -7  -2   8   14.32    2.91
   7   2  -8   13.57    3.04
   8   9   3    1.91    1.84
   8   9   3    4.95    2.16
   8   9   3    1.72    2.07
   8   9   3   -0.47    2.51
  -4  -8   7    5.36    3.20
   4   8  -7    1.94    2.74
   9   7   3   40.87    2.87
   9   7   3   35.54    3.55
   9   7   3   38.75    2.96
   9   7   3   43.16    3.18
   3   3  18   14.49    3.37
   3   3  18   14.69    2.29
  -6   3 -14    3.10    3.64
   6  -3  14    4.32    2.70
   9   8   8   16.54    2.59
   9   8   8   19.67    2.23
   9   8   8   19.20    2.41
   9   3  13   13.66    2.06
 -10  -2  -1    7.03    2.92
   8   4  15   -1.13    1.87
  -1  -7 -18   33.05    2.66
   1   7  18   34.59    3.05
   1   7  18   39.04    3.03
   9   8   7   27.69    3.04
   9   8   7   34.41    2.63
   9   8   7   33.42    2.84
 -10   3  -1    5.58    3.45
  10  -3   1    4.80    3.55
  10  -3   1   11.56    3.08
   9   4  13   -0.02    1.81
  -7   6 -10   -3.93    3.59
 -10   2   0    2.46    3.19
  10  -2   0    5.13    3.46
  10  -2   0    4.13    3.05
  10  -2   0    3.47    1.75
   6   3  17   -1.02    2.34
   6   3  17   -0.19    1.97
  -6  -3 -17    1.21    2.53
   3  13  14   13.83    3.09
   3  13  14   15.13    2.30
   3  13  14   19.90    2.82
  -3  13  -1    8.98    2.26
   3 -13   1    7.94    3.33
   0 -11 -16   16.81    1.83
   0  11  16   18.92    2.37
   0  11  16   20.37    2.73
 -10  -3  -2    5.96    2.86
   5  13   5    1.47    2.38
   5  13   5   -0.07    2.29
   5  13   5   -0.81    1.80
   5  13   5    6.95    1.98
   8  10   8    0.13    2.08
   8  10   8   -0.82    2.08
   6   7  17   45.31    3.30
  -6  -7 -17   37.35    3.16
  -7   8  -7    3.39    3.73
  -7   8  -7    3.63    2.89
  -7   8  -7    2.08    2.04
   9   6   1   30.97    2.63
   9   6   1   32.99    2.78
   9   6   1   32.06    3.53
   4  12  15   22.42    2.92
   4  12  15   22.98    2.53
  -6  11  -2    0.08    3.77
  -2  13  12    0.39    2.51
  -2  13  12   -0.14    1.72
   2 -13 -12   -0.03    1.65
  -7  10  -2    2.32    3.83
  10  -1   8   14.28    1.86
 -10   1  -8    8.67    3.78
   4  -3  15   27.53    2.23
   4  -3  15   24.64    3.65
   5  12  14    7.91    2.17
   5  12  14    7.53    2.52
 -10   3  -5    6.42    3.83
  10  -3   5    6.12    2.98
  10  -3   5    4.41    2.71
  -8   0   7   23.51    2.93
   8   0  -7   21.12    3.48
   9  -5   7   -1.00    2.30
  -9   5  -7   -0.38    1.91
  -1 -10   7    9.98    3.36
   1  10  -7    8.79    2.08
  -1  13  -2    3.21    1.62
  -1  13  -2    4.12    2.05
  -6  11   7   -0.25    2.18
   5   9  17    3.42    2.05
  -5  -9 -17    2.00    1.90
   5   9  17    2.98    2.18
  -5   9  -8    2.11    3.33
  -5   9  -8   -1.75    2.26
  -7   9  -5    5.01    1.96
  -7   9  -5    2.23    3.70
   8   7  -1    6.42    1.98
   8   7  -1    5.53    2.86
  -5  -6   8   22.76    3.41
   5   6  -8    9.29    3.13
  -4   8  14    1.85    1.92
   4  -8 -14   -0.54    3.76
   8   5  15   28.97    2.67
   6  -9 -10   11.24    4.11
   6  -9 -10   17.19    2.05
  -6   9  10   15.36    1.90
  -6   9  10   17.00    2.53
   6  12  12   10.20    2.57
   6  12  12   15.28    2.31
   5  11  -1   16.57    2.36
   5  11  -1   17.94    2.30
  -4  13   8    1.01    2.40
   8  10   9    5.79    2.12
   8  10   9    6.63    2.08
  -3  14   5    6.38    2.42
  -5   9  12    3.15    1.81
   5  -9 -12    0.82    3.86
  -5   9  12    2.10    2.29
   9  -6   5   -0.11    2.51
   8   2  -6   15.36    3.22
  -8  -2   6   16.78    2.79
   8   2  -6   16.22    2.09
   7   7  16   26.02    2.65
   8  10   7    1.55    2.18
   8  10   7    0.65    2.08
  -2  -3 -18    1.87    2.28
   2   3  18    6.16    3.34
   2   3  18    4.73    2.04
   6  10  -1    1.92    2.12
   6  10  -1   -0.65    2.10
   3  14   4   -0.19    1.74
   3  14   4    1.21    1.62
  10   4   9    0.02    1.85
 -10  -4  -9    3.91    3.51
  -1  14  11    3.34    1.70
  -1  14  11   -0.85    2.56
   1  -3  15    7.21    1.78
   1  -3  15    1.64    3.07
  -1   3 -15    5.21    2.74
  -1   3 -15    3.66    2.23
 -10   2  -7    6.43    3.83
  10  -2   7    6.15    2.59
  10  -2   7    7.63    2.34
  -5  11  10   35.80    2.54
  -5  11  10   35.08    3.17
  -5  12   8    2.73    2.32
   0  14   1    1.68    2.51
   0  14   1   -0.35    1.60
   0  14   1    1.05    2.21
   5  -1  16   29.42    2.32
   5  -1  16   21.59    3.34
   9   8   9    6.07    2.31
   9   8   9    9.92    2.15
   9   8   9   10.13    1.94
  -3  14   6   -0.84    2.43
   1   4  18   30.83    2.82
   1   4  18   35.77    3.84
   4   4 -11   23.84    3.57
  -4  -4  11   26.32    3.55
   4  10  17   23.17    2.72
   8   3  15    7.51    1.93
  -8  -3 -15    5.72    2.60
  -2  -5  12   -0.31    3.08
   2   5 -12    0.58    2.65
  -1  14   1    1.52    2.77
  -1  14   1    1.66    1.46
  -1  14   1    4.00    2.26
  -6   7 -10   -6.68    3.48
  -6   7 -10    0.04    2.41
   8  -9  -1    3.73    2.99
   2   8  -9    9.84    2.08
   2   8  -9    5.64    2.62
  -2  -8   9   15.26    3.58
   3   4 -12    8.68    3.11
  -3  -4  12   16.00    3.40
   9   8   6   13.81    2.63
   9   8   6   17.13    2.22
   9   8   6   14.88    2.38
   6   0  16   21.36    3.08
   6   0  16   25.92    2.28
   3   0  17    4.40    1.88
   3   0  17    5.87    3.08
  -3   0 -17    2.67    2.60
   8  -6  -7   26.19    4.13
   8  -6  -7   22.91    4.27
   8  -6  -7   26.47    2.46
   5   7  -7   15.77    3.07
  -5  -7   7   19.41    3.48
  -4  11  12    0.13    1.70
  -4  11  12   -0.37    2.41
  -4  12  -3    6.51    2.21
  -4  12  -3    2.30    3.12
  -4  12  -3    6.51    2.12
   5   1  17   11.92    2.02
  -5  -1 -17    7.18    2.80
   5   1  17   10.02    2.86
  -8   9   0   -0.27    3.18
   8  -9   0    2.37    2.76
   9  -5  -4    3.34    2.25
   9  -5  -4    2.55    3.29
   9  -5  -4    0.16    3.78
  -9   5   4    3.42    3.24
  -3  14   4    3.05    2.34
  -7  -2 -16    8.37    1.92
   7   2  16   10.23    2.00
  -5   5 -13   -1.78    2.69
  -5   5 -13    1.09    3.38
   5  -5  13   -1.65    2.89
   4  14   8    5.80    2.04
   4  14   8    1.91    2.49
  10   0   9   19.25    2.13
 -10   0  -9   22.61    4.19
   5   5  -9   -0.44    2.94
   5   5  -9    4.67    2.30
  -5  -5   9    0.27    2.93
   8  -8  -5    0.71    3.73
   8  -8  -5    0.96    2.31
   8  -8  -5   -1.17    3.33
  -6  10   9   23.85    2.71
  -6  10   9   23.24    2.03
  -9  -2 -13   17.26    2.72
   9   2  13   22.15    2.27
   2  -2 -16    5.58    2.24
  -2   2  16    7.85    2.11
  -5   6 -12    1.63    2.71
  -5   6 -12    0.95    3.38
   5  -7 -13    3.67    3.77
  -5   7  13    5.38    1.96
   8   0  14    4.85    1.68
  -8   0 -14    8.49    2.68
   2  12  -3    6.22    1.65
   2  12  -3    3.85    2.17
   9   1  -4   16.89    2.04
   9   1  -4   11.82    3.28
   0  14  12    2.37    1.84
 -10  -1   0    7.21    2.89
   4  13   2    4.57    1.85
   4  13   2    5.99    1.95
   6  12   4    0.24    1.84
   6  12   4   -0.04    1.95
   6  12   4    1.29    2.17
   3  12  -2   10.37    1.87
   3  12  -2   10.16    1.88
   3  12  -2    7.78    2.22
   3  12  -2    7.65    2.04
 -10  -5  -7    8.03    3.27
  10   5   7    9.07    2.14
   0  13  -2    4.69    2.11
   0  13  -2    0.12    1.66
  -6   9  -7   -2.12    3.37
  -6   9  -7    0.03    2.04
   9   5  13    2.30    1.90
   9  -6  -3    1.64    3.69
   9  -6  -3   -1.77    3.30
  -9   6   3   -2.40    3.45
   4  14   9    0.91    2.51
   4  14   9    2.81    1.93
   0  11  -6    0.62    1.86
  -6  10  -5    4.76    3.60
  -6  10  -5    1.71    2.66
   6  11   1    1.61    2.15
   6  11   1    0.18    2.04
   6  11   1   -2.02    1.99
  10   5   6   18.00    2.01
  10   5   6   18.80    2.34
 -10  -5  -6   17.08    3.31
  -7   2 -14    0.18    2.76
  -7   2 -14    3.38    4.02
   0  13  14   30.05    3.17
   0  13  14   30.80    2.71
   7  -4 -10   19.81    3.77
   7  -4 -10   17.58    3.98
  10   4   3   -1.72    2.04
  10   4   3    1.25    1.74
 -10  -4  -3   -0.90    2.79
  -4  10  13    7.81    2.46
  -4  10  13    2.25    1.89
   2   0  17   21.46    3.68
   2   0  17   22.92    2.41
  -2   0 -17   18.84    2.90
  -8   9   2   12.11    4.04
   8  -9  -2   14.03    3.32
   9  -7   1    8.53    3.10
   9  -7   1    2.16    3.26
  -9   7  -1    4.55    3.81
  -4  -3 -18   10.36    2.80
   4   3  18   17.09    2.36
   4   3  18   21.68    3.33
   0   4 -14    9.79    2.54
   0  -4  14    9.12    3.31
   4  14   7    9.02    2.58
   4  14   7    6.31    1.94
  -3  11  -6   16.98    2.05
  -3  11  -6    9.27    3.17
   9  -7   0    3.35    3.20
  -9   7   0    6.29    3.85
   9  -7   0    8.41    3.64
  -1   8  17   27.28    2.72
  -1   8  17   30.03    2.86
  -4  -1  13    6.13    3.08
   5  10  -3   20.33    2.41
   8  10  10    6.83    2.11
   8  10  10    9.48    2.17
  -2  13  -2    1.13    2.07
  -2  13  -2    3.98    1.55
   4   8  18    7.37    2.28
  -4  -8 -18    4.08    2.11
  -4  -8 -18    7.23    2.24
   4   8  18    6.36    2.18
   7  -3 -10   11.14    3.57
   5  -2 -13   21.19    3.23
  -5   2  13   19.55    3.09
   7   9  15   10.75    2.23
   7   9  15    8.24    2.21
  -3  -1  14   41.19    4.24
  -3  -1  14   47.30    3.17
  -8   4 -11   -1.78    3.79
  -8   4 -11    2.77    2.56
   8  10   6    4.07    2.13
   8  10   6    2.09    2.29
   8  10   6   -1.51    2.08
  -3  -9   7    7.51    3.33
   3   9  -7    4.34    2.06
  -3  14   7   -0.44    2.40
   7  11  12    4.91    2.27
  -3  12  -4    3.78    1.96
  -3  12  -4    6.10    2.93
  -9   2   5    6.44    2.05
   9  -2  -5    7.79    3.34
  10   5   8   14.64    2.24
 -10  -5  -8   13.55    3.44
   8   6  15   15.21    2.31
   0   9  -9   -0.34    1.78
  -1   3  17   12.31    3.28
   1  -3 -17   11.63    2.31
   1  -3 -17   14.07    3.10
  -1   3  17   15.35    2.38
  -8   9  -1   -2.04    3.20
  -8   9  -1   -6.41    4.02
   8  -9   1   -0.07    2.57
   5   5  18   21.68    2.60
   5   5  18   26.57    3.16
  -5  -5 -18   20.97    2.84
 -10  -2 -10    3.02    3.87
  10   2  10    2.04    1.85
   3  11  -4   13.47    2.17
   3  11  -4   11.65    2.32
  10  -3   0   -0.09    3.59
 -10   3   0   -0.69    3.38
  10  -3   0    1.42    3.13
  -8   3 -12   -0.64    2.58
  -8   3 -12   -0.63    3.95
   9  -3  -5   12.98    3.82
   9  -3  -5   13.80    3.55
 -10  -3 -10   -1.25    3.70
  10   3  10    1.92    1.83
  -5  -6 -18   19.76    2.80
   5   6  18   29.92    3.31
   5   6  18   33.42    3.01
   1   8  18    4.91    2.33
  -1  -8 -18    2.58    1.85
   5  -4  14    1.17    2.98
  -5   4 -14   -2.48    3.65
  -5   4 -14    4.88    2.78
   9  -3  10   -1.11    2.14
  -9   3 -10   -1.43    2.32
  -9   3 -10    1.86    3.97
   5  13  12   31.01    2.73
   5  13  12   27.37    3.15
   9  -7   2    0.81    2.91
  -9   7  -2   -1.93    3.85
   7  -5 -10    6.13    4.05
   7  -5 -10   10.96    3.73
  -4  13   0    6.84    2.54
  -4  13   0    9.76    2.22
   5  12   1   12.76    2.18
   5  12   1   16.00    2.22
 -10  -5  -5    2.98    2.87
  10   5   5    1.22    1.97
  10   5   5    4.11    1.76
   0   1 -16    6.67    2.71
   0  -1  16    7.96    2.02
   0  -1  16    5.70    3.31
   7  10  14   47.19    3.27
   7  10  14   40.51    3.20
   3  14  12    8.14    2.08
   3  14  12    6.99    2.70
   2  14   2   10.42    1.95
   2  14   2   12.90    1.75
   2  14   2    8.60    2.50
   3  -2  16    0.26    3.04
   3  -2  16   -0.12    1.73
  -3   2 -16   -3.69    2.74
   9   8  10    2.69    2.25
   9   8  10    3.43    1.85
   9   8  10    4.22    2.05
   1   0 -16    1.71    2.51
  -1   0  16    1.35    3.30
  -1   0  16    1.20    1.91
  -3  14   3    5.93    2.35
   4  14  10    3.70    1.92
   4  14  10    0.51    2.49
 -10   3  -6    2.30    3.90
  10  -3   6   -0.83    2.73
  10  -3   6   -2.53    2.58
   7  11   4   24.27    2.63
   7  11   4   24.22    2.63
  -2  14  10   21.74    3.09
  -2  14  10   28.88    2.24
  -9   2 -11   -0.28    4.02
  -9   2 -11    3.21    2.48
   6  -8 -11    1.95    3.94
  -6   8  11   -0.62    1.68
  -5   7 -11    1.11    2.69
  -5   7 -11    1.52    3.43
   3  -9 -15    3.81    3.69
  -3   9  15    1.10    2.37
  -3   9  15    2.12    1.98
   8   8  14    5.99    2.06
  -2  10  -8   15.50    2.01
   4   0  17   -0.95    1.81
   4   0  17   -4.53    3.00
   9  -7  -1   12.90    3.46
  -9   7   1    9.23    3.93
   9  -7  -1    9.78    3.84
  -8   7  -7   -1.08    3.83
  -8   7  -7    0.43    1.93
   9   8   5   23.93    3.04
   9   8   5   26.24    2.73
   9   8   5   28.69    2.55
   2  11  -5    9.66    2.17
   2  13  -1   12.59    2.13
   2  13  -1   13.89    1.82
   2  13  -1   10.83    2.39
  -2   9  16    5.17    2.07
  -2   9  16   10.37    2.48
  -4  -9   6    8.14    3.30
   4   9  -6    1.17    2.67
   4   9  -6    4.65    2.19
   2  -2  16    1.43    3.12
  -2   2 -16    1.62    2.69
   2  -2  16   -1.09    1.79
  -5  -8   6    7.41    3.21
   5   8  -6    3.13    2.96
  10  -4   2   12.01    3.57
 -10   4  -2   14.76    3.92
  10  -4   2   12.80    3.10
   8   2  15    2.89    1.81
  -8  -2 -15    2.03    2.68
   9   4  -2   12.09    2.07
   1  14   1   23.61    2.25
   1  14   1   18.68    2.66
  10  -4   3    2.23    3.24
  10  -4   3    0.14    2.81
 -10   4  -3    0.39    3.80
   6   9  -3    4.33    2.23
   6   9  -3    5.95    2.08
  -6  -9   3    8.17    2.88
  -6   0  11   20.28    3.34
   6   0 -11   16.58    3.07
  -7   7  -9   -6.65    3.81
 -10   1   1    9.13    3.12
  -8   5 -10   -0.53    2.37
  -8   5 -10    1.07    3.82
   9   7  12    4.88    2.06
   6  -2  15    6.41    2.79
   2  12  16   14.24    2.71
   2  12  16   15.84    2.38
   9  -1  -5    0.66    1.64
  -9   1   5    0.18    2.14
   9  -1  -5   -0.26    3.34
  -7  10   6   -1.97    2.08
   4  14   6    3.97    2.48
   4  14   6    4.73    1.83
   4  14   6    3.18    1.85
   8  -9  -3    4.70    3.22
  -8   9   3    3.10    3.72
   6   2  17    7.81    1.96
   6   2  17    3.20    2.51
  -6  -2 -17    2.21    2.76
   5   4 -10    5.29    3.20
  -5  -4  10    4.28    2.93
   5   4 -10    4.84    2.43
   7   5  -6   25.94    3.71
  -7  -5   6   39.70    3.61
  -8   8  -5    2.64    1.72
  -8   8  -5   -4.18    4.08
   8  -8   5    0.47    2.18
  -5  -4 -18   23.81    2.99
   5   4  18   30.14    3.39
   5   4  18   29.35    2.72
   0  15   7   16.97    1.88
   0  15   7   17.62    2.99
  -9   4  -9   -0.39    2.18
   9  -4   9   -2.35    2.24
  -9   4  -9   -1.52    3.88
 -10  -1 -10    8.12    4.01
  10   1  10   10.39    2.02
  -1  10  -8    3.48    1.83
   1  15   7    6.71    1.65
   1  15   7    4.95    2.61
  -3  13  11    6.79    1.72
  -3  13  11    5.03    2.62
   6   8  17   14.34    2.38
   5  13   4    1.24    1.85
   5  13   4    3.93    2.30
   5  13   4   -0.12    1.91
  -2  14   1    3.86    2.63
  -2  14   1    9.16    2.43
  -3  -9 -18   25.53    2.50
   3   9  18   32.70    3.01
   6   2 -10   19.39    2.92
  -6  -2  10   16.77    3.21
   8   9  13   16.89    2.39
   8   9  13   14.45    2.36
  -7  -6   5   33.04    3.53
   7   6  -5   21.26    3.47
  -4   1  14    1.58    1.91
  -4   1  14    0.80    3.09
   4  -1 -14    0.62    2.48
  -1  -2  15    4.42    3.32
   1   2 -15    4.51    2.59
  -1  -2  15    4.60    1.92
  -2  -9 -18   13.12    2.11
   2   9  18   15.26    2.59
   8  -3  -8    7.56    3.43
   1  15   8   -0.87    2.68
   1  15   8    1.44    1.58
  -4   9  -9    0.20    3.19
  -4   9  -9    1.15    2.77
  -4  12  11   15.30    1.93
  -4  12  11   11.00    2.61
   7  -2 -10   13.75    3.45
  -7   2  10   16.34    2.74
  -3   1  15    2.86    3.10
  -3   1  15    4.30    1.93
   3  -1 -15    4.02    2.18
  10  -2  -1    0.91    3.48
 -10   2   1    5.99    3.17
  10  -2  -1    1.61    3.19
   2   4 -13   -1.91    2.80
  -2  -4  13   -1.05    3.11
   0   1  17    0.38    1.99
   0   1  17    2.38    3.28
   0  -1 -17    2.96    2.47
   3  13   0    7.98    1.80
   3  13   0    7.54    2.04
   3  13   0    3.95    2.29
   6  -4 -12    4.65    3.38
   6  -4 -12    3.04    3.70
   2   9  -8   18.85    2.44
  -2  -9   8   22.97    3.79
   0  15   6   19.35    3.00
   1   3  18    9.83    3.38
   1   3  18    8.71    2.20
   9   5  -1    8.96    3.20
   9   5  -1    8.50    2.05
  10   4  10    5.74    1.99
   9   1  13    9.57    1.83
  -9  -1 -13    3.94    2.58
   5   7  18    2.59    2.14
   5   7  18    2.80    1.97
  -5  -7 -18    6.47    2.38
   5   7  18    0.83    2.44
   9   3  -3   20.17    2.26
   1  12  -4    2.48    2.08
  -9   4   5    9.94    3.16
   9  -4  -5   11.15    4.01
   9  -4  -5    9.65    3.61
   8  -4  -8    0.03    3.42
  10   5   9    3.27    2.00
   6  -5 -12    6.01    3.92
   6  -5 -12    7.25    3.51
  -6   5  12    4.74    1.94
   6  -5 -12    2.71    3.10
   4  12  -1    2.95    2.23
   4  12  -1    6.66    2.09
   4  12  -1    5.14    1.90
   0  15   8   17.30    2.95
   0  15   8   17.76    1.92
 -10  -3  -1    1.77    2.77
  10   3   1    2.77    1.82
   3   2  18   17.79    2.35
   3   2  18   20.39    3.56
  -8   2 -13    1.57    4.11
  -8   2 -13    0.91    2.58
  10  -4   1   18.25    3.76
 -10   4  -1   14.30    3.80
  10  -4   1   17.17    3.18
   0  10  17   39.56    3.29
   0  10  17   39.36    3.09
   7  10   1   13.72    2.40
   7  10   1   13.49    2.37
   7  10   1   12.18    2.20
   7  10   1   11.05    2.74
 -10   0   1   29.88    3.48
  -7  10  -3    2.69    3.81
 -10   4  -4    3.85    3.89
  10  -4   4    8.73    2.82
  10  -4   4    6.58    3.19
   4  11  -3    4.70    2.15
   8  10  11   10.83    2.13
   8  10  11   14.88    2.36
   8  10  11   15.95    2.34
   9   6  13   22.12    2.50
   9   7   2   15.93    2.32
   9   7   2   15.68    2.18
   9   7   2   13.36    3.04
   9   7   2   14.01    2.43
   9  -7   3   -2.29    2.84
   1   7 -11    2.69    2.54
   5   1 -12    2.50    2.60
  -5  -1  12    0.51    2.94
  -5  12  -2    3.71    3.54
  -5  12  -2   -0.43    1.91
   1  15   6    7.71    1.68
   1  15   6    8.30    2.65
  -8   9  -2    1.77    3.90
   8  -9   2   -0.84    2.49
  -3  14   8   -1.79    2.47
   0   6  18    7.42    2.17
   0  -6 -18    8.96    2.12
   3  12  16   42.34    3.16
   3  12  16   38.30    3.42
  -6  12   3    8.08    2.19
   7   9  -1   14.00    2.23
   7   9  -1    9.18    2.35
   7   9  -1   10.97    2.91
  10   2   0    5.82    1.83
 -10  -2   0    5.40    2.70
   1   6 -12    8.90    2.60
   2  11  17   21.85    2.87
   2  11  17   25.24    2.73
   8  10   5    0.10    1.82
   8  10   5    1.30    2.14
   8  10   5    2.17    2.09
   8  10   5    2.22    2.39
  -4  13   9    9.80    2.56
  -2  12  14   25.46    2.47
 -10  -5  -4   -0.09    2.72
  10   5   4   -0.35    2.01
  10   5   4    0.76    1.76
   1  14  13   29.91    3.33
   1  14  13   32.65    2.66
   7   8  16    6.28    2.13
   2  14  13    9.35    2.70
   2  14  13   11.05    2.15
   8   9   2    1.67    2.15
   8   9   2    3.56    1.98
   8   9   2    3.61    2.74
   8   9   2    1.58    2.16
   4  13  14   15.04    2.78
   4  13  14   16.71    2.42
   8  -2  -8   11.50    3.46
  -8   2   8   15.17    2.53
   6  12  13    5.95    2.58
   6  12  13    3.76    2.09
  -9   1 -12    1.01    4.26
  -9   1 -12    4.73    2.49
 -10   1  -9   -3.09    3.95
  10  -2   8   -0.86    2.52
 -10   2  -8   -1.92    3.73
   8   8   0    2.29    2.76
   8   8   0    1.55    2.13
   8   8   0    3.58    1.96
   3  14   3    3.26    1.66
   3  14   3    1.19    2.31
   3  14   3    1.27    1.83
   4  -2  16   19.82    2.07
   4  -2  16   14.21    3.37
  -7  -4   7   16.80    2.99
   1  12  16   17.70    2.82
   1  12  16   14.05    2.36
  -4  -3  12   21.62    3.45
  -9   6  -6   -0.22    1.86
   9  -6   6   -1.47    2.47
  -9   6  -6   -3.38    4.02
  -6   8  -9    0.02    2.24
  -6   8  -9   -2.66    3.36
   0   5  18   25.69    2.68
   0   5  18   25.28    3.49
   1  15   9   -0.55    1.60
   7   1  -9   -0.02    2.94
  -7  -1   9    3.35    2.77
  -3  10  -8    1.65    2.98
  -3  10  -8    4.58    2.78
  -3  10  -8    3.37    1.66
   7  -6 -10    0.90    3.52
   7  -6 -10    2.14    4.03
  -1   0 -17   17.25    2.70
  -1   0 -17   18.25    2.96
   1   0  17   21.06    3.82
   1   0  17   24.58    2.52
  -6  12   2    6.03    2.12
   2   2  18   13.50    2.31
   2   2  18   16.64    3.60
   1  13  -2   -0.69    2.13
   1  13  -2    1.46    1.79
  -8  -1   7   11.86    2.72
   8   1  -7   13.11    3.33
   4  14  11    2.99    2.56
   4  14  11    2.77    1.99
  -2  -1  15   23.14    2.39
  -6  11  -3    0.03    3.80
   8   5  -4   -2.18    3.33
  -8  -5   4    1.02    2.48
   8   5  -4    1.05    2.01
  -6   3  12   -3.21    2.56
   6  -3 -12   -0.05    3.30
  -9   7   2    7.06    4.00
   9  -7  -2    5.12    3.40
   9  -7  -2    9.19    3.75
   5  11  16   15.94    2.60
  -6  12   4   10.57    2.26
  -2  11  15   38.74    3.51
  -2  11  15   47.26    3.18
  -3  -3  13   19.03    3.41
   3  11  17   -0.48    2.44
   3  11  17    1.13    2.04
   5  -3  15    1.66    3.01
  -5   3 -15    2.06    3.78
  -6  11   8   -1.85    2.24
   7  -8  -9   12.71    3.68
  -7  -7   4   23.58    3.24
   7   7  -4   20.07    2.40
   0  15   5   11.88    2.77
   2  -6  13    9.68    3.53
  -2   6 -13    5.50    1.64
  -2   6 -13    7.69    3.03
  -3  14   2    9.82    2.44
  -5   8  13    1.53    1.91
   5  -8 -13    0.03    3.90
  -1  12  15   18.95    2.86
  -1  12  15   26.44    2.54
   2  13  15    3.99    2.05
   2  13  15    7.87    2.66
   0  -7 -18   -0.90    1.89
  -7  -1 -16    4.68    2.87
   7   1  16    8.25    1.96
   8   7  15   15.47    2.35
  -2   7 -12   11.88    1.82
  -2   7 -12   16.13    3.15
   2  -7  12   16.87    3.64
  -4   9  14    7.02    2.15
   4  -9 -14   -0.32    4.01
   9   8  11    2.31    2.02
  -5  13   4   10.52    2.40
  -7   1 -15    9.41    2.96
   1   8 -10    1.60    2.48
   1   8 -10    4.87    2.00
  -1  -8  10    3.43    3.42
  -8  -4   5    5.27    2.56
   8   4  -5    5.27    2.07
  -3   6 -13    7.38    3.05
   3  -6  13   11.46    3.45
  -3   6 -13    7.89    3.11
   0  15   9    4.77    1.66
   0  15   9    7.83    2.73
  -6   6  12   -1.08    1.82
   6  -6 -12   -3.11    3.98
   6  -6 -12    2.10    3.28
  10  -3  -1   -0.99    3.12
 -10   3   1    0.78    3.34
  10  -3  -1   -2.44    3.68
   6  10  16   40.02    3.15
   6  10  16   38.68    3.10
  -5  12   9    2.08    2.42
   6  12   3   -1.13    2.01
   6  12   3   -0.71    1.95
   6  12   3   -0.23    2.18
   8  -5  -8    9.27    3.68
  -4  -2 -18    1.87    2.73
   4   2  18    3.04    3.11
   4   2  18    1.63    1.94
  -5  13   3    5.00    2.24
  -8   6  -9    2.99    3.94
  -8   6  -9    1.07    2.25
   9  -6  -4   -0.32    3.73
   9  -6  -4   -1.79    3.28
  -9   6   4    1.06    3.40
  -9   0   5    8.64    2.45
   9   0  -5    6.49    1.79
   9   0  -5    9.77    3.37
  -1   9  17   25.83    2.71
  -1   9  17   31.91    2.97
  -8  -6   3   10.64    2.75
   8   6  -3   11.83    2.15
   8   6  -3    6.61    3.16
   2  15   8    0.89    1.74
   9   8   4   17.01    2.55
   9   8   4   22.63    2.31
   9   8   4   23.10    2.51
   9   8   4   16.22    3.00
  -5   8 -10    2.95    2.73
  -5   8 -10   -1.27    3.37
   8  -7  -7   14.65    4.10
  -1  15   6    4.88    2.61
   4  14   5   -1.46    2.34
   4  14   5    0.08    1.78
   4  14   5    0.11    1.81
  -1  15   7    7.12    2.64
  -1  14  12    1.30    1.73
  -3  13  -2    3.85    2.13
  -9   5  -8    0.84    2.12
   9  -5   8   -0.11    2.26
  -9   5  -8   -1.83    4.00
   0   3 -15   13.10    2.94
   0  -3  15   17.03    3.54
   0  -3  15   15.68    2.09
  10  -4   0    7.52    3.76
  10  -4   0    8.58    3.17
 -10   4   0    2.55    3.60
   9   6   0   17.52    2.23
   9   6   0   11.67    3.29
   3  -7  12    6.59    3.27
  -3   7 -12    5.38    2.95
   4   9  18   22.16    2.71
   4   9  18   25.15    2.69
  -5  -3 -18   13.05    2.89
   5   3  18   20.07    2.36
   5   3  18   16.35    3.09
   6   6  -7    0.48    3.08
  -6  -6   7    1.22    2.90
   8  -9  -4    5.85    3.41
   8  -9  -4    4.96    3.88
  -8   9   4    9.67    3.84
   1  -2  16   10.94    3.51
   1  -2  16   18.10    2.14
  -1   2 -16   10.48    2.94
   1  15   5    9.57    2.65
 -10   0 -10   -0.35    3.97
  10   0  10    1.19    1.64
  -3  11  14   23.02    2.45
   6  11  15   25.31    2.80
   9   2  -4   14.08    2.11
  -5  13   5    4.81    2.31
  10  -4   5    2.21    2.64
  10  -4   5   -1.52    2.91
 -10   4  -5    1.17    3.88
 -10   3  -7    1.36    3.93
  10  -3   7    2.07    2.51
   1   5 -13    4.45    2.63
   2  15   7   -0.45    1.60
  -1  14   0   -0.89    1.57
  -1  14   0   -2.09    2.26
   5  -1 -13   16.50    3.09
  -5   1  13   19.88    3.28
  -3   5  16   12.90    2.27
   3  -5 -16   12.72    3.61
   8  -8  -6    1.78    3.88
   8  -8  -6   -5.12    3.57
   1  13  15    0.46    2.59
   1  13  15   -0.63    2.18
   1   9  18    6.20    2.41
   1   9  18    6.88    2.17
  -1  -9 -18    3.55    1.79
  -6  12   1    3.37    2.01
  -6  12   1   -0.79    3.88
  10   1  -1   26.96    2.32
 -10  -1   1   24.39    3.13
  -3   6  16   20.96    2.50
   3  -6 -16   20.11    3.75
   7  11  13   20.05    2.71
   1  -2 -17    3.30    2.31
  -1   2  17    4.67    2.12
  -1   2  17    4.77    3.35
   1  11  -6    2.58    2.08
   5  10  17   18.29    2.59
   0  14   0   -3.27    2.32
   0  14   0    0.11    1.68
   1  11  17   31.11    2.81
   1  11  17   30.91    3.12
  -3  12  13   -0.11    2.49
  -3  12  13    1.67    1.80
   2  -5  14    7.73    3.46
  -6  12   5    9.79    2.25
   2  -1 -16    4.84    2.38
  -2   1  16    6.71    2.06
   3  -5  14   24.58    3.92
  -3   5 -14   20.86    3.31
  -3   5 -14   10.57    3.27
   0   4  18   13.62    3.26
   0   4  18    7.88    2.22
   2  15   9   -0.05    1.71
   5  13  13   22.84    2.60
   5  13  13   23.49    3.02
   6   5  -8   -1.42    3.22
  -6  -5   8    1.37    2.86
   0  10  -8    1.03    1.88
  -3 -10   6   -2.09    3.24
   3  10  -6    0.32    2.05
  -5  11  -5    0.10    2.21
  -5  11  -5   -1.69    3.32
  -1  11  16   -1.15    2.46
  -1  11  16   -0.67    2.00
   5   9  -5   15.06    2.98
   5   9  -5   13.79    2.47
  -5  -9   5   21.70    3.47
  -7   9  -6    3.02    3.75
  -7   9  -6    1.63    2.10
   5  12  15    4.01    2.19
   5  12  15    1.96    2.49
  10   5  10   10.33    2.13
   5   8  18    2.04    2.33
  -5  -8 -18    4.00    2.35
   5   8  18    0.41    2.12
   5   8  18    1.53    2.10
  -7  11   2    2.54    2.01
  -7  11   2    3.67    3.93
  -5  10  -7    1.25    3.32
  -5  10  -7   -0.40    2.25
  -8  -1 -15    0.85    2.64
   8   1  15    3.32    1.77
   7  -1 -10    5.83    3.23
  -7   1  10    4.17    2.72
   1  15  10    2.03    1.69
  -1  15   5    1.07    2.55
  -4   5  15   17.74    2.38
   4  -5 -15   24.04    4.18
   9  -5  -5    2.47    3.92
  -9   5   5    4.15    3.28
  10   6   7    4.27    2.04
 -10  -6  -7    5.67    3.18
  -1  15   8   16.25    2.86
   3  13  15   21.43    2.96
   3  13  15   16.72    2.42
  -6  -7   6    2.45    3.05
   6   7  -6    2.16    2.99
   9  -7   4    0.31    2.81
  -4  11  -6   -1.29    3.30
  -4  11  -6   -2.62    2.36
  10   3  11    4.67    2.03
 -10  -3 -11    3.05    3.81
  -8   1   8   26.65    3.06
   8  -1  -8   19.85    3.54
  -2   8 -11    9.89    3.07
  -2   8 -11    8.82    1.80
   2  -8  11    7.40    3.48
  -4  13  -1    5.48    2.15
  -5  13   2    5.90    2.19
  -5  -3  11    2.41    2.98
   5   3 -11   -0.45    2.52
   0  14  13   22.40    2.43
   0  14  13   14.94    3.00
  -1  13  14   24.18    2.45
  -1  12  -5    8.23    2.09
   3  14  13    2.79    2.65
   3  14  13    4.91    2.07
   7  11   3    9.86    2.31
   7  11   3   14.99    2.42
  -2  13  13    0.67    1.78
  -2  13  13   -1.41    2.69
   4  13   1   -1.13    1.84
   4  13   1    0.18    1.95
  -7  11   3    8.19    4.20
  -7  11   3   15.79    2.30
  -8   1 -14   -0.91    4.26
  -8   1 -14    3.81    2.63
  10   2  11   14.84    2.16
 -10  -2 -11    4.63    4.02
  -1   7 -12    1.51    2.14
  -1   7 -12    1.29    1.73
   1  -7  12    0.67    3.33
  10   6   8   13.66    2.27
 -10  -6  -8    9.08    3.34
   5   0  17   21.30    2.21
   5   0  17   16.36    3.16
  -7  11   1    0.14    1.91
  -7  11   1    1.51    3.99
   4  -6 -15    8.85    3.82
  -4   6  15    7.06    2.15
   2  15   6    4.79    1.65
   2  15   6    1.86    2.56
  -7  -5 -17    6.76    2.62
   7   5  17    4.85    2.09
  -8   9  -3    3.85    4.10
   6  13   9   13.92    2.30
   6  13   9   17.24    2.70
   9   4  14    1.74    2.00
   1  -6  13    0.77    3.42
   3  -4 -16    5.81    1.94
   3  -4 -16   10.75    3.61
  -7  -3   8   44.43    3.82
   7   3  -8   31.50    3.52
 -10  -6  -6   -3.09    3.00
  10   6   6    2.43    1.76
  10   6   6    0.72    2.04
   6  13   8   16.07    2.61
   6  13   8   13.84    2.24
  -2  14  11   13.45    2.81
  -2  14  11   14.91    1.98
   8  10  12    5.65    2.14
   8  10  12    2.56    2.22
   0  15   4    6.51    2.57
  -6   2  12    3.69    2.75
   6  -2 -12    3.06    3.37
  -8  -3   6    1.65    2.51
   8   3  -6    0.25    1.92
  10   5   3    2.21    2.12
  10   5   3    2.12    1.88
  -3  14   9    4.87    2.62
  -2  12  -5    5.43    2.00
   0   8  18    4.56    2.39
   0   8  18    2.15    2.18
  -5  10  12    0.80    1.75
   5 -10 -12    3.35    4.03
  -5  10  12   -0.30    2.31
  -5  13   6    2.24    2.36
   7  12   9    5.12    2.38
   7  12   9    6.34    2.14
   4  -4 -15   26.17    4.15
  -4   4  15   25.42    3.22
  -4   4  15   18.32    2.38
   7  12   8   15.30    2.37
   7  12   8   20.35    2.62
   9   3  14   32.88    2.72
   4  10  -5    2.39    2.14
  -4 -10   5    4.71    3.14
   3  -7 -16   10.76    3.79
  -3   7  16   11.26    2.31
  -7   8  -8    0.71    3.79
   8  10   4    7.29    2.23
   8  10   4    4.77    2.21
   8  10   4    2.46    2.43
   8  10   4    5.94    1.99
  -9   0 -13    2.81    2.52
   7   4  17   -0.35    2.01
  -7  -4 -17   -0.43    2.57
  -3   8 -11    6.99    2.94
   3  -8  11    3.95    3.20
   5  13   3    5.18    2.32
   5  13   3    5.42    1.98
   5  13   3    4.17    1.98
   9  -7  -3    7.08    3.95
  -9   7   3    1.70    3.74
   9  -7  -3    3.04    3.54
  -5  11  11   24.02    2.26
  -5  11  11   24.35    2.81
   0  15  10   -3.52    2.73
   0  15  10   -1.54    1.66
   2  -6 -17   11.04    3.51
  -2   6  17   13.36    2.41
   7 -10  -7   -3.08    4.04
  -7  10   7    3.75    2.20
   4  12  16   12.62    2.65
   4  12  16   17.85    2.45
  10   4  11   -1.10    1.98
  -6   1 -16   11.22    3.15
   6  -1  16   11.96    3.03
  -1  13  -3    3.04    2.09
  -4  12  -4    2.05    2.32
  -4  12  -4   -0.81    3.10
  -4  12  -4   -2.12    1.96
   4  14  12    4.20    2.10
   4  14  12    7.97    2.72
  -2 -10   7   10.56    3.48
   2  10  -7    8.62    2.18
   2  14   1   10.01    1.75
   2  14   1   11.35    2.52
   2  14   1   15.88    2.09
   6   1  17   24.04    2.28
   6   1  17   17.07    2.99
   4  11  17    0.36    2.45
   4  11  17   -0.30    2.18
   8   7  -2   14.74    2.24
   8   7  -2    7.91    3.18
  -7  -6 -17   16.80    2.71
   7   6  17   21.56    2.49
   1   9  -9    3.84    1.97
  -1  -9   9    2.17    3.30
   2  -5 -17   -0.86    3.27
  -2   5  17    1.05    2.78
   2  15  10   12.87    2.03
   2  15  10   12.93    2.97
  -7  -8   3    5.23    2.79
   7   8  -3    4.43    2.14
  -1  -2 -18   -0.83    2.48
   1   2  18    0.87    2.07
   1   2  18   -0.04    3.26
   6  13  10   11.86    2.61
   6  13  10    9.44    2.26
   6  11   0   -0.49    2.08
   6  11   0    2.43    2.22
   6  11   0    1.91    2.08
  -6  10  10   17.85    1.96
  -6  10  10   14.92    2.59
   6 -10 -10   13.21    4.27
   6   9  17   -1.54    2.12
   6   9  17   -0.09    2.12
 -10   1   2    4.09    3.09
  10  -2  -2    7.28    3.68
 -10   2   2    4.14    3.21
   9   7  13    9.46    2.29
  -2  14   0    7.47    2.37
  -4   6 -13    2.00    3.25
  -4   6 -13    2.54    2.90
   4  -6  13    2.08    3.22
   9   5  14    0.91    1.92
   6  13   7    1.73    2.02
   6  13   7    4.03    2.35
   6  -7 -12    2.15    3.90
  -6   7  12   -0.72    1.79
  -7   5 -12    6.87    2.81
  -7   5 -12    4.52    3.68
   7  -7 -10    4.79    4.06
   7  -7 -10    6.52    3.80
  -6  12   0   -1.73    3.80
  -6  12   0   -2.14    1.96
  -7  11   4    3.45    2.08
   6   4  -9    3.68    2.68
  -6  -4   9    3.46    2.85
   6   4  -9    3.71    3.31
  -1   8 -11    1.60    1.74
   1  -8  11    4.32    3.33
  -6  10  -6    2.01    3.63
  -6  10  -6    5.64    2.20
   7  12  10    4.63    2.14
   7  12  10    2.12    2.39
  10   6   9    8.73    2.17
  -7   4 -13    0.66    3.72
  -7   4 -13   -1.59    2.78
   0  12  16   -1.90    1.95
   0  12  16    2.39    2.56
  -3  14   1    0.48    2.30
  -1  15   4   -1.10    2.53
  -2  10  16   -1.76    2.40
  -2  10  16   -1.65    2.05
   7  12   7   10.67    2.47
   7  12   7    8.97    2.25
  10  -4  -1    6.67    3.84
 -10   4   1    3.75    3.56
  10  -4  -1    4.46    3.23
   1  15   4   14.28    2.72
   1  15   4   15.00    1.88
   5  11  -2    2.58    2.09
  -7  11   0    2.52    4.05
   8  -6  -8   12.99    3.97
   3  -1  17   -0.65    3.24
  -3   1 -17    1.04    2.70
   3  -1  17    0.95    1.85
  -1  15   9   13.84    2.82
   2  10  18    3.46    2.44
   2  10  18    2.21    2.21
  -3   4 -15   18.70    3.66
   3  -4  15   40.90    4.47
  -6  12   6    3.05    2.24
  -8   8  -6    3.05    1.87
  -8   8  -6    2.50    4.08
  -3  10  15   10.90    2.18
   6  10  -2    3.14    2.23
   3  10  18   10.29    2.54
  10   6   5   -0.59    1.78
 -10  -6  -5   -0.11    2.73
  10   6   5    0.50    2.79
  10   6   5   -0.57    2.09
   6  -9 -11    6.74    4.16
  -6   9  11    7.49    2.37
  -6   9  11   10.61    1.85
  10   1  11    4.38    1.73
 -10  -1 -11    3.31    4.07
  -7  10  -4    4.93    3.93
   1  -5  14   -1.02    3.27
  10   3   0    0.34    1.84
   9   9   8    5.41    2.43
   9   9   8   11.01    2.26
   9   9   8    9.64    2.13
  10  -4   6   -1.66    2.59
 -10   4  -6    2.22    4.01
  -4   5 -14    6.32    3.05
   4  -5  14   13.18    3.49
  -4   5 -14    5.46    3.43
 -10   5  -2    7.43    3.95
  10  -5   2    6.98    3.53
  10  -5   2    5.72    3.13
   7  10  15   36.23    3.01
   7  10  15   40.38    3.21
  -2  13  -3    3.51    2.13
  -4   7  15   -1.62    2.04
   4  -7 -15   -2.91    3.84
   2  -4  15    8.96    3.44
   2  -4  15    4.03    1.64
  -6   5 -13    1.84    3.51
  -4   7 -12    1.46    3.29
   4  -7  12    3.26    3.16
  -4   7 -12   -0.05    2.86
  -2   7  17   11.45    2.30
   2  -7 -17   12.25    3.51
   1   4 -14   11.52    2.87
   9   8  12    0.17    2.07
  -6  -8   5    2.10    3.09
   6   8  -5    2.09    3.05
   8   9  14    6.64    2.15
   0  12  -5   -0.31    1.95
   1  14   0   14.38    2.08
   1  14   0   12.57    2.47
  -5  13   1    1.66    2.07
  -4  10  -8    2.33    3.28
  -4  10  -8   -1.64    2.51
   5  -2  16    3.36    3.21
  -2  11  -7    8.53    1.99
  -6  -5 -18   27.32    3.09
   6   5  18   32.44    2.97
  -3  -6 -19   -0.05    2.31
   3   6  19    5.08    2.13
   3   6  19    3.86    2.95
   5  12   0    7.97    2.16
   5  12   0    4.64    1.99
  -6  -1  11   21.49    3.39
   6   1 -11   16.57    3.08
   4  14   4    0.17    1.76
   4  14   4    0.13    1.85
   9   9   9    0.81    2.29
   9   9   9    1.05    2.04
   9   9   9    1.51    1.97
   0  13  -3    0.14    2.14
  10   4   1    1.61    1.88
   9   9   7    5.21    2.54
   9   9   7    5.72    2.22
   9   9   7    8.51    2.13
   2  15   5    2.78    1.69
   2  15   5    5.42    2.58
   2  15   5    4.66    1.65
  -4   0  14   -1.53    3.20
  -4  13  10   10.08    2.64
   9   2  14   13.93    2.09
  -9  -2 -14    7.74    2.72
  10  -5   3   -0.56    2.90
  10  -5   3    1.15    3.24
 -10   5  -3   -1.32    3.93
  10  -2   9    3.70    2.49
 -10   2  -9    4.19    3.96
  10  -5   1    4.95    3.21
 -10   5  -1   11.88    3.96
  10  -5   1    8.72    3.72
   3   1  18   17.26    2.33
   3   1  18   20.76    3.66
   9   7   1   10.91    3.05
   9   7   1   10.72    2.30
   9   7   1   12.36    2.12
   2  -1  17    9.50    3.45
  -2   1 -17    9.57    2.94
   2  -1  17   14.58    2.19
   6   6  18   29.75    2.80
  -6  -6 -18   32.36    3.17
  -6   6 -12    3.92    3.52
 -10   0   2   13.95    3.09
  10   0  -2   13.60    3.46
  -1  11  -7    2.91    1.90
   0  13  15   23.48    3.07
   0  13  15   22.62    2.51
   0   3  18   -0.07    2.05
   0   3  18   -2.86    3.43
   0  -3 -18    1.06    2.26
   3  14   2   -0.84    1.89
   3  14   2   -2.06    2.33
   3  14   2    3.93    1.71
   8  -9  -5    5.21    4.00
   8  -9  -5    7.53    3.52
   8   4  16    7.47    2.07
   8   5  16    5.47    2.08
   9   1  -5   19.38    2.21
   9   1  -5   23.46    3.60
  -2   4  17   -0.89    2.97
   2  -4 -17    3.04    3.29
  -2   4  17   -1.75    2.16
   2  -4 -17    0.81    1.94
   9   8   3    7.62    2.84
   9   8   3   13.25    2.14
   9   8   3   14.45    2.32
   6  12  14   -1.49    2.43
   6  12  14   -1.53    2.19
  -7   6 -11    0.19    3.58
  10  -3  -2   -2.44    3.23
  10  -3  -2   -1.96    3.87
 -10   3   2    5.29    3.45
  -4  11  13    1.30    1.87
  -4  11  13    1.59    2.37
   7   3  17    1.93    1.97
   1  15  11    5.69    1.87
  -8   7  -8    2.78    3.92
  -8   7  -8    1.15    2.15
   3   5  19    0.76    3.12
   3   5  19    1.46    2.08
  -3  -5 -19    0.99    2.49
  -4  14   5    7.43    2.47
  -9   6  -7   -0.55    4.04
   9  -6   7    2.06    2.47
  -9   6  -7    0.58    2.00
  -5  12  -3    0.83    3.58
   7   9  16   -0.12    2.17
   8   8  15    5.63    2.15
  10   2  -1   16.49    2.14
  -3   0  15    3.04    2.03
  -3   0  15    0.57    3.17
   5   2  18   -0.02    1.98
  -5  -2 -18   -2.97    2.86
   5   2  18    0.13    2.76
   9  -3  -6    6.22    3.86
   9  -3  -6    8.96    3.65
  -3  13  12    4.89    2.59
  -3  13  12    7.76    1.82
   3  -3 -16    0.35    1.99
  -3   3  16   -0.85    2.05
   3  -3 -16   -1.64    3.41
  -3   3  16    1.01    3.03
  -4   3  15   13.89    3.09
   4  -3 -15   13.23    3.71
  -6   9  -8   -1.39    2.19
  -6   9  -8    1.95    3.48
  -4  -2  13   14.27    3.46
 -10   1 -10    1.70    3.87
  -9   3 -11    0.19    4.04
  -9   3 -11    0.45    2.47
  -2   9 -10   13.71    1.95
   2  -9  10   19.95    3.65
  -4  14   4    9.82    2.54
   6  13  11   15.82    2.48
   6  13  11   13.63    2.71
   6  -4  14   -0.79    2.74
  -6   4 -14    0.89    3.74
  -2  -6 -19   22.84    2.72
   2   6  19   18.01    2.53
   2   6  19   22.83    3.40
   5  -5 -14    5.86    4.15
  -5   5  14    0.06    1.94
   3  12  -3    6.25    2.23
   3  12  -3    7.84    1.88
  -3  -7 -19   17.28    2.53
   3   7  19   18.89    2.47
   3   7  19   20.01    3.11
   3   7  19   15.77    2.46
  -5  13   7    1.59    2.37
  -9   2   6    0.95    2.16
   9  -2  -6    2.52    3.30
  -7   3 -14    0.16    2.86
  -7   3 -14   -4.98    3.93
   7   7  17    9.93    2.23
  -5   9  -9    2.82    3.49
  -5   9  -9    1.21    2.56
   8   9   1    9.22    2.96
   8   9   1   17.08    2.27
   8   9   1   16.64    2.46
   8   9   1   19.06    2.60
   6   4  18    2.36    2.15
  -6  -4 -18    1.96    2.63
  10   5  11   21.80    2.47
   6  13   6   -1.98    2.39
   6  13   6    0.97    1.99
   6  13   6    0.59    1.86
  10  -3   8    0.38    2.44
 -10   3  -8   -2.45    4.03
  -3  12  -5    8.29    2.09
  -3  12  -5    6.14    3.13
   2  14  14    7.76    2.14
   2  14  14    6.94    2.76
   1   1 -16   -0.67    2.62
  -1  -1  16    3.56    1.94
  -1  -1  16   -0.47    3.41
  -2  15   6   -2.42    2.49
   7  12  11    3.03    2.19
   7  12  11   -0.48    2.34
   2   1  18   13.94    2.28
  -2  -1 -18    9.57    2.71
   2   1  18   15.88    3.72
   0   0  17    3.40    2.04
   0   0  17    0.56    3.37
   0   0 -17   -0.30    2.61
  -5   9  13    1.72    2.35
   5  -9 -13   -0.53    3.93
  -5   9  13    0.70    1.84
  -9   4 -10   -1.46    3.99
  -9   4 -10    3.93    2.42
   3  15   8   -1.95    2.68
   3  15   8   -0.24    1.74
  -3  -2  14   28.78    3.91
   4  -1  17    8.97    1.91
   4  -1  17    6.72    3.17
  -4  14   6    2.45    2.45
  -9   7  -5   -0.84    4.31
   9  -7   5    3.31    2.70
  -6  11  -4    0.35    3.85
  -4  -7   9   -1.59    3.21
   4   7  -9   -0.80    2.94
   3   7 -10    2.27    2.95
  -3  -7  10    6.23    3.34
  -8   0   8   11.56    2.80
   8   0  -8   15.61    3.46
  -3   8  16    3.62    2.08
   3  -8 -16    7.11    3.82
   5  14   9   -1.20    2.50
   5  14   9   -0.81    2.13
   7  12   6   12.64    2.36
   7  12   6   12.98    2.53
   7  12   6   15.89    2.14
   2  12  -4    8.75    2.32
   2  12  -4   12.95    1.89
   0  15   3    6.91    1.65
   0  15   3    7.15    2.55
   4   6 -10    8.72    3.25
  -4  -6  10    8.53    3.20
  -5   4  14    3.25    2.02
  -5   4  14    2.34    2.69
   5  -4 -14    4.04    3.94
   9   6  14   14.96    2.32
   2   5  19    8.68    2.21
   2   5  19    5.58    3.25
  -2  -5 -19    1.88    2.43
   2  15  11   14.50    2.92
   2  15  11   14.71    2.14
   5  14   8    2.89    2.00
   5  14   8    0.24    2.47
   9   9  10   -1.21    2.10
   9   9  10   -1.16    2.17
   9   9  10    0.16    1.96
   3  15   9    3.95    1.85
   3  15   9    3.27    2.71
   1  14  14   36.18    2.89
   1  14  14   35.00    3.48
   7  10   0    4.71    2.21
   7  10   0    0.64    2.12
   7  10   0    2.42    2.63
   7  10   0    5.43    2.33
  -6  11   9    7.62    2.45
  -7   0 -16    4.34    2.98
  -2  -7 -19   41.63    3.12
   2   7  19   57.06    3.65
   2   7  19   50.96    3.69
  -8  -2   7   -1.13    2.64
   8   2  -7   -1.15    3.21
  -2  15   7    0.47    2.50
   0  11  17   17.37    2.73
   0  11  17   15.73    2.42
  -7  11   5    9.72    2.22
  10  -5   4    0.95    2.84
 -10   5  -4   -0.47    4.05
  10  -5   4   -0.48    3.00
   9   9   6   14.06    2.26
   9   9   6    9.32    2.69
  -9   2 -12   -0.78    4.25
  -9   2 -12    4.15    2.59
   2  13  -2   19.25    2.36
   2  13  -2   17.89    2.57
  10   6  10    4.11    2.05
 -10   5   0   10.60    3.93
  10  -5   0   13.38    3.41
  10  -5   0   11.96    3.84
  -5   6  14   17.64    2.23
   5  -6 -14   12.38    4.09
   3   6 -11    0.60    3.00
  -3  -6  11   -1.60    3.25
   9   4  -3   24.99    2.48
  -2  15   5   -1.26    2.51
  -4  12  12    8.00    1.86
  -4  12  12    5.62    2.56
   5   9  18    6.66    2.19
   5   9  18    4.54    2.20
   9  -8   0    5.37    3.25
  -9   8   0    0.34    4.01
   8   3  16    7.15    2.05
   8   6  16    8.03    2.19
   4  13  15   34.31    3.37
   4  13  15   34.75    2.96
   6  12   2    0.19    2.25
   6  12   2   -1.84    2.12
   6  12   2   -0.05    2.01
  -4  -6 -19    3.70    2.43
   4   6  19    1.35    2.10
   4   6  19   -1.68    2.95
   9  -4  -6   13.73    3.75
   9  -4  -6   13.37    4.28
   4  -4  15    5.06    3.30
  -4   4 -15    0.62    3.66
  -4   4 -15    1.59    3.00
   4   1  18    3.13    3.11
   4   1  18    4.03    1.98
  -9   6   5   -4.40    3.49
   9  -6  -5   -1.02    3.90
   9   5  -2    4.69    3.31
   9   5  -2    3.89    1.99
   3  13  -1    2.42    2.03
   3  13  -1    2.16    1.72
   3  13  -1    2.24    2.22
  -1  10  17   14.77    2.68
  -1  10  17   13.83    2.27
  -7  11  -1   -1.51    4.06
   6   7  18   25.70    2.68
  -6  -7 -18   27.43    3.01
  -4  14   3    6.72    2.40
   3  15   7    0.02    1.76
  -3   9 -10    1.79    2.91
  -7   0  10    0.10    2.80
   7   0 -10    4.28    3.26
   0   9  18    9.35    2.28
   0   9  18    7.70    2.49
  -9   8  -1   -2.26    4.02
   9  -8   1   -1.57    3.07
   1  10  18    9.87    2.28
   1  10  18   14.01    2.64
   1  -9  10    4.82    3.34
  -1   9 -10    4.67    1.86
  -8   9  -4    3.50    4.10
  -4   8 -11   -4.29    3.29
  -4   8 -11   -1.69    2.88
   6  -1 -12   17.43    3.39
  -6   1  12   18.57    3.32
  10   6   4    3.61    1.93
  10   6   4    0.83    2.93
  10   6   4    3.48    2.10
  10   5   2    2.62    1.98
  10   5   2    5.76    1.96
  10   5   2    3.89    2.17
   0  15  11    0.38    1.73
  -4  -5 -19    9.69    2.71
   4   5  19   11.23    2.29
   4   5  19   14.90    3.32
  -5  12  10   21.03    2.92
   7  11  14    7.79    2.40
  -8   4 -12    0.84    4.02
  -8   4 -12    4.71    2.72
  -6   7 -11   -1.60    2.65
  -6   7 -11    6.16    3.69
   4  10  18   38.00    3.21
   5  14  10    0.47    2.56
   5  14  10   -0.44    2.09
  -1  15   3    0.55    2.52
  -7  -2   9   20.38    3.27
   7   2  -9   14.95    3.23
   0  -2  16   12.12    2.06
   0   2 -16   12.39    2.94
   0  -2  16    7.97    3.43
   5  10  -4    5.82    2.37
   5  10  -4    9.92    2.96
  -5 -10   4    5.38    3.16
  -3  14  10    5.49    2.62
   5  13  14   17.77    2.89
   5  13  14   20.70    2.54
  -9   8   1    0.28    4.11
   9  -8  -1    3.77    3.69
   9  -8  -1    5.58    3.44
  -1  15  10   13.31    1.94
  -1  15  10    9.31    2.91
   2  -8 -17   19.35    3.77
  -2   8  17   14.42    2.37
   8  10  13    5.80    2.27
   8  10  13    4.57    2.23
  -3  -4 -19   10.78    2.79
   3   4  19    5.32    2.17
   3   4  19    7.37    3.38
   0  -7  12   -2.87    3.54
   0   7 -12    0.04    2.45
   5   0 -13    8.45    3.02
  -5   0  13    8.02    3.18
   4 -10 -14   -0.66    4.01
  -4  10  14   -0.24    1.98
  -4  10  14   -0.94    2.43
   8  11   9    3.74    2.26
   8  11   9    2.92    2.18
   8  11   8   -0.72    2.25
   8  11   8   -1.25    2.18
  -9   1   6    3.35    2.45
   9  -1  -6    5.38    3.35
  -8   0 -15    1.21    2.71
  -3  -8   9   15.65    3.68
   3   8  -9    7.86    3.03
  -6  12  -1   -2.07    3.84
   5  14   7    7.25    2.55
   5  14   7    7.91    2.06
  -1   1  17    1.80    2.01
  -1   1  17    3.88    3.38
   1  -1 -17   -2.20    2.46
  -9   7   4    0.08    3.61
   9  -7  -4    2.94    3.98
   9  -7  -4   -0.06    3.71
   8   8  -1   11.30    3.10
   8   8  -1   16.42    2.36
   8   8  -1   19.38    2.57
   1  -4  15   -1.08    1.70
   1  -4  15    1.49    3.26
  -1   4 -15   -0.27    2.86
 -10   0 -11    2.03    4.16
  -4  -8   8    2.55    3.34
   4   8  -8    0.12    3.01
   4   7  19    1.34    2.15
   4   7  19    1.73    2.66
  -4  -7 -19    2.35    2.40
   4   7  19    0.54    2.08
   6   3 -10    3.11    2.70
  -6  -3  10    2.07    2.93
   3  15  10    5.95    2.04
   3  15  10    7.87    2.86
  -1  14  13    0.61    1.80
  -8   5 -11   -0.86    3.92
  -8   5 -11   -1.22    2.64
  -5  -2  12    1.71    3.09
   0  -6  13    1.83    3.51
   0   6 -13    1.62    2.39
   8  -8  -7    4.97    4.19
   4  14  13    7.94    2.19
   4  14  13    6.32    2.74
   8  10   3    3.85    2.25
   8  10   3    3.37    2.18
   8  10   3    5.26    2.03
   8  10   3    6.18    2.65
  -4  -5  11   18.98    3.53
   4   5 -11   14.25    3.41
   9   3  -4   11.69    2.16
  -4  14   7    1.35    2.50
   1  10  -8    0.85    1.95
  -1 -10   8    1.22    3.28
  -6  12   7   -1.47    2.33
  -8   3 -13   -0.43    2.76
  -8   3 -13    2.26    4.20
  10   1  -2    4.02    1.80
  10   1  -2    6.26    3.38
  -2  15   8    2.94    2.60
   4  12  -2   -1.07    1.87
   4  12  -2    0.19    2.24
   4  12  -2   -0.76    2.06
  -4   8  15   12.26    2.23
   4  -8 -15   10.28    4.09
  -1  14  -1    3.75    2.27
  -1  14  -1    3.89    1.67
   3   8  19   47.74    3.43
   3   8  19   50.44    3.56
  -3  -8 -19   42.23    3.17
   1  15   3    7.95    2.59
   1  15   3   13.13    1.86
  -5  13   0   -1.06    2.04
   7  11   2    6.63    2.35
   7  11   2    7.27    2.18
  -7   7 -10   -0.84    3.79
   0  11  -7    2.71    1.96
  -2  15   4    2.70    2.54
  10   3  12   12.17    2.12
  -4  13  -2    1.05    2.10
  -9   5  -9    0.06    4.22
  -9   5  -9   -1.00    2.28
 -10   4   2   -0.31    3.55
  10  -4  -2    1.58    3.34
  10  -4  -2   -3.68    4.04
   6  -3  15    4.91    2.88
  -6   3 -15   -1.11    3.86
   9  -8   2   -0.27    2.92
   2  15   4    7.37    1.84
   2  15   4    9.77    1.89
   2  15   4    7.96    2.62
   9   1  14    7.40    1.88
  -9  -1 -14    5.75    2.66
   3  14  14    6.93    2.17
   3  14  14    6.59    2.73
   3  11  -5    8.27    2.31
   2  -3 -17    7.68    2.24
   2  -3 -17    8.80    3.39
  -2   3  17    8.60    3.35
  -2   3  17   10.66    2.27
   7  -4 -11    2.89    3.82
   7  -4 -11    4.11    3.98
   5  -3 -14   13.66    3.09
   5  -3 -14   16.53    3.97
  -5   3  14   20.08    3.12
  -5   3  14   16.43    2.33
   8  11  10    9.77    2.40
   7   9  -2    2.11    3.07
   7   9  -2    5.21    2.35
   7   9  -2    9.53    2.21
  -3  -5  12    4.48    3.23
   3   5 -12   -0.21    3.06
   3  -3  16   10.56    1.87
   3  -3  16   11.39    3.52
   8  11   7   -1.59    2.26
   8  11   7    1.70    2.16
   2   4  19   -0.92    2.08
  -2  -4 -19   -0.38    2.48
   2   4  19   -0.25    3.33
   0   8 -11    5.08    1.94
   0   8 -11    0.95    2.41
   6  -8 -12    3.19    4.11
  -6   8  12    4.70    1.85
  -3  13  -3    3.85    2.09
   9   6  -1    4.68    2.03
   9   6  -1    2.48    3.24
  10  -4   7   -1.86    2.53
 -10   4  -7   -1.26    4.06
  -1   5  18   14.83    2.46
  -1   5  18   20.30    3.27
   3  15   6    2.14    1.91
  -1   1 -17    8.50    2.89
   1  -1  17    8.96    2.09
   1  -1  17   10.84    3.49
   6  13  12   15.76    2.38
   6  13  12   11.78    2.76
   6   3  18    1.92    1.95
  -6  -3 -18   -0.95    2.74
   2  12  17   34.35    3.05
   2  12  17   26.69    3.18
   6   9  -4   11.56    2.29
  -6  -9   4   13.03    3.28
   6   9  -4    5.87    3.13
  -2  -8 -19   48.50    3.27
   2   8  19   55.50    3.62
   2   8  19   45.50    3.55
   2   0 -16    8.93    2.56
  -2   0  16   11.85    2.18
   0  14  -1    3.97    1.76
   0  14  -1    2.83    2.27
   7   2  17    4.83    2.04
  -2  14  12    4.43    1.82
  -2  14  12    4.15    2.68
  10   4  12    6.26    2.15
  -5   7  14   18.80    2.35
   5  -7 -14   13.10    4.14
  -8  10   0   -0.87    4.21
  -3  14   0    5.25    2.44
  -5  -6   9   12.28    3.29
   5   6  -9    7.95    3.26
   7  -5 -11    1.61    4.06
   7  -5 -11   -0.65    3.67
   9   9  11    0.27    2.08
   4   4  19   37.50    3.04
   4   4  19   37.42    4.01
  -4  -4 -19   27.49    3.22
  10   2  12    8.46    1.93
 -10  -2 -12    6.75    4.28
   8  -7  -8   12.30    4.00
   2  -3  16   10.50    1.86
  -2   3 -16    8.95    3.05
   2  -3  16   13.27    3.42
  -9   1 -13    2.42    2.64
  -9   1 -13   -1.51    4.44
   9  -8  -2    5.38    3.55
  -9   8   2    4.99    4.00
   9  -8  -2    6.13    3.99
   7  12  12   -0.18    2.42
   7  12  12   -2.40    2.33
 -10   5  -5   -2.97    4.09
  10  -5   5    4.16    2.76
   5   7  -8   11.89    3.20
  -5  -7   8   18.41    3.59
  -7   2 -15   -2.34    4.07
  -7   2 -15   -1.35    2.94
   5  13   2   -0.97    2.33
   5  13   2    0.13    1.96
   5  13   2    1.10    1.98
   9   9   5    4.22    2.13
   9   9   5    3.04    2.67
  -4  14   2    1.79    2.34
  10  -5  -1   10.40    3.46
 -10   5   1    1.83    3.81
  10  -5  -1   10.11    3.99
   5  14  11    3.69    2.08
   5  14  11    5.46    2.70
   2   7 -11    8.93    2.92
  -2  -7  11   17.38    3.82
   6  13   5    0.89    2.34
   6  13   5    0.84    2.05
   6  13   5    2.15    1.97
   1  13  -3   -2.55    2.18
  -1  -6 -19    8.48    2.35
   1   6  19    5.83    3.09
   1   6  19   10.35    2.32
  -7   3  11    3.42    2.51
   7  -3 -11    2.26    3.64
   2  13  16    6.41    2.66
   2  13  16    7.08    2.22
   6  11  16   52.23    3.71
   7  -8 -10    6.19    4.30
   7  -8 -10   10.03    3.70
   3  12  17   13.11    2.42
   3  12  17   10.93    2.72
   8  -4  -9   -3.11    3.59
   8  -4  -9   -2.23    4.14
   7  12   5   15.42    2.37
   7  12   5   15.21    2.59
   7  12   5   13.78    2.19
   9  -5  -6    9.57    4.35
   9  -5  -6    8.34    3.82
   4  -2 -15    1.44    2.03
  -4   2  15   -0.50    3.12
  -7  10   8    1.81    2.20
  -8   3   9    3.56    2.34
   8  -3  -9    2.75    3.56
  -1  -3  15    5.86    3.50
  -5  13   8    1.26    2.39
  10   7   8   -0.62    2.10
  10   7   8   -0.35    2.64
  -5   6 -13   -1.36    3.56
   5  -6  13   -1.85    2.99
  -5   6 -13   -0.09    2.84
   8   2  16    4.22    1.89
  -8  -2 -16    4.33    2.86
   8   7  16   25.47    2.73
   0  14  14   14.02    2.97
   0  14  14   16.68    2.31
  10   7   7    2.07    2.14
 -10  -7  -7    0.30    3.05
  10   7   7   -4.45    2.80
   1  15  12    5.27    2.83
   1  15  12    6.64    1.97
   5  11  17   19.32    2.75
   5  14   6    9.68    2.61
   5  14   6   10.77    2.12
   5  14   6   10.99    2.05
   4  14   3    2.32    1.96
   4  14   3    3.54    1.85
  -2  -6  12    4.55    3.48
   2   6 -12    1.21    2.91
   7   8  17   -0.63    2.11
   2  11  -6    3.18    2.15
   9   8  13    2.28    2.21
  -2  12  15   28.15    2.59
   1  12  -5   -0.04    2.09
  -3   2  16   -0.09    2.03
   3  -2 -16    2.59    2.20
  -3   2  16   -2.23    3.43
  -7   9  -7    8.09    3.98
 -10   2   3    4.76    3.11
   1   1  18    5.31    3.51
  -1  -1 -18    4.11    2.68
   1   1  18    3.87    2.17
   4  11  -4   -0.68    2.23
   0  -5  14    0.04    3.33
   4  13   0    0.17    2.02
   4  13   0   -0.84    1.82
   4  13   0   -2.33    2.35
  -1  -7 -19   13.45    2.30
   1   7  19    9.64    2.32
  -8  10   3    0.66    4.09
  -8  10   3    5.64    1.98
   5  -5  14    2.58    3.10
  -5   5 -14   -0.90    2.88
  -5   5 -14   -0.15    3.65
   0   2  18    2.01    2.17
   0   2  18   -0.74    3.48
   0  -2 -18    1.32    2.44
   5  12  16   -0.52    2.21
   5  12  16    1.64    2.54
  -2  14  -1    6.10    2.31
   1   5  19    0.32    2.11
  -1  -5 -19    0.39    2.37
   1   5  19   -0.47    3.11
  -8   6 -10    3.30    4.08
  -8   6 -10    6.69    2.59
   6   8  18   13.57    2.38
  10   6  11   11.24    2.27
  -7  11   6    6.73    2.25
   6   0  17   20.82    2.28
   8  -9  -6    0.62    4.11
   8  -9  -6    1.55    3.48
   3  15  11   10.52    2.09
   3  15  11   11.36    3.00
  -2  -8  10    6.32    3.56
   2   8 -10    3.29    2.82
  -7  -6   6    6.24    2.97
   7   6  -6    4.81    3.31
   2  15  12   27.52    3.30
   2  15  12   23.79    2.49
 -10   1   3    6.78    2.94
  10  -1  -3    6.59    3.52
  -4  -8 -19    3.72    2.24
   4   8  19    3.94    2.33
   4   8  19    4.79    2.63
   3   9  -8    6.77    2.18
  -3  -9   8    5.62    3.47
   3   9  -8    6.91    2.86
   6  10  17   18.99    2.61
   9   7  14   14.51    2.32
   5   5 -10    4.97    3.45
  -5  -5  10    9.28    3.23
  -8   2 -14    1.16    2.78
  -8   2 -14   -5.21    4.36
  -2  10  -9    9.48    1.95
   9   8   2    2.69    2.02
   9   8   2    1.04    2.17
   9   8   2    1.46    2.90
   8  11  11   12.17    2.47
  -7  11  -2   -1.75    4.24
   2  14   0    9.41    2.52
   2  14   0   12.40    2.08
  -2  15   9    4.67    2.73
   8  11   6    3.22    2.19
   8  11   6    0.17    2.24
   8  11   6    0.62    2.46
  -5  11  -6   -1.32    2.36
  -5  11  -6    1.54    3.44
   4  -3  16    6.81    3.46
  10   7   9    1.83    2.07
  -7  -5   7   18.88    3.21
   7   5  -7   16.41    3.77
   8   5  -5    5.18    2.14
  -8  -5   5    1.46    2.63
  -8  10  -1    0.74    4.17
   3  13  16   26.09    3.19
   3  13  16   26.54    2.77
   1  -4 -18   20.54    2.52
  -1   4  18   25.22    3.74
  -1   4  18   28.01    2.80
  -7  10  -5    0.49    3.93
   1  12  17   13.38    2.77
   1  12  17   11.82    2.35
   9  -8   3    0.68    2.87
  10   7   6    1.66    2.13
  10   7   6    1.90    2.87
   9   0  -6   20.41    3.69
   9   0  -6   18.58    2.19
  10   6   3    4.64    3.09
  10   6   3    7.19    2.08
  10   6   3    8.29    2.30
  -6   8 -10    3.21    3.57
  -6   8 -10    0.44    2.51
  -4  -9   7   -2.40    3.35
   4   9  -7   -0.96    2.22
   4   9  -7    0.05    2.85
   1  13  16    2.83    2.66
   1  13  16    1.88    2.19
  -5   7 -12    1.86    2.81
  -5   7 -12   -1.56    3.64
  10   4   0   -0.88    1.92
  10   3  -1   11.77    2.08
   5  -1  17   12.12    3.36
   5   8  -7   10.68    3.26
  -5  -8   7   23.42    3.71
   8  -5  -9    3.79    3.90
  -2  15   3    2.65    2.53
   3  -9 -16    3.60    3.92
  -3   9  16    1.52    2.07
  -3   9  16   -0.63    2.42
  -4  14   8   -1.18    2.50
   0  15   2   -2.07    1.63
   0  15   2   -1.73    2.41
  10  -3  -3    2.05    3.90
 -10   3   3    2.78    3.27
  -3  -3 -19   15.93    2.96
   3   3  19   21.27    2.50
   3   3  19   22.09    3.79
   9   2  -5   16.56    2.24
   9   2  -5   17.16    3.49
  -4   9 -10   -1.92    3.26
  -4   9 -10    3.69    2.92
   7  -6 -11    4.92    3.72
   7  -6 -11    4.24    4.18
  10   5  12   -2.01    2.22
   8   6  -4    7.03    2.16
   8  -2  -9   10.88    3.58
  -8   2   9   16.01    2.78
  11   1   5    0.96    1.90
 -11  -1  -5   -2.77    3.58
  -1  12  16    8.03    2.77
  -1  12  16   12.04    2.29
  -2  13  14    8.58    2.01
  -4  -4  12   24.80    3.67
   0   9 -10    4.44    1.96
  -9   7  -6    0.60    4.34
   9  -7   6    2.98    2.59
  -5  -1 -18   11.67    3.18
   5   1  18   18.06    3.28
   5   1  18   20.70    2.32
  -3  12  14    2.17    2.62
  -3  12  14    4.64    1.95
  -8   8  -7    1.01    4.23
  -8   8  -7    0.57    2.11
  -5  -6 -19   23.56    2.99
   5   6  19   32.39    3.01
  10  -2  10   -0.02    2.38
  -1  15   2    1.73    2.43
 -10  -1 -12    1.79    4.33
  -1   8  18   14.77    2.52
  -1   8  18   16.95    2.64
  11   1   6    3.73    3.10
  11   1   6    5.20    1.97
 -11  -1  -6    2.68    3.67
  11   0   5    4.01    1.93
 -11   0  -5    5.29    3.78
  11   0   5    5.46    3.30
  -7  -7   5    5.05    3.12
   7   7  -5    2.75    3.34
   3  15   5    8.66    1.92
   3  15   5    7.67    1.89
  -4  13  11   13.21    2.75
   2  11  18   18.78    2.90
   2  11  18   24.15    2.78
  -1  15  11    6.31    2.81
  -1  15  11    4.13    1.76
  -1  10  -9    2.79    1.89
   3  14   1    5.49    1.78
   3  14   1    3.26    2.39
   3  14   1    2.21    1.98
  -1  13  15   27.56    2.61
  -1  13  15   22.37    3.15
  -2   9  17    9.96    2.56
  -2   9  17   11.43    2.32
   5   5  19   18.02    2.50
   5   5  19   11.30    3.11
  -5  -5 -19   10.34    2.76
  11   0   4    4.46    1.95
 -11   0  -4    0.17    3.66
  11   0   4    5.66    3.40
   3  11  18   -0.53    2.29
   3  11  18    0.13    2.47
  -7   2  11    0.38    2.63
   7  -2 -11    0.78    3.44
  10  -3   9   -0.52    2.37
   9   4  15   14.06    2.31
   8   1  -8    7.39    3.37
  -8  -1   8    4.79    2.79
  -8  -4   6    0.70    2.63
   8   4  -6   -1.24    1.99
  -2  11  16    2.59    2.51
  -2  11  16    5.90    2.17
   8   9  15    0.58    2.12
   0  15  12    0.16    1.91
  11   1   4    1.65    1.95
 -11  -1  -4   -1.95    3.60
   2   5 -13    3.86    3.03
  -2  -5  13   -0.61    3.25
   6  12  15    4.91    2.49
   6  12  15    3.90    2.28
   9   7   0    4.27    2.05
   9   7   0    4.04    3.04
   9   7   0    2.58    2.21
  -3  -4  13    0.93    3.27
   9  -8  -3   10.55    4.13
   9  -8  -3    9.08    3.65
  -9   8   3    4.17    4.00
   5  -4  15    5.77    3.30
  -5   4 -15    8.23    3.06
  -5   4 -15   -0.37    3.97
  -4  12  -5   -1.29    3.20
  -4  12  -5    1.89    2.47
  -9   6  -8    1.98    4.37
  -9   6  -8    0.44    2.18
  -5   2  14   10.89    3.08
   5  -2 -14   10.78    3.07
   3   9  19   28.44    2.86
  -3  -9 -19   25.92    2.64
   3   9  19   27.98    2.96
   6  11  -1    3.76    2.38
   6  11  -1    6.43    2.27
   6  11  -1   10.07    2.27
  11   2   6   -1.44    1.95
 -11  -2  -6    0.81    3.41
  -3  10  -9    5.54    3.00
  -6  12  -2    3.46    3.97
   2   3  19    5.04    2.23
   2   3  19    2.78    3.42
  -1  -8 -19    7.08    2.03
   1   8  19   10.19    2.50
  10   0  -3    9.85    3.63
   5  14  12    8.37    2.24
   5  14  12   16.00    2.99
 -11   0  -6   11.32    3.94
  -5  11  12   12.41    2.66
  -5  11  12   17.63    2.14
   6  -5 -13   11.30    4.21
   6  -5 -13   10.86    3.46
  -6   5  13   10.20    2.14
 -11  -2  -5    2.29    3.45
  11   2   5    1.92    1.98
  -5  10  -8    1.06    2.45
  -5  10  -8   -3.54    3.54
  10   5   1    5.88    2.01
   1  14  -1    0.19    2.27
   1  14  -1    2.52    1.88
  -3  11  15    6.26    2.07
   1   4  19    0.25    2.12
   1   4  19   -2.30    3.41
 -10   6  -2    1.57    4.08
  10  -6   2    0.69    3.09
  10  -6   2    0.43    3.47
  -8   9  -5   -1.31    4.16
  -4  11  -7   -2.19    2.56
  -4  11  -7    4.23    3.44
   9   5  15    7.85    2.15
  10   2  -2   -0.82    1.86
 -10   6  -1    2.83    4.10
  10  -6   1    1.81    3.64
  10  -6   1    3.95    3.24
   4   3  19   15.31    2.36
  -4  -3 -19    8.84    2.86
   4   3  19   17.09    3.51
  -8  10   4    5.29    2.08
   0  10  18   28.60    3.06
   0  10  18   30.62    2.93
 -10   1 -11   -2.49    4.26
  10  -1  11   -1.21    2.36
  -6  10  11    9.90    1.85
  -6  10  11    8.62    2.51
   6 -10 -11    9.46    4.39
  -1   3 -16    2.67    3.01
   1  -3  16    3.93    1.85
   1  -3  16    1.23    3.42
  -5  -7 -19   11.03    2.68
   5   7  19    5.84    2.43
   6  -4 -13    5.12    3.48
   6  -4 -13    8.16    4.06
  -4  14   1    3.62    2.27
   3   0  18    1.20    3.33
   3   0  18    1.62    1.97
  -3   0 -18    2.94    2.79
  -5  12  -4   -0.71    3.59
  -2  -9 -19   31.44    2.64
   2   9  19   35.47    3.14
  -7  -4   8   27.89    3.48
   7   4  -8   28.93    3.44
   9   9  12   -0.87    2.20
  10   7  10    4.47    2.09
   9   3  15   12.82    2.19
  -9  -3 -15   11.47    2.89
   7  10  16   15.18    2.55
  -7   8  -9    3.61    3.81
   6  13  13   17.46    2.50
   6  13  13   14.56    2.92
  -6  12   8   -1.52    2.33
   6   0 -12   20.69    3.36
  -6   0  12   21.82    3.50
   5  10  18   12.52    2.50
   5  10  18   12.93    2.52
 -10   5  -6    1.46    4.22
  10  -5   6   -0.18    2.68
   5  -8 -14    5.64    4.27
  -5   8  14   14.30    2.27
  11   1   7   12.11    2.09
 -11  -1  -7    6.13    3.86
  -1  13  -4    7.76    2.21
  -2  -9   9   16.51    3.83
   2   9  -9   13.60    2.36
   2   9  -9   13.01    2.98
   2  15   3   16.37    2.09
   2  15   3   13.29    2.79
  10  -5  -2    3.44    3.48
  10  -5  -2    2.86    3.91
 -10   5   2    3.13    3.88
   9   9   4    1.33    2.68
   9   9   4    1.71    1.98
   9   9   4    2.25    2.16
  10   7   5   12.31    3.09
  10   7   5   12.50    2.15
  10   7   5    9.20    2.37
  -6  -2 -18    8.04    3.03
   6   2  18   14.72    2.21
  -6  10  -7   -2.25    3.57
  -6  10  -7   -2.68    2.26
  -3  14  11    8.54    2.76
  -4  -1  14   -0.61    3.28
   5  14   5    8.81    2.10
   5  14   5    9.58    2.61
   5  14   5   10.42    2.09
   4  12  17    7.55    2.37
   4  12  17    4.47    2.59
  11   0   3    8.79    2.00
 -11   0  -3    5.19    3.59
   9  -7  -5   -0.99    3.88
   9  -7  -5   -2.84    4.17
  11   2   7    2.78    1.96
 -11  -2  -7   -0.48    3.63
  11  -1   4    7.92    1.99
  11  -1   4    4.60    3.10
 -11   1  -4    6.36    3.85
  11  -1   4    5.12    3.53
  -4   9  15   19.35    2.48
   4  -9 -15   10.81    4.26
   8  10  14    1.81    2.15
   8   7  -3    6.01    3.36
   8   7  -3   14.43    2.33
   6   2 -11    4.77    2.95
  -6  -2  11    0.37    3.11
   2  -2 -17   16.55    2.52
   2  -2 -17   10.16    3.35
  -2   2  17   12.08    2.33
   1  15   2    3.64    1.80
   1  15   2    5.83    2.53
  11  -1   5    6.75    3.10
  11  -1   5    9.94    3.44
 -11   1  -5   12.94    4.18
  -9   0 -14    0.17    4.52
  -9   0 -14    1.49    2.73
   7  12  13   -1.34    2.25
   7  12  13   -0.70    2.49
   8   9   0   13.43    2.48
   8   9   0   14.19    2.33
   8   9   0    7.91    3.12
   5  12  -1    3.80    2.20
   5  12  -1   -0.51    1.99
  -7  -1  10    9.46    3.03
   7   1 -10   10.98    3.29
  -5  -4  11    8.95    3.25
  -2  12  -6   10.75    2.15
  10  -6   3    0.46    3.25
  10  -6   3   -0.68    2.99
 -10   6  -3    3.40    4.13
  -1  12  -6    3.13    2.02
   5 -10 -13    2.98    4.14
  -5  10  13    0.78    2.42
  -5  10  13    1.84    1.88
  -8  10  -2   -2.91    4.34
   6  13   4    7.93    2.22
   6  13   4    5.75    2.07
   6  13   4    4.21    2.47
  -5  -4 -19    2.65    2.80
   5   4  19    4.08    2.08
  -6  11  -5    1.38    3.78
   4  14  14    9.68    2.29
   4  14  14   10.89    2.85
   6  -6 -13   15.67    3.65
  -6   6  13   16.93    2.27
   6  -6 -13   15.43    4.37
  10  -4  -3   -2.38    3.69
 -10   4   3   -0.56    3.39
  10  -4  -3    0.27    4.06
   0   4 -15   13.95    3.17
   0  -4  15   15.46    3.69
  11   2   4    2.25    2.01
 -11  -2  -4    1.91    3.44
   2  14  15    2.61    2.16
   2  14  15   -0.83    2.68
 -10   6   0   10.89    4.12
  10  -6   0    8.70    3.46
  10  -6   0    8.72    3.91
   6  12   1    3.85    2.11
   6  12   1    2.52    2.34
   6  12   1    2.99    2.12
  -2  13  -4    1.75    2.11
  -5   8 -11    0.33    2.88
  -5   8 -11   -0.87    3.58
   8  11  12   21.59    2.71
   3  15  12    6.60    2.93
   3  15  12    9.31    2.11
  11   1   3    1.65    1.98
 -11  -1  -3   -1.96    3.40
  -3  13  13    1.98    1.84
  -3  13  13    1.48    2.65
   7  12   4    1.89    2.34
   7  12   4   -0.80    2.13
   9  -6  -6    1.33    4.07
   2   0  18   16.47    3.76
   2   0  18   17.86    2.40
  -2   0 -18   12.73    2.94
   8  11   5    5.43    2.63
   8  11   5    5.28    2.33
   8  11   5    4.16    2.33
   8  10   2   13.07    2.54
   8  10   2   15.71    2.56
   8  10   2   14.62    3.05
   8  -6  -9    8.01    4.00
  -6  11  10    7.61    2.55
  11  -1   3   12.04    3.78
  11  -1   3   12.44    3.30
 -11   1  -3    6.55    3.84
   7  11  15   13.43    2.49
  -3  15   6    4.91    2.67
  10  -4   8   -3.50    2.55
   4  15   9   13.98    2.16
   4  15   9   10.48    2.91
  -3  15   5    5.18    2.57
  -8   7  -9    8.02    2.44
  -8   7  -9    4.85    4.10
   5  13  15   10.42    2.74
   5  13  15    9.51    2.42
  -7   1 -16    5.52    3.15
 -11   0  -7   10.81    3.97
   4  15   8    9.18    2.84
   4  15   8    6.53    2.12
   1  11  -7    0.63    2.01
  -8  -1 -16    0.46    2.83
   8   8  16   13.11    2.41
   1  11  18   17.94    2.57
   1  11  18   15.67    2.84
  -9   8  -4   -6.21    4.39
   9  -8   4    0.07    2.74
   4   0  18   17.98    2.29
   4   0  18   15.55    3.48
   8  -1  -9   10.50    3.68
  -8   1   9   16.29    2.99
   5   9  -6    6.96    2.39
   5   9  -6    7.25    3.21
  -5  -9   6    9.91    3.40
  -2  15  10   11.98    2.85
   7   8  -4    9.61    2.33
  -7  -8   4   12.25    3.18
  -1  11  17    5.06    2.17
  -1  11  17    8.16    2.67
   1  -3 -18   10.17    2.42
  -1   3  18   11.11    2.42
   3  -2  17   16.84    2.19
   3  -2  17   18.38    3.69
  -6   3  13   -1.23    2.82
   6  -3 -13    0.09    3.42
 -11  -3  -6   -0.11    3.43
  11   3   6    1.35    2.03
  -4  -9 -19   12.76    2.43
   4   9  19   18.62    2.60
   1  14  15   17.01    2.55
   1  14  15   18.07    3.14
  -5  13   9    2.96    2.47
  -8   1 -15    0.28    2.82
  -8   1 -15   -3.40    4.50
  11  -1   6    8.77    3.09
 -11   1  -6    5.23    4.09
   9   6  15    2.23    2.23
  -5  12  11   18.12    2.83
  -6  -6   8    1.31    3.01
   6   6  -8    0.97    3.37
   8   3  -7    3.53    3.26
  -8  -3   7    0.48    2.64
  -2  15   2    8.27    2.66
   7  -7 -11    8.45    4.38
   7  -7 -11    6.87    3.68
   4  11  18   19.60    2.85
  -6   9  12    9.74    1.94
   6  -9 -12    6.72    4.30
  11   3   7    0.86    1.95
 -11  -3  -7   -0.12    3.51
  10   6  12   19.79    2.58
   3  10  -7    5.12    2.22
  -3 -10   7    3.32    3.37
  -3  15   7    0.95    2.59
  -7  11   7    3.47    2.21
   4  13  16   24.85    2.75
   4  13  16   22.22    3.09
   0  13  -4    0.88    2.07
   4  15  10    8.37    2.91
   4  15  10   11.01    2.11
  -4  14   9    0.60    2.59
  -3  14  -1    4.20    2.34
   9  -3  -7    2.89    3.69
  -9   3   7    2.85    2.27
   6   9  18    0.20    2.21
  11   2   8    8.66    2.05
 -11  -2  -8    1.69    3.79
   7  10  -1    1.69    2.33
  -9   3 -12   -2.27    2.62
  -9   3 -12    2.61    4.16
   4  -1 -15   -2.98    2.25
  -9   4 -11    1.82    4.29
  -9   4 -11    1.26    2.49
  -6  -7   7    5.57    3.22
   6   7  -7    4.07    3.35
 -11  -3  -5    1.68    3.33
  11   3   5    2.17    2.03
  -5  -1  13    1.33    3.11
   0   1 -17    3.31    2.86
   0  -1  17    3.51    1.98
   0  13  16    7.53    2.85
   0  13  16   10.46    2.24
   1   7 -12   -1.33    2.70
   1  15  13   17.90    2.30
   7  11   1   -1.09    2.23
   7  11   1    0.61    2.30
  -9  -2 -15    5.32    2.88
  -3  15   4    5.85    2.55
   7   9  17   -0.38    2.22
   1   0 -17    9.04    2.74
  -1   0  17    9.41    2.20
 -10   0 -12    2.69    4.42
  11   1   8    3.50    1.90
 -11  -1  -8    5.53    3.93
  -5  -8 -19    0.88    2.43
   5   8  19    2.74    2.39
   2  15  13   13.48    2.25
   2  -2  17    1.18    3.43
   2  -2  17    0.37    1.87
  -2   2 -17   -0.68    2.96
   4  15   7   13.13    2.27
  -7  11  -3    2.99    4.25
   7   5  18   -0.93    2.12
  11   0   2   -1.75    2.00
  11   0   2    0.10    3.30
 -11   0  -2   -0.77    3.59
   3  15   4    5.82    1.90
   3  15   4    4.80    1.80
  -1   9  18   20.14    2.82
  10   3  13    6.48    2.03
   3  14  15    4.69    2.81
   3  14  15    4.43    2.18
  10  -6   4    1.15    2.88
   4  10  -6    0.77    2.23
  -4 -10   6    5.93    3.33
   4  10  -6   -3.74    2.96
   9   1  -6   20.29    2.26
   9   1  -6   18.77    3.75
   0  10  -9    1.51    1.98
   0  12  17   -0.46    2.59
   0  12  17    1.57    2.08
  10   6   2    7.99    2.21
  10   6   2   10.99    2.12
  10   6   2    8.78    3.35
  -5   3 -16    3.88    4.06
   5  -3  16    3.64    3.23
  10   4  13   26.37    2.57
  10   1  -3    4.48    3.46
   9  -2  -7   -2.14    3.56
  -9   2   7   -1.25    2.34
  -1  14  14   11.84    2.11
   9  -4  -7    8.27    3.84
   7  -1 -11   -0.96    3.39
  -7   1  11    2.61    2.87
   3  -1 -16   14.19    2.59
   4  14   2    3.79    2.05
   4  14   2    7.46    1.95
  10  -6  -1   12.65    3.64
 -10   6   1   10.19    4.22
  10  -6  -1   13.68    4.06
 -11   1  -2    1.50    3.65
  11  -1   2    2.01    3.59
  11  -1   2    3.78    3.32
  11  -1   2    0.60    1.96
  -4  12  13    4.99    1.92
  -7  -6 -18   25.02    3.17
   7   6  18   30.91    2.92
   0   6  19   14.81    3.25
   0  -6 -19   11.95    2.32
   6   5  -9   -1.53    3.53
  -6  -5   9    2.23    3.00
  10   7  11    6.91    2.23
  11   2   3    5.04    2.12
 -11  -2  -3    2.53    3.30
   9  -8  -4    0.45    4.11
  -9   8   4    1.98    3.89
   9  -8  -4    5.44    3.77
   1   6 -13    2.11    2.81
   9  10   8    5.82    2.61
   9  10   8    7.18    2.29
   1   8 -11    0.65    2.71
   1   8 -11    1.09    2.03
  11  -2   4    3.34    3.48
  11  -2   4   -1.38    3.18
 -11   2  -4    2.68    4.00
   9  10   9   12.98    2.31
   9  10   9    5.30    2.54
   9   5  -3    0.72    2.03
   1   9  19    0.13    2.42
  -4  11  14    1.83    1.95
  -6  13   3    5.64    2.30
  -1  14  -2    3.82    2.26
   2  -7  13    7.41    3.78
   9   8  14    1.65    2.10
   3   2  19   25.80    2.60
   3   2  19   17.92    3.77
   3  13  -2   10.51    2.25
   3  13  -2    8.57    2.39
   3  13  -2    5.54    1.89
  -6  13   4    7.52    2.38
  -4  -3  13   26.69    3.81
  -6   9  -9    3.61    3.77
  -6   9  -9    2.83    2.44
  10   7   4    5.69    3.13
  10   7   4    7.99    2.17
   4  -2  17    5.34    3.37
   5  13   1   -1.68    1.97
   5  13   1    0.04    2.12
   1   2 -16    2.06    2.77
  -1  -2  16    4.54    1.94
  -2  14  13    2.54    1.86
   7   3  -9   20.27    3.35
  -7  -3   9   20.05    3.25
  -7   5 -13    5.23    3.02
  -7   5 -13    4.61    3.78
  11   3   8    3.72    2.00
 -11  -3  -8    1.03    3.62
  11  -2   3    6.95    3.29
 -11   2  -3    8.75    4.01
  11  -2   3   10.48    3.87
   0  12  -6    3.90    2.08
   3  -7  13    2.67    3.48
   1   3  19   14.54    2.45
   1   3  19   16.48    3.83
   6  -7 -13    8.91    4.24
  -6   7  13   11.59    2.17
   3  -6  14    3.07    3.57
   9   4  -4    8.15    2.19
   5  14  13   18.25    3.05
   5  14  13   13.74    2.50
   2  13  -3   11.04    2.45
   2  13  -3   13.09    2.20
   2  -6  14    7.86    3.72
   8   5  17   -0.02    2.05
   7   4  18    4.17    2.13
 -11  -1  -2    4.50    3.41
  11   1   2    1.74    2.00
   0   1  18   16.03    2.47
   0  -1 -18   10.26    2.79
   3  12  -4    4.89    2.36
   3  12  -4    8.52    1.98
  -9   2 -13   -0.88    4.53
  -9   2 -13    5.21    2.72
  11  -2   5    1.04    3.08
 -11   2  -5    2.75    3.98
  -9   5 -10    4.69    4.42
  -9   5 -10    2.47    2.47
   0  15   1   -1.04    2.45
   0  15   1   -1.45    1.72
  -1  15   1    1.11    2.38
  -4  10  -9   -0.91    2.83
   8   8  -2   11.42    2.53
 -10  -2 -13    2.97    4.46
  10   2  13    6.26    2.04
   0   5  19   11.10    3.36
  11   3   4    5.68    2.16
 -11  -3  -4    2.90    3.36
  -7  10   9    2.28    2.24
  -3  15   8    1.30    2.60
   5   3  19    0.89    2.03
   5   3  19   -1.42    3.02
   4  15  11    7.17    2.09
  -1  15  12   -0.94    1.78
 -11   1  -7    2.20    4.10
  11  -1   7    0.68    2.87
  -6  13   2   -0.96    2.15
   9   8   1   -0.97    3.09
   9   8   1    2.22    2.28
   9   8   1   -0.32    2.04
   8   4  17    7.30    2.15
   9  10   7    5.44    2.69
   9  10   7    7.50    2.27
   9  10  10   17.98    2.43
   9  10  10   10.53    2.62
  -7   4 -14    0.37    3.00
  -7   4 -14    0.57    3.88
  -6  -8   6   12.05    3.36
 -11   0  -8    3.28    4.10
  -4  14   0    2.43    2.23
  -7   6 -12    0.85    3.72
  -2  11  -8    4.94    2.02
   2  10  -8    3.88    2.18
  -3  10  16   13.66    2.38
 -10   2   4    8.65    3.13
   9   6  -2    1.35    2.12
  -3  13  -4    0.39    2.04
   0  14  -2    3.25    1.83
   0  14  -2    0.85    2.19
  -6  13   5    2.69    2.30
  -5   1  14    5.10    3.24
   3  -6 -17   18.01    3.99
  10   5  13    1.71    2.00
   5  14   4   17.82    2.35
   5  14   4   17.75    2.35
  -8  10  -3   -2.05    4.39
  -7  12   3    1.32    2.17
   2   2  19   14.08    2.40
   2   2  19   14.79    3.84
  -3  15   3    4.67    2.48
   4   2  19    0.08    3.21
   4   2  19    0.49    1.99
  -4  -2 -19   -1.29    2.96
   8   6  17    3.06    2.12
  -2  10  17   -1.18    2.11
  10  -5   7    2.05    2.67
  -2  14  -2    3.52    2.29
   3  10  19   20.71    2.86
   4  15   6    6.79    1.98
   3  -5 -17   12.63    3.73
  -2  -1  16    0.44    2.03
   2   1 -16    1.75    2.63
   6  -2 -13    6.73    3.42
  -6   2  13    1.89    3.01
 -10   5   3   -0.03    3.62
  10  -5  -3    2.09    4.01
  11  -2   2    8.97    3.47
 -11   2  -2   10.50    3.91
  11  -2   2   10.34    3.82
   9   9   3   -2.78    2.29
   9   9   3   -2.16    2.87
   4  -5 -16   21.99    4.26
   7   7  18   28.86    2.92
  10  -3  -4    1.58    4.10
 -10   3   4    3.05    3.22
   2  12  -5    6.86    2.30
   4  -6 -16    8.34    4.05
  -1   0 -18   15.22    3.04
   1   0  18   18.75    2.45
   1   0  18   20.77    3.99
   0  15  13    1.75    2.03
  -3   8 -12   -0.10    3.15
   3  -8  12    1.51    3.38
  -1  11  -8    5.31    2.00
  10   4  -1   -1.47    1.96
   8  11  13   15.44    2.60
  -6  12  -3    1.68    4.03
   3  -5  15   11.91    3.88
   9  -1  -7    4.08    3.51
   2  10  19    0.11    2.48
  11   2   9   18.79    2.33
 -11  -2  -9    8.27    4.15
   6  13  14    3.12    2.63
  -5   9 -10   -4.75    3.77
  -5   9 -10   -1.70    2.86
 -11  -4  -7   -1.11    3.43
  11   4   7    2.29    2.09
   8  11   4    9.21    2.49
   8  11   4    4.86    2.71
  -5  -3  12    4.77    3.17
  11   4   6    1.05    2.14
 -11  -4  -6    2.06    3.32
   0  14  15   29.22    2.73
  -7  10  -6    3.81    4.12
   3  15  13    7.67    2.14
   9   7  15   17.33    2.51
  -5   9  14    4.05    1.98
   5  -9 -14    2.99    4.25
  -5  14   4    5.53    2.45
   9   3  -5   10.51    2.17
  10   8   8    3.49    2.75
   1   9 -10    0.02    2.70
   1   9 -10   -0.35    1.97
   7  13   9   13.81    2.74
   9  -9   0    1.40    3.22
   4  12  -3    1.79    1.95
   2  -5  15    3.66    3.72
  -5  13  -2   -1.15    3.73
 -11   2  -6    1.34    4.13
  11  -2   6    3.13    2.98
  -6   6 -13    9.38    3.94
   2  15   2   13.65    2.13
   3  -7 -17   19.70    4.18
  10   3  -2    2.30    1.91
  -7  12   4    2.14    2.20
  -5  14   5   10.48    2.57
  -6   5 -14    1.77    3.88
   7  12  14    5.72    2.57
   9  -9  -1   -1.96    3.41
  -1   7 -13    4.51    1.89
  -8   4 -13    6.84    2.93
  -8   4 -13    0.87    4.09
  -6  -4  10   -1.83    3.02
  10  -6   5   -0.38    2.88
  -7  -9   3   -2.20    2.94
   6   1  18   15.84    2.25
   4  13  -1   -0.32    2.12
   4  13  -1   -0.16    1.88
   5   0  18   12.80    2.15
   5   0  18    9.41    3.23
  -6  12   9   -1.67    2.30
  11  -1   1   -0.52    3.72
 -11   1  -1    2.42    3.50
   6  11  17   33.58    3.12
 -11  -1  -9    6.63    4.05
 -11  -3  -9    2.65    3.96
  11   3   9    7.20    2.07
  -8   5 -12    0.62    2.81
  -8   5 -12   -0.61    4.12
   9  -8   5   -1.12    2.58
   0  -3  16   13.34    2.11
 -10   3 -10    0.79    2.39
  10   8   7    2.37    2.77
  10   8   7    3.01    2.02
 -11   0  -1    0.08    3.31
   7  13  10    7.53    2.62
   2  14  -1    3.85    2.01
   2  14  -1    1.90    2.42
   7  13   8   15.99    2.79
   8   0  -9    7.49    3.51
  -8   0   9    5.97    2.85
   6  13   3    7.06    2.26
  10   5   0   12.72    2.21
 -10   2 -11    3.82    2.52
  -6  -6 -19   12.19    2.92
   6   6  19   20.12    2.82
   8   3  17    7.69    2.12
  -7   9  -8    2.60    3.95
  10  -6  -2   18.55    4.41
 -10   6   2    5.46    4.15
 -11  -4  -8    4.26    3.70
  11   4   8    8.54    2.15
  -8  -2   8    1.51    2.84
   8   2  -8   -0.25    3.24
  -8   9  -6    1.14    4.23
   4  -6  14   -1.72    3.39
   9  10   6    3.42    2.24
   9  10   6    1.34    2.75
   1  -2  17    4.65    1.90
   7  12   3   -1.29    2.21
   7   3  18   13.65    2.38
  -3  11  -8   -0.45    2.82
   6   5  19   16.79    2.60
  -5  14   3    4.07    2.37
   9  -9   1   -3.10    3.07
  -5 -10   5    7.79    3.26
  11   2   2    3.10    2.18
 -11  -2  -2    3.96    3.26
   4  -4 -16   17.22    4.16
  11   4   5    6.64    2.29
 -11  -4  -5    6.97    3.37
   4  -7 -16   -0.03    4.06
   6  14   9    6.29    2.72
   6  14   9    3.00    2.21
   4  -7  13    1.31    3.29
   3  14   0   12.05    2.24
  -7   3 -15   -1.04    4.07
   2  -1 -17   13.29    2.72
   5  12  17    4.79    2.57
   1  -2 -18    2.78    2.47
   3  -4 -17    8.39    3.94
   1  15   1   -0.41    1.80
   1  15   1   -2.13    2.54
  -6  13   6    7.59    2.40
  -2  15   1    0.76    2.44
  -7   7 -11    3.63    3.87
  -1   8 -12    4.42    1.93
  -8   8  -8    0.90    2.33
  -8   8  -8    2.52    4.30
  11   3   3    4.17    2.18
   2  13  17   14.40    3.00
  -4  10  15   11.16    2.28
   1  13  -4   -1.25    2.24
   6  12  16   11.31    2.71
  -5  14   6    6.81    2.54
  -9   1 -14   -3.59    2.81
   6  14  10   13.92    2.87
   6  14  10    9.93    2.52
 -10   4   4    2.96    3.35
  -9   6  -9    2.92    2.32
  -3  15   9   -0.51    2.72
   6  14   8   -0.14    2.11
   9  -9  -2   -3.81    3.56
   4  15  12    1.83    2.08
  -6   7 -12   -0.02    2.93
  -6   7 -12    0.99    3.96
  -4  14  10    1.15    2.66
   9   7  -1   -0.06    2.13
   9   7  -1    1.57    2.31
   4  10  19   18.69    2.72
   8   7  17   21.43    2.65
  10   7  12   -0.32    2.27
  -8   3 -14    1.07    2.94
  -8   3 -14   -1.27    4.42
 -11   2  -1    3.67    3.67
  11  -2   1    6.79    3.94
  11  -3   3    8.67    3.72
  11  -3   3    5.01    3.30
 -11   3  -3    1.99    4.20
   6  -4  15    3.13    2.97
  -6   4 -15    0.57    3.99
  -6  -1  12   11.63    3.31
   4  14  15   23.79    3.22
   6   7  19   29.67    3.00
  -6  -7 -19   25.57    3.11
 -11   3  -4   -2.22    4.12
  11  -3   4   -0.03    3.17
  11  -3   4    2.17    3.45
 -10   4  -9    3.91    2.39
   4  -5  15    4.26    3.52
  11  -1   8    3.94    2.86
  10   7   3   12.63    2.25
  10   7   3    9.50    2.27
   3  15   3   13.21    2.12
  10   8   6    2.91    2.88
  10   8   6    1.89    2.02
   7  13  11    6.45    2.59
   2  12  18   26.71    3.18
   7  13   7   17.41    2.81
   3  13  17   19.44    3.07
 -11  -1  -1    2.72    3.25
  -5  13  10    4.61    2.63
  -8   6 -11   -2.70    4.25
  -8   6 -11    1.68    2.71
   5  11  18   14.69    2.72
   2  -7 -18   11.40    3.88
  10   6  13    4.09    2.26
  -5  11  -7    3.07    3.63
  -5  11  -7   -3.83    2.56
  -6   8  13    1.98    1.88
  -7  12   5    1.58    2.29
 -10   1 -12    2.19    2.57
  -7  11   8    0.70    2.26
  -6  -9   5    3.17    3.21
   1  16  10   -0.40    1.80
   2  16   8    3.17    1.84
  10   2  -3    0.34    1.90
  -3  15   2    4.54    2.48
   3  12  18   16.82    2.94
   5  -2  17   16.22    3.60
   6   4  19    0.40    2.09
   5  -5 -15    2.07    4.25
   3  11  -6    6.78    2.33
   4  15   5    0.02    1.91
   4  15   5    4.48    1.88
   2  16   9    2.32    1.89
  -5  12  -5    3.09    3.64
  -3   9 -11    0.32    3.11
  -5  14   2    3.22    2.28
   9  -9   2    4.48    2.84
 -11  -4  -9    1.60    3.80
  11   4   9   -0.69    2.03
   3   6  20    7.13    3.32
  -3  -6 -20    5.46    2.56
 -11   3  -2   -0.45    4.04
  11  -3   2    1.29    3.72
  11  -3   2    2.34    3.39
  -2  13  15    8.80    2.11
   3  -8 -17    5.42    4.01
   3  -4  16   22.90    4.13
   1  10  19    3.71    2.56
  -7   0  11    5.49    2.98
   7   0 -11    6.02    3.29
   8  -4 -10   -1.77    3.93
  -4   8 -12    0.81    3.11
   5  -6 -15    2.14    4.00
  -2  12  16    6.74    2.13
  -7  11  -4   -3.90    4.29
  11  -2   7   -0.30    2.93
   1  14  -2    0.12    1.90
   1  14  -2    1.32    2.32
   2  15  14   12.37    2.27
   6  14  11   18.11    3.04
   8  12   9    1.87    2.41
  -7  -2  10   19.65    3.42
   7   2 -10   14.76    3.35
  11   4   4    3.74    2.27
   4   7 -10   -0.71    3.27
   0  11  -8    3.81    2.05
   1  13  17    3.28    2.29
  11  -3   5   -1.78    3.06
  10   6   1   13.44    3.69
  10   6   1   17.82    2.38
  10   6   1   18.73    2.50
   6  14   7    3.38    2.19
  -3  -7 -20   14.56    2.60
   3   7  20   25.48    3.51
   5  14  14    9.63    2.89
  10  -7   1   -1.15    3.61
  -1  -2 -19   13.28    2.85
   1   2  19   18.61    2.64
   1  15  14   24.07    2.57
   6  12   0    1.34    2.07
   5   2  19   12.13    2.29
   5   2  19   10.17    3.26
   9   0  -7   12.07    3.73
   3  -1  18    0.29    3.41
   3  -1  18   -0.08    1.99
   8  -3 -10    3.73    3.87
  -8   3  10   -0.88    2.55
   7  -4 -12   20.84    4.03
  -7   4  12   19.75    2.96
   5  13  16    4.93    2.69
   9   2  -6   13.65    3.71
   9   2  -6    9.81    2.11
  -4  12  -6    0.40    2.63
   8  12   8    2.96    2.36
   1  12  -6   -0.04    2.04
   7  -5 -12   14.48    4.08
   8  12  10    1.13    2.34
   5  -4 -15   12.23    4.34
  -3  14  -2    2.34    2.25
  -6  11  -6   -2.13    3.74
  -1   9 -11   16.80    2.27
  -6  13   0   -4.44    4.19
  10  -7   2    1.84    3.30
 -11  -2 -10   11.97    4.48
  11   2  10   22.58    2.51
   3   7 -11    3.72    3.13
   0   9  19    6.76    2.60
  -5  14   7    1.78    2.51
  -3  -5 -20    0.95    2.64
   3   5  20   -1.17    3.41
   4   6 -11    0.05    3.26
  -3  12  15   -0.46    1.96
   9   4  16    2.78    2.08
  -1  13  16   20.80    2.55
  10  -7   0    1.37    3.82
  10  -7   0    4.80    3.61
   4  -3 -16    4.81    3.87
   9  10   5    0.77    2.84
   9  10   5   -0.79    2.24
   2  14  16    1.20    2.26
   9  -9  -3    5.37    4.26
   2  16  10   -1.44    1.85
   1  10  -9    0.38    2.00
   9   5  16   11.88    2.30
  11   3  10   26.31    2.66
 -11  -3 -10   22.15    4.60
   4  -8 -16    4.72    4.08
   2   6  20    1.51    3.22
  -2  -6 -20    2.01    2.44
   4   8  -9    1.68    3.14
  -5  11  13   13.01    2.15
  -6   1  13   23.04    3.64
   6  -1 -13   16.94    3.74
   8   2  17    6.72    2.17
   4   6  20    4.74    3.23
  -6  10  12   15.26    2.11
  -4  14  -1   -0.53    2.24
   8   5  -6    3.36    2.20
   3   1  19    5.67    3.45
   3   1  19    3.77    2.08
 -11   1   0    1.38    3.39
  -2  -7 -20    4.42    2.34
   2   7  20    1.28    3.06
  -6  13   7    3.71    2.41
   5  14   3   13.37    2.25
  11   5   7    7.04    2.30
 -11  -5  -7    7.89    3.51
   4  14   1    0.63    1.88
   4  14   1    0.61    2.10
   3   8 -10    8.29    3.26
   3  -3 -17    3.43    3.82
  10  -6   6    8.41    3.00
   2  -8 -18   19.33    4.02
   2  11  -7    3.43    2.25
  -1  15   0    2.74    2.42
   3   6 -12    0.33    3.21
  -6  10  -8    2.14    2.43
  -6  10  -8   -0.13    3.69
  -3  13  14   -0.33    1.90
 -11   3  -1    5.25    3.93
  11  -3   1    5.81    4.00
  -6  -3  11    0.97    3.09
  10   8   5    3.81    3.00
  10   8   5    6.42    2.13
   7  13  12    4.74    2.64
   2  -1  18    3.79    1.99
  -6   8 -11    5.02    3.87
  -6   8 -11    4.90    2.85
   5  12  -2   -0.59    2.03
   4   7  20   -1.55    2.96
  -4  -7 -20   -2.42    2.56
   5  -7 -15   16.33    4.36
  -8   2 -15    1.49    4.50
   3   0 -16   10.43    2.61
   0  -3 -19    1.69    2.43
   7   2  18    7.45    2.10
  -7   3  12    7.39    2.81
   7  -3 -12    9.54    4.00
   4  -4  16    1.91    3.52
  -7  -6   7    4.75    3.11
  -1  12  17   -1.36    2.21
   4  -1  18   12.68    3.55
  -1  15  13   -0.54    1.85
  11   5   8    2.68    2.18
 -11  -5  -8    3.21    3.67
 -10   6   3    2.41    4.00
  -7   2 -16   -8.63    4.37
 -11   0   0    5.73    3.34
 -11  -5  -6    8.72    3.43
  11   5   6   11.09    2.41
  11   3   2    7.39    2.32
  10   4  14   20.48    2.55
   6  -3  16    0.17    3.02
  -6   3 -16    2.78    4.24
   0  15   0   -0.79    2.43
   4   5  20   16.49    3.57
  -4  -5 -20   16.64    3.06
   8  12   7    1.07    2.40
  -1  13  -5    1.50    2.18
 -10   5   4    1.26    3.54
   3   8  20   22.86    3.34
  -3  -8 -20   16.98    2.60
   3   8  20   18.69    2.64
   1  16  11   -1.92    1.88
   7  -6 -12   -4.09    3.96
  10  -7   3   -1.58    3.24
   9   9   2    0.60    2.27
  -7   8 -10    5.84    3.82
   8  12  11    4.23    2.42
  -2  -5 -20    4.99    2.61
   2   5  20    6.48    3.56
   1  14  16    7.61    2.39
   9   3  16    7.78    2.10
  11  -2   0    5.54    4.05
 -11   2   0    0.27    3.57
  10   3  14    7.04    2.10
  -7  12   6    7.18    2.34
  11  -3   6    0.78    2.94
  -2  13  -5    3.22    2.18
  -5  -7   9   12.34    3.68
   3  15  14    0.21    2.10
  -8   7 -10   -9.23    4.46
  -8   7 -10    1.52    2.62
  -8   2  10   -0.03    2.66
   8  -2 -10   -2.23    3.73
   4  12  18    2.22    2.57
  -7  -7   6   -1.19    3.17
 -10   0 -13    6.03    2.83
  -4  11  -8    0.51    2.74
   9  -9   3    0.41    2.78
   9   6  16    0.97    2.20
   6  14  12   14.39    3.00
   4   1  19    3.81    2.07
   4   1  19    1.34    3.33
  -5  10  -9    1.58    3.71
  -5  10  -9   -3.31    2.69
   4  15  13   -2.65    2.27
   6   3  19    2.81    2.08
  11   4  10    5.86    2.12
   4  13  17   16.48    2.94
   2   1  19   13.02    2.35
   2   1  19    8.47    3.88
   6  14   6    0.77    2.12
   7   5  -8   10.20    3.15
  -7  -5   8   10.28    3.16
  -5  -6  10   12.25    3.64
   5  13   0    1.55    2.02
   6  13  15    2.18    2.58
  -4  15   5    6.94    2.60
   8   4  -7   10.35    3.37
  -8  -4   7   11.61    3.03
   4   5 -12    5.58    3.55
  -1  -1  17    7.01    2.18
   1   1 -17    7.40    2.97
   5  15   9    5.65    2.26
   9   8   0    0.05    2.39
  -5   6 -14    4.21    3.81
   5  -6  14    2.80    3.18
   0   8 -12    1.12    1.99
   0   0 -18    5.94    2.93
   0   0  18   11.56    2.34
  -2  14  14   -1.23    1.91
   5  -3 -15   13.00    4.07
   2   8  20   28.52    2.93
  -2  -8 -20   17.15    2.53
   3  11  19    3.14    2.56
  10   5  14    3.80    2.11
  -4  15   6    5.17    2.59
   3   4  20    6.29    3.54
  -3  -4 -20    3.93    2.89
   2  16  11    1.07    1.88
  -1  14  15   11.28    2.21
  -4   9 -11   -1.91    3.15
  -6  12  -4    1.21    4.05
   0  15  14   13.52    2.31
  11  -1   9    3.89    2.87
 -11  -5  -9    7.34    3.82
  11   5   9    6.60    2.18
  -3  11  16   13.61    2.37
   7  12  15    7.29    2.57
   5  15  10    3.64    2.13
   2  11  19    4.55    2.67
   8   1  -9    1.35    3.29
  -8  -1   9   -2.11    2.95
   5  15   8   14.82    2.39
  -5  -8   8   11.29    3.69
  -4  15   4    3.61    2.55
  -1  14  -3    9.12    2.42
  -9   4 -12    0.83    2.62
   2  15   1    0.99    1.94
  -5  13  -3    1.11    3.74
  -3  15   1    1.71    2.47
   3   9  -9    5.66    3.18
  11  -2   8   -1.31    2.87
  -5   7 -13    1.84    3.80
  -5  10  14   -0.66    1.96
   4   8  20    0.26    2.81
  -4  -8 -20    0.30    2.40
   4  15   4    1.17    1.98
   4  15   4    0.02    1.87
   6  13   2   11.26    2.32
  -2  15   0    4.24    2.50
   3  -9 -17    2.81    4.08
   3   5 -13    0.64    3.29
  -5  14   8   -0.63    2.52
   5  -5  15    2.46    3.28
  -5   5 -15    0.99    3.90
  -9   3   8   -0.65    2.39
  11  -4   3    0.03    3.29
  11  -4   3    3.55    3.63
  -9   3 -13    3.94    2.77
   0  -2  17   14.01    2.22
   2   7 -12    3.49    3.05
  10   7   2   19.34    2.60
  -1  12  -7    2.20    2.08
  -6 -10   4    8.89    3.27
   3  16   9    2.65    1.94
   4   4  20   21.52    3.71
   4   4  20   19.15    2.66
   0  13  -5    3.26    2.22
  11  -4   2    0.39    3.72
  10   4  -2   14.78    2.25
   3  16   8    1.61    1.87
  -4  15   7    2.63    2.61
  -4  12  14    3.17    2.00
 -11   3   0    7.30    3.87
  11  -3   0    5.46    4.23
   1  -1 -18   -1.83    2.58
  10  -7   4    5.56    3.27
  -9   5 -11    0.25    2.55
  -1  10 -10    7.85    2.11
  -7  -8   5    3.32    3.14
  -2  14  -3    4.56    2.35
   2   8 -11    2.65    3.12
  -6  13  -1   -3.80    4.28
   7  -2 -12    2.35    3.79
  -7   2  12    0.77    2.89
  11  -4   4    0.73    3.13
   9   5  -4    1.66    2.16
   8  12  12    8.64    2.55
  -2  -4 -20   11.55    2.90
   2   4  20   17.92    3.96
  -6   9  13   -0.18    1.86
   2  -3 -18   17.65    2.66
   3  15   2   14.43    2.26
  10   5  -1    9.05    2.20
   9  10   4   -2.21    2.33
   5  -8 -15   12.47    4.61
  -1  -6 -20    2.91    2.38
   5  15   7   10.38    2.23
   1  15   0    0.43    1.90
   0  14  -3    0.95    2.23
   0  14  -3    2.25    1.91
   3  16  10    2.39    1.96
   0   9 -11    1.62    2.01
   0   9 -11    0.02    2.72
  10   8   4    7.54    3.19
  10   8   4    7.37    2.24
   7  13  13   -0.37    2.66
  -7  10  -7    0.53    4.01
  -7  -4   9    8.02    3.15
   7   4  -9    6.67    3.20
   2   6 -13    4.78    3.19
  -4  15   3   -0.63    2.48
 -10   3 -11    5.45    2.68
   4  -9 -16   16.59    4.55
  11   3  11    6.65    2.20
   3   9  20   28.97    2.98
  -3  -9 -20   24.25    2.69
   9   1  -7   11.80    2.16
   9   1  -7    7.34    3.77
  -6  13   8    1.51    2.46
  11  -3   7    0.68    2.89
   4  11  19   13.27    2.69
   9   4  -5    4.94    2.17
  10   3  -3   11.18    2.13
   1  -1  18    7.45    2.13
   2   0 -17    2.96    2.66
   3  16   7   -1.15    1.82
  10   6  14    2.88    2.12
   1  16  12   -0.02    1.88
 -11  -5 -10   -2.37    3.97
  11   5  10   -1.15    2.12
  -7  11   9    0.19    2.32
  11  -4   1    4.09    3.98
  -8   1  10    4.52    2.96
   8  -1 -10    3.72    3.65
 -10   2 -12    4.88    2.75
   5  -1  18    5.78    3.34
  -3  12  -7    1.10    2.76
   6  14  13   11.20    3.00
   6  -4 -14    0.19    3.42
   3  -2 -17    1.65    3.71
   3  -2 -17    4.37    2.43
   8   3  -8   -0.32    3.46
  -8  -3   8    1.10    2.82
   4  -3  17    9.51    3.77
 -10   4 -10    5.26    2.54
   0  14  16   19.15    2.52
  -4  11  15    3.61    2.09
 -11   1   1    3.15    3.44
   5  14  15   12.85    2.97
  -5  -9   7    4.87    3.51
  -6   9 -10    2.81    4.02
  -6   9 -10    6.08    2.73
  -1  -5 -20   -0.20    2.51
  11  -4   5   -1.04    3.04
   1  11  -8   -0.76    2.09
   2   9  20   21.72    2.85
  -7  12   7    2.97    2.37
   5   1  19   21.66    3.64
   5   1  19   22.71    2.51
   5  -4  16   -0.86    3.33
  -5   4 -16   -1.31    4.17
   2  16  12    5.06    2.01
   2  14  -2   -1.54    2.09
  -7  11  -5    0.38    4.33
   7   1 -11   13.14    3.45
  -7  -1  11   14.87    3.34
 -11   2   1   -2.98    3.58
   2   9 -10    6.12    2.97
   2   9 -10    5.76    2.31
  11   4  11    1.98    2.13
   4  13  -2    4.20    1.97
   2  15  15    2.57    2.18
  10   6   0   12.79    2.52
  10   6   0   13.24    2.35
  10   9   8   -1.02    2.74
   9  11   9    4.54    2.60
   9  11   9    6.71    2.35
   6  12  17   16.34    2.70
 -10   6   4    1.88    3.89
   0  -2 -19    2.37    2.58
   3  16  11    6.45    2.13
  -9   6 -10    0.81    2.45
   3   3  20    9.93    3.75
   6   2  19    9.28    2.20
  -8   8  -9    0.28    2.51
  -4  -9 -20    3.61    2.36
   8   5  18    2.17    2.17
   0  12  -7    5.88    2.18
   9  11   8   12.10    2.82
   9  11   8   15.05    2.58
 -11  -6  -8    6.45    3.63
  -6  -7   8    4.59    3.35
   9  11  10   16.79    2.63
  -7   9  -9    1.89    4.04
   5  14   2    7.01    2.13
   1  15  15   27.61    2.90
  -6  -6   9    7.60    3.28
   7   5  19   -0.95    2.29
   5  15   6   16.04    2.39
  10   9   7    9.70    2.94
  10   9   7    6.06    2.24
  -4  15   2    2.41    2.45
   9   3  -6    0.52    2.06
   9   3  -6   -2.23    3.50
  10  -7   5   -0.10    3.21
  -7   5 -14   -0.18    3.94
   5  12  18    9.64    2.68
   4   3  20   -0.74    3.42
   4   3  20    1.25    2.18
   8   4  18    8.91    2.26
   6  -3 -14    3.69    3.52
   5   4  20    1.19    2.20
  -7  -9   4    2.96    3.06
   8  12  13   19.57    2.88
  11  -4   0    8.29    4.16
  -7   6 -13   -3.92    3.91
   2  16   4    8.97    1.99
  11  -2   9   -0.49    2.89
 -11  -6  -9    2.70    3.70
 -11   3   1    3.82    3.79
  -5  12  -6   -3.61    3.72
  11  -1  10   -0.24    2.82
  -1  15  -1    4.31    2.48
   0  10 -10   -0.77    2.03
  -3  15   0    2.06    2.53
  -6  -8   7    8.29    3.53
   9  11   7    5.40    2.46
   9  11   7    4.25    2.80
   7  -1 -12    1.13    3.55
  11  -4   6   -1.31    2.96
   5  13  17    0.65    2.66
  -1  15  14   -0.06    1.91
   4  15   3   -0.34    1.88
   3   0  19   -1.71    2.06
   4  14   0    6.38    2.06
   7   4  19    6.69    2.40
  -7  -3  10    9.32    3.14
   1  -3  17   -1.30    1.85
  11   5  11    2.00    2.19
  -7   4 -15   -4.51    4.12
   1  14  -3   -0.61    2.01
  11  -3   8    1.97    2.85
  -6  11  -7    2.96    3.82
  10   8   3    6.22    2.34
   7  13  14   -0.10    2.61
  -5  11  -8    4.15    2.70
  10   9   6    4.15    2.96
  10   9   6    5.41    2.22
   2  -2 -18   15.05    2.73
   6  13  16    1.25    2.68
   3  16  12   12.12    2.28
  -1  11  -9    5.59    2.13
   2  10  -9   -0.62    2.99
  -7   7 -12    0.32    4.07
  -8   6 -12    3.98    2.98
   3  10  20   27.11    2.98
   4   0  19    5.97    2.11
   4   0  19    8.01    3.57
   3   1 -16    6.98    2.75
  10   7   1    8.40    2.44
  -2  13  16    2.78    2.09
  10  -8   1   -0.49    3.42
 -11  -6 -10    0.42    3.86
  10   4  15   16.90    2.48
   5  -3  17   -5.55    3.56
  -5   3 -17    3.17    4.34
  -2  15  -1    4.95    2.47
   8   3  18    5.40    2.24
   1  16  13    0.10    1.95
  11  -5   2    0.43    3.81
   1   8 -12   -4.20    3.09
   1   8 -12   -2.21    2.14
   2   0  19    1.96    2.12
  11  -5   3   -3.17    3.74
  -8   0  10    2.02    2.97
   8   0 -10   -2.14    3.72
  -8  11   6    2.82    2.21
  -6  12  -5    4.23    4.15
   8   2  -9    1.08    3.40
  -8  -2   9   -1.46    3.01
   2  16  13    3.02    2.09
  11   3  12    7.29    2.19
   2  15   0    4.09    2.09
  -4  12  -7   -3.33    2.83
   0  15  15   11.16    2.32
   2  10  20    6.47    2.63
  -5  13  -4    3.14    3.75
   1  -3 -19    5.71    2.48
   3  16   5    0.48    1.87
  -6   6 -14    2.59    4.12
  10   5  15    6.89    2.35
  10  -8   2    1.71    3.36
   5  15   5   11.74    2.27
   9   5  17    3.55    2.27
  -7  12   8   -0.42    2.35
  11  -5   1    2.18    3.99
  -3  13  15   -1.43    2.03
   5  13  -1   -0.56    2.03
  11   4  12    2.13    2.27
  -6   5 -15    1.46    4.15
  -4  15   1   -3.47    2.46
  -6  -9   6    4.60    3.42
   4  16   9   11.06    2.21
  11  -5   4   -3.92    3.30
   9   4  17    6.98    2.21
  -5  11  14    1.21    1.98
  -6  10  13    3.01    1.88
   5   3  20    0.44    2.18
   9   2  -7    5.00    2.08
   4  -2  18    3.11    3.71
 -11   2   2   -1.92    3.63
  -6  14   4   -0.56    2.43
  -6   7 -13    3.96    4.21
   5  12  -3    1.74    2.11
   4  16  10    9.00    2.22
  -2  14  15    2.69    2.00
  -8   4  11    3.50    2.63
   7   3  19    9.13    2.26
  -7   3 -16    1.37    4.30
   3  -1 -17   17.52    2.85
   4  -6 -17    0.47    4.16
  -6  10  -9    5.54    3.93
  -6  10  -9    5.07    2.66
   4  16   8   12.45    2.27
   1   9 -11    0.66    2.09
   1   9 -11    1.49    2.89
  11  -4   7    3.68    3.00
  -6  14   5    0.71    2.38
   4  -5 -17    1.93    4.14
  10   9   5    7.71    2.31
  -8   7 -11    3.44    2.90
   3  -7 -18   -4.06    4.06
   1  15  -1   -0.58    2.00
  -8   3  11    5.15    2.87
  -1  14  -4    3.30    2.33
  10  -8   3    2.68    3.30
   2  16   3    8.19    2.07
  10   4  -3    9.19    2.23
  -1  13  -6    5.86    2.30
   4  -7 -17   -0.66    4.37
 -11   3   2   -0.23    3.73
   4   2  20   -2.60    2.22
   4   2  20    2.81    3.35
  -7   8 -11    3.21    4.05
 -11  -6 -11    0.83    4.09
   8   5  -7    9.68    3.52
  -2  14  -4    2.97    2.39
  11  -5   5    1.64    3.20
   4  12  19    2.99    2.68
  -6   4 -16    0.81    4.39
   0  11  -9    4.22    2.13
   4  16   7    3.48    2.17
  -6  14   6    1.86    2.44
 -10   4 -11   -1.64    2.68
  -6   8 -12    3.61    4.10
   4  -4 -17   -0.38    4.31
   7   0 -12    6.53    3.60
   5  14   1   -0.87    2.08
  10   3  -4   12.72    2.27
  -3  15  -1   -2.05    2.62
   3  -8 -18   -3.56    4.28
   3  16   4    3.29    2.03
  -7  -6   8   -2.32    3.21
   7  13  15    6.01    2.72
  -4  12  15   -1.92    2.13
  -7  -7   7    2.32    3.37
  -5  15   5    1.42    2.57
  -8   2  11    8.66    3.14
  -5  15   4   -0.84    2.51
   1  10 -10   -1.77    2.93
   1  10 -10    1.00    2.20
  -3  13  -6    1.43    2.80
   4  -8 -17    2.31    4.34
   8   4  -8   15.64    3.68
   5  15   4    4.07    2.14
   5  -2  18   -2.26    3.64
   1  -2  18   -2.61    1.97
   0  13  -6    1.81    2.26
  10  -8   4   -2.02    3.25
  -6 -10   5   -0.37    3.27
   7  -3 -13    4.53    3.97
   2  -1 -18    4.65    2.65
   1  16  14    4.01    2.15
  -3  -7 -21   -2.32    2.60
   1  -2 -19    0.73    2.61
 -11  -7 -10    3.13    3.91
   4  16   6   -0.66    2.08
  -9   6 -11    3.83    2.79
  -7  -5   9    0.89    3.17
  -7  13   6    2.17    2.40
  11  -5   6    2.89    3.11
  -7  -8   6    2.39    3.44
  -8   8 -10    2.10    2.77
   5   2  20    5.17    2.22
   8   1 -10    1.68    3.76
  -8  -1  10    2.82    3.09
  -1  15  15    1.44    2.06
  -6   3 -17   -0.88    4.54
  11   4  13    5.43    2.20
  -3  -8 -21    0.56    2.50
   6  13  17    1.18    2.74
   4  -3 -17    1.98    4.32
  -2  -7 -21   -2.60    2.50
  10  10   8   16.91    3.22
  -2  -6 -21   -0.38    2.70
  -2  15  -2    2.46    2.44
   4   0 -16   10.99    2.73
  11  -6   2   -1.04    3.92
   6   3  20   11.63    2.43
   3   6 -13    4.57    3.62
  -6   9 -11    0.72    4.33
   3  -9 -18   -2.02    4.24
  11   4   0    1.01    2.09
   2  16   2    4.33    2.05
 -11   3   3   -3.54    3.67
  -6  12  -6    1.80    4.17
   7  -2 -13   -2.67    3.91
   8   3  -9    3.18    3.60
  12   2   6    4.30    2.23
  -6  11  -8   -1.38    4.03
   2  -1  19   -0.75    2.09
   4   1  20    1.07    2.20
 -12  -1  -4    2.30    3.98
 -12  -2  -5   -1.84    3.92
   9  12   9    2.25    2.74
   9  12  10   12.60    2.75
   0  12  -8    1.39    2.26
   2   8 -12    1.12    3.24
 -12  -3  -6   -2.79    3.93
   0   0   0    0.00    0.00

_computing_structure_solution     'SHELXT 2014/5 (Sheldrick, 2014)'
;
_shelx_hkl_checksum              19204
loop_
_space_group_symop_id
_space_group_symop_operation_xyz
1 +X,+Y,+Z
2 -X,-Y,-Z
loop_
_atom_site_label
_atom_site_type_symbol
_atom_site_fract_x
_atom_site_fract_y
_atom_site_fract_z
_atom_site_U_iso_or_equiv
_atom_site_adp_type
_atom_site_occupancy
_atom_site_site_symmetry_order
_atom_site_calc_flag
_atom_site_refinement_flags_posn
_atom_site_refinement_flags_adp
_atom_site_refinement_flags_occupancy
_atom_site_disorder_assembly
_atom_site_disorder_group
Zn1 Zn 0.60496(5) 0.41065(4) 0.55116(3) 0.0292(2) Uani 1 1 d . . . . .
O1 O 0.2957(5) 0.4233(3) 0.4810(3) 0.0456(8) Uani 1 1 d . . . . .
O2 O 0.4515(6) 0.2868(4) 0.5542(4) 0.0672(13) Uani 1 1 d . . . . .
O3 O 0.2745(6) 0.5729(4) 0.5894(3) 0.0623(11) Uani 1 1 d . . . . .
O4 O 0.4298(4) 0.4335(4) 0.6632(3) 0.0549(10) Uani 1 1 d . . . . .
C1 C 0.3351(7) 0.3192(5) 0.5167(4) 0.0488(12) Uani 1 1 d . U . . .
C2 C 0.2346(9) 0.2233(5) 0.5128(5) 0.0659(10) Uani 1 1 d . U . . .
C3 C 0.3014(13) 0.1049(8) 0.5299(7) 0.0670(10) Uani 0.655(17) 1 d . U . . .
H3 H 0.4006 0.0889 0.5484 0.080 Uiso 0.91(14) 1 calc R U . . .
C4 C 0.2200(14) 0.0176(9) 0.5190(8) 0.0674(10) Uani 0.611(17) 1 d . U . . .
H4 H 0.2657 -0.0559 0.5219 0.081 Uiso 0.97(14) 1 calc R U . . .
C5 C 0.0515(9) 0.0466(5) 0.5020(5) 0.0678(10) Uani 1 1 d . U . . .
C6 C 0.0125(9) 0.1642(5) 0.4679(5) 0.0656(9) Uani 1 1 d . U . . .
H6 H -0.0775 0.1856 0.4401 0.079 Uiso 1 1 calc R U . . .
C7 C 0.1025(9) 0.2507(5) 0.4737(5) 0.0650(9) Uani 1 1 d . U . . .
H7 H 0.0730 0.3309 0.4503 0.078 Uiso 1 1 calc R U . . .
C8 C 0.3164(6) 0.5020(5) 0.6639(3) 0.0469(13) Uani 1 1 d . . . . .
C9 C 0.2213(6) 0.5003(6) 0.7638(3) 0.0474(12) Uani 1 1 d . . . . .
C10 C 0.2501(7) 0.4188(6) 0.8508(4) 0.0526(13) Uani 1 1 d . . . . .
H10 H 0.3293 0.3621 0.8476 0.063 Uiso 1 1 calc R U . . .
C11 C 0.1641(7) 0.4188(6) 0.9433(4) 0.0531(14) Uani 1 1 d . . . . .
H11 H 0.1860 0.3625 1.0022 0.064 Uiso 1 1 calc R U . . .
C12 C 0.0469(6) 0.5002(6) 0.9500(4) 0.0511(14) Uani 1 1 d . . . . .
C13 C 0.0182(8) 0.5814(8) 0.8634(4) 0.071(2) Uani 1 1 d . . . . .
H13 H -0.0606 0.6383 0.8666 0.085 Uiso 1 1 calc R U . . .
C14 C 0.1047(8) 0.5809(8) 0.7704(4) 0.074(2) Uani 1 1 d . . . . .
H14 H 0.0825 0.6368 0.7115 0.088 Uiso 1 1 calc R U . . .
N3 N 0.748(3) 0.3121(13) 0.6386(16) 0.031(3) Uani 0.433(13) 1 d D U P A 1
C33 C 0.710(2) 0.1988(11) 0.6981(13) 0.046(4) Uani 0.433(13) 1 d D U P A 1
H33 H 0.6202 0.1577 0.6957 0.056 Uiso 0.433(13) 1 calc R U P A 1
C34 C 0.8015(19) 0.1411(11) 0.7639(12) 0.051(3) Uani 0.433(13) 1 d D U P A 1
H34 H 0.7831 0.0577 0.8009 0.062 Uiso 0.433(13) 1 calc R U P A 1
C35 C 0.9207(18) 0.2035(11) 0.7766(10) 0.044(3) Uani 0.433(13) 1 d D U P A 1
C36 C 0.9523(19) 0.3231(12) 0.7153(11) 0.045(3) Uani 0.433(13) 1 d D U P A 1
H36 H 1.0227 0.3716 0.7263 0.054 Uiso 0.433(13) 1 calc R U P A 1
C37 C 0.879(2) 0.3707(15) 0.6376(11) 0.037(3) Uani 0.433(13) 1 d D U P A 1
H37 H 0.9216 0.4439 0.5840 0.045 Uiso 0.433(13) 1 calc R U P A 1
C38 C 1.0144(19) 0.1520(10) 0.8532(12) 0.056(4) Uani 0.433(13) 1 d D U P A 1
H38 H 1.1311 0.1811 0.8240 0.067 Uiso 0.433(13) 1 calc R U P A 1
C39 C 0.9990(15) 0.0136(10) 0.9125(8) 0.043(3) Uani 0.433(13) 1 d D U P A 1
H39 H 0.9546 -0.0411 0.8885 0.052 Uiso 0.433(13) 1 calc R U P A 1
C40 C 1.0993(16) -0.0334(11) 0.9904(8) 0.068(4) Uani 0.433(13) 1 d D U P A 1
C41 C 1.0566(19) -0.1716(11) 1.0459(11) 0.067(4) Uani 0.433(13) 1 d D U P A 1
H41 H 0.9676 -0.1962 1.0244 0.080 Uiso 0.433(13) 1 calc R U P A 1
C42 C 1.1881(18) -0.2530(15) 1.0464(12) 0.063(3) Uani 0.433(13) 1 d D U P A 1
H42 H 1.1614 -0.3360 1.0705 0.075 Uiso 0.433(13) 1 calc R U P A 1
C43 C 1.350(2) -0.2132(14) 1.0129(14) 0.068(4) Uani 0.433(13) 1 d D U P A 1
H43 H 1.4324 -0.2687 1.0214 0.082 Uiso 0.433(13) 1 calc R U P A 1
C44 C 1.392(2) -0.0916(13) 0.9669(15) 0.065(4) Uani 0.433(13) 1 d D U P A 1
H44 H 1.5038 -0.0661 0.9435 0.078 Uiso 0.433(13) 1 calc R U P A 1
C45 C 1.276(2) -0.0043(17) 0.9533(16) 0.072(5) Uani 0.433(13) 1 d D U P A 1
H45 H 1.3142 0.0769 0.9186 0.087 Uiso 0.433(13) 1 calc R U P A 1
O5 O -0.2285(9) 0.8079(6) 0.8310(7) 0.106(2) Uani 1 1 d . . . . .
N1 N -0.4271(14) 0.7597(6) 0.7692(6) 0.123(4) Uani 1 1 d D . . . .
C15 C -0.309(2) 0.8274(10) 0.7725(8) 0.144(6) Uani 1 1 d . . . . .
H15 H -0.2864 0.9035 0.7196 0.173 Uiso 1 1 calc R U . . .
C16 C -0.4448(17) 0.6298(9) 0.8409(7) 0.110(3) Uani 1 1 d D . . . .
H16A H -0.4013 0.6232 0.8974 0.132 Uiso 1 1 calc R U . . .
H16B H -0.5616 0.6042 0.8680 0.132 Uiso 1 1 calc R U . . .
C17 C -0.3596(15) 0.5477(13) 0.7944(10) 0.125(3) Uani 1 1 d . . . . .
H17A H -0.4058 0.5505 0.7406 0.187 Uiso 1 1 calc R U . . .
H17B H -0.3732 0.4663 0.8447 0.187 Uiso 1 1 calc R U . . .
H17C H -0.2438 0.5725 0.7672 0.187 Uiso 1 1 calc R U . . .
C18 C -0.5592(15) 0.8059(9) 0.7095(8) 0.110(3) Uani 1 1 d D . . . .
H18A H -0.5164 0.8818 0.6530 0.132 Uiso 1 1 calc R U . . .
H18B H -0.5767 0.7475 0.6815 0.132 Uiso 1 1 calc R U . . .
C19 C -0.7230(15) 0.8259(13) 0.7708(10) 0.125(3) Uani 1 1 d . . . . .
H19A H -0.8070 0.8267 0.7371 0.187 Uiso 1 1 calc R U . . .
H19B H -0.7167 0.9022 0.7775 0.187 Uiso 1 1 calc R U . . .
H19C H -0.7504 0.7614 0.8369 0.187 Uiso 1 1 calc R U . . .
N2 N 0.749(2) 0.3139(9) 0.6343(15) 0.046(3) Uani 0.567(13) 1 d D U P A 2
C31 C 1.2583(19) -0.2436(16) 0.9931(19) 0.111(5) Uani 0.567(13) 1 d D U P A 2
H31 H 1.2431 -0.3277 1.0261 0.134 Uiso 0.567(13) 1 calc R U P A 2
C20 C 0.7383(19) 0.1927(9) 0.6780(11) 0.054(3) Uani 0.567(13) 1 d D U P A 2
H20 H 0.6591 0.1535 0.6647 0.064 Uiso 0.567(13) 1 calc R U P A 2
C21 C 0.8284(17) 0.1189(13) 0.7396(10) 0.063(3) Uani 0.567(13) 1 d D U P A 2
H21 H 0.8053 0.0352 0.7702 0.075 Uiso 0.567(13) 1 calc R U P A 2
C22 C 0.9530(17) 0.1723(12) 0.7545(11) 0.060(3) Uani 0.567(13) 1 d D U P A 2
C23 C 0.9801(18) 0.2938(12) 0.7041(12) 0.058(3) Uani 0.567(13) 1 d D U P A 2
H23 H 1.0763 0.3324 0.7013 0.070 Uiso 0.567(13) 1 calc R U P A 2
C32 C 1.1299(18) -0.1762(10) 0.9664(14) 0.088(4) Uani 0.567(13) 1 d D U P A 2
H32 H 1.0276 -0.2140 0.9782 0.106 Uiso 0.567(13) 1 calc R U P A 2
C24 C 0.8674(19) 0.3595(16) 0.6577(13) 0.057(4) Uani 0.567(13) 1 d D U P A 2
H24 H 0.8730 0.4430 0.6409 0.069 Uiso 0.567(13) 1 calc R U P A 2
C25 C 1.064(2) 0.1135(16) 0.8181(17) 0.093(5) Uani 0.567(13) 1 d . U P A 2
H25 H 1.1521 0.1569 0.8198 0.112 Uiso 0.567(13) 1 calc R U P A 2
C26 C 1.039(3) 0.013(2) 0.865(2) 0.124(7) Uani 0.567(13) 1 d . U P A 2
H26 H 0.9445 -0.0270 0.8668 0.149 Uiso 0.567(13) 1 calc R U P A 2
C27 C 1.1534(16) -0.0534(10) 0.9223(13) 0.076(3) Uani 0.567(13) 1 d D U P A 2
C28 C 1.3050(17) -0.0006(16) 0.9038(16) 0.088(4) Uani 0.567(13) 1 d D U P A 2
H28 H 1.3214 0.0833 0.8695 0.106 Uiso 0.567(13) 1 calc R U P A 2
C29 C 1.434(2) -0.0644(16) 0.9331(19) 0.100(5) Uani 0.567(13) 1 d D U P A 2
H29 H 1.5328 -0.0264 0.9272 0.120 Uiso 0.567(13) 1 calc R U P A 2
C30 C 1.409(2) -0.1870(16) 0.9713(19) 0.108(5) Uani 0.567(13) 1 d D U P A 2
H30 H 1.4983 -0.2345 0.9831 0.130 Uiso 0.567(13) 1 calc R U P A 2
loop_
_atom_site_aniso_label
_atom_site_aniso_U_11
_atom_site_aniso_U_22
_atom_site_aniso_U_33
_atom_site_aniso_U_23
_atom_site_aniso_U_13
_atom_site_aniso_U_12
Zn1 0.0304(3) 0.0381(3) 0.0231(3) -0.0192(2) -0.00097(18) -0.00646(18)
O1 0.051(2) 0.0428(18) 0.0453(19) -0.0167(15) -0.0136(16) -0.0152(15)
O2 0.084(3) 0.043(2) 0.090(3) -0.020(2) -0.054(3) -0.014(2)
O3 0.078(3) 0.083(3) 0.0302(18) -0.0365(19) -0.0017(18) 0.016(2)
O4 0.0339(17) 0.104(3) 0.0316(17) -0.040(2) 0.0044(14) 0.0014(19)
C1 0.060(3) 0.044(2) 0.043(2) -0.011(2) -0.020(2) -0.024(2)
C2 0.082(2) 0.0481(15) 0.0726(19) -0.0099(14) -0.0446(17) -0.0253(14)
C3 0.083(2) 0.0484(15) 0.074(2) -0.0097(14) -0.0449(17) -0.0248(15)
C4 0.084(2) 0.0485(15) 0.075(2) -0.0097(14) -0.0451(18) -0.0248(15)
C5 0.084(2) 0.0489(15) 0.0747(19) -0.0092(14) -0.0451(17) -0.0252(15)
C6 0.082(2) 0.0482(14) 0.0723(19) -0.0106(13) -0.0442(17) -0.0253(14)
C7 0.082(2) 0.0478(14) 0.0716(19) -0.0107(13) -0.0435(17) -0.0250(14)
C8 0.037(2) 0.082(4) 0.029(2) -0.036(2) 0.0064(18) -0.015(2)
C9 0.034(2) 0.087(4) 0.030(2) -0.039(2) 0.0053(18) -0.007(2)
C10 0.041(3) 0.085(4) 0.036(2) -0.037(3) 0.006(2) -0.008(3)
C11 0.048(3) 0.086(4) 0.027(2) -0.032(2) 0.006(2) -0.008(3)
C12 0.034(2) 0.094(4) 0.032(2) -0.041(3) 0.0071(19) -0.009(2)
C13 0.055(3) 0.132(6) 0.037(3) -0.052(4) -0.005(3) 0.024(4)
C14 0.065(4) 0.135(7) 0.034(3) -0.052(4) -0.009(3) 0.028(4)
N3 0.031(4) 0.048(5) 0.022(4) -0.014(4) -0.018(3) -0.005(4)
C33 0.043(6) 0.052(6) 0.038(6) -0.008(5) -0.013(5) -0.009(5)
C34 0.053(6) 0.050(6) 0.046(6) -0.012(5) -0.013(5) -0.007(5)
C35 0.043(6) 0.052(6) 0.044(6) -0.022(5) -0.015(5) -0.004(5)
C36 0.040(6) 0.049(6) 0.043(6) -0.009(5) -0.017(5) -0.009(5)
C37 0.030(5) 0.053(6) 0.023(5) -0.007(4) -0.007(4) -0.013(5)
C38 0.047(6) 0.050(7) 0.058(7) 0.005(5) -0.032(6) -0.009(5)
C39 0.039(5) 0.045(5) 0.048(5) -0.009(4) -0.030(5) -0.005(4)
C40 0.053(6) 0.065(6) 0.066(7) -0.002(6) -0.020(6) 0.001(5)
C41 0.075(8) 0.077(8) 0.056(7) -0.024(6) -0.032(6) -0.004(6)
C42 0.071(7) 0.074(7) 0.052(6) -0.028(5) -0.024(6) 0.007(6)
C43 0.067(8) 0.073(8) 0.067(7) -0.021(6) -0.027(6) 0.002(6)
C44 0.059(8) 0.064(9) 0.079(9) -0.023(7) -0.034(7) -0.003(7)
C45 0.047(7) 0.071(8) 0.074(9) 0.002(7) -0.021(7) 0.004(6)
O5 0.097(5) 0.092(4) 0.135(6) -0.057(4) -0.020(4) -0.016(3)
N1 0.204(11) 0.081(5) 0.086(5) -0.012(4) -0.064(6) -0.051(6)
C15 0.245(18) 0.092(7) 0.083(7) -0.013(6) -0.040(9) -0.083(9)
C16 0.157(7) 0.101(5) 0.080(4) -0.026(4) -0.051(4) -0.033(5)
C17 0.107(6) 0.171(8) 0.134(7) -0.088(7) -0.050(5) 0.005(6)
C18 0.157(7) 0.101(5) 0.080(4) -0.026(4) -0.051(4) -0.033(5)
C19 0.107(6) 0.171(8) 0.134(7) -0.088(7) -0.050(5) 0.005(6)
N2 0.042(4) 0.051(4) 0.043(5) -0.025(4) 0.000(4) 0.000(4)
C31 0.086(8) 0.088(7) 0.138(10) -0.018(7) -0.031(8) 0.008(7)
C20 0.054(6) 0.058(5) 0.049(6) -0.025(4) -0.008(5) -0.001(4)
C21 0.065(6) 0.068(6) 0.055(6) -0.023(5) -0.015(5) 0.007(5)
C22 0.060(6) 0.068(6) 0.060(6) -0.031(5) -0.019(5) 0.017(5)
C23 0.052(6) 0.068(6) 0.061(6) -0.029(5) -0.019(5) 0.006(5)
C32 0.073(6) 0.071(6) 0.118(9) -0.030(6) -0.032(6) 0.005(5)
C24 0.048(6) 0.070(6) 0.053(6) -0.021(5) -0.014(5) -0.006(5)
C25 0.073(9) 0.072(8) 0.140(15) -0.043(9) -0.035(9) -0.004(7)
C26 0.094(10) 0.094(9) 0.164(16) -0.032(11) -0.022(11) -0.017(9)
C27 0.071(6) 0.070(6) 0.098(8) -0.032(6) -0.040(6) 0.011(5)
C28 0.084(7) 0.075(7) 0.105(9) -0.031(7) -0.031(7) 0.001(6)
C29 0.090(8) 0.082(8) 0.120(10) -0.032(7) -0.026(8) 0.003(7)
C30 0.085(8) 0.088(8) 0.133(10) -0.024(8) -0.027(8) 0.012(7)
loop_
_atom_type_symbol
_atom_type_description
_atom_type_scat_dispersion_real
_atom_type_scat_dispersion_imag
_atom_type_scat_source
C C 0.0033 0.0016
;
International Tables for Crystallography
(Vol. C, Tables 4.2.6.8 and 6.1.1.4)
;
H H 0.0000 0.0000
;
International Tables for Crystallography
(Vol. C, Table 6.1.1.4)
;
N N 0.0061 0.0033
;
International Tables for Crystallography
(Vol. C, Tables 4.2.6.8 and 6.1.1.4)
;
O O 0.0106 0.0060
;
International Tables for Crystallography
(Vol. C, Tables 4.2.6.8 and 6.1.1.4)
;
Zn Zn 0.2839 1.4301
;
International Tables for Crystallography
(Vol. C, Tables 4.2.6.8 and 6.1.1.4)
;
loop_
_geom_angle_atom_site_label_1
_geom_angle_atom_site_label_2
_geom_angle_atom_site_label_3
_geom_angle
_geom_angle_site_symmetry_1
_geom_angle_site_symmetry_3
N2 Zn1 O2 103.6(3) . .
N2 Zn1 O3 103.6(8) . 2_666
O2 Zn1 O3 88.1(2) . 2_666
O2 Zn1 N3 103.6(3) . .
O3 Zn1 N3 104.9(9) 2_666 .
N2 Zn1 O4 97.5(8) . .
O2 Zn1 O4 88.1(2) . .
O3 Zn1 O4 158.89(19) 2_666 .
N3 Zn1 O4 96.2(9) . .
N2 Zn1 O1 97.8(3) . 2_666
O2 Zn1 O1 158.48(17) . 2_666
O3 Zn1 O1 88.23(18) 2_666 2_666
N3 Zn1 O1 97.9(3) . 2_666
O4 Zn1 O1 87.73(17) . 2_666
N2 Zn1 Zn1 167.9(5) . 2_666
O2 Zn1 Zn1 85.87(13) . 2_666
O3 Zn1 Zn1 83.96(13) 2_666 2_666
N3 Zn1 Zn1 167.1(7) . 2_666
O4 Zn1 Zn1 75.05(12) . 2_666
O1 Zn1 Zn1 72.66(11) 2_666 2_666
C1 O1 Zn1 135.7(3) . 2_666
C1 O2 Zn1 119.6(3) . .
C8 O3 Zn1 121.4(3) . 2_666
C8 O4 Zn1 132.9(3) . .
O1 C1 O2 125.9(4) . .
O1 C1 C2 117.1(5) . .
O2 C1 C2 116.9(5) . .
C7 C2 C3 119.3(6) . .
C7 C2 C1 121.0(6) . .
C3 C2 C1 118.2(6) . .
C4 C3 C2 120.2(9) . .
C4 C3 H3 119.9 . .
C2 C3 H3 119.9 . .
C3 C4 C5 115.8(10) . .
C3 C4 H4 122.1 . .
C5 C4 H4 122.1 . .
C6 C5 C5 119.9(7) . 2_556
C6 C5 C4 118.9(6) . .
C5 C5 C4 119.5(8) 2_556 .
C7 C6 C5 120.8(6) . .
C7 C6 H6 119.6 . .
C5 C6 H6 119.6 . .
C6 C7 C2 121.3(6) . .
C6 C7 H7 119.3 . .
C2 C7 H7 119.3 . .
O4 C8 O3 126.5(4) . .
O4 C8 C9 116.9(5) . .
O3 C8 C9 116.6(5) . .
C14 C9 C10 118.5(4) . .
C14 C9 C8 120.6(5) . .
C10 C9 C8 120.9(5) . .
C9 C10 C11 120.8(6) . .
C9 C10 H10 119.6 . .
C11 C10 H10 119.6 . .
C12 C11 C10 120.7(6) . .
C12 C11 H11 119.7 . .
C10 C11 H11 119.7 . .
C13 C12 C11 118.6(4) . .
C13 C12 C12 120.7(7) . 2_567
C11 C12 C12 120.7(7) . 2_567
C12 C13 C14 120.6(6) . .
C12 C13 H13 119.7 . .
C14 C13 H13 119.7 . .
C9 C14 C13 120.8(6) . .
C9 C14 H14 119.6 . .
C13 C14 H14 119.6 . .
C33 N3 C37 121.3(14) . .
C33 N3 Zn1 122.2(10) . .
C37 N3 Zn1 116.4(11) . .
N3 C33 C34 119.2(12) . .
N3 C33 H33 120.4 . .
C34 C33 H33 120.4 . .
C33 C34 C35 121.0(10) . .
C33 C34 H34 119.5 . .
C35 C34 H34 119.5 . .
C36 C35 C34 117.4(9) . .
C36 C35 C38 117.6(10) . .
C34 C35 C38 125.0(10) . .
C35 C36 C37 119.0(10) . .
C35 C36 H36 120.5 . .
C37 C36 H36 120.5 . .
N3 C37 C36 119.5(12) . .
N3 C37 H37 120.3 . .
C36 C37 H37 120.3 . .
C35 C38 C39 118.2(10) . .
C35 C38 C41 115.4(13) . 2_757
C39 C38 C41 90.3(10) . 2_757
C35 C38 H38 110.5 . .
C39 C38 H38 110.5 . .
C41 C38 H38 110.5 2_757 .
C40 C39 C38 115.3(9) . .
C40 C39 C40 72.2(11) . 2_757
C38 C39 C40 89.2(10) . 2_757
C40 C39 H39 121.2 . .
C38 C39 H39 121.2 . .
C40 C39 H39 121.2 2_757 .
C45 C40 C39 116.8(13) . .
C45 C40 C41 112.2(12) . .
C39 C40 C41 106.8(10) . .
C45 C40 C39 119.5(14) . 2_757
C39 C40 C39 107.8(11) . 2_757
C41 C40 C39 90.1(10) . 2_757
C42 C41 C40 118.9(13) . .
C42 C41 C38 115.4(11) . 2_757
C40 C41 C38 88.9(9) . 2_757
C42 C41 H41 110.6 . .
C40 C41 H41 110.6 . .
C38 C41 H41 110.6 2_757 .
C43 C42 C41 122.2(15) . .
C43 C42 H42 118.9 . .
C41 C42 H42 118.9 . .
C42 C43 C44 119.6(16) . .
C42 C43 H43 120.2 . .
C44 C43 H43 120.2 . .
C43 C44 C45 123.2(16) . .
C43 C44 H44 118.4 . .
C45 C44 H44 118.4 . .
C44 C45 C40 123.1(16) . .
C44 C45 H45 118.4 . .
C40 C45 H45 118.4 . .
C15 N1 C16 115.5(9) . .
C15 N1 C18 126.2(9) . .
C16 N1 C18 117.7(8) . .
O5 C15 N1 131.2(10) . .
O5 C15 H15 114.4 . .
N1 C15 H15 114.4 . .
C17 C16 N1 113.6(10) . .
C17 C16 H16A 108.8 . .
N1 C16 H16A 108.8 . .
C17 C16 H16B 108.8 . .
N1 C16 H16B 108.8 . .
H16A C16 H16B 107.7 . .
C16 C17 H17A 109.5 . .
C16 C17 H17B 109.5 . .
H17A C17 H17B 109.5 . .
C16 C17 H17C 109.5 . .
H17A C17 H17C 109.5 . .
H17B C17 H17C 109.5 . .
C19 C18 N1 114.7(9) . .
C19 C18 H18A 108.6 . .
N1 C18 H18A 108.6 . .
C19 C18 H18B 108.6 . .
N1 C18 H18B 108.6 . .
H18A C18 H18B 107.6 . .
C18 C19 H19A 109.5 . .
C18 C19 H19B 109.5 . .
H19A C19 H19B 109.5 . .
C18 C19 H19C 109.5 . .
H19A C19 H19C 109.5 . .
H19B C19 H19C 109.5 . .
C24 N2 C20 110.4(14) . .
C24 N2 Zn1 125.0(10) . .
C20 N2 Zn1 124.6(9) . .
C30 C31 C32 119.5(16) . .
C30 C31 H31 120.2 . .
C32 C31 H31 120.2 . .
N2 C20 C21 128.4(14) . .
N2 C20 H20 115.8 . .
C21 C20 H20 115.8 . .
C22 C21 C20 117.3(13) . .
C22 C21 H21 121.3 . .
C20 C21 H21 121.3 . .
C23 C22 C21 116.8(12) . .
C23 C22 C25 115.6(12) . .
C21 C22 C25 127.6(12) . .
C22 C23 C24 120.0(13) . .
C22 C23 H23 120.0 . .
C24 C23 H23 120.0 . .
C27 C32 C31 119.1(14) . .
C27 C32 H32 120.5 . .
C31 C32 H32 120.5 . .
N2 C24 C23 125.1(16) . .
N2 C24 H24 117.4 . .
C23 C24 H24 117.4 . .
C26 C25 C22 116.9(19) . .
C26 C25 H25 121.6 . .
C22 C25 H25 121.6 . .
C25 C26 C27 120(2) . .
C25 C26 H26 120.1 . .
C27 C26 H26 120.1 . .
C32 C27 C28 119.3(13) . .
C32 C27 C26 117.6(13) . .
C28 C27 C26 119.5(15) . .
C27 C28 C29 123.2(16) . .
C27 C28 H28 118.4 . .
C29 C28 H28 118.4 . .
C30 C29 C28 115.4(18) . .
C30 C29 H29 122.3 . .
C28 C29 H29 122.3 . .
C29 C30 C31 122.7(18) . .
C29 C30 H30 118.6 . .
C31 C30 H30 118.6 . .
loop_
_geom_bond_atom_site_label_1
_geom_bond_atom_site_label_2
_geom_bond_distance
_geom_bond_site_symmetry_2
Zn1 N2 2.004(11) .
Zn1 O2 2.027(4) .
Zn1 O3 2.037(3) 2_666
Zn1 N3 2.042(13) .
Zn1 O4 2.043(3) .
Zn1 O1 2.060(3) 2_666
Zn1 Zn1 2.9755(10) 2_666
O1 C1 1.243(7) .
O1 Zn1 2.060(3) 2_666
O2 C1 1.246(7) .
O3 C8 1.254(7) .
O3 Zn1 2.037(3) 2_666
O4 C8 1.251(7) .
C1 C2 1.510(6) .
C2 C7 1.378(9) .
C2 C3 1.480(13) .
C3 C4 1.381(12) .
C3 H3 0.9500 .
C4 C5 1.532(13) .
C4 H4 0.9500 .
C5 C6 1.382(9) .
C5 C5 1.497(10) 2_556
C6 C7 1.377(7) .
C6 H6 0.9500 .
C7 H7 0.9500 .
C8 C9 1.506(6) .
C9 C14 1.379(9) .
C9 C10 1.384(9) .
C10 C11 1.395(6) .
C10 H10 0.9500 .
C11 C12 1.389(9) .
C11 H11 0.9500 .
C12 C13 1.378(9) .
C12 C12 1.511(8) 2_567
C13 C14 1.406(7) .
C13 H13 0.9500 .
C14 H14 0.9500 .
N3 C33 1.326(18) .
N3 C37 1.354(16) .
C33 C34 1.385(9) .
C33 H33 0.9500 .
C34 C35 1.394(9) .
C34 H34 0.9500 .
C35 C36 1.387(9) .
C35 C38 1.500(17) .
C36 C37 1.387(9) .
C36 H36 0.9500 .
C37 H37 0.9500 .
C38 C39 1.569(9) .
C38 C41 1.59(3) 2_757
C38 H38 1.0000 .
C39 C40 1.553(9) .
C39 C40 1.587(10) 2_757
C39 H39 1.0000 .
C40 C45 1.48(2) .
C40 C41 1.577(9) .
C40 C39 1.587(10) 2_757
C41 C42 1.464(16) .
C41 C38 1.59(3) 2_757
C41 H41 1.0000 .
C42 C43 1.386(10) .
C42 H42 0.9500 .
C43 C44 1.392(10) .
C43 H43 0.9500 .
C44 C45 1.410(9) .
C44 H44 0.9500 .
C45 H45 0.9500 .
O5 C15 1.207(14) .
N1 C15 1.354(14) .
N1 C16 1.524(9) .
N1 C18 1.578(10) .
C15 H15 0.9500 .
C16 C17 1.492(16) .
C16 H16A 0.9900 .
C16 H16B 0.9900 .
C17 H17A 0.9800 .
C17 H17B 0.9800 .
C17 H17C 0.9800 .
C18 C19 1.529(16) .
C18 H18A 0.9900 .
C18 H18B 0.9900 .
C19 H19A 0.9800 .
C19 H19B 0.9800 .
C19 H19C 0.9800 .
N2 C24 1.361(10) .
N2 C20 1.363(10) .
C31 C30 1.389(10) .
C31 C32 1.391(9) .
C31 H31 0.9500 .
C20 C21 1.391(9) .
C20 H20 0.9500 .
C21 C22 1.382(9) .
C21 H21 0.9500 .
C22 C23 1.379(9) .
C22 C25 1.49(2) .
C23 C24 1.383(9) .
C23 H23 0.9500 .
C32 C27 1.385(9) .
C32 H32 0.9500 .
C24 H24 0.9500 .
C25 C26 1.15(3) .
C25 H25 0.9500 .
C26 C27 1.48(3) .
C26 H26 0.9500 .
C27 C28 1.388(9) .
C28 C29 1.388(10) .
C28 H28 0.9500 .
C29 C30 1.384(10) .
C29 H29 0.9500 .
C30 H30 0.9500 .
loop_
_geom_torsion_atom_site_label_1
_geom_torsion_atom_site_label_2
_geom_torsion_atom_site_label_3
_geom_torsion_atom_site_label_4
_geom_torsion
_geom_torsion_site_symmetry_1
_geom_torsion_site_symmetry_4
Zn1 O1 C1 O2 7.8(10) 2_666 .
Zn1 O1 C1 C2 -171.0(4) 2_666 .
Zn1 O2 C1 O1 -4.3(9) . .
Zn1 O2 C1 C2 174.5(4) . .
O1 C1 C2 C7 -1.8(10) . .
O2 C1 C2 C7 179.3(7) . .
O1 C1 C2 C3 164.3(6) . .
O2 C1 C2 C3 -14.6(9) . .
C7 C2 C3 C4 -8.4(10) . .
C1 C2 C3 C4 -174.7(8) . .
C2 C3 C4 C5 -7.4(11) . .
C3 C4 C5 C6 20.0(12) . .
C3 C4 C5 C5 -174.8(9) . 2_556
C5 C5 C6 C7 177.9(9) 2_556 .
C4 C5 C6 C7 -17.0(12) . .
C5 C6 C7 C2 0.5(13) . .
C3 C2 C7 C6 12.6(11) . .
C1 C2 C7 C6 178.5(7) . .
Zn1 O4 C8 O3 5.4(9) . .
Zn1 O4 C8 C9 -174.0(3) . .
Zn1 O3 C8 O4 -1.2(8) 2_666 .
Zn1 O3 C8 C9 178.2(3) 2_666 .
O4 C8 C9 C14 173.7(6) . .
O3 C8 C9 C14 -5.7(8) . .
O4 C8 C9 C10 -5.5(8) . .
O3 C8 C9 C10 175.0(5) . .
C14 C9 C10 C11 -0.6(9) . .
C8 C9 C10 C11 178.7(5) . .
C9 C10 C11 C12 0.4(9) . .
C10 C11 C12 C13 -0.5(9) . .
C10 C11 C12 C12 179.7(6) . 2_567
C11 C12 C13 C14 0.7(11) . .
C12 C12 C13 C14 -179.4(7) 2_567 .
C10 C9 C14 C13 0.8(11) . .
C8 C9 C14 C13 -178.5(6) . .
C12 C13 C14 C9 -0.9(12) . .
C37 N3 C33 C34 3(4) . .
Zn1 N3 C33 C34 -172.5(17) . .
N3 C33 C34 C35 8(3) . .
C33 C34 C35 C36 -5(2) . .
C33 C34 C35 C38 173.4(17) . .
C34 C35 C36 C37 -8(3) . .
C38 C35 C36 C37 173.8(19) . .
C33 N3 C37 C36 -16(4) . .
Zn1 N3 C37 C36 159.8(18) . .
C35 C36 C37 N3 18(3) . .
C36 C35 C38 C39 -171.2(14) . .
C34 C35 C38 C39 10(2) . .
C36 C35 C38 C41 83.6(16) . 2_757
C34 C35 C38 C41 -94.8(17) . 2_757
C35 C38 C39 C40 -180.0(15) . .
C41 C38 C39 C40 -60.7(14) 2_757 .
C35 C38 C39 C40 -110.1(15) . 2_757
C41 C38 C39 C40 9.2(10) 2_757 2_757
C38 C39 C40 C45 -57(2) . .
C40 C39 C40 C45 -137.8(18) 2_757 .
C38 C39 C40 C41 176.0(11) . .
C40 C39 C40 C41 95.7(12) 2_757 .
C38 C39 C40 C39 80.4(13) . 2_757
C40 C39 C40 C39 0.001(1) 2_757 2_757
C45 C40 C41 C42 -5.7(19) . .
C39 C40 C41 C42 123.5(14) . .
C39 C40 C41 C42 -127.8(13) 2_757 .
C45 C40 C41 C38 113.0(15) . 2_757
C39 C40 C41 C38 -117.8(12) . 2_757
C39 C40 C41 C38 -9.1(10) 2_757 2_757
C40 C41 C42 C43 10(2) . .
C38 C41 C42 C43 -94.0(18) 2_757 .
C41 C42 C43 C44 -7(3) . .
C42 C43 C44 C45 1(3) . .
C43 C44 C45 C40 3(3) . .
C39 C40 C45 C44 -124(2) . .
C41 C40 C45 C44 0(3) . .
C39 C40 C45 C44 103(2) 2_757 .
C16 N1 C15 O5 -11(3) . .
C18 N1 C15 O5 160.5(15) . .
C15 N1 C16 C17 -97.3(13) . .
C18 N1 C16 C17 90.4(12) . .
C15 N1 C18 C19 -96.5(15) . .
C16 N1 C18 C19 74.9(13) . .
C24 N2 C20 C21 1(3) . .
Zn1 N2 C20 C21 -177.3(14) . .
N2 C20 C21 C22 -5(3) . .
C20 C21 C22 C23 -2.1(19) . .
C20 C21 C22 C25 178.9(15) . .
C21 C22 C23 C24 12(2) . .
C25 C22 C23 C24 -168.5(18) . .
C30 C31 C32 C27 -3(3) . .
C20 N2 C24 C23 11(3) . .
Zn1 N2 C24 C23 -171.3(16) . .
C22 C23 C24 N2 -18(3) . .
C23 C22 C25 C26 176(2) . .
C21 C22 C25 C26 -5(3) . .
C22 C25 C26 C27 174.2(18) . .
C31 C32 C27 C28 1(3) . .
C31 C32 C27 C26 160(2) . .
C25 C26 C27 C32 -171(2) . .
C25 C26 C27 C28 -13(4) . .
C32 C27 C28 C29 -4(3) . .
C26 C27 C28 C29 -162(2) . .
C27 C28 C29 C30 8(3) . .
C28 C29 C30 C31 -9(4) . .
C32 C31 C30 C29 7(4) . .
