#------------------------------------------------------------------------------
#$Date: 2019-11-03 12:49:25 +0200 (Sun, 03 Nov 2019) $
#$Revision: 221441 $
#$URL: file:///home/coder/svn-repositories/cod/cif/4/12/83/4128318.cif $
#------------------------------------------------------------------------------
#
# This file is available in the Crystallography Open Database (COD),
# http://www.crystallography.net/
#
# All data on this site have been placed in the public domain by the
# contributors.
#
data_4128318
loop_
_publ_author_name
'Kusaka, Shinpei'
'Kiyose, Atsushi'
'Sato, Hiroshi'
'Hijikata, Yuh'
'Hori, Akihiro'
'Ma, Yunsheng'
'Matsuda, Ryotaro'
_publ_section_title
;
 Dynamic Topochemical Reaction Tuned by Guest Molecules in the Nanospace
 of a Metal-Organic Framework.
;
_journal_issue                   40
_journal_name_full               'Journal of the American Chemical Society'
_journal_page_first              15742
_journal_page_last               15746
_journal_paper_doi               10.1021/jacs.9b07682
_journal_volume                  141
_journal_year                    2019
_chemical_formula_moiety         'C27 H19 N O4 Zn'
_chemical_formula_sum            'C27.41 H19.41 N O4 Zn'
_chemical_formula_weight         492.14
_space_group_crystal_system      triclinic
_space_group_IT_number           2
_space_group_name_Hall           '-P 1'
_space_group_name_H-M_alt        'P -1'
_symmetry_space_group_name_Hall  '-P 1'
_symmetry_space_group_name_H-M   'P -1'
_atom_sites_solution_hydrogens   geom
_audit_creation_date             2018-07-17
_audit_creation_method
;
Olex2 1.2
(compiled 2018.05.29 svn.r3508 for OlexSys, GUI svn.r5506)
;
_cell_angle_alpha                88.301(5)
_cell_angle_beta                 86.590(5)
_cell_angle_gamma                80.201(5)
_cell_formula_units_Z            2
_cell_length_a                   9.8030(6)
_cell_length_b                   9.8836(6)
_cell_length_c                   11.8009(8)
_cell_measurement_reflns_used    5976
_cell_measurement_temperature    93
_cell_measurement_theta_max      27.18
_cell_measurement_theta_min      2.09
_cell_volume                     1124.48(12)
_computing_cell_refinement       'CrysAlisPro 1.171.39.9b (Rigaku OD, 2015)'
_computing_data_collection       'CrysAlisPro 1.171.39.9b (Rigaku OD, 2015)'
_computing_data_reduction        'CrysAlisPro 1.171.39.9b (Rigaku OD, 2015)'
_computing_molecular_graphics    'Olex2 (Dolomanov et al., 2009)'
_computing_publication_material  'Olex2 (Dolomanov et al., 2009)'
_computing_structure_refinement  'ShelXL (Sheldrick, 2015)'
_computing_structure_solution    'SHELXT Version 2014/5 (Sheldrick, 2014)'
_diffrn_ambient_temperature      93.15
_diffrn_detector_area_resol_mean 5.811
_diffrn_measured_fraction_theta_full 1.000
_diffrn_measured_fraction_theta_max 0.878
_diffrn_measurement_device_type  'Rigaku XtaLAB P200'
_diffrn_measurement_method       \w
_diffrn_radiation_type           MoK\a
_diffrn_radiation_wavelength     0.71075
_diffrn_reflns_av_R_equivalents  0.0476
_diffrn_reflns_av_unetI/netI     0.0548
_diffrn_reflns_Laue_measured_fraction_full 1.000
_diffrn_reflns_Laue_measured_fraction_max 0.878
_diffrn_reflns_limit_h_max       13
_diffrn_reflns_limit_h_min       -13
_diffrn_reflns_limit_k_max       13
_diffrn_reflns_limit_k_min       -13
_diffrn_reflns_limit_l_max       16
_diffrn_reflns_limit_l_min       -15
_diffrn_reflns_number            20299
_diffrn_reflns_point_group_measured_fraction_full 1.000
_diffrn_reflns_point_group_measured_fraction_max 0.878
_diffrn_reflns_theta_full        25.242
_diffrn_reflns_theta_max         30.327
_diffrn_reflns_theta_min         2.092
_exptl_absorpt_coefficient_mu    1.127
_exptl_absorpt_correction_T_max  1.000
_exptl_absorpt_correction_T_min  0.918
_exptl_absorpt_correction_type   multi-scan
_exptl_absorpt_process_details
;
CrysAlisPro 1.171.39.9b (Rigaku Oxford Diffraction, 2015)
Empirical absorption correction using spherical harmonics,
 implemented in SCALE3 ABSPACK scaling algorithm.
;
_exptl_crystal_colour            nONE
_exptl_crystal_density_diffrn    1.453
_exptl_crystal_density_method    'not measured'
_exptl_crystal_description       nONE
_exptl_crystal_F_000             506
_refine_diff_density_max         1.789
_refine_diff_density_min         -0.427
_refine_diff_density_rms         0.131
_refine_ls_extinction_method     none
_refine_ls_goodness_of_fit_ref   1.045
_refine_ls_hydrogen_treatment    constr
_refine_ls_matrix_type           full
_refine_ls_number_parameters     377
_refine_ls_number_reflns         5915
_refine_ls_number_restraints     220
_refine_ls_restrained_S_all      1.051
_refine_ls_R_factor_all          0.1089
_refine_ls_R_factor_gt           0.0784
_refine_ls_shift/su_max          0.000
_refine_ls_shift/su_mean         0.000
_refine_ls_structure_factor_coef Fsqd
_refine_ls_weighting_details
'w=1/[\s^2^(Fo^2^)+(0.1365P)^2^+1.4910P] where P=(Fo^2^+2Fc^2^)/3'
_refine_ls_weighting_scheme      calc
_refine_ls_wR_factor_gt          0.2040
_refine_ls_wR_factor_ref         0.2269
_reflns_Friedel_coverage         0.000
_reflns_number_gt                4206
_reflns_number_total             5915
_reflns_threshold_expression     'I > 2\s(I)'
_cod_data_source_file            ja9b07682_si_003.cif
_cod_data_source_block           xcalibur
_cod_database_code               4128318
_shelx_shelxl_version_number     2014/7
_shelx_space_group_comment
;
The symmetry employed for this shelxl refinement is uniquely defined
by the following loop, which should always be used as a source of
symmetry information in preference to the above space-group names.
They are only intended as comments.
;
_olex2_refinement_description
;
1. Fixed Uiso
 At 1.2 times of:
  All C(H) groups
2. Restrained distances
 C40-C41
 1.58 with sigma of 0.01
 C41-C40_$1
 1.58 with sigma of 0.01
 C39-C40 = C41-C42
 1.51 with sigma of 0.02
3. Uiso/Uaniso restraints and constraints
C52 \\sim C55 \\sim C51 \\sim C56 \\sim C50 \\sim C53 \\sim C57 \\sim C58 \\sim
C59 \\sim C60 \\sim C61 \\sim C62 \\sim C63 \\sim N35: within 1.7A with sigma
of 0.04 and sigma for terminal atoms of 0.08
C39 \\sim C41 \\sim C40 \\sim C36 \\sim C35 \\sim N34 \\sim C42 \\sim C43 \\sim
C44 \\sim C45 \\sim C46 \\sim C47 \\sim C38 \\sim C37: within 1.7A with sigma
of 0.04 and sigma for terminal atoms of 0.08
4. Rigid body (RIGU) restrains
 N34, C35, C36, C39, C38, C37
 with sigma for 1-2 distances of 0.004 and sigma for 1-3 distances of 0.004
5. Others
 Sof(C55)=Sof(H55)=Sof(C51)=Sof(H51)=Sof(C50)=Sof(H50)=Sof(N35)=Sof(C63)=
 Sof(H63)=Sof(C53)=Sof(H53)=Sof(C52)=Sof(C56)=Sof(H56)=Sof(C57)=Sof(C58)=
 Sof(H58)=Sof(C59)=Sof(H59)=Sof(C60)=Sof(H60)=Sof(C61)=Sof(H61)=Sof(C62)=
 Sof(H62)=1-FVAR(1)
 Sof(C39)=Sof(C36)=Sof(H36)=Sof(C35)=Sof(H35)=Sof(N34)=Sof(C37)=Sof(H37)=
 Sof(C38)=Sof(H38)=Sof(C41)=Sof(H41)=Sof(C40)=Sof(H40)=Sof(C42)=Sof(C43)=
 Sof(H43)=Sof(C44)=Sof(H44)=Sof(C45)=Sof(H45)=Sof(C46)=Sof(H46)=Sof(C47)=
 Sof(H47)=FVAR(1)
6.a Ternary CH refined with riding coordinates:
 C41(H41), C40(H40)
6.b Aromatic/amide H refined with riding coordinates:
 C18(H18), C19(H19), C16(H16), C11(H11), C8(H8), C12(H12), C15(H15), C9(H9),
 C36(H36), C35(H35), C37(H37), C38(H38), C43(H43), C44(H44), C45(H45), C46(H46),
  C47(H47), C55(H55), C51(H51), C50(H50), C63(H63), C53(H53), C56(H56),
 C58(H58), C59(H59), C60(H60), C61(H61), C62(H62)
6.c Fitted hexagon refined as free rotating group:
 C39(C36,C35,N34,C37,C38), C42(C43,C44,C45,C46,C47), C51(C50,N35,C63,C53,C52),
 C57(C58,C59,C60,C61,C62)
;
_shelx_res_file
;
    xcalibur.res created by SHELXL-2014/7

TITL xcalibur
CELL 0.71075 9.803 9.8836 11.8009 88.301 86.59 80.201
ZERR 2 0.0006 0.0006 0.0008 0.005 0.005 0.005
LATT 1
SFAC C H O N Zn
UNIT 54.82 38.82 8 2 2
EQIV $1 -X,1-Y,2-Z
DFIX 1.58 0.01 C40 C41
DFIX 1.58 0.01 C41 C40_$1
DFIX 1.51 C39 C40 C41 C42
SIMU 0.04 0.08 1.7 C52 C55 C51 C56 C50 C53 C57 C58 C59 C60 C61 C62 C63 N35
SIMU 0.04 0.08 1.7 C39 C41 C40 C36 C35 N34 C42 C43 C44 C45 C46 C47 C38 C37
RIGU N34 C35 C36 C39 C38 C37

L.S. 70
PLAN  99
TEMP -180
FREE C41 C41_$1
FREE C40 C40_$1
WPDB -2
HTAB
BOND $H
CONF
LIST 4
fmap 2
acta
REM <olex2.extras>
REM <HklSrc "%.\\xcalibur.hkl">
REM </olex2.extras>

WGHT    0.136500    1.491000
FVAR       0.99766   0.64664
ZN1   5    0.395281    0.101090    0.563090    11.00000    0.04671    0.02195 =
         0.03444    0.00004    0.01626   -0.00593
O3    3    0.576749    0.170270    0.574062    11.00000    0.05310    0.05124 =
         0.07419   -0.01805    0.02256   -0.02555
O4    3    0.259841   -0.020700    0.518276    11.00000    0.05571    0.02931 =
         0.07656   -0.00640    0.01246   -0.01525
O2    3    0.386693    0.201947    0.410361    11.00000    0.08242    0.03327 =
         0.04082    0.00646    0.01866   -0.00667
O5    3    0.454901   -0.050193    0.680265    11.00000    0.06467    0.05177 =
         0.05243    0.02066    0.01927    0.00972
C13   1    0.696141    0.135456    0.526359    11.00000    0.05566    0.03306 =
         0.05330   -0.00117    0.00845   -0.01485
C17   1    0.956464    0.445608    0.503191    11.00000    0.04816    0.02558 =
         0.09039   -0.00807    0.01267   -0.00896
C6    1    0.466632    0.162741    0.326606    11.00000    0.05399    0.03813 =
         0.04257    0.01129    0.00959   -0.00296
C18   1    1.006526    0.313205    0.470606    11.00000    0.04207    0.03378 =
         0.14213   -0.01745    0.02405   -0.00523
AFIX  43
H18   2    1.099692    0.290588    0.441118    11.00000   -1.20000
AFIX   0
C10   1    0.494891    0.450388    0.048253    11.00000    0.07710    0.04219 =
         0.04410    0.01657    0.01743    0.00492
C7    1    0.476696    0.261963    0.228994    11.00000    0.06443    0.04149 =
         0.04167    0.01324    0.01201   -0.00046
C19   1    0.924280    0.211898    0.479754    11.00000    0.05010    0.02559 =
         0.12993   -0.01456    0.01512   -0.00764
AFIX  43
H19   2    0.962464    0.121133    0.457394    11.00000   -1.20000
AFIX   0
C16   1    0.820248    0.473353    0.541946    11.00000    0.05776    0.03682 =
         0.18647   -0.03912    0.04976   -0.01596
AFIX  43
H16   2    0.780830    0.564208    0.563233    11.00000   -1.20000
AFIX   0
C11   1    0.431926    0.487743    0.148063    11.00000    0.22531    0.03233 =
         0.04890    0.00812    0.04861   -0.01024
AFIX  43
H11   2    0.391790    0.581259    0.158840    11.00000   -1.20000
AFIX   0
C8    1    0.542586    0.224359    0.130722    11.00000    0.24934    0.06855 =
         0.09062    0.05198    0.10686    0.08097
AFIX  43
H8    2    0.584430    0.131086    0.121265    11.00000   -1.20000
AFIX   0
C12   1    0.423222    0.394663    0.236339    11.00000    0.24185    0.03746 =
         0.04924    0.00477    0.06326   -0.01540
AFIX  43
H12   2    0.376778    0.426805    0.305831    11.00000   -1.20000
AFIX   0
C15   1    0.739202    0.371697    0.550638    11.00000    0.06189    0.04849 =
         0.18820   -0.05077    0.05955   -0.02406
AFIX  43
H15   2    0.645454    0.394402    0.578683    11.00000   -1.20000
AFIX   0
C9    1    0.552406    0.317591    0.040658    11.00000    0.27529    0.07555 =
         0.08075    0.04571    0.10798    0.08620
AFIX  43
H9    2    0.601289    0.286025   -0.028061    11.00000   -1.20000
AFIX   0
C14   1    0.789209    0.240377    0.520391    11.00000    0.05112    0.02639 =
         0.06800   -0.00522    0.00949   -0.01093
PART 1
AFIX  66
C39   1    0.092915    0.386284    0.825100    21.00000    0.08927    0.14252 =
         0.09474   -0.08453    0.04082   -0.01677
C36   1    0.064926    0.259488    0.794477    21.00000    0.09961    0.15077 =
         0.14920   -0.10742    0.08515   -0.02998
AFIX  43
H36   2   -0.016001    0.228001    0.825436    21.00000   -1.20000
AFIX  65
C35   1    0.155342    0.178763    0.718558    21.00000    0.07669    0.11901 =
         0.09061   -0.06019    0.06262   -0.01760
AFIX  43
H35   2    0.136212    0.092104    0.697629    21.00000   -1.20000
AFIX  65
N34   4    0.273751    0.224833    0.673260    21.00000    0.03780    0.04774 =
         0.02351   -0.00708    0.01067    0.02466
C37   1    0.301742    0.351629    0.703882    21.00000    0.08082    0.06268 =
         0.06072   -0.02467    0.02355    0.00688
AFIX  43
H37   2    0.382669    0.383115    0.672923    21.00000   -1.20000
AFIX  65
C38   1    0.211326    0.432355    0.779801    21.00000    0.07614    0.11059 =
         0.08781   -0.05596    0.02368    0.01010
AFIX  43
H38   2    0.230457    0.519015    0.800730    21.00000   -1.20000
AFIX   0
C41   1    0.053040    0.585074    0.966595    21.00000    0.15925    0.31637 =
         0.17311   -0.17330    0.13388   -0.14927
AFIX  13
H41   2    0.156514    0.566501    0.956732    21.00000   -1.20000
AFIX   0
C40   1   -0.007169    0.466277    0.912438    21.00000    0.14650    0.24558 =
         0.12508   -0.12281    0.08728   -0.02143
AFIX  13
H40   2   -0.092554    0.508117    0.873453    21.00000   -1.20000
AFIX  66
C42   1    0.002963    0.722597    0.930555    21.00000    0.33784    0.28440 =
         0.08285   -0.10249    0.07989   -0.24268
C43   1    0.094594    0.812470    0.901223    21.00000    0.43530    0.34219 =
         0.25592    0.02624    0.03604   -0.25264
AFIX  43
H43   2    0.189774    0.787763    0.916487    21.00000   -1.20000
AFIX  65
C44   1    0.046961    0.938495    0.849558    21.00000    0.50400    0.35978 =
         0.36018    0.08614   -0.01548   -0.22877
AFIX  43
H44   2    0.109587    0.999919    0.829511    21.00000   -1.20000
AFIX  65
C45   1   -0.092302    0.974646    0.827224    21.00000    0.47427    0.34783 =
         0.33730    0.08942    0.01057   -0.30974
AFIX  43
H45   2   -0.124856    1.060778    0.791913    21.00000   -1.20000
AFIX  65
C46   1   -0.183934    0.884774    0.856555    21.00000    0.49942    0.27905 =
         0.25910    0.02315   -0.04142   -0.28497
AFIX  43
H46   2   -0.279114    0.909482    0.841290    21.00000   -1.20000
AFIX  65
C47   1   -0.136304    0.758749    0.908220    21.00000    0.44415    0.27927 =
         0.12580   -0.02908   -0.02564   -0.26424
AFIX  43
H47   2   -0.198930    0.697325    0.928267    21.00000   -1.20000
AFIX   0

PART 0
PART 2
C55   1    0.014221    0.557458    0.836814   -21.00000    0.11015    0.08482 =
         0.11731   -0.05271    0.01318    0.00152
AFIX  43
H55   2   -0.048527    0.529616    0.893714   -21.00000   -1.20000
AFIX  66

C51   1    0.063577    0.327629    0.779648   -21.00000    0.05537    0.02809 =
         0.16053   -0.03264    0.00423    0.00281
AFIX  43
H51   2   -0.020746    0.314230    0.818800   -21.00000   -1.20000
AFIX  65
C50   1    0.139169    0.223555    0.713710   -21.00000    0.08810    0.03403 =
         0.12230   -0.01480   -0.00943   -0.01945
AFIX  43
H50   2    0.106510    0.139026    0.707797   -21.00000   -1.20000
AFIX  65
N35   4    0.262546    0.243159    0.656425   -21.00000    0.12482    0.05288 =
         0.06248    0.00818   -0.04340   -0.03547
C63   1    0.310331    0.366837    0.665076   -21.00000    0.11380    0.07157 =
         0.11633   -0.05110   -0.01100    0.02026
AFIX  43
H63   2    0.394654    0.380235    0.625924   -21.00000   -1.20000
AFIX  65
C53   1    0.234740    0.470912    0.731014   -21.00000    0.07482    0.07951 =
         0.13779   -0.02907    0.02042   -0.00311
AFIX  43
H53   2    0.267401    0.555440    0.736926   -21.00000   -1.20000
AFIX  65
C52   1    0.111363    0.451310    0.788300   -21.00000    0.07328    0.04100 =
         0.15361   -0.02246   -0.01133   -0.00846
AFIX   0

C56   1   -0.003164    0.698927    0.813024   -21.00000    0.13630    0.07044 =
         0.10044   -0.02017    0.02330   -0.02699
AFIX  43
H56   2    0.065750    0.731159    0.764475   -21.00000   -1.20000
AFIX  66

C57   1   -0.110918    0.794194    0.853844   -21.00000    0.11123    0.08096 =
         0.13379   -0.03410    0.03340    0.01446
C58   1   -0.140801    0.911573    0.785879   -21.00000    0.11976    0.10360 =
         0.05376   -0.00300    0.02414   -0.02604
AFIX  43
H58   2   -0.088523    0.919930    0.716379   -21.00000   -1.20000
AFIX  65
C59   1   -0.247173    1.016724    0.819600   -21.00000    0.10128    0.05829 =
         0.04687   -0.00410   -0.00050    0.00209
AFIX  43
H59   2   -0.267596    1.096947    0.773148   -21.00000   -1.20000
AFIX  65
C60   1   -0.323663    1.004497    0.921288   -21.00000    0.20510    0.15619 =
         0.12901   -0.00665   -0.04479    0.04480
AFIX  43
H60   2   -0.396364    1.076364    0.944335   -21.00000   -1.20000
AFIX  65
C61   1   -0.293783    0.887120    0.989256   -21.00000    0.19320    0.10779 =
         0.14349   -0.02040   -0.00435    0.06981
AFIX  43
H61   2   -0.346061    0.878764    1.058755   -21.00000   -1.20000
AFIX  65
C62   1   -0.187410    0.781968    0.955535   -21.00000    0.15346    0.08920 =
         0.05125   -0.01747    0.01977    0.01741
AFIX  43
H62   2   -0.166988    0.701745    1.001987   -21.00000   -1.20000
AFIX   0
HKLF 4

REM  xcalibur
REM R1 =  0.0784 for    4206 Fo > 4sig(Fo)  and  0.1089 for all    5915 data
REM    377 parameters refined using    220 restraints

END

WGHT      0.1365      1.6269

REM Instructions for potential hydrogen bonds
HTAB C35 O4
HTAB C63 O3

REM Highest difference peak  1.789,  deepest hole -0.427,  1-sigma level  0.131
Q1    1   0.3134  0.0870  0.5439  11.00000  0.05    1.79
Q2    1   0.4805  0.1225  0.5880  11.00000  0.05    1.71
Q3    1  -0.0289  0.8512  0.8197  11.00000  0.05    0.81
Q4    1  -0.0984  0.5382  0.9576  11.00000  0.05    0.75
Q5    1  -0.0820  0.3753  0.9228  11.00000  0.05    0.75
Q6    1  -0.3041  0.9142  0.8968  11.00000  0.05    0.74
Q7    1   0.1777  0.3015  0.6965  11.00000  0.05    0.71
Q8    1   0.5814  0.2313  0.1380  11.00000  0.05    0.62
Q9    1  -0.0159  0.6354  0.9150  11.00000  0.05    0.62
Q10   1   0.0659  0.6742  0.9427  11.00000  0.05    0.61
Q11   1  -0.1378  0.7134  0.8163  11.00000  0.05    0.60
Q12   1   0.5874  0.3356  0.0593  11.00000  0.05    0.60
Q13   1   0.4761  0.3048  0.0231  11.00000  0.05    0.60
Q14   1  -0.0877  0.7543  0.9145  11.00000  0.05    0.60
Q15   1   0.0502  0.3142  0.8538  11.00000  0.05    0.59
Q16   1   0.8615  0.4352  0.6074  11.00000  0.05    0.57
Q17   1   0.8132  0.4890  0.5154  11.00000  0.05    0.55
Q18   1   0.2532  0.2248  0.7055  11.00000  0.05    0.53
Q19   1  -0.0438  0.9198  0.9599  11.00000  0.05    0.52
Q20   1   0.7306  0.3841  0.5257  11.00000  0.05    0.51
Q21   1   0.1785  0.3111  0.8580  11.00000  0.05    0.51
Q22   1  -0.0251  0.7929  0.9051  11.00000  0.05    0.50
Q23   1  -0.0786  0.7914  0.7932  11.00000  0.05    0.50
Q24   1   0.8621  0.4726  0.5064  11.00000  0.05    0.49
Q25   1   0.3012  0.2226  0.7919  11.00000  0.05    0.49
Q26   1  -0.1373  1.0324  0.9246  11.00000  0.05    0.48
Q27   1   0.4589  0.2151  0.1218  11.00000  0.05    0.48
Q28   1   0.3671  0.3957  0.2441  11.00000  0.05    0.48
Q29   1   0.5198 -0.0183  0.7143  11.00000  0.05    0.47
Q30   1   0.3173 -0.0448  0.5593  11.00000  0.05    0.45
Q31   1   0.2811  0.3105  0.6880  11.00000  0.05    0.44
Q32   1   0.4676  0.1931  0.4246  11.00000  0.05    0.44
Q33   1   0.0260  0.2603  0.7344  11.00000  0.05    0.44
Q34   1   0.2846  0.2753  0.7721  11.00000  0.05    0.44
Q35   1   0.3548  0.1611  0.4155  11.00000  0.05    0.43
Q36   1   0.1333  0.7578  0.9172  11.00000  0.05    0.42
Q37   1   0.6223  0.1742  0.5571  11.00000  0.05    0.41
Q38   1  -0.2434  0.9955  0.8408  11.00000  0.05    0.40
Q39   1   0.0088  0.4405  0.9553  11.00000  0.05    0.39
Q40   1  -0.1056  0.9744  0.7745  11.00000  0.05    0.39
Q41   1   0.7230  0.1994  0.5024  11.00000  0.05    0.39
Q42   1   0.7668  0.3473  0.6151  11.00000  0.05    0.38
Q43   1  -0.3396  1.1555  0.7873  11.00000  0.05    0.37
Q44   1   0.4947 -0.0934  0.7004  11.00000  0.05    0.37
Q45   1   0.8702  0.2250  0.5301  11.00000  0.05    0.37
Q46   1   0.7527  0.1810  0.5177  11.00000  0.05    0.36
Q47   1   0.3261 -0.0181  0.4943  11.00000  0.05    0.36
Q48   1  -0.1878  1.0392  0.8426  11.00000  0.05    0.35
Q49   1  -0.2276  0.8049  0.9455  11.00000  0.05    0.35
Q50   1   0.0884  0.2191  0.8185  11.00000  0.05    0.35
Q51   1   1.0000  0.5000  0.5000  10.50000  0.05    0.35
Q52   1   0.0582  0.5252  0.9246  11.00000  0.05    0.35
Q53   1   0.6237  0.1609  0.5047  11.00000  0.05    0.34
Q54   1   0.3652  0.4475  0.1265  11.00000  0.05    0.34
Q55   1  -0.1745  0.9268  0.7950  11.00000  0.05    0.34
Q56   1  -0.1286  0.8840  0.8764  11.00000  0.05    0.33
Q57   1   0.3814 -0.0446  0.6617  11.00000  0.05    0.33
Q58   1   0.8656  0.2298  0.4249  11.00000  0.05    0.33
Q59   1   0.4377  0.2651  0.2218  11.00000  0.05    0.32
Q60   1   0.0549  0.8300  0.7844  11.00000  0.05    0.32
Q61   1  -0.1713  0.8832  0.7323  11.00000  0.05    0.31
Q62   1   0.5000  0.5000  0.0000  10.50000  0.05    0.31
Q63   1   0.1497  0.4148  0.8392  11.00000  0.05    0.31
Q64   1   0.4759  0.4513  0.1931  11.00000  0.05    0.31
Q65   1   0.9284  0.1793  0.4159  11.00000  0.05    0.30
Q66   1   0.1744  0.4225  0.7702  11.00000  0.05    0.30
Q67   1   0.4759  0.4144  0.3307  11.00000  0.05    0.30
Q68   1   0.7847  0.5242  0.6358  11.00000  0.05    0.28
Q69   1   0.4420  0.4638  0.0351  11.00000  0.05    0.28
Q70   1   0.1834 -0.0342  0.5197  11.00000  0.05    0.28
Q71   1   0.9917  0.3112  0.4155  11.00000  0.05    0.28
Q72   1   0.5407  0.1609  0.3538  11.00000  0.05    0.27
Q73   1   0.4728  0.3753  0.2569  11.00000  0.05    0.27
Q74   1   0.9089  0.2696  0.4230  11.00000  0.05    0.27
Q75   1   0.4647 -0.0444  0.6421  11.00000  0.05    0.27
Q76   1   0.0660  0.1962  0.6501  11.00000  0.05    0.27
Q77   1   0.6516  0.1709  0.1506  11.00000  0.05    0.27
Q78   1   0.7079  0.0971  0.5154  11.00000  0.05    0.25
Q79   1   0.5043  0.4028  0.0345  11.00000  0.05    0.25
Q80   1   0.9647  0.2597  0.4971  11.00000  0.05    0.25
Q81   1   0.3080  0.0981  0.6319  11.00000  0.05    0.25
Q82   1  -0.2123  0.6473  1.0686  11.00000  0.05    0.24
Q83   1  -0.0507  0.2527  0.7623  11.00000  0.05    0.24
Q84   1  -0.0232  0.9993  0.9197  11.00000  0.05    0.23
Q85   1   0.4807  0.4591  0.1103  11.00000  0.05    0.23
Q86   1   0.3786  0.3478  0.7078  11.00000  0.05    0.23
Q87   1   0.1072  0.8895  0.8596  11.00000  0.05    0.23
Q88   1   0.2670  0.4006  0.2567  11.00000  0.05    0.23
Q89   1   0.3928  0.5162  0.1433  11.00000  0.05    0.23
Q90   1   0.7767  0.2765  0.5499  11.00000  0.05    0.23
Q91   1   0.2479  0.1451  0.8049  11.00000  0.05    0.22
Q92   1  -0.0282  0.2960  0.7644  11.00000  0.05    0.22
Q93   1   0.5529  0.2647  0.2548  11.00000  0.05    0.22
Q94   1   1.0340  0.3030  0.4854  11.00000  0.05    0.22
Q95   1   0.5294  0.0986  0.6785  11.00000  0.05    0.22
Q96   1   0.3109  0.4503  0.8029  11.00000  0.05    0.22
Q97   1   0.8310  0.5875  0.4599  11.00000  0.05    0.22
Q98   1   0.5785  0.4413  0.0676  11.00000  0.05    0.21
Q99   1   0.4761  0.3290  0.6543  11.00000  0.05    0.21
;
_shelx_res_checksum              98066
_shelx_hkl_file
;
   0  -1   0  807.02   26.67
   1   0   0 1529.96   50.06
  -1   0  -1 5799.42  188.88
   1   0   1 5043.33  164.23
   0   1   1 7170.91  235.22
   0  -1  -1 7642.06  249.81
   0  -1  -1 7472.78  249.86
   0   1   1 7304.79  235.27
   0  -1  -1 8280.81  250.43
   1   1   012561.30  408.14
  -1  -1   013137.70  426.82
   0   1  -1 5857.10  191.22
   0  -1   1 5938.71  193.33
   1   0  -1 1393.87   45.75
  -1   0   1 1397.86   44.91
  -1   0   1 1319.52   45.19
   1   1   1 6823.53  227.84
   1   1   1 6742.37  228.13
  -1  -1  -1 6858.75  223.94
   1   1   1 6564.61  227.71
  -1  -1  -1 6878.24  223.51
   1  -1   0  528.37   18.03
  -1   1   0  599.55   21.04
  -1  -1   1 3236.97  110.37
   1   1  -1 3348.71  109.76
   1   1  -1 3395.21  110.05
  -1  -1   1 3496.33  110.24
   0   0   2 6376.14  207.58
  -1   1  -1 3385.98  111.20
   1  -1   1 3171.44  101.53
   1  -1   1 2985.88  102.14
  -1   1   113080.60  414.42
  -1   1   112416.10  414.24
  -1   0  -2 1565.23   52.20
   1   0   2 1472.18   48.69
   0   1   2 2627.98   84.64
   0   1   2 2527.30   84.77
   0  -1  -2 2868.93   93.64
   0  -1  -2 2845.76   93.51
   0  -1   210579.20  345.99
   0   1  -210636.60  345.60
   0  -1   210811.90  346.49
  -1   0   2  658.75   23.40
   0  -2   0  262.00    9.18
   0   2   0  281.50   10.06
   0  -2   0  251.60   10.12
   0   2   0  297.04   10.19
   0   2   0  282.32   11.06
   2   0   0 3829.91  125.12
  -2   0   0 3505.02  115.67
  -2   0   0 3574.51  115.78
  -1  -1  -2  415.90   15.36
  -1  -1  -2  439.70   14.98
  -1  -1  -2  398.49   14.77
   1   1   2  356.85   14.55
   1   1   2  389.03   13.71
  -1  -2   0 1432.73   48.13
   1   2   0 1317.55   45.25
   1   2   0 1414.76   45.25
  -1  -2   0 1439.56   47.51
  -2  -1   0   29.65    3.90
  -2  -1   0   21.91    3.53
   2   0   1 1837.04   60.54
  -2   0  -1 1749.90   57.72
   0  -2  -1   62.43    7.80
   0  -2  -1   41.32    5.41
   0   2   1   39.48    4.64
   0  -2  -1   42.73    3.66
   0  -2  -1   49.94    4.52
   1   1  -2  635.57   22.01
   1   1  -2  618.05   22.35
  -1  -1   2  621.33   21.97
  -1  -1   2  645.68   22.36
  -1  -1   2  624.01   21.52
   1   1  -2  643.18   21.78
   0   2  -1  157.25    5.88
   0   2  -1  145.41   10.58
   0  -2   1  140.48    6.60
   0  -2   1  152.94    5.59
   0   2  -1  169.08    7.06
  -2  -1  -130035.50  891.45
   2   1   129448.60  977.05
  -2  -1  -125858.70  891.02
   2   1   127549.20  976.87
   1   2   1  159.18   10.15
   1   2   1  132.00    6.69
  -1  -2  -1  134.87    6.86
  -1  -2  -1  128.97    9.35
   1   2   1  127.35    7.17
   1   2   1  155.78    5.59
   1   2   1  130.05    6.59
  -1  -2  -1  139.45    5.50
  -1  -2  -1  151.28    6.60
   1   2   1  133.35    8.74
   1   2   1  147.39    8.09
   2   0  -1 1106.44   37.99
  -2   0   1 1070.74   36.13
   2   0  -1 1151.97   37.90
   1  -1   220913.80  674.95
   1  -1   220548.70  675.05
  -1   1  -220536.70  676.62
  -1   1  -220785.40  676.93
  -1   1  -221167.50  676.69
   1  -1   220790.60  674.68
   1   2  -1 4625.72  156.96
   1   2  -1 4980.01  156.58
  -1  -2   1 4717.86  153.94
   1   2  -1 4727.37  156.64
   1  -1  -2  824.79   28.29
   2   1  -1    6.09    5.78
  -2  -1   1    9.57    5.63
   2   1  -1    8.22    3.64
  -2  -1   1   15.69    3.86
   1  -2   0  124.23    5.83
  -1   2   0  112.29    6.09
  -2   1   0 1183.91   39.59
  -2   1   0 1161.59   38.69
   0   0   3 7263.66  236.71
  -2   1  -1  991.66   33.05
   2  -1   1 1073.00   35.56
   1  -2   1   -3.50    7.86
   1  -2   1    0.57    4.12
   1  -2   1    2.59    2.88
  -1   2  -1    3.13    8.10
   1  -2  -1  800.43   26.53
  -1   2   1  823.82   29.60
   2   0   2  584.77   20.27
  -2   0  -2  611.17   21.43
  -2   0  -2  593.93   21.03
  -2   0  -2  600.76   21.66
   2   0   2  571.59   20.42
  -2   1   1   32.71    6.50
   2  -1  -1   42.55    6.85
   2  -1  -1   37.31    5.72
   0   2   2  420.41   17.01
   0   2   2  395.71   14.32
   0  -2  -2  369.10   13.57
   0  -2  -2  363.68   15.67
   0   2   2  389.39   14.48
   0  -2  -2  371.39   14.90
  -2  -1  -2  142.57    7.72
   2   1   2  133.54    7.66
   2   1   2  136.55    7.32
  -2  -1  -2  130.87    7.09
   2   1   2  164.51    8.01
  -2  -1  -2  150.63    7.44
  -2  -2   0  241.62   10.19
   2   2   0  278.58   10.57
  -2  -2   0  259.68    9.85
  -2  -2   0  252.96    9.03
  -1  -2  -2 3037.14   97.53
   1   2   2 3064.09   97.76
   1   2   2 2829.39   97.93
  -1  -2  -2 2827.40   96.68
  -1  -2  -2 2989.12   96.54
  -1  -2  -2 3015.08   98.16
  -1  -2  -2 3004.82   97.95
   0  -2   2 2301.69   75.29
   0  -2   2 2261.89   74.91
   0   2  -2 2296.21   77.12
  -1   0  -3 3842.25  126.21
   1   0   3 3946.59  129.21
  -1   0  -3 3867.20  126.97
   0  -1  -3   40.61    5.36
   0  -1  -3   38.15    6.44
   2   2   1 1373.71   44.37
   2   2   1 1315.28   44.62
   2   2   1 1405.73   45.08
   2   2   1 1249.87   45.50
  -2  -2  -1 1332.39   43.97
  -2  -2  -1 1422.29   44.57
  -2  -2  -1 1360.92   43.82
  -2   0   2  509.40   18.43
   2   0  -2  547.25   18.95
  -2   0   2  541.45   19.29
   2   0  -2  524.87   19.59
   0  -1   3   43.87    5.39
   0   1  -3   43.47    3.91
   0  -1   3   47.95    3.64
   1   2  -2  420.85   16.77
   1   2  -2  487.56   16.12
   1   2  -2  425.23   15.77
  -1   0   3  684.17   25.03
  -1  -1  -3 1259.94   42.56
   1   1   3 1353.78   44.78
   1   1   3 1279.68   44.05
  -1  -1  -3 1335.82   43.92
  -2  -1   2   25.70    6.02
   2   1  -2   13.64    5.70
  -2  -1   2   24.53    5.65
  -2  -1   2   19.61    4.49
   2   1  -2   23.95    6.06
  -2  -2   1  248.37    8.82
  -2  -2   1  216.35    8.95
  -2  -2   1  250.08    9.65
   2   2  -1  214.18    9.08
   2   2  -1  213.58    8.29
   2   2  -1  243.13    9.68
   2  -1   2 3309.63  104.84
   2  -1   2 3159.24  105.42
   2  -1   2 3128.91  104.41
  -1  -1   3   15.28    5.33
  -1  -1   3   19.70    7.34
   1   1  -3   21.00    6.62
   1   1  -3   19.50    6.34
   1   1  -3   13.72    5.21
  -1   1  -314018.80  478.86
  -1   1  -315128.40  477.96
  -1   1  -314905.40  477.76
   1  -1   314430.20  489.15
   1  -1   315356.60  488.44
  -1   1  -314396.50  477.88
   1  -2   2   64.89    8.67
  -1   2  -2   64.00    6.74
  -1   2  -2   62.33    9.24
  -1   2  -2   63.68    4.49
   1  -2   2   63.21    4.49
  -1   2   2 3483.62  115.74
   1  -2  -2 3314.01  107.78
   1  -2  -2 3204.20  109.61
  -1   1   3 2405.83   80.51
   1  -1  -3 2506.30   82.74
   1  -1  -3 2492.14   82.45
  -2   1   2 3219.68  106.71
   2  -1  -2 3515.51  110.67
   2  -1  -2 3483.19  110.82
   2  -1  -2 3274.07  108.93
  -2  -2  -2 5142.83  166.23
  -2  -2  -2 5311.72  165.66
   2   2   2 5236.68  164.08
   2   2   2 4996.54  164.28
   2   2   2 4839.62  164.96
  -2  -2  -2 4940.88  165.80
   2   2   2 4957.28  164.03
   2   2   2 4973.10  164.85
  -2  -2  -2 4912.24  165.30
   1   3   0  264.96   10.61
  -1  -3   0  294.86   12.15
  -1  -3   0  272.59   10.64
   1   3   0  281.28   11.92
   0   3   0 2381.78   78.81
   0   3   0 2405.18   79.56
   0   3   0 2433.82   78.87
   0  -3   0 2428.79   80.36
  -3  -1   0  296.13   11.79
  -3  -1   0  297.16   11.77
   3   1   0  304.37   12.16
  -3   0   0   38.17    5.78
   3   0   0   29.01    3.71
  -3   0   0   29.96    4.99
  -3   0   0   37.51    4.59
   3   0   0   32.15    4.97
  -2   2   0 1828.97   62.67
  -2   2   0 1866.51   61.71
   1   3   1  504.34   20.34
   1   3   1  504.45   17.94
   1   3   1  469.37   18.70
   1   3   1  505.03   20.83
  -1  -3  -1  499.70   17.02
  -1  -3  -1  486.72   21.30
   1   3   1  514.16   18.85
  -1  -3  -1  534.27   18.20
  -3  -1  -1 3893.60  129.77
  -3  -1  -1 4087.87  130.05
  -3  -1  -1 3937.08  129.17
   3   1   1 4006.11  131.27
   3   1   1 4002.20  131.39
   3   0   1 1205.85   42.01
   3   0   1 1270.52   41.72
  -3   0  -1 1264.27   43.43
  -3   0  -1 1333.10   43.86
   0  -3  -1 2275.38   75.00
   0   3   1 2413.53   79.90
   0  -3  -1 2323.86   75.85
   0  -3  -1 2332.97   77.73
   0   3   1 2375.38   78.80
   2   0   3 1602.62   55.48
  -2   0  -3 1723.77   56.44
  -2   0  -3 1685.86   56.84
   2   0   3 1773.54   55.62
  -2   0  -3 1634.94   57.05
   2   0   3 1607.97   56.13
   0  -3   1  372.57   13.17
   0  -3   1  412.89   15.25
   0   3  -1  361.53   12.60
   0   3  -1  377.92   17.64
   0   3  -1  384.85   12.94
   0   3  -1  394.98   13.94
   1   3  -1    4.60    3.93
   1   3  -1    5.35    3.15
  -1  -3   1    2.24    3.45
  -1  -3   1    3.50    5.99
  -1  -3   1    7.66    3.60
  -2  -1  -3  166.13    9.26
   2   1   3  186.06    9.75
   2   1   3  195.42    8.74
   2   1   3  130.01    7.25
   2   1   3  168.33    8.60
  -2  -1  -3  189.93    8.51
   2   1   3  170.78    8.12
  -2  -2   2    7.12    2.36
   2   2  -2    5.81    4.48
  -2  -2   2    9.96    4.25
   2   2  -2   12.94    5.92
  -2  -2   2   12.47    4.24
   2   2  -2    7.36    7.17
   0  -2  -3 1026.42   34.62
   0   2   3 1029.09   34.83
   0   2   3 1026.38   35.13
   0  -2  -3 1026.32   36.09
   0  -2  -3  979.53   34.90
   0  -2  -3 1083.23   36.28
  -2   2  -1  260.80    9.18
   2  -2   1  312.60   12.21
   2  -2   1  297.97   15.07
  -1  -2  -3  264.73   10.65
   1   2   3  290.05   13.44
  -1  -2  -3  272.37   12.33
   1   2   3  285.85   13.34
  -1  -2  -3  265.60   13.64
  -3   0   1 1610.90   51.84
   3   0  -1 1503.41   50.35
  -3   0   1 1487.69   51.87
   3   1  -1  500.10   17.73
  -3  -1   1  569.37   19.78
   3   1  -1  516.24   19.41
  -2   2   1 4429.18  147.07
  -2   2   1 4472.43  146.85
   2  -2  -1 4221.32  139.60
   0   2  -3 4412.81  147.43
   0   2  -3 4477.78  145.51
   0  -2   3 4415.66  144.69
  -2   0   3 2363.16   73.93
   2   0  -3 2274.08   76.14
  -2   0   3 2243.00   74.85
   0   0   4 1082.10   36.61
  -1  -2   3  323.07   12.84
   1   2  -3  309.30   12.68
   1   2  -3  301.63   12.30
   1   2  -3  336.44   13.99
  -2  -3   0  444.70   17.68
   2   3   0  455.57   16.34
  -2  -3   0  438.53   16.24
   2   3   0  450.97   16.53
   1  -3   0 2026.51   67.13
  -1   3   0 1966.87   65.16
   3   2   0  871.20   31.03
  -3  -2   0  834.02   28.11
   3   2   0  856.70   29.32
  -3  -2   0  821.61   28.48
  -3   1   0 1533.66   50.71
  -3   1   0 1510.76   51.25
  -2  -1   3 1695.63   55.52
   2   1  -3 1555.07   54.33
   2   1  -3 1620.81   53.89
  -2  -1   3 1649.14   55.17
  -2  -1   3 1602.13   55.79
   2   1  -3 1664.30   54.64
  -3  -1  -2   57.18    6.33
  -3  -1  -2   52.38    5.43
   3   1   2   50.82    6.19
  -3  -1  -2   46.94    4.92
  -3  -1  -2   56.32    5.77
   3   1   2   42.76    5.68
   1   3   2  674.20   25.31
   1   3   2  677.75   26.71
  -1  -3  -2  747.78   26.01
  -1  -3  -2  703.94   24.26
  -1  -3  -2  744.55   27.45
  -1  -3  -2  708.18   27.43
  -1  -3  -2  714.89   24.08
   1   3   2  694.88   25.81
   1   3   2  721.96   26.67
   1   3   2  744.07   24.93
   3   0   2  663.91   24.02
   3   0   2  677.62   23.59
  -3   0  -2  676.91   23.87
   2   3   1  440.36   15.52
   2   3   1  414.57   14.50
   2   3   1  409.12   15.68
  -2  -3  -1  404.08   15.39
   2   3   1  390.85   16.77
   2   3   1  401.32   15.63
   2   3   1  473.99   18.95
   2   3   1  416.64   17.25
   2  -1   3  195.63    8.63
  -2   1  -3  210.09    9.15
   2  -1   3  166.24    9.71
  -2   1  -3  206.27    9.40
  -2   1  -3  189.94   10.44
   3   2   1 3410.52  116.97
   3   2   1 3689.47  117.05
  -3  -2  -1 3620.51  119.09
   3   2   1 3575.73  116.56
   0   3   2 2496.82   83.55
   0   3   2 2551.79   84.99
   0   3   2 2585.99   83.32
   0  -3  -2 2473.66   82.29
   0   3   2 2563.39   85.59
   0  -3  -2 2613.42   83.97
   0  -3  -2 2479.83   84.53
   0   3   2 2503.56   83.36
   1   0   4 1008.48   34.29
  -1   0  -4 1064.13   36.19
  -1   0  -4  999.94   34.93
  -3   1  -1  995.14   33.58
   3  -1   1 1021.52   34.35
   1  -3  -1 2012.82   66.40
  -1   3   1 2072.44   70.68
   1  -3   1  186.99    7.45
   1  -3   1  197.70   12.78
   1  -3   1  207.72    8.81
  -1   3  -1  178.32   13.04
  -1   2  -3 3268.04  108.09
  -1   2  -3 3245.74  109.30
   1  -2   3 3308.58  109.48
   1  -2   3 3316.23  110.10
  -1   2  -3 3364.29  108.31
   0  -1  -4 3305.55  108.80
   0  -3   2    2.44   10.03
   0  -3   2    8.44    4.66
   0  -3   2    3.48    4.04
   0  -3   2    5.95    3.05
   0   3  -2    5.36    3.27
   0   3  -2   13.56   10.29
   1  -2  -3 1978.06   65.90
  -1   2   3 2038.16   67.73
  -2   2  -2    4.04    6.74
   2  -2   2    2.34    8.69
   2  -2   2    3.92    3.70
  -2   2  -2    8.02    8.96
   2  -2   2    4.68    2.71
   2  -2   2    6.64    5.44
  -2  -3   1   30.25    4.46
   2   3  -1   30.30    3.54
   2   3  -1   26.61    4.51
   0  -1   4  665.91   24.80
   0  -1   4  693.44   23.40
  -1  -3   2  128.43    6.25
   1   3  -2  131.59    6.63
   1   3  -2  128.50   12.84
   1   1   4  496.71   18.37
  -1  -1  -4  506.02   20.23
   1   1   4  487.51   19.93
  -1  -1  -4  511.37   18.04
   2   2   3  374.05   14.04
   2   2   3  361.69   15.01
  -2  -2  -3  374.70   14.78
  -2  -2  -3  352.87   15.88
  -2  -2  -3  356.52   13.68
   2   2   3  326.21   15.07
   3  -1  -1 2123.87   71.04
  -3   1   1 2131.58   71.44
   3   2  -1  228.26    9.04
  -3  -2   1  260.91    9.90
  -3  -2   1  235.60   10.55
  -3  -2   1  244.17   12.34
   3   2  -1  258.77   12.24
  -1   0   4   94.88    9.78
  -2   1   3 1780.78   58.26
  -2   1   3 1733.71   60.14
   2  -1  -3 1749.32   59.52
   2  -2  -2 8719.09  283.54
   2  -2  -2 8587.59  283.19
  -2   2   2 8588.31  285.65
  -2   2   2 8831.87  285.41
  -3   0   2 2790.88   92.57
   3   0  -2 2811.40   94.05
   3   0  -2 2861.49   93.60
   3   1  -2 1272.73   43.42
  -3  -1   2 1300.78   43.25
  -3  -1   2 1252.07   43.83
   1  -1   4 4395.47  143.88
  -1   1  -4 4137.15  142.94
  -1   1  -4 4456.06  141.69
  -1   1  -4 4286.45  141.43
   1   1  -4   87.63    7.86
   1   1  -4   82.10    7.08
  -1  -1   4   86.55    7.17
   1   1  -4   91.96    8.44
  -1  -1   4   97.98    9.46
  -3  -2  -2 4892.25  158.83
   3   2   2 5002.13  159.68
  -3  -2  -2 4745.92  159.06
   3   2   2 4911.27  160.29
  -3  -2  -2 4907.31  159.23
   3   2   2 4722.36  159.89
  -2  -3  -2  267.57   11.76
  -2  -3  -2  263.46   10.35
   2   3   2  255.87   11.63
   2   3   2  275.10   13.13
   2   3   2  272.93   10.28
   2   3   2  297.79   15.26
  -2  -3  -2  269.73   11.45
   2   3   2  278.02   10.40
   2   3   2  250.24   11.23
  -2  -3  -2  269.71   13.58
   3  -1   2  394.19   15.05
  -3   1  -2  411.24   15.16
   3  -1   2  395.24   14.45
   1  -1  -4 2385.57   79.31
  -1   1   4 2354.86   79.44
   1  -1  -4 2397.02   79.74
  -2  -2   3   61.23    7.70
   2   2  -3   90.21    7.28
   2   2  -3   86.58    7.72
  -2  -2   3   81.76    7.52
   2   2  -3   85.45    6.54
  -2  -2   3   74.38    5.77
   1  -3  -2 2896.94   94.95
   1  -3  -2 2853.87   97.22
  -1   3   2 2850.59   93.73
  -1   3   2 2960.79   96.81
  -1   3  -2    5.84    9.78
   1  -3   2    4.03    9.83
  -1   3  -2    0.66    6.31
  -1   3  -2    0.07    3.67
   2   0   4    1.08    4.61
   2   0   4    8.87    8.16
  -2   0  -4   10.05    5.48
  -2   0  -4   12.58    7.11
   2   3  -2  111.98    4.73
  -2  -3   2  135.01    7.12
   2   3  -2  138.85    6.43
  -3  -1  -3  579.64   22.52
  -3  -1  -3  670.33   22.91
  -3  -1  -3  643.18   23.22
   3   1   3  631.03   23.03
   3   1   3  634.57   22.96
  -3   1   2 2390.47   80.11
   3  -1  -2 2292.42   80.52
   3  -1  -2 2416.66   79.01
   3  -1  -2 2483.08   80.64
   2   1   4   29.31    5.08
   2   1   4   24.58    6.26
   2   1   4   28.40    8.30
  -2  -1  -4   15.47    5.46
  -2  -1  -4   22.77    6.35
  -2  -1  -4   17.42    7.13
  -3   0  -3  135.71    9.20
  -3   0  -3  150.37    9.07
   3   0   3  151.34    8.01
   3   0   3  147.54    7.93
  -3  -2   2  309.08   12.77
  -3  -2   2  321.10   12.43
  -3  -2   2  328.01   12.92
  -3  -2   2  319.38   11.78
   3   2  -2  348.52   14.89
   3   2  -2  342.69   13.54
  -3  -2   2  323.18   14.30
   1   3   3  113.14   10.08
  -1  -3  -3   91.17   10.70
  -1  -3  -3  100.04    6.12
   1   3   3   83.94    9.52
  -1  -3  -3   96.78   10.18
   1   3   3   88.82    6.64
  -1  -3  -3   87.88    8.18
  -1  -2  -4 1715.33   57.95
   1   2   4 1563.51   55.73
   1   2   4 1711.55   56.82
  -1  -2  -4 1769.93   58.55
   1   2   4 1703.12   55.83
   0   2   4 1377.55   46.17
   0  -2  -4 1359.18   47.52
   0   2   4 1334.95   45.71
   0  -2  -4 1347.53   47.77
   0  -2  -4 1394.56   46.34
   0   3   3 5721.06  186.54
   0  -3  -3 5731.82  183.70
   0   3   3 5967.27  188.68
   0  -3  -3 5643.86  183.91
   0  -3  -3 5458.99  182.11
   0   3   3 5537.91  188.13
   0   3   3 5669.55  186.67
  -3  -3   0  643.31   21.40
  -3  -3   0  611.31   21.81
   3   3   0  584.60   22.45
  -3  -3   0  571.34   20.37
   3   3   0  654.94   21.94
  -2   3   0 3082.67  101.75
  -2   3   0 3076.82  103.36
   0   2  -4 2793.63   91.52
   0  -2   4 2717.97   90.17
  -3   2   0  991.46   33.58
  -3   2   0 1021.55   35.40
   2  -2   3   68.66    5.52
   2  -2   3   63.39    9.32
  -2   2  -3   60.77    9.38
   2  -2   3   64.80    4.79
  -2   2  -3   67.93    8.42
  -2   2  -3   69.45    5.87
   3   3   1 3179.38  107.40
  -3  -3  -1 3189.50  105.20
  -3  -3  -1 3316.04  106.06
   3   3   1 3445.62  106.62
   3   3   1 3057.65  106.68
   3   3   1 3222.21  105.89
  -3  -3  -1 3150.96  106.26
   0  -3   3 2402.84   79.06
   0   3  -3 2390.84   81.31
   0  -3   3 2355.34   78.51
   1   4   0 1149.85   38.69
   1   4   0 1256.30   40.75
  -1  -4   0 1278.73   42.56
  -1  -4   0 1242.60   43.59
   1   4   0 1202.69   39.60
   3  -2   1  574.78   21.12
   3  -2   1  562.17   23.87
  -3   2  -1  573.01   19.81
   2  -3   1  240.41   14.81
   2  -3   1  263.25   11.23
  -2   3  -1  240.21   15.08
  -1  -3   3  443.87   16.47
   1   3  -3  438.72   17.43
   1   3  -3  407.08   15.63
  -2   0   4  771.62   29.64
  -2   0   4  861.19   31.03
  -2   0   4  906.25   29.53
   2   0  -4  896.05   32.46
  -2   3   1 2424.79   80.71
  -2   3   1 2441.69   82.53
  -2   3   1 2441.87   82.16
   1   2  -4  682.01   24.23
   1   2  -4  674.75   24.59
  -1  -2   4  693.72   21.81
   1   2  -4  693.45   25.92
  -1  -2   4  632.42   22.93
  -1  -2   4  563.66   19.60
  -4  -1   0  647.17   21.84
  -4  -1   0  633.43   21.75
  -4  -1   0  545.79   20.35
   4   1   0  671.42   24.03
  -4  -1   0  632.38   21.73
   2  -2  -3 9300.23  304.51
   2  -2  -3 9279.25  304.89
  -2   2   3 9252.85  303.29
   0   4   0   36.11    4.14
   0  -4   0   36.92    6.67
  -2   1  -4 1149.56   37.84
  -2   1  -4 1139.86   39.45
  -2   1  -4 1113.34   37.49
   2  -1   4 1079.26   34.69
   2  -1   4  944.57   34.62
  -2   1  -4 1030.23   37.58
  -3   2   1  782.98   27.86
  -3   2   1  756.93   27.65
  -3   2   1  708.98   26.35
   3  -2  -1  720.38   27.23
  -1  -4  -1 2273.29   75.36
   1   4   1 2206.70   68.07
   1   4   1 2191.53   68.19
   1   4   1 1984.56   63.98
   1   4   1 2196.92   65.95
  -1  -4  -1 2123.96   72.77
   1   4   1 2093.65   65.17
   1   4   1 1885.92   63.98
   1   4   1 2182.90   66.53
   1   4   1 1836.88   63.97
  -3   0   3 4149.48  137.43
   3   0  -3 4259.85  137.94
  -3   0   3 4115.25  136.90
  -3   0   3 4208.69  136.68
   3   0  -3 4114.27  138.86
  -3  -3   1  385.41   15.54
   3   3  -1  399.21   14.49
   3   3  -1  371.10   14.10
  -3  -3   1  391.75   14.82
  -3  -3   1  432.05   14.53
   3   3  -1  408.39   15.34
  -2  -1   4 1258.43   41.97
   2   1  -4 1221.70   41.64
  -2  -1   4 1177.85   41.56
  -2  -1   4 1226.24   42.71
   2   1  -4 1260.71   42.84
   2   1  -4 1196.34   42.11
  -4  -1  -1  383.43   15.33
   4   1   1  399.32   15.16
  -4  -1  -1  404.12   15.47
   4   1   1  387.98   15.44
  -4  -1  -1  377.96   15.38
   3   1  -3    7.53    6.89
  -3  -1   3   11.25    7.02
  -3  -1   3    8.98    6.61
   3   1  -3    2.09    6.21
  -3  -1   3    4.81    5.47
  -3  -2  -3  656.20   23.10
   3   2   3  584.22   22.52
  -3  -2  -3  616.72   22.72
   3   2   3  702.69   23.20
  -3  -2  -3  633.60   23.71
   4   0   0    0.25    3.61
  -4   0   0    4.36    4.81
   4   0   0    5.52    5.34
  -4   0   0    0.35    6.16
  -4   0   0    3.42    5.72
   2   3   3  268.62   13.65
  -2  -3  -3  281.33   11.26
  -2  -3  -3  283.61   13.04
  -2  -3  -3  292.87   14.55
  -2  -3  -3  269.36   14.73
   2   3   3  280.87   12.39
   2   3   3  269.86   14.17
   2   3   3  262.56   12.77
   1  -2   4 7895.68  258.58
  -1   2  -4 7743.88  252.80
  -1   2  -4 7821.24  252.50
  -1   2  -4 7595.80  253.50
   0   4   1 1449.67   49.08
   0  -4  -1 1450.70   48.62
   0   4   1 1448.94   49.96
   0  -4  -1 1402.34   51.20
   0   4   1 1459.01   51.23
   0   4   1 1556.16   49.50
   1   4  -1   87.72    8.30
   1   4  -1   73.83    5.50
  -1  -4   1   65.82    7.92
  -1  -4   1   72.56    5.27
  -3   1  -3  511.18   19.13
   3  -1   3  524.94   18.51
   3  -1   3  528.82   19.92
   3  -1   3  467.58   17.95
   4   0   1  862.05   30.56
  -4   0  -1  879.59   30.90
  -4   0  -1  862.95   30.30
   4   0   1  881.04   30.25
  -2  -2  -4  288.91   12.07
  -2  -2  -4  286.21   14.97
   2   2   4  271.68   12.14
   2   2   4  293.45   13.79
  -2  -2  -4  297.35   13.59
  -1   2   4 4943.82  162.29
   1  -2  -4 4948.47  162.62
   0   4  -1 1222.00   45.60
   0  -4   1 1280.72   43.03
   0   4  -1 1304.88   42.50
   0   4  -1 1247.24   41.72
   0  -4   1 1280.57   42.68
   0  -4   1 1328.29   44.42
   4   1  -1 1197.63   40.64
  -4  -1   1 1349.50   45.10
   4   1  -1 1244.26   42.24
   0   0   5   54.03    5.68
   3   3   2 2796.54   89.38
  -3  -3  -2 2662.04   90.12
   3   3   2 2683.08   89.83
   3   3   2 2665.73   89.30
   3   3   2 2660.76   90.61
  -3  -3  -2 2609.08   89.84
  -3  -3  -2 2813.29   89.41
  -1   3   3 6040.35  175.40
   1  -3  -3 6040.09  197.60
   1  -3  -3 5939.23  195.34
  -1   3   3 5837.63  177.85
   1  -3   3   49.83   10.82
  -1   3  -3   55.37   10.56
  -1   3  -3   65.08    7.71
  -1   3  -3   55.48    5.17
   1  -3   3   66.66    6.76
  -2   1   4 5952.47  195.93
  -2   1   4 6146.67  197.91
   2  -1  -4 6104.24  197.42
   2  -1  -4 5889.51  198.28
  -2  -4   0    5.88    7.43
   2   4   0    5.45    5.15
   2   4   0    2.82    4.51
   2   4   0   -1.46    7.75
  -2  -4   0    2.29    4.65
   4   0  -1  154.81    8.72
  -4   0   1  160.45    8.40
  -4   0   1  180.60    9.36
   3  -2   2  250.59   10.60
   3  -2   2  234.87    9.44
   3  -2   2  282.81   11.87
  -3   2  -2  236.02    9.45
   3  -2   2  255.01   14.25
   4   2   0  494.22   20.27
  -4  -2   0  470.19   17.76
  -4  -2   0  493.61   17.96
  -1   0  -5  423.99   16.52
  -1   0  -5  426.61   18.63
   1   0   5  390.15   15.06
   2  -3   2  583.34   20.76
  -2   3  -2  536.37   20.56
  -2   3  -2  538.03   22.74
   2  -3   2  548.60   23.12
   2  -3   2  542.78   19.58
   2   4   1  877.80   31.98
   2   4   1  896.40   29.91
   2   4   1  909.00   31.21
   2   4   1  854.85   34.42
   2   4   1  918.16   33.22
  -2  -4  -1  906.90   31.66
   2   4   1  877.62   31.05
   2   4   1  916.74   31.58
   4   2   1 2119.40   64.66
   4   2   1 1946.21   64.72
  -4  -2  -1 2171.51   68.53
  -4  -2  -1 1951.15   67.99
   4   2   1 2014.14   64.23
  -4  -1  -2   18.18    5.38
  -4  -1  -2    2.37    6.36
   4   1   2   12.67    5.95
  -4  -1  -2   15.86    5.85
   4   1   2   13.23    5.81
   0  -1  -5  329.59   13.72
   1   4   2  432.84   18.41
   1   4   2  388.42   19.27
   1   4   2  447.21   15.44
   1   4   2  448.41   16.80
   1   4   2  446.94   19.48
  -1  -4  -2  438.31   15.32
   1   4   2  429.36   15.10
  -1  -4  -2  440.07   20.45
   1   4   2  409.57   17.20
   2  -3  -2 4414.04  138.40
  -2   3   2 4417.88  146.64
  -2   3   2 4390.78  146.22
   2  -3  -2 3861.25  138.40
   2   3  -3  163.26    8.90
   2   3  -3  162.66   10.34
  -2  -3   3  170.54    8.51
   2   3  -3  171.59    8.38
   3  -1  -3 3339.70  111.33
   1   1   5  186.37    9.57
  -1  -1  -5  181.10   11.55
  -1  -1  -5  181.95    8.72
   1   1   5  210.67   12.79
   0  -1   5  215.13    9.15
   0  -1   5  225.47   11.18
   4   0   2   40.99    6.44
   4   0   2   58.70    6.12
  -4   0  -2   46.79    6.08
  -3  -2   3  880.09   31.99
   3   2  -3  912.35   32.93
  -3  -2   3  934.65   32.62
   3   2  -3  932.52   32.58
  -3  -2   3  907.00   31.47
   2   4  -1   -1.06    4.47
   2   4  -1    4.36    8.34
   2   4  -1    5.37    3.99
  -2  -4   1    2.34    7.65
  -2  -4   1    3.01    4.75
  -3   2   2 4199.10  139.29
   3  -2  -2 4099.13  115.79
   3  -2  -2 4110.87  116.07
  -1   4   0 1382.47   46.49
  -1   4   0 1483.16   47.59
   1  -4   0 1522.54   51.40
   0   4   2  512.32   23.19
   0   4   2  524.67   21.55
   0   4   2  503.49   19.15
   0  -4  -2  494.00   21.87
   0   4   2  527.76   18.35
  -1   0   5 1064.13   38.45
   3   3  -2   42.82    6.35
   3   3  -2   36.23    8.33
  -3  -3   2   39.87    3.99
  -3  -3   2   34.18    5.55
  -3  -3   2   40.16    4.96
  -2  -2   4  847.83   32.21
   2   2  -4  903.25   30.75
   2   2  -4  860.77   31.75
   2   2  -4  855.99   31.04
  -2  -2   4  922.17   31.98
  -4   1   0 1409.96   48.11
  -4   1   0 1436.31   47.94
  -4  -2   1  187.95    7.67
  -4  -2   1  236.23    9.37
   4   2  -1  239.52   11.90
   4   2  -1  177.12    7.19
   1   4  -2   26.42   12.05
  -1  -4   2   22.07    7.54
  -1  -4   2   20.48    4.84
  -1  -4   2   18.95    4.18
  -3  -1  -4  144.83    8.16
   3   1   4  149.19    9.05
  -3  -1  -4  144.46    9.46
   3   1   4  130.03    8.29
   3   1   4  137.75    8.97
   3   1   4  135.93   10.25
   0  -4   2  164.64    9.95
   0  -4   2  155.04   14.36
   0  -4   2  164.19    6.62
   0   4  -2  154.67   14.05
   0   4  -2  163.34    6.67
   0  -4   2  143.90    7.10
   3   0   4 1023.33   31.24
  -3   0  -4 1023.17   36.45
  -3   0  -4 1014.97   35.68
   3   0   4  918.98   31.97
  -3   0  -4 1027.40   36.44
   3   0   4 1012.51   31.17
  -4   1  -1  469.70   18.66
  -4   1  -1  537.47   18.59
   4  -1   1  509.52   18.43
  -1   4   1 5767.92  190.89
  -1   4   1 6046.95  193.74
   1  -4  -1 5947.90  194.49
   1  -4   1 2699.11   93.84
   1  -4   1 2734.91   90.16
   1  -4   1 2783.68   91.60
  -1   4  -1 2644.17   90.09
   1  -4   1 2795.88   90.97
  -1   1  -5 3321.85  106.81
  -1   1  -5 3280.70  106.67
   1  -1   5 3297.00  108.57
  -1   1  -5 2985.53  108.26
  -1  -3  -4  483.54   17.76
  -1  -3  -4  485.07   20.12
  -1  -3  -4  465.98   19.95
  -1  -3  -4  491.50   21.40
   1   3   4  484.81   20.06
   1   3   4  467.56   18.40
   1   3   4  507.94   20.68
   1   1  -5   88.57    9.91
   1   1  -5   96.05    8.60
  -1  -1   5   96.42    8.27
  -1  -1   5   90.43    5.74
  -1  -1   5   98.94   10.61
   1   1  -5  107.27    7.90
   4   2   2 3801.43  127.85
  -4  -2  -2 3948.92  122.61
   4   2   2 3875.27  128.13
  -4  -2  -2 3544.08  121.35
  -4  -2  -2 3807.12  122.27
   4   2   2 3940.43  128.10
   4   2   2 3908.69  127.68
   2   4   2  717.74   26.28
  -2  -4  -2  640.66   21.43
   2   4   2  737.46   27.67
   2   4   2  705.06   25.95
   2   4   2  702.23   25.30
   2   4   2  696.01   23.85
   2   4   2  701.49   25.48
   2   4   2  787.59   28.56
  -4  -1   2 1161.04   39.70
   4   1  -2 1065.43   36.62
   4   1  -2 1067.04   37.29
   0  -3  -4 2988.69   97.96
   0   3   4 2896.06   95.85
   0   3   4 2903.58   96.10
   0  -3  -4 2878.89  100.69
   0  -3  -4 2987.63   99.93
   0  -3  -4 2982.77   99.80
   4  -1  -1 1796.58   60.74
  -4   1   1 1933.33   65.56
  -4   1   1 2014.59   66.59
  -1   1   5 1241.57   44.47
   1  -1  -5 1283.73   44.65
   1  -1  -5 1300.14   44.35
   4   0  -2  197.19   10.39
  -4   0   2  224.48   10.57
   4   0  -2  193.71   10.34
   2  -2   4 1133.53   41.14
  -2   2  -4 1165.09   39.45
  -2   2  -4 1126.09   40.38
  -2   2  -4 1194.29   40.68
  -2   2  -4 1141.91   39.44
   2  -2   4 1217.31   41.49
   3   3   3 1721.75   57.90
  -3  -3  -3 1820.25   61.56
   3   3   3 1714.18   58.33
   3   3   3 1695.64   58.44
   3   3   3 1774.09   59.76
  -3  -3  -3 1681.59   59.91
  -3  -3  -3 1848.34   60.85
   3   3   3 1747.14   57.82
  -3  -3  -3 1880.97   60.53
   2   0   5   89.80   10.36
  -2   0  -5   91.31    9.86
   2   0   5   77.51    6.97
  -2   0  -5   81.11    7.67
   0  -3   4 7778.80  257.51
   0  -3   4 7935.31  257.09
   0   3  -4 7475.74  253.71
   0   3  -4 7749.54  251.37
   0   3  -4 7871.61  254.17
   2   1   5   35.51    9.54
   2   1   5   26.40    6.83
   2   1   5   14.01    5.39
  -2  -1  -5   20.05    8.04
  -2  -1  -5   17.20    6.96
  -2  -1  -5   15.42    6.05
   1   2   5  516.45   20.22
  -1  -2  -5  535.53   20.74
   1   2   5  537.42   20.75
  -1  -2  -5  567.41   21.98
  -1  -2  -5  536.55   20.12
   1   2   5  555.59   22.20
  -3  -2  -4  436.58   18.48
   3   2   4  435.02   17.19
  -3  -2  -4  465.14   17.89
   3   2   4  416.26   17.03
   3   2   4  412.80   16.48
   3   2   4  429.23   17.35
  -3  -2  -4  431.26   16.75
   3   2   4  459.44   17.96
   1   3  -4 6594.55  218.71
  -1  -3   4 6777.71  221.81
   1   3  -4 6848.58  220.23
   2   4  -2  237.22    9.37
  -2  -4   2  253.48   10.75
   2   4  -2  268.57   10.49
   2   4  -2  267.11   10.14
  -4   1  -2  734.80   25.83
   4  -1   2  739.41   25.83
   3  -2   3  325.73   16.36
   3  -2   3  335.95   12.73
   3  -2   3  359.41   14.59
   3  -2   3  343.08   13.63
   0   2   5 3602.29  119.42
   0  -2  -5 3725.46  122.14
   0  -2  -5 3636.10  121.12
  -2  -3  -4  162.03   10.33
  -2  -3  -4  145.26    8.18
   2   3   4  167.96   11.12
  -2  -3  -4  145.81   12.43
   2   3   4  134.10   10.72
  -2  -3  -4  145.55   11.36
   2  -2  -4 2288.37   75.64
   2  -2  -4 2193.67   76.78
  -2   2   4 2276.14   62.46
  -2   2   4 1744.69   60.29
   2  -2  -4 2264.58   77.55
  -4  -1  -3  277.06   12.11
  -4  -1  -3  253.83   12.16
  -4  -1  -3  258.16   12.64
   4   1   3  237.22   11.35
   4   1   3  244.08   11.38
  -2   3  -3  192.03   11.33
   2  -3   3  183.75   12.84
  -2   3  -3  175.38   12.61
   2  -3   3  143.18    6.23
   2  -3   3  186.92    8.04
   1  -4  -2 3815.02  127.65
  -1   4   2 4041.44  126.75
  -1   4   2 3486.25  126.57
   1  -4  -2 3784.53  124.36
   3   4   0 3725.73  125.10
  -3  -4   0 3784.80  107.59
   3   4   0 3850.44  124.74
  -3  -4   0 3633.55  106.37
   1   4   3 1442.29   49.50
   1   4   3 1421.97   47.02
   1   4   3 1429.04   47.68
   1   4   3 1357.76   49.99
  -1  -4  -3 1408.16   49.25
  -1  -4  -3 1420.33   50.44
   1   4   3 1335.26   47.85
  -1  -4  -3 1409.33   50.66
   1   4   3 1371.72   48.98
  -3   1  -4   80.93    9.34
   3  -1   4  102.21    7.28
  -3   1  -4   99.21    7.32
   3  -1   4  104.21    7.35
   3  -1   4   92.26    8.52
  -3   1  -4   95.78    7.68
  -4  -2   2 1296.29   42.64
   4   2  -2 1202.24   42.14
  -4  -2   2 1196.58   44.18
  -1   4  -2 1803.13   66.09
   1  -4   2 1934.31   64.56
  -1   4  -2 1959.84   64.16
   1  -4   2 1923.02   67.74
  -3   0   4 1022.44   37.18
  -3   0   4 1032.35   35.71
  -3   0   4 1042.33   36.11
  -4  -3   0 3814.68  124.56
  -4  -3   0 3743.33  124.06
   4   3   0 3816.32  126.17
  -4  -3   0 3819.38  125.27
   4   3   0 3870.10  127.69
  -3   3   0 2383.02   78.04
  -3   3   0 2389.65   79.42
   3  -3   0 2244.53   77.70
  -3   3   0 2295.90   76.56
  -3  -1   4  231.48   11.27
  -3  -1   4  227.37   12.75
   3   1  -4  227.39   12.19
  -3  -1   4  241.87   11.75
   4   0   3    4.98    6.34
   4   0   3    1.29    5.50
  -4   0  -3   -1.51    6.59
  -4   0  -3   -2.38    5.76
  -4   0  -3    1.83    7.24
   3   4   1 2166.67   72.55
   3   4   1 2180.23   74.44
   3   4   1 2167.60   72.89
   3   4   1 2151.72   73.98
   3   4   1 2167.32   72.62
   3   4   1 2215.98   71.92
  -3  -4  -1 2147.50   72.06
   3   4   1 2141.47   75.33
   0  -2   5 4510.37  148.73
   0  -2   5 4509.73  147.35
   0   2  -5 4523.38  147.93
  -4  -3  -1 5115.34  167.98
   4   3   1 4998.24  169.54
   4   3   1 5289.76  169.26
   2  -3  -3 1261.68   47.55
   2  -3  -3 1335.29   47.20
  -2   3   3 1365.61   48.40
   3  -3   1  311.90   13.14
   3  -3   1  301.24   17.11
  -3   3  -1  257.66    9.76
  -3   3  -1  301.85   12.96
   0  -4  -3  537.98   23.60
   0   4   3  527.21   19.16
   0   4   3  503.05   19.45
   0   4   3  535.51   22.11
   0   4   3  585.38   23.58
   0  -4  -3  565.82   22.60
  -1   3   4 1226.13   42.08
   1  -3  -4 1192.37   43.84
   1  -3  -4 1209.26   41.61
   3  -2  -3  207.00   12.60
   3  -2  -3  214.05   13.71
  -3   2   3  219.55   13.07
   1  -3   4 3582.45  118.88
  -1   3  -4 3627.43  114.24
  -1   3  -4 3305.48  113.86
  -1   3  -4 3584.88  116.02
   4  -1  -2 1645.22   55.24
  -4   1   2 1629.44   56.02
   4  -1  -2 1583.33   53.94
   4  -1  -2 1624.78   55.49
   2   0  -5 1588.58   55.28
  -2   0   5 1573.95   49.89
  -2   0   5 1315.94   48.18
  -2   1  -5  379.80   14.77
  -2   1  -5  323.68   13.63
   2  -1   5  372.70   14.71
  -2   1  -5  395.06   14.80
  -2   1  -5  374.61   17.14
  -3   3   1 1742.07   60.00
  -3   3   1 1692.66   58.46
  -3   3   1 1786.08   60.28
   3   4  -1 3194.52  108.67
   3   4  -1 3355.39  108.09
  -3  -4   1 3184.97  105.49
   1   2  -5  670.57   24.96
   1   2  -5  669.85   26.38
  -1  -2   5  636.93   21.81
  -1  -2   5  663.70   24.02
  -1  -2   5  648.04   25.29
   1   2  -5  683.00   24.63
   4   3  -1  971.96   33.86
  -4  -3   1  985.60   35.65
  -4  -3   1 1045.56   34.96
   4   3  -1  924.70   32.61
   4   3  -1  907.96   30.90
   3   3  -3   22.51    8.32
  -3  -3   3   16.18    2.99
  -3  -3   3   16.99    5.72
  -3  -3   3   10.25    8.44
  -3  -3   3   14.84    5.42
   3   3  -3   26.60    7.45
   4   2   3 1213.38   43.08
   4   2   3 1283.32   43.61
  -4  -2  -3 1264.79   44.59
  -4  -2  -3 1368.05   43.92
   4   2   3 1284.20   42.89
  -4  -2  -3 1260.96   44.11
  -4  -2  -3 1250.94   44.40
  -1  -4   3 2954.15   99.61
   1   4  -3 2961.02  100.92
  -1  -4   3 2924.13   98.35
  -1  -4   3 3016.16   97.87
   0   4  -3  934.80   31.40
   0   4  -3  898.72   35.57
   0  -4   3  933.92   33.67
   0  -4   3  954.62   33.07
   0  -4   3  992.26   32.51
  -2  -2  -5  277.57   12.80
   2   2   5  299.62   15.09
  -2  -2  -5  315.62   12.83
  -2  -2  -5  306.73   14.86
   2   2   5  304.80   13.40
  -2  -4  -3  304.24   13.72
  -2  -4  -3  297.67   15.83
  -2  -4  -3  265.98   11.01
   2   4   3  260.26   12.33
   2   4   3  265.81   15.03
   2   4   3  281.65   12.49
  -2  -4  -3  278.99   15.87
   2   4   3  259.88   14.40
  -2  -4  -3  286.43   10.83
   2   1  -5 1736.58   58.56
   2   1  -5 1724.96   57.99
  -2  -1   5 1617.36   55.76
  -2  -1   5 1554.12   54.44
  -2  -1   5 1656.64   54.86
   2   1  -5 1667.73   59.25
  -1   2  -5 8866.31  286.00
  -1   2  -5 8661.08  284.90
   1  -2   5 9122.07  298.94
  -2   4   0  236.53   14.19
  -2   4   0  220.32   16.65
  -2   4   0  231.46   11.33
   1  -2  -5 2285.39   78.40
  -1   2   5 2275.70   76.76
   1  -2  -5 2380.01   78.00
  -1   2   5 2316.85   77.20
   3   4   2 1687.21   56.23
   3   4   2 1564.53   54.54
   3   4   2 1775.41   57.42
  -3  -4  -2 1737.61   59.15
   3   4   2 1723.08   55.18
   3   4   2 1722.07   58.69
   3   4   2 1679.29   57.60
   3   4   2 1646.10   56.04
   4   3   2 5317.33  170.05
   4   3   2 5174.05  169.55
   4   3   2 4996.64  170.01
  -4  -3  -2 4921.42  163.04
  -4  -3  -2 5378.30  163.87
   4   3   2 5206.57  169.15
   4   3   2 5144.57  168.72
  -4  -3  -2 4827.12  162.46
  -4   2   0  327.13   12.69
  -4   2   0  320.11   14.87
  -2  -3   4 1488.59   51.71
   2   3  -4 1459.80   51.32
   2   3  -4 1485.69   50.21
   2   3  -4 1470.00   49.81
   3  -1  -4 1189.07   42.42
  -3   1   4 1217.56   42.14
  -3   1   4 1160.38   39.64
  -4  -1   3  486.75   19.91
   4   1  -3  485.32   18.67
   4   1  -3  463.90   18.64
  -4  -1   3  502.14   19.50
  -4   2  -1  446.08   16.29
   4  -2   1  421.01   16.80
  -4   2  -1  433.43   18.19
   2  -4   1  809.88   32.70
   2  -4   1  810.54   28.18
   2  -4   1  848.79   29.07
  -2   4  -1  788.31   32.10
   3   2  -4  532.35   20.93
  -3  -2   4  523.93   19.73
  -3  -2   4  531.50   21.02
   3   2  -4  538.97   21.19
  -3  -2   4  526.02   21.11
   2  -4  -1  872.62   29.98
  -2   4   1  840.62   32.67
  -2   4   1  846.44   29.81
  -4   0   3  524.14   20.88
   4   0  -3  536.90   19.79
   4   0  -3  514.71   20.73
  -2   1   5  295.61   15.77
   2  -1  -5  288.05   14.13
   3  -3   2 1915.53   64.13
   3  -3   2 1964.70   64.86
   3  -3   2 1856.09   66.61
  -4   1  -3  159.05    9.66
   4  -1   3  155.64    8.77
   4  -1   3  174.13    8.70
  -4   1  -3  159.90    8.78
  -4   2   1  586.29   23.16
   4  -2  -1  577.27   23.19
  -4   2   1  581.23   23.67
  -4   2   1  610.44   21.57
   1   5   0  457.50   17.87
   1   5   0  423.72   15.11
  -1  -5   0  461.27   17.12
  -1  -5   0  454.87   18.91
   1   5   0  451.16   16.23
   3  -3  -2   26.62   10.07
  -3   3   2   26.23    9.35
  -3   3   2   18.82    9.05
   1  -4  -3  856.32   29.34
   1  -4  -3  847.27   32.94
   1  -4  -3  779.29   31.41
  -1   4   3  799.06   27.52
  -1   4   3  830.86   28.53
  -1   4   3  815.70   32.05
   2   4  -3 1807.59   64.53
   2   4  -3 1947.69   63.31
  -2  -4   3 1867.44   62.46
   2   4  -3 1896.32   63.01
   3   3   4    5.02    7.80
  -3  -3  -4    5.07    8.52
   3   3   4    9.08    6.16
   3   3   4    8.75    8.74
  -3  -3  -4   12.47    5.16
  -3  -3  -4   -1.84    7.41
   0   0   6  184.50    9.27
   3   4  -2 2265.90   75.54
  -3  -4   2 2275.70   75.99
   3   4  -2 2387.24   76.99
   1  -4   3  548.40   22.31
   1  -4   3  431.58   14.89
  -1   4  -3  539.15   19.26
  -1   4  -3  583.97   21.19
  -1   4  -3  501.33   23.39
   3   1   5  239.43   13.10
   3   1   5  224.63   11.98
   3   1   5  216.13   11.23
  -3  -1  -5  232.19   10.95
  -3  -1  -5  225.50   11.83
   3   1   5  219.95   11.40
  -3  -1  -5  241.53   13.02
   1   5   1  227.40    9.99
   1   5   1  259.35   11.28
   1   5   1  215.40   12.54
   1   5   1  214.35   14.32
  -1  -5  -1  234.10   12.38
   1   5   1  250.71   16.36
  -1  -5  -1  224.11   16.36
   1   5   1  194.96    7.68
  -5  -1   0  987.38   34.74
  -5  -1   0 1038.35   34.75
   5   1   0 1022.31   35.74
  -5  -1   0  953.31   33.35
  -5  -1   0  986.17   34.46
   3   0   5  816.15   28.97
  -3   0  -5  841.68   30.23
   3   0   5  774.75   29.97
   3   0   5  828.71   29.11
  -3   0  -5  844.58   31.43
  -4  -3   2   23.79    8.96
  -4  -3   2   18.38    4.89
  -4  -3   2   23.65    6.22
  -4  -3   2   22.91    5.33
   4   3  -2   24.18    8.82
   4   3  -2   21.76    5.98
  -5  -1  -1  472.44   19.78
  -5  -1  -1  498.24   19.55
   5   1   1  524.51   20.03
  -5  -1  -1  534.93   19.71
   0   5   0  238.52    9.73
   0  -5   0  238.44   12.12
  -4  -2   3  332.93   14.54
   4   2  -3  316.82   14.92
   4   2  -3  330.69   13.99
  -4  -2   3  334.05   15.79
  -4  -2   3  343.12   13.95
  -2  -2   5   15.70    9.26
  -2  -2   5   15.00    8.12
   2   2  -5    9.31    7.51
   2   2  -5   11.58    8.76
   2   2  -5   13.16    6.71
  -1   0  -6  131.13   11.66
   1   0   6  116.25    7.83
   1   3   5  382.73   16.95
   1   3   5  426.07   17.20
  -1  -3  -5  466.42   20.76
  -1  -3  -5  438.18   16.82
   1   3   5  457.20   19.40
  -1  -3  -5  421.56   18.87
  -1  -3  -5  417.00   19.06
   4  -2   2  207.85   11.01
   4  -2   2  211.47    9.00
   4  -2   2  210.87   14.29
  -4   2  -2  211.97    9.45
   1   5  -1  924.01   32.17
   1   5  -1  990.00   34.02
  -1  -5   1  976.54   32.38
  -1  -5   1  908.40   31.66
  -1  -5   1 1028.37   34.48
  -4  -1  -4  880.37   31.10
  -4  -1  -4  839.66   31.37
   4   1   4  797.18   29.64
   4   1   4  851.44   29.61
   3  -2   4  348.89   13.86
  -3   2  -4  339.04   14.21
  -3   2  -4  341.99   14.47
   3  -2   4  321.00   12.87
   3  -2   4  332.93   15.74
   0   1   6 2073.60   69.73
   0  -1  -6 2206.44   74.03
   2  -4   2 1553.49   56.41
  -2   4  -2 1549.49   56.23
   2  -4   2 1572.97   52.59
  -2   4  -2 1594.50   54.08
   2  -4   2 1590.47   53.52
  -5   0   0  940.92   32.42
  -5   0   0  898.86   32.49
  -5   0   0  922.72   32.99
   0   5   1    4.60    9.16
   0   5   1    8.30    4.68
   0   5   1    6.51    6.79
   0  -5  -1    2.07   11.34
   0  -5  -1    3.34    6.91
   0   5   1    6.43    4.90
   1   1   6  315.23   13.80
   1   1   6  338.88   17.07
  -1  -1  -6  336.91   16.78
   0  -3  -5 1401.27   50.26
   0  -3  -5 1430.67   48.02
   0   3   5 1418.24   49.58
   0  -3  -5 1441.93   49.93
   0   3   5 1375.00   47.80
   0   3   5 1387.29   47.37
   0  -3  -5 1350.84   50.99
   2  -4  -2   16.78    3.76
   2  -4  -2   24.89   11.45
   2  -4  -2   20.13   11.39
  -2   4   2   17.85    9.57
   2   5   0  201.68   11.63
   2   5   0  219.42    9.76
   2   5   0  180.45    6.89
  -2  -5   0  223.39   12.68
   2   5   0  237.73    9.57
  -2  -5   0  228.86   10.49
  -1  -4  -4 1705.42   58.38
  -1  -4  -4 1628.61   58.80
   1   4   4 1705.04   57.62
   1   4   4 1619.91   60.19
  -1  -4  -4 1678.42   55.98
   1   4   4 1797.32   59.85
  -1  -4  -4 1704.42   59.56
  -5   0  -1 1454.95   50.07
   5   0   1 1454.90   50.65
   5   0   1 1542.45   51.13
  -5   0  -1 1441.66   49.48
  -2   3  -4  261.01   10.98
  -2   3  -4  283.96   13.71
   2  -3   4  259.57   15.56
  -2   3  -4  247.38   14.63
  -2   3  -4  227.74   11.07
  -4   0  -4  318.62   14.53
   4   0   4  326.95   13.64
  -4   0  -4  337.11   15.48
  -4   0  -4  326.08   15.49
   0  -1   6  300.74   12.22
   0  -1   6  311.20   14.38
   4  -1  -3  128.44   10.82
   4  -1  -3  124.02    7.39
   4  -1  -3  125.97   10.12
   0   5  -1  768.91   26.52
   0  -5   1  761.27   28.17
   0   5  -1  697.05   30.64
   0  -5   1  760.91   26.29
   0   5  -1  754.67   25.50
  -2   2  -5 5377.05  176.87
  -2   2  -5 5338.58  176.73
  -2   2  -5 5309.76  178.85
   2  -2   5 5399.40  178.36
  -2   2  -5 5507.09  177.20
  -5  -1   1 1429.87   47.46
  -5  -1   1 1435.58   46.45
   5   1  -1 1373.82   48.05
   4   3   3 6682.40  219.19
  -4  -3  -3 6740.85  217.62
  -4  -3  -3 6802.22  218.46
   4   3   3 6832.83  218.81
   4   3   3 6490.05  219.61
  -4  -3  -3 6582.42  217.71
  -4  -3  -3 6456.87  218.42
   2   5   1  144.42   12.44
   2   5   1  156.96    8.77
  -2  -5  -1  144.47    8.63
   2   5   1  138.43    8.67
   2   5   1  146.92    9.93
   2   5   1  139.21   14.91
   2   5   1  144.34    9.91
  -3  -4  -3   21.49    9.57
  -3  -4  -3   26.11    6.78
   3   4   3   25.10    9.24
   3   4   3   20.82    6.35
   3   4   3    8.82    6.79
   3   4   3   18.46    7.19
   3   4   3   25.28   11.20
   3   4   3   28.90    5.10
   5   2   0  445.75   19.79
  -5  -2   0  429.23   17.43
  -5  -2   0  466.63   17.62
   5   2   0  459.28   18.00
  -1   0   6 2309.90   79.04
   5   2   1   61.60    3.81
  -5  -2  -1  104.27    8.35
  -5  -2  -1   95.97    8.06
  -5  -2  -1  104.75    8.43
   5   2   1  104.82    8.07
   4  -2  -2   18.21    9.19
  -4   2   2   17.49    8.72
  -2   3   4  131.30    8.59
  -2   3   4  139.38   12.14
   2  -3  -4  142.96   13.83
   2  -3  -4  131.49    9.12
   0  -4  -4  218.06   14.57
   0   4   4  209.42   10.06
   0  -4  -4  209.78   15.85
   0  -4  -4  223.49   13.35
   0   4   4  215.99   10.84
   0   4   4  212.31   13.91
   3   2   5   37.26    6.56
   3   2   5   36.73    7.42
   3   2   5   16.94    5.28
   3   2   5   40.91    7.69
   3   2   5   38.41    9.37
  -3  -2  -5   29.02    8.38
  -3  -2  -5   29.70    6.07
   5   1   2  461.10   18.42
   5   1   2  490.69   18.78
  -5  -1  -2  406.78   17.64
  -5  -1  -2  451.21   18.01
  -5  -1  -2  458.06   16.97
   1   5   2 1642.93   58.08
   1   5   2 1800.41   59.38
   1   5   2 1836.26   58.11
  -1  -5  -2 1706.71   56.82
   1   5   2 1767.06   61.02
  -1  -5  -2 1929.02   62.69
   1   5   2 1800.79   59.82
   1   5   2 1834.35   62.75
   1   5   2 1818.49   62.51
   0   3  -5 2744.28   89.79
   0  -3   5 2699.70   87.96
   0  -3   5 2556.85   88.22
   0   3  -5 2654.48   89.87
   0   3  -5 2605.87   86.50
  -1   1  -6 1994.53   73.33
   1  -1   6 2190.91   73.54
  -1   1  -6 2208.59   71.44
   1  -1   6 2232.90   74.82
  -5   0   1 2015.74   69.66
  -5   0   1 2165.33   69.67
  -5   0   1 2030.75   69.51
   5   0  -1 1901.90   63.75
   2   5  -1  177.95    8.46
   2   5  -1  190.46   11.67
  -2  -5   1  190.43    9.49
   2   5  -1  135.08    5.77
  -2  -5   1  193.46   12.25
   2   5  -1  193.77    8.25
   2   5  -1  161.38    6.39
   2   3   5  453.56   19.77
  -2  -3  -5  443.53   18.87
   2   3   5  440.81   18.72
  -2  -3  -5  456.91   20.56
  -2  -3  -5  433.76   16.99
  -2  -3  -5  440.56   16.93
   4   2   4  579.70   21.10
  -4  -2  -4  564.58   21.20
   4   2   4  505.32   20.21
   4   2   4  516.44   20.55
  -4  -2  -4  562.27   21.39
  -4  -2  -4  514.16   21.34
   4   4   0  811.24   29.49
   4   4   0  938.09   30.41
   4   4   0  900.18   31.13
  -4  -4   0  877.39   32.32
  -4  -4   0  925.48   31.65
  -4  -4   0  905.47   30.59
  -3   3  -3 1130.31   40.32
   3  -3   3 1107.06   35.47
   3  -3   3 1071.81   34.54
   3  -3   3  937.19   33.01
   3  -3   3 1020.44   37.57
   3  -2  -4  168.51   12.14
   3  -2  -4  155.88   13.06
  -3   2   4  155.03    9.23
   2   4   4 1281.64   43.10
  -2  -4  -4 1328.59   44.95
   2   4   4 1233.58   43.63
   2   4   4 1208.51   41.81
  -2  -4  -4 1298.87   46.27
  -2  -4  -4 1233.24   45.79
  -2  -4  -4 1268.21   42.68
  -2  -4  -4 1241.88   42.91
   2   4   4 1287.64   42.64
  -1  -1   6  946.27   34.13
  -1  -1   6  930.22   32.57
   1   1  -6  931.16   35.04
  -1  -1   6  860.91   30.71
   1   1  -6  936.86   33.13
   1   1  -6  926.19   33.72
   4   4   1 1368.63   46.13
  -4  -4  -1 1296.17   45.78
  -4  -4  -1 1349.56   45.39
  -4  -4  -1 1318.75   44.20
   4   4   1 1338.51   46.42
   4   4   1 1325.77   47.54
   1   3  -5  732.26   28.31
   1   3  -5  708.32   25.87
  -1  -3   5  703.64   25.81
   3  -1   5 1491.63   46.40
  -3   1  -5 1539.25   52.76
   3  -1   5 1253.96   45.76
  -3   1  -5 1567.70   52.62
  -3   1  -5 1522.80   54.35
   2  -2  -5  205.59   13.30
  -2   2   5  198.49   13.61
   2  -2  -5  189.38   11.44
  -2   2   5  200.50   10.90
  -5  -2   1 1437.02   46.18
  -5  -2   1 1446.89   46.19
  -5  -2   1 1292.28   44.67
   5   2  -1 1461.16   51.14
  -5   0  -2 1072.56   37.43
   5   0   2 1085.72   38.63
   5   0   2 1164.80   39.40
  -1   1   6 2395.36   81.99
   1  -1  -6 2579.98   82.07
   1  -1  -6 2302.12   82.22
   0  -5  -2  731.82   30.61
   0   5   2  724.49   26.56
   0   5   2  761.61   26.43
   0   5   2  730.35   30.59
   0   5   2  734.90   29.05
   0  -4   4  444.10   18.03
   0  -4   4  444.41   17.22
   0   4  -4  447.92   21.54
  -1  -4   4 1064.89   36.79
   1   4  -4 1105.17   41.58
   1   4  -4 1091.64   39.73
  -3  -3   4    0.71    8.02
   3   3  -4    4.02    5.89
   3   3  -4    2.43    7.98
   3   3  -4    4.17    7.28
  -3  -3   4    2.82    2.05
  -3  -3   4   -2.20    5.75
  -1  -5   2  276.09   11.02
  -1  -5   2  253.85   13.64
   1   5  -2  245.89   17.28
   2   0   6   60.64    6.97
  -2   0  -6   68.19    7.86
  -2   0  -6   91.56   10.55
   2   0   6   85.99   11.26
  -3   0   5  750.14   26.76
  -3   0   5  734.19   27.53
  -3   0   5  743.43   28.84
  -2  -1  -6   60.79    8.00
  -2  -1  -6   67.12   10.16
   2   1   6   72.93    7.32
  -2  -1  -6   74.34    7.63
   2   1   6   98.95   11.45
  -2  -5  -2 1414.17   51.92
   2   5   2 1460.53   46.52
   2   5   2 1459.68   48.55
   2   5   2 1516.26   48.74
   2   5   2 1402.92   45.48
   2   5   2 1373.39   45.80
   2   5   2 1422.92   46.53
  -1   5   0  338.88   12.20
   1  -5   0  348.03   14.93
  -1   5   0  365.89   18.46
  -5  -2  -2 1537.41   47.51
  -5  -2  -2 1474.73   47.47
   5   2   2 1542.79   53.45
   5   2   2 1612.74   53.84
   3   1  -5  446.73   18.97
  -3  -1   5  444.90   19.26
   3   1  -5  467.02   19.72
  -3  -1   5  451.07   18.17
  -3  -1   5  432.48   17.59
  -3   3   3   28.07   10.03
   3  -3  -3   36.66    9.14
   3  -3  -3   35.24   10.67
   1   2   6  461.43   20.32
   1   2   6  447.29   18.53
  -1  -2  -6  448.95   18.04
  -1  -2  -6  460.19   20.42
   1   2   6  410.43   17.38
  -1  -2  -6  464.36   18.46
  -4  -4   1  682.30   25.22
  -4  -4   1  685.45   26.20
   4   4  -1  662.03   25.42
   4   4  -1  685.06   24.42
  -4  -4   1  755.08   24.68
   4   4  -1  730.02   24.54
   0  -5   2  797.21   32.39
   0   5  -2  773.83   31.82
   0  -5   2  835.37   29.17
   0  -5   2  716.59   25.98
   0  -5   2  795.37   26.10
   0  -5   2  801.58   27.04
  -1   3   5   48.72    7.23
   1  -3  -5   64.65   11.57
   1  -3  -5   62.62    7.89
  -1   3  -5 2294.59   77.45
   1  -3   5 2357.02   79.71
  -1   3  -5 2383.74   77.98
  -1   3  -5 2370.70   79.70
  -5   1   0   26.19    7.48
  -5   1   0   29.84    8.06
  -5   1   0   33.93    6.30
   0  -2  -6  178.79   12.59
   0   2   6  164.71   10.78
   0  -2  -6  185.15   10.39
  -4   1  -4  149.63   11.48
   4  -1   4  190.55    9.72
  -4   1  -4  168.99   11.65
  -4   1  -4  178.50   10.37
   4  -1   4  162.25   11.47
   4  -1   4  170.18    8.94
   4  -2   3  593.26   22.15
   4  -2   3  607.01   21.25
   4  -2   3  600.53   25.23
  -1   5   1  328.99   18.31
  -1   5   1  298.44   16.50
   1  -5  -1  330.85   14.00
  -1   5   1  315.57   13.25
  -1   5   1  342.95   12.57
   5  -1   1   45.68    6.02
  -5   1  -1   34.55    5.97
  -5   1  -1   44.59    6.11
  -5   1  -1   40.68    8.30
   3   4  -3 6365.65  217.97
  -3  -4   3 6403.68  210.01
   3   4  -3 6660.24  216.72
   3   4  -3 6776.67  217.56
   1  -5   1 1015.12   34.67
  -1   5  -1  960.87   37.54
   1  -5   1  986.66   33.55
   1  -5   1 1079.29   36.05
   1  -5   1 1006.70   39.52
  -4  -1   4  160.10   11.01
  -4  -1   4  163.93   10.39
   4   1  -4  171.51   10.32
  -4  -1   4  158.69    9.50
  -5  -1   2 2398.43   79.52
   5   1  -2 2355.60   77.08
   5   1  -2 2248.72   77.81
  -5  -1   2 2374.62   80.05
   4   4   2  974.78   34.63
  -4  -4  -2  928.41   34.23
  -4  -4  -2  962.38   33.90
   4   4   2  965.45   36.10
   4   4   2  941.38   34.15
  -4  -4  -2  958.30   32.63
   4   4   2  975.67   32.76
   4   4   2  899.98   35.31
   4   4   2  965.36   33.40
   4   4   2 1009.02   33.38
  -4   0   4  506.64   20.68
  -4   0   4  507.51   19.21
  -4   0   4  460.65   19.26
   4   0  -4  498.54   20.58
  -4  -3   3  307.74   13.62
   4   3  -3  331.48   14.51
   4   3  -3  347.31   16.15
  -4  -3   3  340.31   15.71
  -4  -3   3  325.59   13.29
  -4  -3   3  301.25   11.84
   2  -4   3  946.14   32.91
  -2   4  -3  894.81   36.56
  -2   4  -3 1008.17   34.94
   2  -4   3  904.67   31.89
   2  -4   3  949.73   35.96
   0  -2   6  472.74   21.57
   0  -2   6  500.47   20.03
   0  -2   6  498.80   17.80
   3   5   0  184.15    9.82
   3   5   0  200.86   13.00
  -3  -5   0  190.98   10.11
   3   5   0  243.29   17.52
   3   5   0  196.17    9.52
  -3  -5   0  213.71   12.99
   2   5  -2 2751.83   88.75
  -2  -5   2 2651.40   85.91
  -2  -5   2 2629.44   87.73
   2   5  -2 2629.69   90.98
  -2  -5   2 2529.90   85.23
   2   5  -2 2690.17   88.63
   2   5  -2 2592.70   93.61
   2   5  -2 2703.37   88.79
   2  -4  -3  198.67   10.60
  -2   4   3  215.66   14.76
   2  -4  -3  230.79   15.45
   2  -4  -3  191.71   15.69
   5   0  -2 1184.22   41.26
  -5   0   2 1211.24   42.02
  -1   4   4  143.44    8.82
   1  -4  -4  145.05    8.74
   1  -4  -4  141.66   11.98
   1  -4  -4  118.63   12.95
  -1   4   4  116.31    6.35
  -3   4   0   68.29    8.50
  -3   4   0   66.38    4.28
   3  -4   0   68.73   12.84
  -3   4   0   68.97   11.13
  -5   1   1    3.28    7.07
   5  -1  -1    6.62    7.64
  -5   1   1    4.46    7.96
  -5   1   1    3.41    5.70
   3   5   1  126.80   14.86
   3   5   1  148.04   11.22
   3   5   1  148.72    8.62
  -3  -5  -1  149.85    9.33
   3   5   1  155.37   11.95
   3   5   1  158.38    6.87
   3   5   1  157.49    8.92
   3   5   1  149.47    9.44
   5   3   0    4.26    9.59
  -5  -3   0    4.23    5.48
  -5  -3   0    8.81    6.10
   4  -3   0    4.27   12.40
  -4   3   0    7.82    4.46
  -4   3   0    8.41    8.65
  -4   3   0   -1.84    7.65
  -5  -1  -3   29.34    3.58
  -5  -1  -3   48.14    7.67
  -5  -1  -3   37.28    8.33
   5   1   3   42.12    6.93
   5   1   3   38.75    7.32
  -5  -1  -3   53.28    7.20
  -2   1  -6  250.78   12.06
  -2   1  -6  273.25   12.30
   2  -1   6  276.07   12.30
  -2   1  -6  225.42   10.09
  -2   1  -6  269.71   15.36
  -1   4  -4   82.12    6.17
   1  -4   4   81.05    8.32
  -1   4  -4   76.52   12.09
   1  -4   4   90.50   12.73
   5   3   1  651.43   24.88
   5   3   1  689.43   24.84
  -5  -3  -1  702.12   25.70
   5   3   1  720.18   27.40
  -3   1   5  626.96   25.63
   3  -1  -5  623.93   24.18
   3  -1  -5  609.60   25.10
  -3   1   5  625.02   22.40
   2   3  -5    0.67    9.02
   2   3  -5   -0.84    6.26
   2   3  -5    5.45    7.01
  -2  -3   5   -1.24    8.51
   2   4  -4  743.11   26.52
   2   4  -4  757.74   28.89
  -2  -4   4  760.21   27.13
   2   4  -4  748.02   26.82
   1   5   3 1472.68   51.58
   1   5   3 1490.00   52.52
   1   5   3 1388.88   52.93
   1   5   3 1386.97   49.96
   1   5   3 1497.88   48.90
  -1  -5  -3 1418.74   47.73
   1   5   3 1464.23   49.94
  -1  -5  -3 1490.71   52.29
  -2   0   6 2144.55   73.80
   2   0  -6 2191.75   75.51
   3  -4   1 1390.53   53.12
   3  -4   1 1488.18   49.95
   4  -3   1   -0.18   11.98
   4  -3   1   -0.09    6.38
  -4   3  -1    4.07    4.34
  -4   3  -1   -1.01    7.71
  -4   3  -1    6.48    8.66
   2   2   6   18.60   10.22
  -2  -2  -6    8.01    5.74
  -2  -2  -6   10.40    6.39
   2   2   6   19.21    6.71
  -2  -2  -6    7.81    8.94
  -5  -2   2  603.93   21.65
   5   2  -2  518.21   19.08
   5   2  -2  537.70   21.46
  -1  -2   6  140.11    9.96
  -1  -2   6  143.77    6.77
   1   2  -6  154.69    9.72
  -1  -2   6  141.68   12.44
   1   2  -6  149.87   12.51
  -3  -2   5  515.12   21.58
  -3  -2   5  533.62   21.15
   3   2  -5  525.73   20.34
   3   2  -5  537.44   21.22
   3   2  -5  539.65   22.09
  -3  -2   5  509.89   19.99
  -5   1  -2   40.08    5.83
   5  -1   2   53.51    6.27
  -5   1  -2   34.86    6.13
  -3   4   1   77.68   10.65
  -3   4   1   66.58   10.85
  -3   4   1   76.16    8.18
  -4   2   3  319.11   16.39
   4  -2  -3  334.94   15.11
   4  -2  -3  334.49   16.43
   4  -2  -3  262.09   10.25
   1  -2   6 1223.56   41.13
  -1   2  -6 1210.12   43.13
  -1   2  -6 1226.07   41.66
   1  -2   6 1163.17   43.00
   1  -2   6 1234.23   42.71
  -3  -5   1  610.54   25.11
  -3  -5   1  622.89   22.92
   3   5  -1  606.13   22.37
   3   5  -1  632.28   24.73
   3   5  -1  608.46   21.72
  -5   0  -3  433.13   17.40
   5   0   3  459.52   17.79
  -5   0  -3  435.96   18.24
  -5   0  -3  397.99   17.24
   5   0   3  455.37   18.76
  -4  -2   4  759.97   29.01
  -4  -2   4  784.49   27.99
   4   2  -4  756.63   28.37
   4   2  -4  760.23   28.28
  -4  -2   4  769.50   28.68
  -4  -3  -4  927.34   34.03
  -4  -3  -4  954.43   34.61
   4   3   4  847.39   33.97
   4   3   4  888.99   32.54
   2   1  -6 2703.16   91.64
   2   1  -6 2813.36   91.35
  -2  -1   6 2648.08   90.05
   2   1  -6 2637.41   92.68
  -1   5   2   29.23   11.24
  -1   5   2   47.14   10.99
  -1   5   2   40.19   14.01
   1  -5  -2   35.35    5.36
   1  -5  -2   37.36    6.46
   1  -5  -2   33.13   12.38
  -3  -3  -5  336.17   17.00
   3   3   5  328.25   15.54
  -3  -3  -5  339.04   14.09
   3   3   5  318.13   14.40
   3   3   5  314.48   14.81
  -4   3   1  574.41   24.44
  -4   3   1  614.91   23.10
  -4   3   1  601.76   24.51
   3   4   4   49.25    7.94
  -3  -4  -4   66.16   10.62
   3   4   4   56.60   11.28
  -3  -4  -4   52.76    5.91
   3   4   4   49.10    7.60
   3   4   4   69.92    8.68
  -3  -4  -4   54.18    8.33
   3   4   4   61.27    6.56
   1  -2  -6  207.19   11.91
  -1   2   6  208.23   11.32
  -1   2   6  219.82   12.23
   1  -2  -6  212.14   10.93
  -4  -4   2  406.82   14.68
   4   4  -2  371.11   18.31
  -4  -4   2  376.28   15.91
  -4  -4   2  372.56   14.43
   4   4  -2  419.72   16.26
   1  -5   2 1464.90   54.34
  -1   5  -2 1508.86   50.55
   1  -5   2 1485.36   51.01
   1  -5   2 1460.77   49.90
  -1   5  -2 1401.15   53.61
  -5  -3   1  100.94    7.02
   5   3  -1  105.84   11.16
  -5  -3   1   99.12    7.42
   5   2   3  231.58   11.58
   5   2   3  223.02   11.24
  -5  -2  -3  228.02   12.21
  -5  -2  -3  229.01   12.66
  -5  -2  -3  242.00   10.87
  -5  -2  -3  223.97   12.14
   5   2   3  239.34   11.85
   5   2   3  207.29   11.75
   0   5   3    2.41    5.24
   0   5   3    5.17    6.39
   0  -5  -3    1.68   11.91
   0   5   3   14.48   12.85
   0   5   3   -0.73   10.03
   2   5   3 1225.83   45.51
   2   5   3 1244.34   43.59
   2   5   3 1255.13   43.16
  -2  -5  -3 1211.37   45.47
  -2  -5  -3 1186.38   40.72
  -2  -5  -3 1306.70   43.23
   2   5   3 1258.88   44.40
   2   5   3 1224.47   46.05
   2   5   3 1246.90   43.96
   3   5   2  705.18   24.76
  -3  -5  -2  719.91   26.79
   3   5   2  688.52   26.50
   3   5   2  716.36   27.43
   3   5   2  724.32   26.23
   3   5   2  731.59   29.60
   3   5   2  712.29   28.59
   3   5   2  743.39   26.28
   4  -1  -4   67.42    9.83
  -4   1   4   60.23   10.07
   5   3   2  870.96   31.62
   5   3   2  833.28   31.03
   5   3   2  891.80   31.51
  -5  -3  -2  896.35   26.32
  -5  -3  -2  951.36   27.01
   5   3   2  932.12   31.03
  -4  -1  -5 1181.00   43.52
   4   1   5 1190.70   42.41
  -4  -1  -5 1289.11   44.20
  -4  -1  -5 1277.93   43.36
   4   1   5 1242.73   42.50
  -1  -5   3   15.94    4.71
   1   5  -3   17.77   13.45
  -1  -5   3    6.19    5.65
  -1  -5   3    6.41    8.38
  -3   2  -5    4.57    6.91
  -3   2  -5    9.42    6.41
  -3   2  -5   -2.92   10.00
   3  -2   5   13.31    5.72
   3  -2   5   20.53    9.53
   2  -1  -6    5.34    8.29
  -2   1   6    9.63   10.72
   2  -1  -6    5.26    7.01
  -3   3  -4  329.31   15.98
  -3   3  -4  316.88   13.90
   3  -3   4  294.99   11.42
   3  -3   4  314.76   13.05
   3  -3   4  307.46   16.99
   4   4   3  451.74   18.83
   4   4   3  467.77   17.06
   4   4   3  471.48   17.55
   4   4   3  435.59   21.65
   4   4   3  443.51   17.83
   4   4   3  445.62   19.95
  -4  -4  -3  444.01   19.04
   4   4   3  463.26   18.55
  -4  -4  -3  441.50   19.24
  -4  -4  -3  496.49   18.31
  -4   0  -5 1154.92   41.79
   4   0   5 1095.06   32.60
   4   0   5 1137.48   32.54
  -4   0  -5 1229.50   42.94
  -4   0  -5 1206.83   42.68
   4  -3   2  440.81   17.48
   4  -3   2  464.32   18.41
   4  -3   2  435.47   21.61
  -4   3  -2  465.71   16.87
  -1  -4  -5  876.84   33.54
  -1  -4  -5  842.47   33.50
  -1  -4  -5  904.38   34.96
   1   4   5  891.94   33.86
   1   4   5  888.00   31.98
  -1  -4  -5  897.79   30.85
   0  -5   3  494.50   18.05
   0  -5   3  467.48   20.86
   0  -5   3  508.04   17.45
   0   5  -3  478.51   16.81
   0   5  -3  452.62   23.00
   3  -4   2 1727.97   57.87
   3  -4   2 1747.18   58.85
   3  -4   2 1675.18   61.71
  -5   1   2  169.11    9.56
   5  -1  -2  170.06    9.68
  -5   1   2  165.97   11.44
   5  -1  -2  157.57   11.34
  -2   3  -5   31.37    6.10
  -2   3  -5    9.32    9.59
  -2   3  -5   15.88    9.99
  -2   3  -5   26.18    6.06
   2  -3   5   20.96    7.76
   3   1   6  170.89   11.43
   3   1   6  179.06   10.61
  -3  -1  -6  200.01   13.05
   3   1   6  196.38   13.04
  -3  -1  -6  189.24   11.38
  -3  -1  -6  184.93   10.22
   3   0   6  791.42   29.96
  -3   0  -6  782.07   28.94
  -3   0  -6  794.16   30.43
   3   0   6  800.29   29.65
   3   0   6  752.32   28.21
  -3   4   2  683.15   25.29
  -3   4   2  676.16   28.29
  -3   4   2  701.04   27.98
   3  -4  -2  455.48   15.68
  -5  -1   3  598.04   22.39
  -5  -1   3  568.84   22.30
   5   1  -3  591.61   22.82
   5   1  -3  612.64   23.27
   0   4   5  220.47   11.79
   0   4   5  243.78   15.17
   0  -4  -5  263.65   16.80
   0  -4  -5  247.87   15.51
   0  -4  -5  243.54   14.60
   0   4   5  237.79   11.15
  -1  -3  -6  316.92   16.67
  -1  -3  -6  323.40   15.58
   1   3   6  300.41   14.44
  -1  -3  -6  316.30   18.11
  -1  -3  -6  316.08   13.92
   1   3   6  307.98   17.12
   1   3   6  294.27   14.16
   2  -5   0  763.73   27.65
  -2   5   0  730.13   29.46
  -2   5   0  730.83   28.11
  -2   5   0  756.07   23.98
   4   2   5 1168.39   38.55
   4   2   5 1181.81   38.75
   4   2   5 1126.43   38.42
  -4  -2  -5 1193.51   41.10
  -4  -2  -5 1207.28   41.98
  -4  -2  -5 1136.59   42.06
   4   2   5 1045.82   38.07
  -2   3   5   72.32    8.03
  -2   3   5   66.08   11.54
   2  -3  -5   75.91   12.60
   2  -3  -5   93.21    9.00
  -4   3   2  478.91   21.45
  -4   3   2  486.43   19.46
   4  -3  -2  469.98   21.39
  -4   3   2  500.86   21.69
   3   5  -2 3510.92  115.09
  -3  -5   2 3147.89  113.84
  -3  -5   2 3554.99  112.58
   4  -2   4  363.37   15.42
  -4   2  -4  381.33   16.05
   4  -2   4  363.12   17.84
   4  -2   4  385.29   14.52
   2   2  -6  593.03   25.41
  -2  -2   6  619.71   23.22
   2   2  -6  616.11   24.05
  -2  -2   6  568.58   20.25
  -2  -2   6  567.22   24.14
   2   2  -6  647.34   23.66
   2   4   5  967.85   36.10
  -2  -4  -5  941.41   33.76
  -2  -4  -5  971.89   33.64
  -2  -4  -5  994.98   37.50
   2   4   5  949.12   34.57
   2   4   5  970.12   35.10
  -2  -4  -5 1020.03   36.21
  -2  -4  -5  972.52   36.53
   2   4   5 1005.87   36.11
   2   5  -3 2277.34   67.14
  -2  -5   3 2231.37   75.43
   2   5  -3 2320.75   72.90
  -2  -5   3 2282.94   75.61
   2   5  -3 2252.89   67.26
  -2  -5   3 2317.48   77.65
  -5   2   0    7.36    7.69
  -5   2   0   12.03    8.24
  -5   2   0    5.02    5.56
   3  -3  -4  150.30   12.30
   3  -3  -4  169.01   13.85
  -3   3   4  158.67   13.07
   5   0  -3  406.56   16.77
   5   0  -3  407.32   17.65
  -5   0   3  386.06   17.14
   0   3   6   63.33    8.69
   0  -3  -6   78.11   10.53
   0  -3  -6   71.74   10.54
   0  -3  -6   73.64    7.67
   0  -3  -6   81.09   12.71
   0   3   6   72.61   11.80
   5  -1   3   68.55    7.31
   5  -1   3   67.06    6.47
  -5   1  -3   69.75    7.33
  -5   1  -3   68.11    8.18
   2  -5   1 2742.82   88.19
  -2   5  -1 2646.99   91.76
   2  -5   1 2614.50   87.16
   2  -5   1 2548.00   91.88
  -5   2  -1  143.22   10.10
  -5   2  -1  157.07    8.46
  -2   5   1  142.26   13.30
   2  -5  -1  145.45    8.43
  -2   5   1  145.13    9.40
  -5  -3   2  530.84   19.45
   5   3  -2  543.49   22.51
  -5  -3   2  517.63   20.62
   2  -2   6 1196.70   42.97
  -2   2  -6 1157.93   40.77
  -2   2  -6 1168.19   43.28
  -2   2  -6 1159.77   40.34
  -2   2  -6 1192.17   40.72
  -3   2   5   49.74   10.99
  -3   2   5   52.54    7.79
  -3   2   5   27.31    3.96
   3  -2  -5   39.89    8.54
   3  -2  -5   41.71   10.08
   3  -2  -5   41.20   11.16
   0   0   7  498.06   19.22
  -2   4  -4  258.01   16.39
  -2   4  -4  269.32   11.82
   2  -4   4  261.62   17.53
  -2   4  -4  287.96   14.39
  -3  -4   4 1265.50   44.14
   3   4  -4 1282.84   44.51
   3   4  -4 1301.02   45.87
  -3  -4   4 1303.22   45.96
   3   4  -4 1293.53   43.91
   1  -5  -3  810.48   28.15
  -1   5   3  777.76   32.64
  -1   5   3  801.99   31.54
  -1   5   3  781.29   27.59
  -1   5   3  833.13   28.33
   1  -5  -3  755.22   32.75
  -3  -2  -6   -3.96    8.63
   3   2   6   -5.31    8.29
  -3  -2  -6  -17.00    7.95
   3   2   6    1.55    9.68
  -3  -2  -6   -3.35    6.45
   3   2   6   -8.77    7.91
   3   2   6    1.28    6.33
   5   1   4  221.04   11.93
   5   1   4  208.63   11.21
  -5  -1  -4  213.08   12.14
  -5  -1  -4  221.17   13.02
  -5  -1  -4  236.88   12.29
   0   4  -5  929.16   35.50
   0   4  -5  922.24   31.42
   0  -4   5 1012.74   35.11
   0  -4   5  965.93   35.60
   0   4  -5 1010.30   36.76
   5   2  -3 1040.85   36.69
  -5  -2   3 1113.77   39.08
  -5  -2   3 1137.93   39.21
   5   2  -3 1060.16   37.76
   5   3   3 1074.03   36.91
  -5  -3  -3 1028.08   35.70
  -5  -3  -3 1054.19   36.72
  -5  -3  -3 1050.85   37.24
   5   3   3 1082.50   37.80
   5   3   3  990.61   37.42
   5   3   3 1056.12   37.03
   5   3   3 1068.16   35.98
   1   4  -5  995.57   37.52
  -1  -4   5  978.68   34.62
   1   4  -5  989.19   38.63
   1   0   7  574.30   24.85
   1   0   7  577.70   21.61
  -1   0  -7  592.67   25.23
  -3  -5  -3  371.21   13.28
   3   5   3  360.10   16.07
   3   5   3  380.08   18.68
   3   5   3  381.05   16.08
   3   5   3  393.83   20.02
   3   5   3  400.35   17.66
  -2  -3  -6 1262.72   43.25
  -2  -3  -6 1229.23   42.41
   2   3   6 1179.01   42.16
  -2  -3  -6 1200.99   42.43
  -2  -3  -6 1227.42   45.33
   2   3   6 1212.51   43.37
   2  -4  -4  348.51   14.79
   2  -4  -4  345.05   19.18
  -2   4   4  334.10   14.47
   2  -4  -4  294.05   19.46
  -5   2   1  373.54   17.34
  -5   2   1  365.81   14.78
   4   3  -4  129.96   10.49
  -4  -3   4  122.94    8.27
  -4  -3   4  132.93    8.96
  -4  -3   4  115.29   10.98
  -4  -3   4  122.83    6.20
   4   3  -4  112.18    9.87
   3   3  -5  478.29   20.62
   3   3  -5  481.88   18.70
   3   3  -5  493.25   19.75
  -3  -3   5  486.60   20.81
   4  -1   5   17.08    6.49
   4  -1   5   24.73    6.45
   4  -1   5   20.79    7.68
  -4   1  -5   38.55    9.64
  -4   1  -5   18.20    9.80
  -4   1  -5    9.31    7.01
  -4   1  -5   21.19    7.71
  -1   5  -3 1353.12   45.52
  -1   5  -3 1213.03   47.99
   1  -5   3  705.26   23.93
   1  -5   3 1322.59   34.58
   0   3  -6 1189.91   43.94
   0  -3   6 1201.47   42.33
   0   3  -6 1207.97   40.32
   0   3  -6 1172.21   44.26
   1   5   4  700.15   25.43
   1   5   4  787.94   29.43
  -1  -5  -4  743.11   28.72
  -1  -5  -4  690.76   30.08
  -1  -5  -4  751.35   30.62
   1   5   4  700.46   28.23
   1   5   4  654.90   29.31
   1   5   4  703.06   26.42
   0   1   7 2210.47   74.52
   0  -1  -7 2390.13   80.38
  -1  -1  -7 1001.33   36.27
  -1  -1  -7 1066.41   38.76
   1   1   7 1069.11   38.60
   1   1   7  987.92   35.97
   3  -1   6 1760.84   59.75
  -3   1  -6 1728.03   61.54
  -3   1  -6 1766.83   59.60
  -3   1  -6 1749.10   59.64
   4   5   0  364.76   14.28
  -4  -5   0  284.75   10.38
   4   5   0  368.35   15.28
  -4  -5   0  363.52   14.15
   4   5   0  318.53   14.34
   4   4  -3  497.93   19.75
  -4  -4   3  442.56   16.52
  -4  -4   3  474.12   18.67
  -4  -4   3  510.68   21.20
  -4  -4   3  491.33   17.63
   4   4  -3  496.09   21.47
  -5   0  -4    5.12    8.63
   5   0   4    6.39    7.27
  -5   0  -4   21.09    8.70
   5   0   4    5.40    6.28
  -5   0  -4    8.81    7.61
  -4  -5  -1  233.21   12.22
   4   5   1  234.51   11.76
   4   5   1  198.51   10.92
   4   5   1  241.33   14.51
   4   5   1  225.62   14.45
   4   5   1  251.19   10.02
   4   5   1  230.13   11.21
   4   5   1  216.00   16.56
  -5  -4   0  382.76   14.50
   5   4   0  339.66   14.17
   5   4   0  360.89   15.82
   5   4   0  373.83   17.89
  -5  -4   0  366.13   15.26
  -5  -4   0  361.23   16.29
   0  -1   7  144.67    8.36
   0  -1   7  164.08   11.28
  -4   3  -3  767.54   29.47
   4  -3   3  719.70   30.10
   4  -3   3  766.70   27.70
   4  -3   3  749.49   25.22
   4  -3   3  698.18   26.49
  -1  -3   6   57.33    8.16
   1   3  -6   69.02    7.91
   1   3  -6   61.20   10.81
   5   4   1  726.17   25.90
  -5  -4  -1  760.95   27.61
  -5  -4  -1  743.22   28.13
   5   4   1  676.40   27.28
   2  -2  -6  530.41   21.63
   2  -2  -6  533.01   23.26
  -2   2   6  526.20   20.79
  -2   2   6  530.19   23.41
  -5   2  -2   54.72    6.20
   5  -2   2   49.06    5.68
   5   2   4  560.75   21.16
   5   2   4  554.95   21.47
  -5  -2  -4  518.29   20.52
  -5  -2  -4  555.84   21.81
  -5  -2  -4  567.37   21.80
   5   2   4  510.19   20.93
  -5  -2  -4  569.55   21.00
  -5  -2  -4  471.44   21.15
  -1  -6   0  851.59   31.72
   1   6   0  757.48   26.84
   1   6   0  836.45   27.75
   1   6   0  833.10   29.53
   3  -4   3 1289.57   48.94
   3  -4   3 1370.46   46.39
   3  -4   3 1311.23   45.15
  -3   4  -3 1385.23   48.75
  -3   4  -3 1383.52   50.76
  -4  -1   5  225.51   12.26
   4   1  -5  211.98   12.84
  -4  -1   5  242.94   12.65
  -4  -1   5  245.32   13.68
  -1   0   7 3159.04  105.35
  -1   0   7 3206.08  107.69
   1   0  -7 2974.09  101.40
   2  -5   2 3314.00  111.02
   2  -5   2 3412.70  115.76
  -2   5  -2 3313.00  117.80
  -2   5  -2 3548.28  115.44
   2  -5   2 3476.90  112.10
   4  -2  -4  370.34   18.94
   4  -2  -4  370.95   18.34
  -2  -5  -4 1815.67   60.20
  -2  -5  -4 1900.33   64.73
   2   5   4 1813.50   60.08
  -2  -5  -4 1762.42   60.49
   2   5   4 1843.22   61.04
   2   5   4 1811.35   62.84
  -2  -5  -4 1937.46   63.27
   2   5   4 1744.38   61.30
   2   5   4 1628.67   63.11
  -2  -5  -4 1754.17   64.32
   2   5   4 1790.04   61.39
  -4   0   5  697.65   25.87
  -4   0   5  708.34   26.57
  -4   0   5  705.52   27.84
   4   0  -5  688.08   27.23
  -2   5   2   39.73   11.42
  -2   5   2   44.53    7.00
   2  -5  -2   43.21   13.65
   2  -5  -2   44.87    5.79
   1  -4  -5    5.70    9.57
   1  -4  -5    9.18   11.58
   1  -4  -5    6.44    7.09
  -1   4   5    9.03    6.61
   0  -5  -4   24.34   12.25
   0   5   4   13.00   10.82
   0   5   4   14.81    5.74
   0   5   4   38.09   12.68
   0  -5  -4   17.58   12.06
   0   5   4   16.48    6.47
   0  -5  -4   11.20    9.38
   1   6   1  717.65   28.99
   1   6   1  588.39   21.65
   1   6   1  710.57   24.89
  -1  -6  -1  711.85   31.79
   1   6   1  739.86   23.52
   1   6   1  724.50   29.54
  -1  -6  -1  727.45   27.66
   1   6   1  695.61   26.33
   1  -1   7  186.62    9.85
   1  -1   7  190.33   12.20
  -1   1  -7  176.88   13.67
  -3   0   6  204.50   14.03
  -3   0   6  188.98   11.26
  -3   0   6  201.86   10.99
  -1   3   6  110.03    9.01
   1  -3  -6  112.21    9.61
   1  -3  -6  125.05   13.50
  -3  -1   6  847.54   32.31
  -3  -1   6  845.61   30.98
   3   1  -6  859.02   32.85
   3   1  -6  862.43   31.93
   3   1  -6  845.09   30.96
  -3  -1   6  830.65   30.55
   5  -1  -3  656.94   26.02
   5  -1  -3  644.67   25.68
   5  -1  -3  656.88   23.63
  -6  -1   0  894.05   30.67
  -6  -1   0  796.45   29.05
  -6  -1   0  848.92   30.28
   6   1   0  948.34   34.00
  -6  -1   0  819.91   30.63
  -1   4  -5   96.82   12.98
  -1   4  -5   98.31    7.02
  -1   4  -5   87.65    6.54
   1  -4   5   93.97    9.08
  -1   3  -6 2114.74   71.99
  -1   3  -6 2204.29   72.75
  -1   3  -6 2227.64   74.39
   1  -3   6 2211.92   74.69
   1  -3   6 2190.16   75.16
  -4  -5   1  903.86   30.79
   4   5  -1  986.47   33.95
  -4  -5   1  984.16   33.26
   4   5  -1  980.19   34.81
  -6  -1  -1  534.47   20.48
  -6  -1  -1  489.01   20.96
  -6  -1  -1  543.84   20.40
  -6  -1  -1  480.12   18.73
   6   1   1  562.67   21.81
  -4  -4  -4   22.02    7.19
   4   4   4    7.30    6.04
   4   4   4   13.87   11.30
  -4  -4  -4   23.40    9.36
   4   4   4   21.73    7.12
  -4  -4  -4   -2.83    8.06
   4   4   4   16.87    7.61
  -3   4   3  298.03   16.62
   3  -4  -3  238.99   18.13
   3  -4  -3  286.63   16.92
  -3   4   3  267.65   16.86
   5   4  -1   47.14   10.03
  -5  -4   1   52.32    6.30
  -5  -4   1   50.27    7.60
   5   4  -1   34.38    3.60
   5   4  -1   47.83    7.76
  -5  -4   1   52.45    5.89
   1   6  -1  882.29   30.37
  -1  -6   1  819.57   29.21
  -1  -6   1  962.19   30.38
  -1  -6   1  892.19   32.63
  -4  -3  -5    0.40    9.47
   4   3   5    7.19    8.69
   4   3   5    6.87    8.78
   4   3   5    3.37    6.78
   4   3   5    9.35    7.74
  -4  -3  -5    1.67    6.37
   2   6   0  494.16   20.84
  -2  -6   0  501.32   22.11
  -2  -6   0  538.23   20.10
   2   6   0  510.21   19.03
   0  -6   0  486.39   20.07
   0   6   0  462.91   16.73
   2   4  -5  262.96   12.80
   2   4  -5  274.49   12.48
   2   4  -5  273.95   15.54
  -2  -4   5  265.52   14.96
  -1  -1   7 1114.24   39.13
   1   1  -7 1152.88   42.49
  -1  -1   7 1186.33   42.66
   1   1  -7 1133.63   40.35
  -1  -1   7 1164.59   40.95
   3   4   5  425.18   18.58
   3   4   5  433.59   17.54
   3   4   5  420.40   19.55
  -3  -4  -5  421.51   17.05
  -3  -4  -5  460.53   19.35
   3   4   5  424.13   19.09
  -3  -4  -5  453.24   20.92
   4   5   2    8.91   11.46
   4   5   2    3.80    9.90
   4   5   2   10.98    9.74
   4   5   2    9.12    7.10
   4   5   2    6.86    5.53
   4   5   2    3.89    4.62
  -4  -5  -2   11.48    7.25
  -5  -4  -2 1458.91   50.45
  -5  -4  -2 1443.46   51.90
   5   4   2 1512.15   48.04
   5   4   2 1455.83   48.58
  -5  -4  -2 1571.78   51.56
   5   4   2 1570.14   47.57
   1  -1  -7  605.87   23.25
  -1   1   7  571.94   25.23
   1  -1  -7  580.41   23.72
   1   5  -4  119.24   15.95
  -1  -5   4  115.47    8.89
  -1  -5   4  118.30   11.60
  -1  -5   4  140.30    7.41
  -2   0  -7  110.81    9.17
  -2   0  -7  109.11   11.93
   2   0   7   85.36    8.15
   2   0   7  112.69   12.68
  -2  -6  -1  567.37   23.28
   2   6   1  576.99   21.46
   2   6   1  584.60   27.07
   2   6   1  554.31   25.78
   2   6   1  566.54   23.32
   2   6   1  581.26   22.79
   4  -3  -3  405.96   20.18
  -4   3   3  460.40   21.17
   2   1   7   46.70   11.46
  -2  -1  -7   28.73   10.18
   2   1   7   17.69    6.79
  -2  -1  -7   17.19    7.17
  -5   2   2  338.87   16.82
   5  -2  -2  324.02   16.65
   0   6   1   14.54    5.42
   0  -6  -1   19.34    7.86
   0   6   1   18.19    5.24
   0   6   1   12.00   10.24
   0  -6  -1   16.57   12.98
   3   5  -3 2700.89   95.42
   3   5  -3 2892.89   93.70
  -3  -5   3 2781.63   92.71
   3   5  -3 2863.62   94.21
   0   5  -4   40.62    5.08
   0  -5   4   44.25    4.71
   0   5  -4   50.84   13.68
   0  -5   4   34.43    7.33
   0  -5   4   35.41    6.13
   0  -5   4   38.70    8.85
  -6  -2   0  837.55   29.58
  -6  -2   0  788.91   28.91
   6   2   0  810.78   31.39
  -6  -2   0  761.77   29.00
   6   2   0  811.83   29.78
   6   2   1  490.69   19.82
  -6  -2  -1  477.51   19.01
  -6  -2  -1  491.51   18.62
  -6  -2  -1  391.87   18.47
  -6   0   0  895.64   32.05
  -6   0   0  900.37   31.97
  -6   0   0  860.53   32.51
  -1  -2  -7 1013.98   34.97
  -1  -2  -7 1010.83   37.30
   1   2   7  963.96   34.91
  -1  -2  -7  937.45   34.65
   1   2   7 1009.98   36.62
   1   2   7  903.21   34.08
   6   0   1 1014.61   35.81
  -6   0  -1  971.65   35.96
  -6   0  -1  994.71   35.24
  -4  -2   5  961.31   35.39
  -4  -2   5  974.23   35.43
   4   2  -5  979.40   36.04
   4   2  -5  978.23   35.64
  -4  -2   5  953.39   34.38
   0   6  -1  851.79   30.12
   0   6  -1  865.04   29.02
   0  -6   1  895.76   32.14
   0   6  -1  824.44   35.54
   0  -6   1  852.09   29.71
  -6  -1   1 1810.84   60.24
   6   1  -1 1794.22   62.21
  -6  -1   1 1709.43   60.00
   0   2   7  230.06   13.34
   0  -2  -7  252.36   12.98
   0   2   7  214.05   11.96
   2   6  -1  176.46    8.13
   2   6  -1  204.91   11.69
  -2  -6   1  171.08   12.08
   2   6  -1  168.28    8.12
  -2  -6   1  167.05    9.04
  -1  -6  -2  225.99    8.30
   1   6   2  279.26   10.70
  -1  -6  -2  318.88   18.69
   1   6   2  287.19   10.99
   1   6   2  288.17   12.69
   1   6   2  304.20   16.26
   1   6   2  292.76   19.28
   1   6   2  314.70   14.03
   1   6   2  264.91   17.83
  -5  -3   3  781.10   28.90
  -5  -3   3  900.45   32.40
  -5  -3   3  831.61   30.54
  -5  -3   3  881.89   29.83
   5   3  -3  832.91   30.87
   5   3  -3  806.22   29.07
  -6  -1  -2  956.97   34.95
   6   1   2 1042.42   37.15
  -6  -1  -2  964.64   33.77
   6   1   2 1059.21   37.35
  -6  -1  -2  991.50   35.07
   3  -1  -6  176.01   11.78
   3  -1  -6  181.32   13.37
  -3   1   6  154.05   13.62
  -3   1   6  167.59    9.12
   2   3  -6  198.34   11.84
   2   3  -6  210.53   11.26
   2   3  -6  193.98   13.99
  -2  -3   6  206.52   13.29
  -5   1  -4  180.00   12.67
   5  -1   4  174.73   13.36
  -5   1  -4  172.15   11.25
   5  -1   4  182.99    9.70
   5  -1   4  175.40   10.26
  -3   3  -5  533.97   20.94
  -3   3  -5  549.98   21.00
  -3   3  -5  594.52   23.27
  -3   3  -5  523.64   23.37
   3  -3   5  556.80   23.52
   3  -3   5  524.11   19.30
   4  -1  -5  729.76   29.16
  -4   1   5  760.27   27.04
  -4   1   5  752.61   30.00
  -3  -3  -6  129.67   12.51
   3   3   6  139.15   10.25
   3   3   6  116.50   11.52
   3   3   6  121.74    9.32
  -3  -3  -6  140.24    9.00
   3   3   6  124.52    9.91
   5   1  -4  129.21   10.13
  -5  -1   4  134.79   10.58
  -5  -1   4  136.82   10.61
   5   1  -4  131.38   10.32
  -5  -1   4  127.92    9.40
   4  -4   0 1442.23   53.63
  -4   4   0 1409.03   48.26
  -4   4   0 1538.27   50.65
  -4   4   0 1483.15   52.21
   3   2  -6  967.41   37.08
   3   2  -6  983.55   35.06
  -3  -2   6  993.91   36.74
  -3  -2   6  964.58   35.85
   3   2  -6 1005.68   36.11
   5  -2   3  602.29   21.54
   5  -2   3  587.22   22.60
   5  -2   3  582.88   26.09
  -5   2  -3  576.19   21.49
   6   2  -1 1088.19   39.94
  -6  -2   1 1037.01   34.09
  -6  -2   1 1021.24   33.33
  -6  -2   1  865.97   31.21
  -6  -2   1  996.85   33.57
   6   0  -1  557.17   20.76
  -6   0   1  661.56   24.41
  -6   0   1  641.18   24.53
  -6   0   1  629.35   24.89
   0  -2   7   10.53   10.84
   0  -2   7   27.78    5.25
   0  -2   7   24.64    8.44
   2   6   2  787.31   29.40
   2   6   2  786.19   28.10
   2   6   2  787.21   27.63
  -2  -6  -2  788.16   33.19
   2   6   2  798.34   32.13
   2   6   2  710.53   25.61
   2   6   2  809.34   28.82
   2   6   2  783.98   31.79
   2   5  -4 1934.70   65.25
   2   5  -4 1959.32   70.06
   2   5  -4 1981.57   65.09
   2   5  -4 1884.73   67.34
  -2  -5   4 2004.46   67.23
   5   3   4   42.42    7.80
   5   3   4   43.63    7.36
  -5  -3  -4   29.19    8.71
  -5  -3  -4   49.55    8.62
  -5  -3  -4   39.45    7.90
   5   3   4   36.13    8.29
   5   3   4   35.66    7.21
   5   3   4   42.26    7.82
  -6  -2  -2   42.97    4.29
  -6  -2  -2   52.38    8.16
   6   2   2   58.73    8.35
   6   2   2   63.42    7.53
  -6  -2  -2   45.93    8.70
  -4  -1  -6  983.84   34.77
   4   1   6  973.49   35.18
   4   1   6  946.63   34.85
   4   1   6  947.88   35.68
   4   1   6 1021.59   35.82
  -4  -1  -6  989.01   36.33
  -4  -1  -6  951.73   35.31
  -2   1  -7    8.13    7.25
  -2   1  -7   24.98   10.35
   2  -1   7   19.76    6.40
  -2   1  -7   19.02    7.15
  -2   1  -7    7.37    4.57
  -4   4  -1   12.19    3.51
  -4   4  -1   -6.03    8.54
   4  -4   1   12.29   12.86
  -4   4  -1    9.32   10.12
   3   5   4  917.71   32.47
  -3  -5  -4  900.48   34.60
   3   5   4  817.69   31.95
  -3  -5  -4  939.42   32.78
   3   5   4  880.08   31.83
   3   5   4  814.85   33.77
  -3  -5  -4  871.92   29.87
  -3  -5  -4  833.28   30.38
   3   5   4  838.16   34.08
   3   5   4  894.86   30.29
   5   0  -4  267.11   12.62
   5   0  -4  256.99   13.95
  -5   0   4  258.94   14.42
   1   6  -2  647.77   29.88
  -1  -6   2  709.00   24.39
  -1  -6   2  671.88   24.21
  -1  -6   2  708.29   27.34
  -4  -5   2 2363.85   79.60
   4   5  -2 2429.34   79.04
   4   5  -2 2314.66   77.71
   6   0   2  337.02   15.23
  -6   0  -2  346.41   15.51
  -6   0  -2  339.98   15.74
   6   0   2  371.92   16.06
   0   6   2  204.69    9.36
   0  -6  -2  197.85   17.17
   0   6   2  193.59   10.94
   0   6   2  184.41   17.36
   0   6   2  200.10   10.03
   0   6   2  201.14   14.38
   1  -5  -4 1166.84   39.98
  -1   5   4 1131.86   41.56
  -1   5   4 1022.44   36.88
  -1   5   4 1073.99   42.13
   1  -5  -4 1124.45   42.63
   1  -5  -4 1163.59   44.35
   2   2   7  603.61   23.97
   2   2   7  593.82   25.42
  -2  -2  -7  659.19   22.96
   2   2   7  577.01   22.91
  -2  -2  -7  583.13   19.80
  -3   2  -6   65.89    7.63
   3  -2   6   69.80    9.74
  -3   2  -6   53.75   11.62
  -3   2  -6   69.85    8.03
  -2   5  -3 2267.06   83.74
   2  -5   3 2489.11   83.57
   2  -5   3 2485.01   87.07
  -2   5  -3 2513.18   81.94
  -5  -4   2  130.91    9.65
  -5  -4   2  146.24   12.94
   5   4  -2  117.96    7.75
   5   4  -2  144.42   12.01
  -5  -4   2  137.52    7.86
  -5  -4   2  146.70    8.14
   4  -2   5   66.71    7.64
   4  -2   5   68.92   10.25
   4  -2   5   73.29    6.63
  -4   2  -5   63.84    8.34
  -4   2  -5   39.55   10.18
  -4   4   1  676.24   28.00
  -4   4   1  679.01   26.05
  -4   4   1  683.86   28.35
   4  -4  -1  638.16   29.38
   2  -5  -3  229.63   17.13
   2  -5  -3  209.92   17.51
   2  -5  -3  235.05   11.43
  -2   5   3  258.02   16.97
   4   0   6 1661.10   57.41
  -4   0  -6 1724.97   59.38
   4   0   6 1688.34   58.34
   4   0   6 1677.35   57.45
  -4   0  -6 1659.13   57.88
   2   0  -7  844.61   33.20
  -2   0   7  861.13   33.76
   1   4   6   11.55    7.74
  -1  -4  -6   36.87   12.52
  -1  -4  -6   29.54    6.76
   1   4   6   22.07   11.18
   1   4   6   19.25    7.90
  -1  -4  -6   21.14   10.16
  -1  -4  -6   25.65    9.88
  -1  -2   7  363.94   13.71
   1   2  -7  375.06   16.78
  -1  -2   7  372.27   16.59
  -1  -2   7  347.57   18.75
   1   2  -7  402.00   19.71
  -1   5  -4  655.27   29.04
   1  -5   4  578.58   19.95
  -1   5  -4  689.12   24.06
   1  -5   4  667.70   27.76
   1  -2   7  356.00   14.05
  -1   2  -7  349.62   14.39
  -1   2  -7  337.38   16.78
   1  -2   7  335.39   16.81
   1  -2   7  354.44   16.27
  -3  -6   0  151.23    9.44
   3   6   0  145.22    8.85
   3   6   0  145.04   11.84
   3   6   0  148.06    8.74
   3   6   0  136.95   17.66
  -3  -6   0  143.77   12.14
   3   6   0  129.45    6.00
   5   4   3  742.59   29.73
  -5  -4  -3  802.05   29.54
   5   4   3  815.11   29.56
   5   4   3  769.51   28.72
  -5  -4  -3  840.00   29.04
  -5  -4  -3  838.21   30.70
   5   4   3  836.25   27.95
   5   4   3  787.07   28.16
   4   5   3   53.72    6.35
  -4  -5  -3   46.88    8.03
   4   5   3   55.14    5.23
   4   5   3   54.37    7.61
   4   5   3   54.07   10.61
   4   5   3   62.80   14.18
   4   5   3   62.27    8.47
   4   5   3   67.08    7.61
   4   5   3   48.36   10.28
   1  -6   0   22.59    7.76
  -1   6   0   22.77   11.73
   1  -6   0    8.63    2.39
  -1   6   0   20.72    3.65
   5   2  -4  897.03   33.16
  -5  -2   4  888.15   32.33
  -5  -2   4  878.24   33.78
  -5  -2   4  931.73   32.88
   0  -6   2  963.53   38.88
   0   6  -2  917.93   37.39
   0  -6   2  895.82   32.14
   0  -6   2  942.27   31.34
   0  -6   2  930.96   34.40
  -2   3  -6  606.14   22.04
  -2   3  -6  594.03   22.34
   2  -3   6  597.73   24.10
  -2   3  -6  555.81   25.71
  -2   3  -6  588.37   24.29
  -3   3   5 1025.57   36.64
   3  -3  -5 1040.10   38.71
   3  -3  -5 1039.24   39.59
   3  -3  -5  985.24   36.54
  -3  -6  -1  299.60   13.98
   3   6   1  286.52   13.39
   3   6   1  335.55   15.80
   3   6   1  290.41   17.14
   3   6   1  293.83   14.50
   3   6   1  297.79   13.45
   3   6   1  323.23   20.15
   4  -3   4  516.64   23.81
   4  -3   4  538.65   20.63
  -4   3  -4  564.45   23.78
   4  -3   4  518.77   18.97
   4  -3   4  574.64   21.91
   3  -5   0  300.44   19.78
  -3   5   0  338.50   17.45
  -3   5   0  331.51   13.83
   1  -2  -7  140.33   10.01
  -1   2   7  149.23   11.42
   1  -2  -7  148.25   11.41
   5   1   5  743.96   28.08
  -5  -1  -5  801.99   29.93
  -5  -1  -5  781.53   30.29
   5   1   5  756.72   27.87
   2   1  -7 3090.44  101.04
   2   1  -7 2977.67  101.39
  -2  -1   7 2972.94  101.20
   2   1  -7 2952.01  102.63
  -2  -6   2   10.11    5.77
   2   6  -2    9.52    3.95
   2   6  -2   18.26   15.68
   2   6  -2    5.87    4.98
  -2  -6   2    9.35    9.08
   6   1  -2 1356.68   47.89
  -6  -1   2 1470.51   50.05
  -6  -1   2 1453.69   50.84
  -6  -3   0  375.03   15.66
  -6  -3   0  367.62   15.90
   6   3   0  379.62   19.35
  -4  -2  -6  306.72   15.55
  -4  -2  -6  333.52   14.42
   4   2   6  297.26   12.67
  -4  -2  -6  314.32   16.41
   4   2   6  323.79   14.66
   4   2   6  333.58   13.51
   4   2   6  315.66   13.39
   6   3   1   -1.73    7.91
   6   3   1   -1.05    4.87
  -6  -3  -1   14.21    7.43
  -5   3   0  664.52   23.88
  -5   3   0  668.64   26.96
  -5   3   0  682.74   26.28
  -5   3   0  669.40   26.83
  -3   4  -4 1229.47   44.18
   3  -4   4 1232.80   34.59
  -3   4  -4 1231.14   45.92
   3  -4   4 1141.24   33.19
   3  -4   4 1198.27   37.64
  -2   4  -5   87.89    6.98
  -2   4  -5   79.73    7.25
   2  -4   5   83.24   13.54
  -2   4  -5   55.26   12.06
  -1   6   1  399.71   19.83
   1  -6  -1  360.01   13.29
  -1   6   1  389.98   20.88
   1  -6  -1  384.99   15.94
  -1   6   1  384.52   14.69
  -1   6   1  389.33   15.75
  -6   1   0  245.69   13.48
  -6   1   0  246.63   11.95
  -6   1   0  235.24   13.27
   4   4  -4   -3.08    7.51
   4   4  -4    7.31    8.62
  -4  -4   4   -1.05    2.74
   4   4  -4   -4.12    9.45
  -4  -4   4   -5.50    9.67
  -4  -4   4   -1.43    6.62
  -4  -4   4    2.45    5.90
   0  -4  -6  483.85   23.17
   0  -4  -6  534.46   23.12
   0  -4  -6  498.18   24.54
   0  -4  -6  516.93   19.70
   0   4   6  495.64   22.71
   0   4   6  482.70   19.92
   1  -6   1  643.02   25.02
  -1   6  -1  661.68   24.62
  -1   6  -1  658.67   29.77
   1  -6   1  651.32   30.35
   3  -5   1    7.96   13.13
  -6   1  -1  516.79   20.23
  -6   1  -1  526.41   21.89
  -5   3  -1  293.85   15.35
   5  -3   1  290.52   19.37
  -5   3  -1  288.74   15.47
  -5   3  -1  296.38   12.22
   4  -4   2  457.59   18.55
   4  -4   2  448.02   17.50
   4  -4   2  394.14   22.90
   6   1   3  340.51   15.55
  -6  -1  -3  337.25   15.79
  -6  -1  -3  336.77   16.22
  -6  -1  -3  323.21   15.52
  -6  -1  -3  338.76   14.70
   6   1   3  330.70   14.87
  -2  -4  -6 1219.32   43.47
   2   4   6 1249.28   44.30
  -2  -4  -6 1285.71   47.13
  -2  -4  -6 1233.97   45.54
  -2  -4  -6 1290.34   43.32
  -2  -4  -6 1274.62   46.14
   2   4   6 1276.02   45.93
  -3   5   1 1332.68   48.74
  -3   5   1 1346.95   49.63
  -3   5   1 1335.81   46.52
   3  -5  -1 1336.42   45.36
   1   5   5  248.53   12.36
   1   5   5  259.69   16.71
  -1  -5  -5  281.20   16.01
  -1  -5  -5  269.62   16.93
  -1  -5  -5  272.76   18.07
   2  -4  -5  698.39   25.87
   2  -4  -5  692.99   29.60
  -2   4   5  703.76   26.37
   2  -4  -5  628.70   29.35
  -3  -6   1   81.08    7.82
  -3  -6   1  105.86   11.44
   3   6  -1   92.23    6.84
   3   6  -1   95.47   11.29
   3   6  -1   74.17    7.18
   3   4  -5   74.98    8.86
  -3  -4   5   71.26   10.29
   3   4  -5   68.89   10.86
   3   4  -5   68.64    7.42
  -5   2   3  904.72   34.52
   5  -2  -3  841.18   33.57
   5  -2  -3  883.10   29.98
   2  -3  -6  194.41   12.21
  -2   3   6  193.14   15.01
  -2   3   6  193.22   11.23
   2  -3  -6  197.76   15.95
  -1  -6  -3  669.04   23.28
  -1  -6  -3  734.64   30.84
   1   6   3  713.62   31.35
   1   6   3  728.74   25.24
   1   6   3  719.62   29.40
   1   6   3  746.93   31.27
   1   6   3  732.02   27.32
   1   6   3  735.13   27.03
   5   0   5  108.36    8.75
  -5   0  -5  115.74   11.20
  -5   0  -5  113.19   10.31
  -5   0  -5  115.24   11.37
   2  -1  -7   -1.02    7.58
   2  -1  -7    7.98    9.02
  -2   1   7    1.17   11.04
   3   1   7   22.80    7.32
  -3  -1  -7   30.07    8.34
  -3  -1  -7   22.00    7.40
  -3  -1  -7   33.83   10.31
   3   1   7   45.10   11.63
   3   1   7   41.15    9.51
  -5  -2  -5  795.39   29.33
  -5  -2  -5  813.96   29.24
  -5  -2  -5  714.86   28.73
   5   2   5  718.16   26.98
   5   2   5  709.41   26.95
   6   0  -2  142.17   10.25
  -6   0   2  128.95   10.18
  -6   0   2  169.70    9.91
   6   0  -2  138.47   10.73
  -6  -2   2  913.79   31.10
  -6  -2   2  877.37   31.86
   6   2  -2  878.72   33.18
  -5   3   1  739.05   27.90
  -5   3   1  702.32   25.91
  -5   3   1  739.15   28.76
  -5   3   1  766.87   29.50
  -4  -3   5  707.32   26.06
  -4  -3   5  660.27   26.84
   4   3  -5  727.00   27.34
   4   3  -5  698.82   27.75
  -4  -3   5  742.25   27.82
   3   0   7  595.53   25.18
  -3   0  -7  633.75   24.56
  -3   0  -7  636.17   26.48
   3   0   7  597.28   23.00
   3   0   7  593.66   24.68
   3  -4  -4 1644.05   59.04
   3  -4  -4 1623.68   58.00
   3  -4  -4 1531.53   59.95
  -3   4   4 1722.12   61.18
   3  -4  -4 1662.38   56.05
   3   6   2  607.69   22.96
   3   6   2  617.49   27.64
   3   6   2  592.94   23.11
   3   6   2  593.02   26.10
   3   6   2  582.32   23.63
   3   6   2  633.18   24.45
   5  -1  -4  991.99   36.16
   5  -1  -4  980.70   33.42
   5  -1  -4  884.05   36.10
  -5   1   4  956.37   35.98
   6   3  -1  699.20   28.31
  -6  -3   1  693.00   25.48
  -6  -3   1  687.22   25.46
   6   2   3   26.26    7.46
  -6  -2  -3   33.35    8.57
   6   2   3   25.66    7.07
  -6  -2  -3   32.56    8.02
   6   2   3   24.96    7.86
  -6  -2  -3   26.95    8.20
  -6  -2  -3   30.25    6.22
  -6   1   1    7.10    8.66
  -6   1   1   -9.46    8.46
  -6   1   1    1.36    6.90
  -4   4   2 1012.50   37.47
  -4   4   2  973.76   35.14
  -4   4   2  929.74   37.41
  -6  -3  -2   99.08    8.95
   6   3   2  100.34    9.22
   2   6   3 1903.17   65.85
  -2  -6  -3 1744.41   58.68
   2   6   3 1844.48   65.04
   2   6   3 1871.19   67.21
   2   6   3 1895.11   64.34
   2   6   3 1890.84   67.76
   2   6   3 1931.50   63.07
  -2  -6  -3 1920.43   64.56
   2   6   3 1867.45   64.83
   2   5   5 1339.69   51.21
  -2  -5  -5 1422.88   50.76
   2   5   5 1457.96   51.13
  -2  -5  -5 1525.42   55.11
   2   5   5 1471.41   50.29
  -2  -5  -5 1547.00   50.65
   2   5   5 1570.32   52.96
  -2  -5  -5 1507.88   53.65
   2   5   5 1526.33   52.38
  -2  -5  -5 1551.63   54.77
  -3   2   6  990.94   35.98
  -3   2   6 1024.53   33.64
   3  -2  -6  975.71   37.70
   3  -2  -6  982.60   35.96
  -1  -3  -7    4.58   11.99
   1   3   7   -4.50    8.74
  -1  -3  -7    9.32    7.07
   1   3   7   -1.99   11.77
  -1  -3  -7    9.45    9.28
   1   3   7   14.95    7.39
   6   0   3  559.49   21.85
  -6   0  -3  553.25   22.05
   6   0   3  588.80   23.03
   4  -1   6  610.71   24.95
  -4   1  -6  872.86   31.61
  -4   1  -6  862.59   33.73
  -4   1  -6  859.96   31.85
   4  -1   6  858.17   26.48
   0  -5  -5  441.58   23.16
   0  -5  -5  524.13   22.70
   0   5   5  465.24   18.50
   0   5   5  479.06   18.52
   0  -5  -5  483.65   24.08
   0   4  -6 1192.96   41.06
   0   4  -6 1319.17   46.16
   0   4  -6 1349.28   46.38
   0  -4   6 1341.10   46.39
   0  -4   6 1311.69   47.10
  -4   3   4  812.35   32.38
   4  -3  -4  772.50   31.65
   4  -3  -4  772.10   30.74
  -6   1  -2  549.37   18.71
  -6   1  -2  407.62   16.90
   6  -1   2  593.36   22.86
   6  -1   2  558.90   21.53
   4   4   5  247.66   13.72
  -4  -4  -5  296.74   16.40
   4   4   5  262.64   15.76
  -4  -4  -5  281.99   13.10
   4   4   5  286.05   13.17
   4   4   5  304.52   14.50
  -4  -4  -5  293.37   14.84
   0   6   3  177.74   14.41
   0   6   3  192.24    9.15
   0  -6  -3  163.59   15.85
   0   6   3  165.25   10.22
   0   6   3  166.98   10.08
   0   6   3  188.44   17.84
   1  -6  -2 1545.34   60.15
   1  -6  -2 1628.21   54.56
  -1   6   2 1662.93   56.32
   1  -6  -2 1680.19   55.75
  -1   6   2 1661.56   61.71
  -1   6   2 1592.71   60.85
  -1   6   2 1694.10   56.50
  -1   6   2 1727.09   59.93
   5  -3   2  196.78   11.52
  -5   3  -2  178.55   12.90
   5  -3   2  164.62   16.73
  -5   3  -2  182.78    9.10
  -1  -4   6  594.69   23.05
   1   4  -6  609.52   27.72
   1   4  -6  617.36   23.21
   1   4  -6  604.56   26.14
   4  -2  -5  567.20   24.42
  -4   2   5  539.01   24.04
   4  -2  -5  553.23   25.07
   3   5  -4 1879.61   66.53
  -3  -5   4 1839.68   62.41
   3   5  -4 1957.23   64.88
   3   5  -4 1911.09   64.23
   3  -5   2  444.77   17.07
  -3   5  -2  432.21   24.03
   3  -5   2  424.30   23.26
   3  -5   2  470.15   18.63
   0   3   7  413.84   20.93
   0  -3  -7  426.85   17.21
   0  -3  -7  425.29   20.61
   0   3   7  396.96   18.00
   0  -3  -7  393.67   19.58
   0  -3  -7  390.52   21.37
   2   2  -7 1262.94   46.37
  -2  -2   7 1310.69   47.07
   2   2  -7 1371.68   46.12
   2   2  -7 1289.60   48.04
  -2  -2   7 1302.74   45.69
  -2  -2   7 1262.27   43.02
  -5  -5   0  751.88   28.41
  -5  -5   0  754.15   27.43
   5   5   0  757.76   24.68
   5   5   0  725.90   23.31
   3   3  -6  635.02   24.28
  -3  -3   6  609.63   20.43
   3   3  -6  605.15   26.25
   3   3  -6  687.26   25.38
  -3  -3   6  590.89   20.42
  -1  -6   3  340.76   13.38
   1   6  -3  299.33   11.06
  -1  -6   3  329.35   16.94
   1   6  -3  319.17   20.70
   1  -6   2  783.97   30.11
   1  -6   2  791.94   34.90
  -1   6  -2  797.76   28.89
  -1   6  -2  748.22   33.52
   1  -6   2  794.33   28.36
  -5  -5  -1  457.81   17.52
   5   5   1  485.77   19.19
   5   5   1  500.41   20.17
  -5  -5  -1  512.94   19.43
   5   5   1  471.51   21.87
  -5  -5  -1  493.99   20.06
  -2   2  -7  459.64   18.26
  -2   2  -7  449.26   18.11
  -2   2  -7  454.62   21.69
  -2   2  -7  405.91   17.63
   2  -2   7  413.99   18.98
  -3  -2  -7   28.65   10.49
   3   2   7   37.75   11.18
   3   2   7   44.68    7.53
  -3  -2  -7   33.77    7.58
   3   2   7   31.17    9.36
   4   5  -3 1262.88   44.27
  -4  -5   3 1237.67   43.25
   4   5  -3 1248.06   45.65
   5  -2   4  547.67   25.90
   5  -2   4  632.22   23.74
   5  -2   4  638.40   22.48
  -5   2  -4  600.47   23.37
  -3   5   2  707.33   27.24
   3  -5  -2  557.78   19.59
  -3   5   2  764.76   30.62
  -3   5   2  765.76   31.35
  -5  -3   4  669.88   23.59
   5   3  -4  654.55   25.92
  -5  -3   4  617.83   23.69
   5   3  -4  628.12   24.40
  -5  -3   4  613.84   25.44
  -5  -3   4  585.88   23.38
  -5  -3   4  598.87   21.80
   2   3   7  415.96   18.33
  -2  -3  -7  402.46   21.09
  -2  -3  -7  392.75   18.01
  -2  -3  -7  417.01   17.37
   2   3   7  420.86   20.57
   2   3   7  402.27   17.95
  -2  -3  -7  445.88   17.44
  -5  -4   3   51.65    6.84
  -5  -4   3   30.49    7.67
   5   4  -3   32.35   10.38
   5   4  -3   29.72    7.39
  -5  -4   3   40.43    5.30
  -5  -4   3   55.07   11.41
  -1  -5   5  181.17   11.50
  -1  -5   5  195.26   10.66
  -1  -5   5  193.10    9.48
   1   5  -5  185.67   14.41
   1   5  -5  197.33   17.81
   3   6  -2  611.77   22.36
   3   6  -2  658.80   22.50
   3   6  -2  655.64   26.40
  -3  -6   2  668.26   22.34
  -3  -6   2  619.40   24.84
   0   6  -3  883.23   36.57
   0  -6   3  973.39   34.73
   0  -6   3  921.19   31.01
   0  -6   3  898.16   31.10
  -1   4   6  526.17   20.85
   1  -4  -6  515.38   23.07
   1  -4  -6  488.69   23.93
   1  -4  -6  507.73   20.42
   0   5  -5   72.75   14.76
   0   5  -5   68.14    5.04
   0   5  -5   72.54    6.53
   0  -5   5   82.29    8.97
   0  -5   5   81.60    7.90
  -4  -1   6   27.52    7.61
  -4  -1   6   29.72    8.56
  -4  -1   6   37.98   10.85
   4   1  -6   17.08    9.95
   4   1  -6   23.49    9.62
  -3   1  -7  253.23   16.14
  -3   1  -7  242.74   13.02
  -3   1  -7  250.83   12.64
   3  -1   7  243.21   12.25
  -4  -3  -6   -2.45    6.71
  -4  -3  -6   -1.69    9.84
   4   3   6    5.10    9.79
   4   3   6    7.72    8.24
   4   3   6    1.40    8.63
  -4  -3  -6   -6.35    9.07
   4   3   6    0.07    7.49
  -5   3   2  647.85   26.54
   5  -3  -2  583.23   25.24
  -5   3   2  611.04   24.39
  -4   0   6  534.95   21.37
  -4   0   6  567.04   22.23
  -4   0   6  543.88   23.98
   4   0  -6  556.49   24.08
   5  -1   5    6.45    6.58
   5  -1   5   10.11    8.65
  -5   1  -5   -4.65    8.28
  -5   1  -5    2.06    9.84
   5  -1   5   -0.45    7.19
  -5   1  -5    1.84   10.40
   0   3  -7  332.92   18.78
   0   3  -7  343.11   19.21
   0  -3   7  358.48   16.67
   4  -4   3  651.74   24.74
  -4   4  -3  645.57   26.09
   4  -4   3  637.58   23.52
   4  -4   3  579.74   28.00
   1  -4   6  467.40   19.40
   1  -4   6  475.87   20.26
  -1   4  -6  508.49   22.73
  -1   4  -6  460.85   17.98
  -1   4  -6  493.11   18.72
  -5  -4  -4  393.83   16.73
   5   4   4  395.68   15.95
   5   4   4  368.83   16.44
   5   4   4  388.46   17.35
   5   4   4  421.19   16.41
   5   4   4  361.61   20.43
  -5  -4  -4  402.26   17.69
   3   4   6  542.97   21.76
   3   4   6  546.46   23.04
  -3  -4  -6  592.20   25.24
  -3  -4  -6  541.50   21.03
  -3  -4  -6  553.97   23.85
   3   4   6  568.23   23.84
  -3  -4  -6  540.63   20.74
  -5  -5   1  399.06   16.10
  -5  -5   1  375.99   15.14
  -5  -5   1  432.64   15.27
   5   5  -1  372.69   15.48
   5   5  -1  421.54   17.27
  -5  -5   1  429.04   17.68
   5   5  -1  393.84   15.24
   2   6  -3  272.07   10.64
  -2  -6   3  312.12   12.62
  -2  -6   3  316.52   16.20
  -2  -6   3  267.38   12.32
   2   6  -3  281.47   11.53
   2   6  -3  331.38   21.64
   4   5   4   75.98    9.28
  -4  -5  -4   94.50    9.77
   4   5   4   65.33   10.95
   4   5   4   58.51    8.61
   4   5   4   63.45   13.62
   4   5   4   74.98    8.77
  -2   5  -4 1942.35   64.76
  -2   5  -4 1771.45   66.24
   2  -5   4 1765.44   61.56
   2  -5   4 1885.23   65.66
   5   5   2  294.38   13.83
   5   5   2  243.74   15.13
  -5  -5  -2  267.71   14.04
   5   5   2  261.57   17.02
   5   5   2  265.15   11.42
   5   5   2  245.46   12.89
   5   5   2  266.23   12.01
   5   5   2  284.82   18.61
  -5  -5  -2  245.71   13.28
   2  -5  -4  783.36   34.62
   2  -5  -4  870.59   35.11
   2  -5  -4  848.43   30.50
  -2   5   4  853.58   31.28
  -2   5   4  902.25   35.75
  -6   1   2  192.55   11.59
   6  -1  -2  156.45   11.77
  -6   1   2  180.15   12.54
   6  -1  -2  193.98   11.30
  -6   1   2  180.52   10.47
   6   1  -3  207.73   12.30
  -6  -1   3  197.74   11.77
   6   1  -3  182.83   11.39
  -6  -1   3  184.02   11.23
  -6  -3   2  482.79   18.76
   6   3  -2  496.61   19.35
   6   3  -2  355.44   13.83
   5   3   5   92.58    9.91
  -5  -3  -5   89.97   10.01
  -5  -3  -5   80.12   10.44
   5   3   5   92.23    8.89
   5   3   5   90.64   11.37
  -5  -3  -5   93.71    9.39
   5   3   5   87.59    9.30
   0   0   8 1664.26   56.87
  -6  -3  -3  152.97    8.13
   6   3   3  196.61   12.17
   6   3   3  217.54   11.31
  -6  -3  -3  191.57   12.39
  -6  -3  -3  211.46   11.62
  -6  -3  -3  207.33   11.90
   6   3   3  208.43   11.55
   6   3   3  216.87   12.17
  -2   2   7  320.59   14.90
  -2   2   7  306.91   18.61
   2  -2  -7  342.55   18.88
   2  -2  -7  329.28   16.48
   3   6   3 1451.10   51.24
   3   6   3 1543.33   51.94
   3   6   3 1475.22   51.01
   3   6   3 1476.74   52.05
   3   6   3 1435.99   53.90
   3   6   3 1438.06   53.94
  -1  -3   7   19.45    3.61
  -1  -3   7   23.24    8.04
   1   3  -7   26.07   11.46
   1   3  -7   19.77    8.13
   2   4  -6    7.27    7.41
   2   4  -6   -7.98   11.09
   2   4  -6    4.74    7.98
  -2  -4   6    3.15   10.19
   3   5   5 1027.48   35.09
   3   5   5 1024.88   36.56
   3   5   5  954.41   37.98
   3   5   5 1018.63   37.03
   3   5   5  922.98   36.24
  -3  -5  -5 1042.71   38.72
  -3  -5  -5  964.65   34.27
  -3  -5  -5  949.35   33.89
  -3  -5  -5 1077.02   37.11
   1   0   8  638.77   24.14
   1   0   8  648.88   27.79
  -1   0  -8  643.53   27.79
   4   6   0   17.03    6.83
   4   6   0   37.93    6.29
   4   6   0   31.22   10.55
   4   6   0   32.08    7.98
   4   6   0   33.49   15.74
  -4  -6   0   22.79    7.55
   2  -6   0  133.91    9.89
   2  -6   0  124.54   16.76
  -2   6   0   75.86    3.84
  -2   6   0  114.20   14.22
  -2   6   0  113.14   16.64
  -6  -1  -4   -4.92    8.35
  -6  -1  -4    1.08    3.79
   6   1   4  -11.34    7.71
  -6  -1  -4   10.40    8.50
  -6  -1  -4    4.24    9.45
   6   1   4   -7.82    7.85
   4   6   1   41.78    7.23
  -4  -6  -1   33.91    7.80
   4   6   1   24.93   15.24
   4   6   1   43.83   10.65
   4   6   1   25.33   11.70
   4   6   1   38.69    4.45
   4   6   1   34.65    8.11
   4   6   1    9.81    7.34
   6  -1   3  538.99   21.82
   6  -1   3  509.84   21.11
   6  -1   3  520.28   20.19
  -6   1  -3  483.04   19.45
  -5  -1   5    4.87    8.44
  -5  -1   5   20.25    9.88
   5   1  -5    3.33    8.82
  -5  -1   5    6.56    7.37
   1   1   8 1443.07   49.53
  -1  -1  -8 1350.77   51.28
  -1  -1  -8 1439.32   49.09
   1   1   8 1278.38   46.56
  -1   5   5 2258.38   68.73
  -1   5   5 2187.86   71.71
   1  -5  -5 2227.69   78.73
   1  -5  -5 2326.92   77.93
   1  -5  -5 2181.12   74.97
   0   1   8  876.55   31.91
   0  -1  -8 1029.00   37.11
   1  -3  -7  611.29   27.73
   1  -3  -7  666.52   24.42
  -1   3   7  639.37   24.77
  -1   3   7  660.33   25.82
   1  -3  -7  620.84   25.25
  -2  -5   5 1838.06   62.14
   2   5  -5 1873.29   64.21
   2   5  -5 1797.39   61.33
   2   5  -5 1798.23   66.18
  -6   0   3    3.38    6.73
   6   0  -3    8.20    8.07
  -6   0   3    7.66    9.07
   6   0  -3    3.42    8.03
  -6  -4  -1   63.35    8.20
   6   4   1   83.83    7.67
   6   4   1   72.85   12.33
   6   4   1   51.74    9.00
  -6  -4   0   35.65    8.30
  -6  -4   0   33.07    7.22
   6   4   0   26.04   11.15
  -6  -4   0   21.14    6.69
  -1   3  -7  983.16   34.11
   1  -3   7 1032.29   37.03
  -1   3  -7  971.17   34.98
  -1   3  -7  987.55   36.72
   1  -3   7  995.97   37.71
  -3   0   7  210.29   11.87
  -3   0   7  188.21   11.61
  -3   0   7  219.37   15.37
   3   0  -7  206.28   15.09
  -6  -2   3  478.22   18.93
   6   2  -3  518.17   21.38
   6   2  -3  481.08   19.35
   4  -4  -3 1426.31   52.55
  -4   4   3 1444.07   52.52
   5  -3   3  430.74   18.10
   5  -3   3  460.02   16.61
   5  -3   3  461.97   19.43
   5  -3   3  408.61   22.28
  -1  -6  -4   85.14   14.41
  -1  -6  -4  103.48   15.11
   1   6   4   85.20    9.08
   1   6   4   71.34    9.28
   1   6   4   79.76    7.58
   1   6   4   84.48   13.54
   1   6   4   88.70   12.67
   1   6   4   92.56   14.53
  -3   3  -6   74.22    8.52
  -3   3  -6   71.95   12.68
  -3   3  -6   77.56   11.65
  -3   3  -6   84.62    8.11
  -6   2   0  455.32   20.81
  -6   2   0  474.00   18.38
  -4  -2   6  976.89   34.99
  -4  -2   6  883.54   34.00
   4   2  -6  942.98   35.62
   4   2  -6  929.01   34.75
  -4  -2   6  901.57   33.26
   3   1  -7  337.48   15.59
   3   1  -7  342.45   18.18
  -3  -1   7  320.36   15.15
  -3  -1   7  329.83   18.42
   3   1  -7  341.01   17.13
  -3  -1   7  340.15   16.13
  -2   6   1  815.87   33.15
   2  -6  -1  774.66   28.10
  -2   6   1  767.78   28.64
  -2   6  -1  131.81   17.21
   2  -6   1  142.40   16.97
   2  -6   1  139.69   10.66
   2  -6   1  128.79    6.77
  -5   0   5  778.46   30.26
   5   0  -5  769.79   30.08
  -5   0   5  753.30   28.63
  -1   6   3 1423.92   53.95
  -1   6   3 1418.47   53.27
  -1   6   3 1448.93   51.87
   1  -6  -3 1310.92   52.26
   1  -6  -3 1400.29   46.89
  -1   6   3 1392.91   48.02
  -6   2  -1   69.87    9.11
  -6   2  -1   93.54    7.96
   0  -1   8  720.83   26.91
   0  -1   8  641.39   24.34
  -6  -2  -4   10.08    8.25
  -6  -2  -4   -3.79    8.33
  -6  -2  -4   -0.29    5.00
  -6  -2  -4    3.89    7.43
   6   2   4   -2.64    7.56
   6   2   4  -11.09    8.25
   6   2   4   -5.88    7.03
  -6  -2  -4    0.99    8.95
  -3   5  -3  703.95   31.48
   3  -5   3  686.15   25.23
   3  -5   3  710.36   31.43
   3  -5   3  725.55   26.67
  -3   5  -3  728.97   28.28
   4  -3   5  455.06   21.01
  -4   3  -5  445.41   19.00
  -4   3  -5  500.18   21.53
   4  -3   5  424.79   16.27
   4  -3   5  427.85   17.73
   1  -5   5  196.12   10.99
  -1   5  -5  184.14    9.25
  -1   5  -5  182.80   16.00
  -1   5  -5  177.18    9.03
   4  -1  -6 1239.63   46.71
  -4   1   6 1205.29   41.75
   4  -1  -6 1300.19   45.75
  -4   1   6 1236.10   45.14
  -4  -6   1 1067.78   28.10
  -4  -6   1 1092.18   31.34
   4   6  -1 1111.64   40.17
   4   6  -1 1103.19   38.05
   4   6  -1 1048.73   37.19
   4   6  -1 1054.43   43.98
   2   6   4 1050.31   38.19
   2   6   4 1056.65   37.48
  -2  -6  -4  992.31   34.29
   2   6   4 1081.87   40.61
  -2  -6  -4 1048.12   40.11
   2   6   4 1033.96   39.21
   2   6   4 1061.33   36.33
   2   6   4  999.55   37.91
   2   6   4 1010.22   41.11
   5  -2  -4 1279.48   46.93
   5  -2  -4 1260.55   46.34
   6   0   4  273.57   13.16
  -6   0  -4  293.73   15.59
  -6   0  -4  253.50   13.85
  -6   0  -4  269.69   14.93
   6   0   4  262.92   14.11
  -1   0   8  950.88   36.52
  -1   0   8  908.48   33.02
   1   0  -8  915.20   36.26
  -1   6  -3  849.20   30.86
   1  -6   3  837.57   36.57
  -1   6  -3  803.04   35.19
   1  -6   3  836.61   31.85
   1  -6   3  841.63   30.40
  -3   4  -5  414.22   20.92
   3  -4   5  429.78   21.01
  -3   4  -5  433.49   19.34
   3  -4   5  342.34   13.18
  -3   4  -5  379.01   16.58
   1  -1   8   -1.11    9.58
  -1   1  -8    6.91   11.10
   1  -1   8    9.20    6.63
   4   6   2  171.40   10.28
   4   6   2  153.55   16.45
   4   6   2  169.46   11.33
   4   6   2  183.66   13.68
   4   6   2  178.53   10.94
   4   6   2  173.21    8.46
   4   6   2  173.54   14.39
  -4  -6  -2  179.42   11.53
  -3   5   3  968.94   39.50
   3  -5  -3  879.22   38.98
  -3   5   3 1043.80   39.17
   3  -5  -3 1008.27   38.45
  -5  -2   5  815.23   32.06
  -5  -2   5  843.63   31.91
  -5  -2   5  865.12   31.07
   4  -2   6   63.68   10.34
  -4   2  -6   51.04    8.11
  -4   2  -6   47.83    8.92
   4  -2   6   55.04    7.32
  -4   2  -6   48.81   12.03
  -6  -4  -2  590.61   23.00
   6   4   2  536.14   22.50
   6   4   2  591.87   22.78
  -6  -4  -2  625.85   23.96
   6   4   2  611.87   22.73
  -6  -4   1  282.07   12.98
  -6  -4   1  297.27   13.20
  -6  -4   1  298.00   14.67
   6   4  -1  284.28   16.55
  -5  -5   2  437.38   16.33
  -5  -5   2  412.49   16.46
  -5  -5   2  450.47   18.45
   5   5  -2  432.52   20.74
   5   5  -2  448.72   17.65
  -6   2   1  506.85   20.18
  -6   2   1  557.66   23.07
   3   3   7  257.34   13.61
  -3  -3  -7  242.03   16.71
   3   3   7  256.89   14.20
  -3  -3  -7  256.57   12.78
  -3  -3  -7  274.53   15.83
   3   3   7  253.35   16.08
   0   6   4  551.00   24.64
   0   6   4  603.56   27.28
   0   6   4  512.12   20.61
   0   6   4  541.90   20.25
   0  -6  -4  496.95   24.85
   0  -6  -4  503.18   25.36
  -5  -5  -3  290.75   14.85
  -5  -5  -3  280.75   14.75
   5   5   3  302.89   12.26
   5   5   3  306.21   13.16
   5   5   3  275.80   19.99
   5   5   3  319.89   17.68
   5   5   3  279.18   16.44
   5   5   3  313.10   15.15
   5   5   3  258.57   14.06
   5   5   3  302.14   13.18
   2   0   8   19.78    9.80
  -2   0  -8   33.55   11.83
   2   0   8   17.65   12.36
   2   0   8   29.54    7.08
  -3   1   7  521.64   23.69
  -3   1   7  490.04   19.51
   3  -1  -7  513.80   23.95
   3  -1  -7  552.21   22.89
  -2  -1  -8  118.11   12.91
   2   1   8  100.61    8.79
  -2  -1  -8  113.62    9.59
   2   1   8  115.54   14.05
  -5  -1  -6  956.20   35.42
   5   1   6  917.94   33.62
   5   1   6  916.53   33.59
  -5  -1  -6  929.30   34.79
  -1  -1   8 1775.13   61.13
  -1  -1   8 1695.45   59.30
   1   1  -8 1720.77   62.79
   1   1  -8 1767.78   60.45
  -1  -1   8 1671.40   57.50
  -4  -4   5  278.48   15.91
   4   4  -5  259.09   14.64
   4   4  -5  251.14   13.49
  -4  -4   5  263.17   13.29
   2   3  -7  563.17   21.79
   2   3  -7  526.05   22.35
  -2  -3   7  531.58   19.84
   2   3  -7  536.06   24.56
  -2  -3   7  393.44   14.14
  -6   2  -2  -10.06    8.04
  -6   2  -2   -2.52    6.26
   1  -1  -8  187.55   12.09
  -1   1   8  180.73   15.55
  -3  -6   3 1463.38   51.12
   3   6  -3 1566.82   48.84
   3   6  -3 1666.67   49.52
  -3  -6   3 1567.51   52.06
  -3  -6   3 1568.20   54.50
   3   6  -3 1643.07   56.44
  -4  -1  -7  692.49   28.41
   4   1   7  673.51   27.82
   4   1   7  681.77   26.40
   4   1   7  679.91   26.68
  -4  -1  -7  708.03   27.20
  -4  -1  -7  686.83   26.19
   4   1   7  711.46   27.59
   1   2   8  611.59   24.48
   1   2   8  548.31   23.06
   1   2   8  609.73   26.26
  -1  -2  -8  510.14   21.54
  -1  -2  -8  563.77   24.67
  -1  -2  -8  588.20   22.13
  -5   3   3 1049.76   39.88
   5  -3  -3  662.93   23.29
   5  -3  -3 1030.14   30.70
   2  -6  -2 1655.28   55.04
  -2   6   2 1658.22   62.01
   2  -6  -2 1496.36   60.36
   2  -6  -2 1643.45   55.13
  -2   6   2 1719.02   58.07
  -3   3   6 1434.74   50.14
   3  -3  -6 1451.39   52.65
   3  -3  -6 1452.73   50.74
  -3   3   6 1424.17   52.42
   3  -3  -6 1402.95   53.55
  -2   6  -2  551.18   27.30
   2  -6   2  530.01   22.02
   2  -6   2  552.00   20.98
   2  -6   2  523.60   19.17
   2  -6   2  541.87   27.38
  -2   6  -2  546.46   22.24
  -3  -2   7  943.89   36.18
   3   2  -7  925.19   37.01
  -3  -2   7  928.58   34.99
   3   2  -7  954.58   34.69
   3   2  -7  991.21   35.81
   1   6  -4   77.75   16.39
  -1  -6   4   89.02   11.43
  -1  -6   4   68.62    8.10
  -1  -6   4   86.12    6.54
  -3   4   5 1178.40   41.77
   3  -4  -5 1107.12   45.19
   3  -4  -5 1185.43   43.62
   3  -4  -5 1175.52   44.71
   3  -4  -5 1131.17   40.99
  -2   4  -6   18.00   11.94
  -2   4  -6   21.94    6.48
   2  -4   6   16.03    8.49
  -2   4  -6    8.99    6.61
  -4   0  -7  959.87   37.05
   4   0   7  917.69   33.52
   4   0   7  879.73   33.05
   4   0   7  950.43   34.82
  -4   0  -7  957.96   35.28
   0   2   8   -6.02    8.01
   0  -2  -8    1.01    8.00
   0   2   8  -20.86    9.84
   0  -2  -8  -20.07   12.03
   3  -2   7   96.62   11.21
  -3   2  -7   96.36   13.49
  -3   2  -7  116.90    9.37
  -3   2  -7  116.46    9.49
  -5   0  -6  391.44   19.69
  -5   0  -6  416.40   18.52
   5   0   6  407.80   14.51
  -5   0  -6  434.76   19.70
   5   0   6  222.77   11.66
   1   5   6   -2.02    8.77
   1   5   6   13.56   11.99
  -1  -5  -6   17.31   11.75
  -1  -5  -6   13.76   10.54
  -1  -5  -6   11.65   13.31
  -1  -5  -6   12.47    6.61
  -5   1   5 1802.62   64.57
   5  -1  -5 2018.57   70.43
  -5   1   5 2005.52   66.31
  -6   1   3  802.27   29.59
   6  -1  -3  816.36   32.32
   6  -1  -3  863.57   30.53
  -5  -2  -6  816.31   30.35
   5   2   6  771.65   26.78
  -5  -2  -6  735.84   29.88
   5   2   6  731.27   26.41
   5   2   6  790.01   26.75
   5   2   6  726.44   26.73
   4   5  -4  449.82   19.79
   4   5  -4  427.79   18.24
  -4  -5   4  443.69   21.35
  -4  -5   4  456.55   18.65
   4   5  -4  444.52   20.36
  -1  -4  -7   12.81    7.54
  -1  -4  -7    4.17   10.94
  -1  -4  -7   10.40   11.24
   1   4   7   -8.39   12.81
   1   4   7    2.12    8.23
   1   4   7   -2.54    8.89
  -1  -4  -7   11.52   13.05
  -1  -7   0 1080.59   39.78
   1   7   0 1039.74   35.84
   6   3  -3  808.71   29.81
   6   3  -3  914.80   32.68
  -6  -3   3  843.65   31.03
  -6  -3   3  929.60   31.86
   0   6  -4  994.67   33.89
   0  -6   4 1033.00   34.98
   0  -6   4 1008.64   38.70
   0  -6   4 1042.85   35.59
   0   6  -4 1012.15   40.17
   2  -4  -6  688.04   30.21
   2  -4  -6  602.34   29.38
   2  -4  -6  679.38   25.93
  -2   4   6  266.52   10.19
  -2   4   6  682.55   16.79
   4  -4   4  533.23   24.01
   4  -4   4  582.47   20.75
   4  -4   4  554.82   19.24
  -4   4  -4  568.83   24.25
   4  -3  -5  418.88   19.31
   4  -3  -5  445.43   21.42
   4  -3  -5  413.00   22.60
  -4   3   5  419.45   18.23
  -6  -3  -4  105.01   11.09
   6   3   4  109.18    9.84
  -6  -3  -4  115.90   10.44
   6   3   4   99.16    9.29
   6   3   4  111.61    9.32
  -6  -3  -4  119.46   10.59
   6   3   4  105.46   10.35
  -5  -4   4  376.52   15.67
   5   4  -4  387.20   18.69
  -5  -4   4  390.07   16.60
  -5  -4   4  352.81   13.93
   5   4  -4  370.80   16.87
  -5  -4   4  396.79   19.13
   4   6  -2 1662.05   55.60
  -4  -6   2 1676.23   60.52
  -4  -6   2 1713.47   58.45
  -1  -7  -1  436.73   20.41
   1   7   1  353.26   13.46
   1   7   1  420.14   19.91
   1   7   1  440.17   23.73
   1   7   1  419.40   17.80
   1   7   1  374.58   13.94
   1   7   1  444.23   22.36
  -1  -7  -1  451.69   25.55
   1   7   1  455.83   15.86
   5  -2   5  167.87   13.81
  -5   2  -5  196.78   12.18
   5  -2   5  188.49   11.33
   5  -2   5  206.00   10.27
  -5   2  -5  179.49   14.12
  -2   3  -7  661.71   29.50
  -2   3  -7  667.41   25.26
   2  -3   7  692.00   27.80
  -2   3  -7  698.86   27.29
  -2   3  -7  712.28   25.86
   4   2   7    6.19    8.94
  -4  -2  -7    9.81    7.45
   4   2   7    9.97    8.91
  -4  -2  -7    6.05    9.16
   4   2   7   11.78   11.22
  -4  -2  -7  -10.80   10.51
   4   2   7  -13.27    8.15
   3   6   4 1292.64   42.84
   3   6   4 1227.29   44.98
   3   6   4 1266.08   44.62
   3   6   4 1227.00   47.48
   3   6   4 1315.08   46.03
   3   6   4 1211.92   47.60
   4  -5   0  545.80   27.50
  -4   5   0  621.05   25.35
  -4   5   0  624.07   22.24
   3   4  -6   21.00    7.93
  -3  -4   6   30.81   10.63
   3   4  -6   21.99    8.80
   3   4  -6   16.99   11.27
  -2  -5  -6  460.31   19.60
  -2  -5  -6  542.63   25.36
  -2  -5  -6  515.65   23.13
   2   5   6  510.96   20.89
   2   5   6  460.09   20.17
   2   5   6  512.04   23.68
  -2  -5  -6  542.26   19.81
  -2  -5  -6  515.59   24.16
   2   5   6  462.97   22.54
   0  -2   8   63.19   12.69
   0  -2   8   88.05   10.25
   0  -2   8   80.12    6.96
   0   2  -8   64.86    9.33
  -2   1  -8   57.74   12.75
  -2   1  -8   50.10    8.40
  -2   1  -8   40.42    8.34
   2  -1   8   52.76   10.24
   2  -1   8   33.14   12.18
  -2   1  -8   33.87    4.83
   2  -1   8   46.27    7.61
  -5   4   0  482.80   18.67
  -5   4   0  531.97   23.08
  -5   4   0  521.44   23.65
   5  -4   0  487.21   26.15
  -5   4   0  568.88   22.07
   2   7   0  865.16   32.02
   2   7   0  832.72   29.82
  -2  -7   0  855.82   33.43
  -2  -7   0  878.38   31.26
   2   7   0  796.87   36.33
   3   5  -5  826.51   28.90
  -3  -5   5  741.57   30.31
   3   5  -5  785.95   29.32
   3   5  -5  760.41   31.59
  -3  -5   5  751.43   27.54
  -2  -6   4  444.12   20.57
   2   6  -4  442.13   25.33
  -2  -6   4  444.30   17.15
  -2  -6   4  420.74   17.53
   2   6  -4  423.05   16.62
  -2  -2  -8  704.01   22.10
  -2  -2  -8  658.05   24.78
   2   2   8  641.38   25.73
   2   2   8  698.86   27.66
   2   2   8  570.14   24.05
  -2  -2  -8  635.85   21.72
   4   4   6  234.24   12.66
  -4  -4  -6  260.33   16.43
   4   4   6  254.14   14.63
  -4  -4  -6  279.85   15.30
   4   4   6  193.23   14.26
  -4  -4  -6  238.52   12.52
   6  -2  -2 1205.42   44.62
   6  -2  -2 1250.60   42.79
  -6   2   2 1376.97   48.35
  -6   2   2 1308.13   46.22
  -7  -1   0  476.23   20.27
  -7  -1   0  414.72   18.28
  -7  -1   0  509.35   19.83
  -7  -1   0  509.84   20.14
  -7  -1  -1  289.43   13.68
  -7  -1  -1  286.12   13.78
   7   1   1  293.01   14.49
  -7  -1  -1  230.74   14.52
  -7  -1  -1  213.89   11.91
  -2  -7  -1  751.94   29.56
   2   7   1  781.02   30.94
   2   7   1  771.87   34.44
   2   7   1  787.69   28.20
   2   7   1  778.86   29.84
   2   7   1  763.72   33.50
   0  -4  -7 1077.29   43.39
   0  -4  -7 1105.79   42.20
   0   4   7 1080.78   39.47
   0  -4  -7 1026.72   41.45
   0  -4  -7 1153.70   38.98
   0   4   7 1112.79   42.07
   4   6   3  639.27   22.91
   4   6   3  632.79   20.94
  -4  -6  -3  398.29   13.75
   4   6   3  615.96   25.81
   4   6   3  571.26   20.29
   4   6   3  607.17   24.07
  -6   1  -4  945.15   34.90
  -6   1  -4  939.84   35.88
   6  -1   4  875.36   34.16
  -6   1  -4  944.99   34.26
   6  -1   4  994.63   33.69
   6  -1   4  972.27   35.33
  -4   5  -1  149.76    5.71
   4  -5   1  320.82   21.74
  -4   5  -1  345.39   16.95
  -6  -4  -3  512.41   18.65
   6   4   3  501.40   19.25
   6   4   3  479.96   20.45
  -6  -4  -3  463.10   17.51
   6   4   3  494.60   19.73
   6   4  -2  334.30   13.25
  -6  -4   2  543.16   22.56
  -6  -4   2  543.07   21.11
  -6  -4   2  589.51   21.22
   6   4  -2  586.30   20.27
   0  -5  -6  710.69   29.07
   0  -5  -6  692.67   30.69
   0   5   6  700.61   28.83
   0  -5  -6  640.66   29.01
   0   5   6  647.36   25.51
   0   5   6  648.66   24.72
   4   3  -6 1244.65   43.79
  -4  -3   6 1241.29   44.07
  -4  -3   6 1212.20   43.73
  -4  -3   6 1173.17   42.28
   4   3  -6 1190.82   44.56
  -2  -4  -7  409.57   16.78
   2   4   7  351.07   17.11
   2   4   7  373.43   17.38
   2   4   7  388.08   20.12
  -2  -4  -7  413.00   20.23
  -2  -4  -7  355.03   18.80
  -2  -4  -7  372.96   16.69
  -2  -4  -7  409.87   21.90
  -1  -7   1 1099.43   41.42
  -1  -7   1 1149.07   38.92
   1   7  -1 1096.76   37.46
  -5   4  -1  205.66   14.66
   5  -4   1  176.94   17.73
  -5   4  -1  194.88    9.06
  -5   4  -1  211.71   13.52
  -5  -4  -5   22.35   10.25
   5   4   5   17.41    7.51
   5   4   5   25.92   11.92
  -5  -4  -5   24.52    8.50
  -5  -4  -5   31.55    9.36
   5   4   5   11.30    8.38
   5   4   5   39.90    9.13
  -4  -5  -5  371.91   16.97
   4   5   5  311.85   15.71
  -4  -5  -5  350.87   18.96
   4   5   5  320.89   14.22
   4   5   5  318.18   18.85
  -4  -5  -5  300.28   14.38
   4   5   5  360.20   16.33
   4   5   5  318.62   16.55
  -6  -1   4   65.00    9.89
   6   1  -4   57.37    9.60
   6   1  -4   54.00    9.51
  -6  -1   4   58.24    8.95
   0   7   0  188.67    8.91
   0  -7   0  188.77   12.95
   0   7   0  190.28   10.01
  -4   5   1 1042.89   39.37
  -4   5   1 1007.03   36.84
   4  -5  -1  878.85   37.24
  -4   5   1  993.12   39.79
  -5   3  -4  378.27   18.74
   5  -3   4  383.01   17.34
   5  -3   4  354.87   20.45
   5  -3   4  353.92   14.10
  -5   3  -4  346.55   16.54
   5  -3   4  364.49   15.82
  -7  -2  -1  392.97   17.23
   7   2   1  422.42   18.39
  -7  -2  -1  403.63   17.48
  -7  -2   0  493.63   20.75
   7   2   0  506.24   23.38
  -7  -2   0  456.22   20.35
  -7  -2   0  497.21   20.02
   7   2   0  514.70   21.21
   2  -3  -7 1359.95   48.79
  -2   3   7 1447.28   51.66
  -2   3   7 1359.14   48.76
   2  -3  -7 1406.85   52.09
   1  -2   8   12.04    9.31
  -1   2  -8   11.77   10.43
   1  -2   8   15.65    9.67
   1  -2   8   19.86    6.25
   5   3  -5 1297.43   46.64
  -5  -3   5 1365.90   47.89
   5   3  -5 1301.82   46.22
  -5  -3   5 1311.81   46.12
  -5  -3   5 1327.50   46.63
  -5  -3   5 1289.46   46.63
  -2   0   8  380.76   20.56
   2   0  -8  360.37   19.97
  -5   4   1  134.84    7.99
  -5   4   1  131.45   13.89
   5  -4  -1  107.50   16.91
  -5   4   1  122.15   11.25
  -5   4   1  129.74   13.84
  -1  -2   8 1171.87   44.53
   1   2  -8 1197.09   45.98
  -1  -2   8 1158.87   40.37
  -1  -2   8 1267.55   43.09
   1   2  -8 1236.07   43.43
  -2  -7   1  661.57   24.69
   2   7  -1  659.81   26.27
  -2  -7   1  682.19   27.60
   2   7  -1  643.15   23.68
   0  -7  -1   22.70    9.07
   0  -7  -1  -10.32   16.34
   0   7   1   17.86    5.72
   0   7   1   12.44   11.51
   4  -2  -6 1050.95   42.54
   4  -2  -6 1120.57   42.00
   4  -2  -6 1133.13   40.62
  -4   2   6 1126.44   42.74
   6  -2   3  356.12   16.37
   6  -2   3  370.18   15.03
   6  -2   3  350.45   21.01
  -6   2  -3  379.50   16.15
  -2   5  -5  776.34   32.73
   2  -5   5  787.16   33.98
  -2   5  -5  791.63   28.16
  -1   6   4 1534.78   48.42
  -1   6   4 1329.24   47.23
  -1   6   4 1465.27   52.00
   1  -6  -4 1369.83   47.39
  -1   6   4 1301.19   52.71
   1  -6  -4 1426.90   52.78
   4  -4  -4 2695.50   98.40
  -4   4   4 2958.22  101.53
   4  -4  -4 2883.96   97.17
  -1   2   8   34.18    9.69
   1  -2  -8   34.18    8.46
   2  -5  -5 1367.64   50.33
  -2   5   5 1344.49   47.01
   2  -5  -5 1250.99   49.57
   1   7   2   14.92    3.82
   1   7   2   17.95    4.45
  -1  -7  -2   24.36   15.84
   1   7   2   12.87    7.11
   1   7   2    9.99   15.99
   1   7   2   33.43    8.81
   1   7   2   11.05   13.11
   1   7   2   28.57   11.88
  -3   5  -4  486.54   21.01
  -3   5  -4  422.01   23.55
   3  -5   4  452.99   24.58
   3  -5   4  479.89   20.07
  -6  -1  -5   73.50   10.40
   6   1   5   68.79   10.21
  -6  -1  -5   94.22   11.26
   6   1   5   70.81    9.24
   4  -1   7  257.67   13.40
  -4   1  -7  271.51   14.37
  -4   1  -7  290.21   17.51
  -4   1  -7  267.63   13.64
   6   0  -4  832.40   30.45
   6   0  -4  833.17   31.77
  -6   0   4  776.32   30.07
  -6   0   4  835.80   31.19
   2   1  -8 1450.34   54.45
  -2  -1   8 1508.22   52.76
  -2  -1   8 1401.55   48.87
   2   1  -8 1583.01   52.50
   2   1  -8 1426.13   52.65
   0   7  -1  486.14   18.75
   0  -7   1  491.87   21.21
   0   7  -1  497.05   26.00
   0   7  -1  472.10   17.12
  -7  -1   1  287.56   15.77
  -7  -1   1  332.56   15.34
  -7  -1   1  326.82   14.22
   7   1  -1  210.05    9.76
   7   1  -1  313.68   15.82
  -7  -1  -2  255.70   14.00
   7   1   2  268.02   13.97
  -7  -1  -2  240.62   12.32
  -7  -1  -2  280.20   14.22
  -7   0   0   59.22    9.67
  -7   0   0   58.48    9.01
  -7   0   0   54.40    8.54
   7   0   1  364.06   16.46
  -7   0  -1  331.96   15.69
  -7   0  -1  329.80   16.55
  -7   0  -1  325.45   15.25
  -7   0  -1  291.41   15.07
  -5  -5   3   42.87    6.26
   5   5  -3   29.87   11.07
   5   5  -3   50.91    8.43
  -5  -5   3   34.89    5.54
  -5  -5   3   42.09    8.02
  -5  -5   3   49.20   11.71
   6   2  -4  365.22   17.39
  -6  -2   4  374.03   17.07
  -6  -2   4  360.71   16.22
   6   2  -4  347.32   16.10
   3  -2  -7 1020.94   39.66
   3  -2  -7 1034.25   38.22
  -3   2   7  995.92   34.56
  -3   2   7  890.36   32.29
  -3   2   7  965.81   37.22
   2   7   2  415.19   20.76
  -2  -7  -2  390.49   23.63
   2   7   2  412.82   23.34
   2   7   2  479.94   19.43
   2   7   2  414.87   17.73
   2   7   2  423.71   24.26
   5  -1   6    5.80    7.59
   5  -1   6   19.62    8.49
  -5   1  -6   15.47    9.05
  -5   1  -6   10.85   11.03
  -5   1  -6   25.49   11.36
  -2   6   3  929.50   38.18
   2  -6  -3  900.79   31.65
  -2   6   3  933.92   33.33
   2  -6  -3  839.54   37.47
   2  -6   3  821.10   36.13
  -2   6  -3  846.93   31.42
  -2   6  -3  785.53   34.78
   2  -6   3  799.48   29.66
  -5   4  -2   -3.11   11.42
  -5   4  -2    6.55    4.79
   5  -4   2   -1.55    6.87
   5  -4   2   17.28    8.23
   5  -4   2   24.21   14.43
  -5  -5  -4   -2.35    7.67
  -5  -5  -4  -16.48    9.27
   5   5   4   -6.77    8.96
   5   5   4   -6.20    6.24
   5   5   4   -3.15   14.15
   5   5   4  -10.60    7.51
   5   5   4   -4.74    6.81
   5   5   4  -15.84    8.65
   0  -4   7  382.20   18.34
   0   4  -7  387.34   21.92
   0  -4   7  408.56   17.85
   0   4  -7  392.43   21.23
   1  -6   4 1109.73   27.72
   1  -6   4 1226.49   36.54
  -1   6  -4 1165.73   45.30
   1  -6   4 1144.47   31.42
  -3  -1  -8  -14.71    9.45
   3   1   8  -14.98    7.85
   3   1   8   -7.24    9.70
   3   1   8    1.22   12.28
  -3  -1  -8   -7.86   11.82
  -3  -1  -8  -17.51    8.56
   4  -5   2    5.37    7.83
   4  -5   2   -8.99   14.38
   4  -5   2    4.94    6.24
   1   5  -6   41.75   12.70
  -1  -5   6   25.45    7.97
  -1  -5   6   30.11    8.82
   1   5  -6   25.55   15.69
   7   2   2  315.44   15.49
  -7  -2  -2  286.70   13.45
  -7  -2  -2  317.27   13.55
  -7  -2   1  921.90   30.18
  -7  -2   1  874.94   29.54
   7   2  -1  952.54   36.32
  -7  -2   1  938.07   30.38
   0   5  -6  136.54   13.82
   0   5  -6  133.87    8.59
   0  -5   6  145.18   11.13
   0   5  -6  121.26    6.24
   0  -5   6  147.21   10.23
   0   5  -6  137.67   15.90
  -6  -2  -5   80.56   10.89
  -6  -2  -5   80.95    9.63
   6   2   5   85.30    9.75
   6   2   5   74.97    9.29
  -6  -2  -5   53.38    8.71
   6   2   5   74.28    9.43
   1   6   5  123.13   15.12
   1   6   5  116.86    9.01
  -1  -6  -5  132.34   12.55
  -1  -6  -5  131.70   15.83
   1   6   5  114.85   15.22
   1   6   5  115.19   10.13
   1   6   5  122.71   10.56
  -1  -6  -5  114.77   16.06
  -5  -3  -6  -10.60    9.31
   5   3   6    6.12    9.07
   5   3   6   12.19    9.92
   5   3   6   -0.39    8.62
  -5  -3  -6   -2.32   10.36
  -3   5   4  492.51   23.95
   3  -5  -4  483.85   24.26
   3  -5  -4  399.70   24.41
  -3   0  -8   49.72    9.34
   3   0   8   40.34    8.09
  -3   0  -8   44.07   12.25
   3   0   8   37.31   10.75
   3   0   8   33.05   11.97
   1   4  -7   41.48    8.38
   1   4  -7   38.73   14.61
  -1  -4   7   20.62    8.69
   1   4  -7   69.15   13.28
   2  -1  -8   95.36    9.84
   2  -1  -8  101.41   11.21
  -2   1   8  114.61   14.41
  -1  -7   2  791.59   30.92
  -1  -7   2  752.29   27.20
  -1  -7   2  821.20   27.72
   1   7  -2  797.32   35.46
  -6   0  -5   48.47   10.26
  -6   0  -5   85.11   11.59
  -6   0  -5   86.59   11.64
   6   0   5   86.97    9.16
   6   0   5   71.25   10.54
   3   7   0  837.84   22.44
  -3  -7   0  888.16   32.44
   3   7   0  822.30   30.58
   3   7   0  760.77   24.09
  -3  -7   0  875.23   34.42
   3   7   0  864.46   25.35
   3   7   0  885.93   22.49
  -3  -5  -6 1189.59   42.94
  -3  -5  -6 1263.33   42.68
   3   5   6 1258.15   45.68
  -3  -5  -6 1259.53   45.48
   3   5   6 1277.16   44.93
   3   5   6 1250.51   45.70
   3   5   6 1209.22   43.54
  -3  -5  -6 1268.91   47.19
   2   6   5  305.94   14.95
   2   6   5  279.78   15.43
   2   6   5  312.65   15.94
   2   6   5  306.93   19.44
   2   6   5  302.93   18.77
   2   6   5  292.11   14.08
  -2  -6  -5  325.21   19.92
  -2  -6  -5  326.59   17.18
  -2  -6  -5  310.84   20.15
  -2  -6  -5  275.40   12.68
   3   7   1 1375.69   48.38
   3   7   1 1356.13   46.67
  -3  -7  -1 1366.26   47.91
   3   7   1 1356.24   46.93
   3   7   1 1346.09   51.99
   3   7   1 1334.09   50.94
   3   7   1 1279.77   47.90
   1   3   8   23.76    8.51
  -1  -3  -8   32.92    8.33
   1   3   8   20.70   10.22
  -1  -3  -8   26.08   10.13
   1   3   8   36.59   13.29
   3   3  -7 1354.74   50.77
   3   3  -7 1430.30   48.74
  -3  -3   7 1272.71   40.27
  -3  -3   7 1383.22   40.36
   3   3  -7 1382.56   49.37
   5   6   0   40.76    8.63
   5   6   0   36.27    7.53
   5   6   0   46.07    7.36
  -5  -6   0   23.19    2.85
   5   6   0   50.62   16.89
  -5  -6   0   34.95    7.95
  -4   5   2  970.54   36.97
  -4   5   2  882.46   36.81
  -4   5   2  917.86   33.99
   4  -5  -2  614.33   21.26
   7   0  -1   -1.56    5.69
  -7   0   1   -3.41    8.19
  -7   0   1  -11.32    9.20
  -7   0   1    7.67    8.67
   0   7   2  623.47   23.55
   0  -7  -2  617.30   26.32
   0   7   2  645.32   23.17
   0  -7  -2  391.08   13.62
   0   7   2  674.95   28.06
   0   7   2  654.37   31.00
   5   6   1   -1.68    7.22
   5   6   1    3.41    5.06
   5   6   1    5.96    6.65
   5   6   1   -6.32    8.22
   5   6   1    3.82   11.48
  -5  -6  -1   -1.99    8.04
   5   6   1   -1.69   14.83
  -5  -6  -1    0.58    1.72
   5   6   1   -8.02   11.33
  -3   6   0  267.88   16.92
   3  -6   0  268.38   20.67
   3  -6   0  263.31   13.26
  -3   6   0  245.68   11.95
  -7   0  -2  142.78   11.20
   7   0   2  156.74   11.21
   7   0   2  129.05   10.31
  -7   0  -2  141.75   10.58
  -6  -5  -1  283.47   14.86
   6   5   1  294.01   14.89
   6   5   1  284.42   13.10
  -6  -5  -1  301.95   14.29
   6   5   1  259.35   15.76
  -4  -3  -7   -3.36    7.45
  -4  -3  -7   -3.50   11.43
  -4  -3  -7  -20.84   10.05
   4   3   7   -0.67    9.11
   4   3   7   11.21    9.40
   4   3   7    2.93    8.23
   4   3   7   10.29   11.40
  -4  -3  -7  -10.86   10.54
   6   5   0   54.00   12.18
  -6  -5   0   55.08    8.18
   6   5   0   44.52    9.22
  -6  -5   0   46.66    8.84
   1  -4  -7  554.13   26.34
   1  -4  -7  569.75   26.09
  -1   4   7  596.30   23.44
   1  -4  -7  586.79   23.67
  -5   4   2   45.42    9.79
  -5   4   2   55.47   12.59
  -5   4   2   51.77   11.79
   3   4   7  604.74   23.70
  -3  -4  -7  654.01   29.06
  -3  -4  -7  660.72   27.56
  -3  -4  -7  633.39   24.48
   3   4   7  564.80   24.02
   3   4   7  615.05   26.01
  -3  -4  -7  642.43   24.27
  -7  -3  -1  240.15   14.03
   7   3   1  264.92   17.12
  -7  -3  -1  242.68   13.56
   7   3   1  264.31   14.42
   7   3   0  669.61   28.88
   7   3   0  697.01   26.70
  -7  -3   0  618.82   24.59
  -7  -3   0  635.52   24.67
  -6   3   0  581.28   24.55
  -6   3   0  593.72   21.91
  -6   3   0  602.76   24.72
  -6   3   0  551.70   25.47
   2   7  -2  203.93    8.51
  -2  -7   2  235.82   10.72
  -2  -7   2  199.67    8.70
   2   7  -2  225.51   20.33
   2   7  -2  228.54   10.37
  -2  -7   2  243.42   15.03
   3   6  -4 1349.05   45.76
   3   6  -4 1425.97   52.85
  -3  -6   4 1319.10   45.83
   3   6  -4 1292.02   48.03
   3   6  -4 1317.32   45.29
  -1   5   6  625.05   21.27
   1  -5  -6  595.30   23.85
   1  -5  -6  586.73   27.96
  -1   5   6  475.37   18.88
   1  -5  -6  640.73   27.28
  -3   6  -1   62.15   13.79
   3  -6   1   58.39   16.19
   3  -6   1   71.04    6.34
  -5   2   5  179.91   15.12
   5  -2  -5  166.61   15.69
   5  -2  -5  174.07   14.42
   0  -3  -8  108.46    9.91
   0  -3  -8   93.66   13.41
   0   3   8   94.24   14.57
   0  -3  -8   95.35   12.92
   0  -3  -8   90.18   15.01
   0   3   8   99.05   11.37
   0   3   8   81.58    9.64
   4   6  -3 2039.75   72.13
   4   6  -3 2149.70   70.81
  -4  -6   3 1967.05   67.11
  -5   3   4  641.53   27.84
   5  -3  -4  586.52   26.54
  -6   3  -1  629.11   26.26
  -6   3  -1  608.91   26.42
  -6   3  -1  662.73   23.66
   6  -3   1  668.80   31.46
   3  -6  -1  891.06   31.62
  -3   6   1  886.37   36.62
  -3   6   1  931.87   33.93
  -3   6   1  951.43   37.81
   0   6   5 1211.08   40.54
   0   6   5 1168.22   44.37
   0   6   5 1116.47   40.44
   0  -6  -5 1223.07   45.19
   0  -6  -5 1153.45   46.58
   0  -6  -5 1231.60   47.56
  -3  -2  -8  212.26   15.32
   3   2   8  216.73   12.65
   3   2   8  208.94   13.92
  -3  -2  -8  218.89   12.33
   3   2   8  233.67   16.59
   1  -4   7  433.36   19.83
   1  -4   7  434.59   19.20
  -1   4  -7  415.65   20.84
  -1   4  -7  427.16   17.27
  -1   4  -7  394.68   16.05
   0  -7   2  876.84   31.19
   0   7  -2  882.25   37.89
   0  -7   2  923.00   34.13
   0  -7   2  895.81   39.26
  -3  -7   1  280.32   13.81
  -3  -7   1  317.64   17.09
   3   7  -1  199.72    7.90
   3   7  -1  292.85   11.26
   3   7  -1  284.81   11.64
   3   7  -1  337.19   15.93
   3   7  -1  194.60    7.62
  -2   2  -8   72.61   13.87
  -2   2  -8   79.29    9.05
   2  -2   8   65.75   10.23
   2  -2   8   76.51   11.23
  -2   2  -8   61.70    8.55
  -2   2  -8   70.31    9.20
   2  -2   8   70.65    7.54
   4   1  -7   -9.71   11.10
   4   1  -7  -10.41   10.67
  -4  -1   7   -1.89    8.17
  -4  -1   7    5.64    8.66
  -4  -1   7   -7.78   12.18
  -5  -1   6   93.86    9.88
  -5  -1   6   78.95   10.16
   5   1  -6   76.96   11.45
  -5  -1   6   77.04   12.18
   5   1  -6   79.61   11.73
   2   5  -6  325.01   21.93
   2   5  -6  311.17   14.50
   2   5  -6  319.45   18.35
  -4   3  -6  179.71   15.08
  -4   3  -6  214.87   14.70
   4  -3   6  175.29   15.33
  -4   3  -6  176.97   12.00
   4  -3   6  193.31    9.97
  -4   0   7 1365.27   47.93
  -4   0   7 1352.40   47.22
  -4   0   7 1339.32   49.67
   6  -2  -3  888.59   35.30
  -6   2   3  952.73   35.32
  -6   2   3 1029.01   37.77
   6  -2  -3  930.90   32.20
  -1   7   0  196.00    8.21
   1  -7   0  256.37   14.00
  -1   7   0  210.57   17.77
  -1   7   0  216.07   19.83
  -2  -2   8 1691.64   59.05
  -2  -2   8 1609.21   54.63
   2   2  -8 1650.07   59.83
   2   2  -8 1801.59   59.54
   2   2  -8 1666.68   61.64
  -2  -3  -8  711.57   25.31
  -2  -3  -8  647.85   25.03
  -2  -3  -8  669.63   29.38
   2   3   8  694.05   28.21
   2   3   8  609.98   25.31
  -2  -3  -8  583.23   24.88
   2   3   8  637.00   26.09
   5   6  -1  572.70   21.79
  -5  -6   1  522.52   18.75
   5   6  -1  611.08   23.34
  -5  -6   1  604.00   22.30
  -7  -1   2  194.42   11.99
  -7  -1   2  213.55   11.83
   7   1  -2  203.59   13.89
  -7  -1   2  192.39   12.38
  -7  -1  -3  309.87   15.98
   7   1   3  337.04   15.91
  -7  -1  -3  302.32   15.67
  -7  -1  -3  313.47   14.67
   7   1   3  335.29   16.33
  -5  -6  -2    7.00    8.77
   5   6   2   -3.55    7.03
   5   6   2    1.48   11.22
   5   6   2   18.80    5.65
   5   6   2   17.82   11.98
   5   6   2    1.40   13.71
   5   6   2   13.77    8.48
  -6  -4  -4  309.34   13.46
   6   4   4  322.43   14.69
  -6  -4  -4  314.26   15.84
   6   4   4  293.82   13.91
  -6  -4  -4  289.76   14.82
   6   4   4  290.41   13.22
   6   4   4  304.52   15.46
  -6  -4   3  829.08   31.36
  -6  -4   3  771.74   29.50
   6   4  -3  892.00   34.52
   3   7   2 1537.46   53.19
   3   7   2 1495.81   56.85
   3   7   2 1460.25   54.20
   3   7   2 1609.12   54.50
   3   7   2 1531.35   53.36
   3   7   2 1613.10   57.83
   6  -1  -4  749.56   31.87
   6  -1  -4  842.99   29.07
   6  -1  -4  779.73   31.43
  -1   5  -6   28.63   13.58
  -1   5  -6    9.80   12.06
   1  -5   6   22.18    9.07
  -1   5  -6   23.10    5.95
   1  -5   6   17.72    8.15
  -1   5  -6   11.38    6.48
  -6  -5  -2  221.11   11.93
  -6  -5  -2  279.80   13.86
   6   5   2  280.06   14.37
  -6  -5  -2  239.12   14.35
   6   5   2  265.39   13.18
   6   5   2  224.09   14.81
   6   5   2  262.61   12.75
   4   6   4  590.48   23.98
  -4  -6  -4  525.82   18.67
   4   6   4  629.28   24.25
   4   6   4  560.54   27.68
   4   6   4  628.58   25.73
   4   6   4  562.93   26.69
   4   6   4  593.76   24.04
   1   7   3  188.34    8.88
   1   7   3  200.67   12.26
   1   7   3  204.70   17.44
   1   7   3  229.77   15.39
  -1  -7  -3  176.62    7.29
  -1  -7  -3  157.80   18.51
   1   7   3  191.14   18.46
   1   7   3  189.44    9.03
   1   7   3  191.10   11.31
  -5   0   6 1665.97   56.86
   5   0  -6 1534.70   55.09
  -5   0   6 1606.00   56.02
  -5   0   6 1603.31   57.96
  -6  -5   1    0.66    5.73
  -6  -5   1   -4.77    8.30
  -6  -5   1   -3.36    6.97
   6   5  -1    4.57   11.24
  -6  -5   1    2.82    6.14
   6   5  -1   -1.97    8.68
  -1   7   1  642.84   22.85
   1  -7  -1  675.58   21.63
  -1   7   1  633.45   24.04
   1  -7  -1  473.98   17.29
  -1   7   1  649.12   28.28
  -1   7   1  684.01   30.56
  -6   3   1  783.21   30.66
  -6   3   1  791.56   28.54
  -6   3   1  787.71   32.10
  -3   1  -8   47.50    8.58
  -3   1  -8   48.19   12.84
  -3   1  -8   37.32    9.08
  -3   4  -6  142.97   10.09
   3  -4   6  136.91    8.11
  -3   4  -6  150.30   10.24
  -3   4  -6  140.61   14.37
   3  -4   6  154.71   15.82
  -3   4  -6  138.24   14.84
  -7  -3  -2   64.59   10.01
   7   3   2   79.42   10.18
  -7  -3  -2  102.60   10.05
   2   4  -7  170.58   14.92
   2   4  -7  168.75   11.23
  -2  -4   7  161.03   13.88
  -6  -3   4  759.57   27.57
  -6  -3   4  786.71   30.36
  -6  -3   4  707.10   26.46
   6   3  -4  786.25   30.88
  -6  -3   4  740.37   28.39
   7   2   3  257.36   14.56
  -7  -2  -3  253.04   14.48
  -7  -2  -3  274.44   14.53
  -7  -2  -3  235.80   11.23
   7   2   3  294.18   14.84
   7   2   3  300.82   14.56
  -7  -2  -3  271.69   14.79
   7   3  -1  696.95   28.99
  -7  -3   1  663.41   24.86
  -7  -3   1  623.28   24.83
   2   7   3  141.37   13.70
   2   7   3  173.36   16.16
   2   7   3  152.47   17.53
   2   7   3  148.71   10.51
   2   7   3  138.17    7.03
  -2  -7  -3  149.69   18.19
   2   7   3  191.26   12.36
   2   7   3  123.73    5.85
   2   7   3  142.29   10.24
  -1   7  -1   27.74   15.76
   1  -7   1   21.51   17.33
   1  -7   1   33.99    9.72
  -1   7  -1   21.44    8.09
  -7  -2   2  355.71   16.43
  -7  -2   2  314.47   15.94
   7   2  -2  322.82   17.45
  -7  -2   2  329.55   15.44
  -7  -2   2  349.15   13.78
  -7   1   0  -15.69   10.47
  -7   1   0   -6.45    9.81
  -7   1   0   10.55    7.44
  -6  -3  -5   71.38   10.32
  -6  -3  -5   61.41   10.11
   6   3   5   90.30   10.15
  -6  -3  -5   64.27    9.76
  -6  -3  -5   67.34    9.27
   6   3   5   76.63    9.59
   6   3   5   65.68    9.17
  -7   1  -1  -17.06   10.27
  -7   1  -1    2.40    9.24
  -7   1  -1    5.62    7.44
   5  -4   3   64.40   15.50
   5  -4   3   49.86    7.53
   5  -4   3   52.91    9.57
  -5   4  -3   48.17   11.21
  -3   3  -7    6.55   10.70
  -3   3  -7   24.87    7.85
   3  -3   7   14.89    9.83
  -3   3  -7   11.51    7.55
  -3   3  -7   -2.51   12.23
  -1  -6   5   53.50    6.50
   1   6  -5   25.68    2.26
   1   6  -5   51.40   16.34
  -1  -6   5   49.68   11.50
  -1  -6   5   43.98    8.60
   0   3  -8    9.73   13.02
   0  -3   8    7.87    9.62
   0   3  -8   16.47   13.20
   6  -3   2   59.15   15.97
  -6   3  -2   25.07   10.06
   6  -3   2   66.50    9.55
  -6   3  -2   44.95    6.99
   4  -4   5  397.55   17.90
  -4   4  -5  459.70   20.64
   4  -4   5  412.35   16.77
   4  -4   5  397.89   21.88
  -4   4  -5  379.80   17.73
   4  -4   5  356.21   13.96
  -4   5  -3   69.02   11.30
   4  -5   3   59.63    7.40
   4  -5   3   69.09   15.98
   4  -5   3   52.21    8.97
   3   6   5  725.08   28.52
   3   6   5  740.83   29.77
   3   6   5  777.79   31.46
  -3  -6  -5  684.75   26.05
  -3  -6  -5  773.80   29.60
  -3  -6  -5  724.62   25.50
  -3  -6  -5  795.27   32.19
   3   6   5  735.70   27.59
   3   6   5  675.61   28.62
   3   6   5  755.98   29.98
   3   6   5  748.14   31.68
   3   6   5  764.75   26.90
   6  -2   4  290.86   14.34
   6  -2   4  266.75   18.52
   6  -2   4  303.68   13.28
  -6   2  -4  300.47   15.65
  -5  -2   6  299.18   16.85
   5   2  -6  269.67   15.57
  -5  -2   6  281.76   15.75
  -5  -2   6  283.85   14.68
   5   2  -6  256.68   16.04
  -3   6  -2    7.75    9.96
   3  -6   2   15.31   15.08
   3  -6   2   21.71    5.85
  -3   6  -2   21.72   16.41
  -7   0   2  168.95   11.38
   7   0  -2  127.77   10.63
  -7   0   2  173.51   12.12
   7   0  -2  164.31   12.16
   0  -6   5   88.32    6.43
   0  -6   5   85.47    9.34
   0   6  -5   89.89    7.07
   0   6  -5  108.64   16.71
   0  -6   5   79.79   11.58
   0  -6   5   90.01    8.39
  -4  -2   7  513.55   21.95
  -4  -2   7  516.52   23.80
  -4  -2   7  494.93   20.91
   4   2  -7  507.00   23.14
   4   2  -7  489.06   22.16
  -2   2   8  613.04   27.59
  -2   2   8  589.15   23.97
   2  -2  -8  580.03   26.89
   2  -2  -8  607.99   24.97
  -7   0  -3  187.98   12.16
   7   0   3  184.54   12.33
   7   0   3  179.08   11.43
  -3   6   2  816.03   30.23
  -3   6   2  793.12   33.62
  -3   6   2  808.66   34.75
   6  -1   5  520.69   21.80
  -6   1  -5  536.66   23.39
   6  -1   5  464.54   23.23
   6  -1   5  568.16   21.11
   6  -1   5  547.87   23.10
  -6   1  -5  520.33   21.82
  -6   1  -5  455.56   22.44
   4   5  -5   33.98   11.45
  -4  -5   5   30.95    7.44
  -4  -5   5   18.75   11.63
   4   5  -5   25.73    9.04
  -1  -3   8   13.31    4.19
  -1  -3   8   13.57    9.33
   1   3  -8   10.27   12.66
   1   3  -8   10.50    8.63
  -4   2  -7   52.35    9.15
  -4   2  -7   53.43   13.11
   4  -2   7   49.14    8.24
  -4   2  -7   45.38    8.58
   0   7   3 1486.02   52.56
   0   7   3 1462.12   55.60
   0   7   3 1557.58   52.56
   0   7   3 1559.65   58.09
   0  -7  -3 1449.53   55.70
   0   7   3 1560.37   51.66
   0   7   3 1514.66   51.57
  -4  -4   6  824.57   32.68
   4   4  -6  760.76   31.28
   4   4  -6  809.68   30.11
   4  -1  -7  471.97   23.13
  -4   1   7  436.13   18.12
  -4   1   7  477.60   22.93
   4  -1  -7  498.00   21.87
  -7   1   1  382.45   18.31
  -7   1   1  364.81   16.63
  -7   1   1  381.87   18.44
  -5  -4   5  847.33   30.61
  -5  -4   5 1025.80   35.98
  -5  -4   5  987.22   32.91
   5   4  -5  959.51   36.85
   5   4  -5 1041.94   36.97
  -5  -4   5  945.05   33.55
   1  -3  -8  758.57   33.99
   1  -3  -8  867.35   30.90
  -1   3   8  807.68   31.31
   3  -4  -6  797.18   32.50
   3  -4  -6  713.38   34.13
   3  -4  -6  763.53   33.57
   3  -4  -6  762.98   29.49
  -3   4   6  811.97   30.76
  -1  -7   3 1387.97   48.98
   1   7  -3 1345.91   52.43
  -1  -7   3 1282.04   45.65
  -1  -7   3 1380.66   45.51
   3   7  -2   31.64    4.21
  -3  -7   2   33.06    7.68
   3   7  -2   42.29   11.61
  -3  -7   2   32.40   11.44
   3   7  -2   36.34    5.98
   5   1   7  608.68   24.64
   5   1   7  634.81   24.90
  -5  -1  -7  663.01   26.50
  -5  -1  -7  675.79   25.70
  -5  -1  -7  601.20   26.99
   7  -1   2   70.82   10.05
   7  -1   2   70.37    8.55
  -7   1  -2   82.79    8.84
   1  -3   8  202.83   14.24
  -1   3  -8  227.77   12.64
  -1   3  -8  226.02   15.58
   1  -3   8  222.90   13.73
  -1   3  -8  222.10   11.42
  -1   7   2 1457.17   56.06
   1  -7  -2 1265.74   43.51
  -1   7   2 1439.47   54.97
  -1   7   2 1469.40   49.22
  -1   7   2 1459.47   53.50
  -1   7   2 1408.05   49.39
   1  -7  -2 1243.23   51.00
  -5   3  -5  292.32   15.43
  -5   3  -5  332.82   18.07
   5  -3   5  316.32   13.28
   5  -3   5  333.80   15.35
   5  -3   5  279.75   18.73
   5  -3   5  339.27   16.71
  -4   5   3  576.16   26.97
  -4   5   3  566.67   26.49
  -4   5   3  571.23   23.16
  -2  -6   5  663.82   26.15
   2   6  -5  662.30   24.58
   2   6  -5  638.83   28.18
  -2  -6   5  711.38   25.53
   2   6  -5  709.61   32.45
   2  -6  -4  210.75   18.57
   2  -6  -4  177.23   18.64
  -2   6   4  205.20   17.51
  -2   6   4  213.51   11.73
   2  -6  -4  199.80   11.82
  -5   2  -6  246.10   14.49
   5  -2   6  214.25   15.06
   5  -2   6  265.61   12.46
   5  -2   6  250.52   13.70
  -5   2  -6  261.39   17.43
  -3   0   8   95.88   10.51
  -3   0   8  105.92   14.68
  -3   0   8   88.39   10.02
   3   0  -8   75.57   13.36
  -2   6  -4  937.04   34.45
  -2   6  -4  861.45   37.18
   2  -6   4  944.27   39.39
   2  -6   4  900.90   33.61
  -5  -6   2  682.53   26.55
   5   6  -2  643.18   24.88
   5  -1  -6  662.63   27.17
   5  -1  -6  654.66   28.06
  -5   1   6  635.52   27.74
   0   0   9  556.92   21.94
   3   1  -8   89.89   10.15
   3   1  -8  104.89   14.08
  -3  -1   8  115.71   11.45
  -3  -1   8  105.05   14.65
   3   1  -8  114.86   12.14
   5   5  -4   72.48   12.07
  -5  -5   4   50.71    4.73
   5   5  -4   81.62   10.32
  -5  -5   4   66.77    8.83
  -1   7  -2  154.62   11.14
  -1   7  -2  136.62   18.10
   1  -7   2   86.96    5.16
   1  -7   2  147.58   11.59
   1  -7   2  128.24    8.65
   1  -7   2  133.94   19.03
   5   6   3   65.32   13.13
   5   6   3   75.53   10.24
   5   6   3   67.15   13.05
  -5  -6  -3   67.56   10.00
   5   6   3   77.82    8.83
   5   6   3   65.67   16.21
   5   6   3   64.14    8.47
   5   6   3   77.96    7.24
   5  -4  -3   -0.82   13.19
  -5   4   3    9.51    9.04
  -5   4   3   -1.54   12.18
   6   5   3  214.63    9.94
   6   5   3  221.19   16.83
   6   5   3  190.98   13.19
   6   5   3  227.04   11.42
  -6  -5  -3  213.60   14.02
   6   5   3  161.07    8.78
  -6  -5  -3  206.25   13.06
   6   5   3  194.05   12.15
  -6   3   2  123.30   12.09
  -6   3   2  137.41   14.14
  -6   3   2  124.44    9.26
  -1   0  -9 1171.01   45.90
  -1   0  -9 1213.54   43.05
   1   0   9 1087.60   39.74
   1   0   9 1210.98   43.95
  -4   3   6  370.52   17.52
   4  -3  -6  350.93   21.77
   4  -3  -6  371.83   20.31
   4  -3  -6  359.20   17.98
  -4   3   6  360.26   20.73
   1  -6  -5  306.87   21.32
  -1   6   5  307.75   13.77
   1  -6  -5  341.85   18.86
   1  -6  -5  319.43   15.12
  -1   6   5  255.92   11.81
  -1   6   5  310.08   19.30
   6   5  -2    5.18    5.01
  -6  -5   2   16.88    8.13
   6   5  -2   17.05   11.44
  -6  -5   2    9.57    6.66
  -6  -5   2   23.08    6.82
   3   7   3 1109.86   41.60
   3   7   3 1237.09   43.12
   3   7   3 1136.44   39.62
   3   7   3 1176.64   45.61
   3   7   3 1170.46   42.97
   3   7   3 1217.64   41.63
   3   7   3 1182.20   45.46
   6   1  -5  380.97   18.52
  -6  -1   5  358.88   18.82
  -6  -1   5  403.01   17.73
   6   1  -5  406.84   18.02
   2   7  -3  498.72   27.20
  -2  -7   3  490.58   22.32
  -2  -7   3  474.73   18.68
   2   7  -3  436.43   16.89
   2   7  -3  471.56   16.95
   7   3   3   -8.46    7.63
  -7  -3  -3   -0.27    2.85
  -7  -3  -3   -1.36    9.46
   7   3   3  -19.93    9.12
   7   3   3    0.62    7.35
  -7  -3  -3    3.17    8.99
  -7  -3  -3    4.03    8.96
  -5  -4  -6   39.42    9.89
  -5  -4  -6   37.86   10.27
   5   4   6   41.67   10.95
  -5  -4  -6   41.67   11.78
   5   4   6   46.06   11.37
  -5   0  -7  483.77   21.16
   5   0   7  518.21   21.67
  -5   0  -7  496.88   22.88
   5   0   7  535.25   21.74
   4   7   0    2.49    6.75
   4   7   0   -1.75    9.08
  -4  -7   0   -0.12    7.79
   4   7   0   -4.39    7.25
   4   7   0  -24.51   18.70
   4   7   0    8.48   11.51
   4   7   0    4.43    4.13
   3  -5   5  367.69   13.84
  -3   5  -5  370.30   22.13
   3  -5   5  398.74   20.51
  -3   5  -5  405.69   19.57
   0  -7   3 1176.09   40.23
   0  -7   3 1257.83   44.40
   0   7  -3 1234.30   48.79
   0  -7   3 1225.77   41.72
   4   7   1  109.38    9.16
   4   7   1  122.46   18.84
   4   7   1  115.07   13.04
   4   7   1  105.96    6.38
   4   7   1   97.14    9.04
   4   7   1  123.07   13.46
   4   7   1  109.04   10.97
  -4  -7  -1  125.85   10.38
   3   3   8  735.93   28.59
   3   3   8  753.25   30.52
  -3  -3  -8  732.51   32.41
  -3  -3  -8  779.41   31.39
  -3  -3  -8  752.59   28.45
   3   3   8  682.28   27.84
   5   2   7  245.40   14.48
   5   2   7  231.49   13.71
   5   2   7  253.87   14.27
  -5  -2  -7  234.34   14.94
  -5  -2  -7  258.86   13.68
   5   2   7  226.84   15.17
  -5  -2  -7  234.89   15.68
   4   5   6  439.87   19.30
   4   5   6  399.78   17.34
  -4  -5  -6  403.36   16.98
  -4  -5  -6  422.01   17.63
  -4  -5  -6  453.76   20.60
   4   5   6  377.59   18.22
   4   5   6  375.84   20.49
   4   5   6  411.98   19.89
  -4  -5  -6  437.67   22.60
  -1  -1  -9  488.61   20.53
   1   1   9  494.34   23.67
   1   1   9  403.77   18.21
  -1  -1  -9  455.79   23.48
   5   5   5   22.82    9.22
   5   5   5  -14.15    9.78
  -5  -5  -5   -5.43    9.22
   5   5   5    6.62   12.95
   5   5   5   -5.87    8.68
  -2   4  -7  124.47   14.10
  -2   4  -7  116.60    9.24
   2  -4   7  144.97   12.04
  -2   4  -7  140.86    9.74
   3  -3  -7 1056.44   43.42
  -3   3   7 1148.93   34.55
   3  -3  -7 1126.18   40.77
  -3   3   7 1109.95   30.64
   3  -3  -7 1107.18   42.77
   7   3  -2  640.68   27.13
  -7  -3   2  618.60   23.29
  -7  -3   2  584.38   23.60
  -1  -5  -7  471.02   24.45
  -1  -5  -7  522.88   26.70
   1   5   7  512.56   20.92
   1   5   7  525.76   24.33
  -1  -5  -7  526.86   24.47
  -1  -5  -7  538.48   20.51
   1   5   7  432.97   21.20
   4  -4  -5 1478.28   54.79
  -4   4   5 1509.48   52.81
   4  -4  -5 1501.99   52.72
   4  -4  -5 1498.82   55.88
  -4   4   5 1510.47   55.52
   0   1   9  244.15   13.14
   0  -1  -9  317.89   15.98
   7   4   1    8.15   12.74
   7   4   1  -12.54    7.12
  -7  -4  -1    2.60    8.25
   3   5  -6   54.29    8.93
  -3  -5   6   54.53   11.84
   3   5  -6   57.98    9.25
  -3  -5   6   49.87    7.98
   3   5  -6   57.59   12.52
   7   4   0    5.47   11.88
  -7  -4   0   -0.09    7.95
  -7  -4   0    4.87    7.90
   4   1   8  121.63   10.79
   4   1   8  121.05   14.03
   4   1   8  117.61   11.44
  -4  -1  -8  114.42   11.54
   4   1   8  114.02   12.21
  -4  -1  -8  119.82   10.67
  -4  -1  -8  128.27   14.07
   6   0  -5 1320.56   45.58
  -6   0   5 1279.26   46.66
  -6   0   5 1265.16   45.38
   6   0  -5 1279.39   47.27
  -6   3  -3   13.83    6.91
   6  -3   3   27.69    9.61
   6  -3   3   21.55    8.01
   6  -3   3   32.96   14.28
   0  -1   9 1038.23   37.68
   0  -1   9  963.77   35.01
   2  -4  -7  514.32   26.86
  -2   4   7  506.74   21.14
   2  -4  -7  546.95   22.79
   2  -4  -7  532.41   27.38
  -1   6  -5   36.32    6.34
   1  -6   5   33.25    7.88
  -1   6  -5   27.10   15.35
   1  -6   5   26.46    3.95
   2   5   7   34.81   13.36
  -2  -5  -7   51.27   13.99
  -2  -5  -7   75.61   12.61
   2   5   7   52.20    9.81
  -2  -5  -7   45.36    8.33
  -2  -5  -7   68.40    8.72
  -2  -5  -7   65.60   14.86
   6   1   6  101.44   10.57
  -6  -1  -6   92.13   11.27
  -6  -1  -6   87.75   12.10
  -6  -1  -6   85.90   11.60
   7   1  -3  104.91   11.39
  -7  -1   3   93.93   10.10
  -7  -1   3   91.47   10.48
  -7  -1  -4  230.52   15.18
   7   1   4  249.50   13.61
   7   1   4  238.42   13.83
  -7  -1  -4  212.54   13.74
  -7  -1  -4  239.08   13.55
   6   2  -5   -0.40    9.70
  -6  -2   5    6.40   10.53
  -6  -2   5   14.56   10.47
  -6  -2   5    6.75    8.86
   6   2  -5   12.19    9.82
  -4  -4  -7  446.54   22.59
  -4  -4  -7  420.70   20.83
  -4  -4  -7  436.00   18.27
   4   4   7  443.45   20.99
   4   4   7  423.69   18.83
   4   4   7  377.39   18.70
  -3   1   8  523.97   24.83
   3  -1  -8  498.65   25.11
  -3   1   8  502.35   20.57
   3  -1  -8  570.34   23.82
  -3   5   5 1346.31   50.00
  -3   5   5 1312.34   46.54
   3  -5  -5 1349.01   47.15
   3  -5  -5 1345.60   51.36
   3  -5  -5 1278.15   51.74
  -2   5  -6   87.69    7.94
  -2   5  -6   72.58    8.14
  -2   5  -6   77.27   14.52
  -2  -3   8   69.18    4.73
   2   3  -8   86.08   10.08
   2   3  -8   80.10   13.65
  -2  -3   8   82.62   11.95
  -2  -3   8   54.71   13.01
  -4  -7   1   -3.26    7.96
   4   7  -1   -2.79   19.18
  -4  -7   1   11.90   11.79
   4   7  -1    8.29    6.27
   4   7  -1   -1.75    7.12
   4   7  -1    3.53   11.58
   4   0   8  212.05   13.64
   4   0   8  230.43   12.85
   4   0   8  225.06   14.83
  -4   0  -8  241.28   14.29
  -4   0  -8  243.26   16.83
   1  -1   9  122.34   12.62
   1  -1   9  119.44    9.47
  -1   1  -9  123.42   15.34
   2  -5  -6  178.93   12.69
   2  -5  -6  186.72   18.10
   2  -5  -6  199.89   18.42
  -2   5   6  210.67   12.83
   1   0  -9  373.25   21.48
  -1   0   9  433.94   22.46
  -1   0   9  375.72   17.04
   3  -6   3  255.43   13.58
   3  -6   3  255.72   20.63
  -3   6  -3  258.50   15.20
   3  -6   3  236.28   11.55
  -3   6  -3  228.04   20.73
  -7  -2  -4   24.15   10.28
  -7  -2  -4   26.55    8.22
   7   2   4   11.36    8.85
   7   2   4   16.31    8.30
  -7  -2  -4   37.60    9.77
   7   2   4   13.48    9.07
  -7  -2  -4   26.22    9.79
  -3   2  -8   49.95    8.92
  -3   2  -8   56.10   13.92
  -3   2  -8   49.89    9.02
   3  -2   8   55.78   10.95
   1   7   4  296.05   18.43
  -1  -7  -4  279.25   11.44
   1   7   4  280.81   14.83
  -1  -7  -4  272.05   21.41
   1   7   4  260.99   14.59
   1   7   4  307.79   21.52
   1   7   4  272.12   20.37
   7  -1  -2  833.95   33.01
  -7   1   2  985.41   36.53
  -7   1   2  954.93   37.03
  -7   1   2  995.50   35.77
   7  -1  -2  949.60   33.24
   4   7   2   90.19    9.26
   4   7   2  136.87   12.82
   4   7   2   93.95   10.84
   4   7   2  114.62    9.27
   4   7   2   99.02   16.40
   4   7   2  123.05   13.93
  -4  -7  -2  103.53   10.24
   4   6  -4 1171.65   44.00
   4   6  -4 1229.73   42.34
  -4  -6   4 1195.84   42.32
   5   3  -6 1100.02   41.82
   5   3  -6 1163.12   41.72
  -5  -3   6 1118.52   40.04
  -5  -3   6 1120.64   41.32
  -5  -3   6 1113.76   41.62
   0  -5  -7  636.88   29.82
   0  -5  -7  599.15   27.97
   0   5   7  631.36   25.71
   0  -5  -7  618.58   27.91
   0   5   7  669.70   29.34
   3   4  -7   42.48   12.29
   3   4  -7   47.19   10.03
   3   4  -7   52.20    9.19
  -3  -4   7   55.86   11.77
  -7  -2   3   36.35    9.21
   7   2  -3   31.60    7.46
   7   2  -3   35.02   10.96
  -7  -2   3   45.76    8.41
  -6  -2  -6  158.58   12.74
  -6  -2  -6  128.40   11.50
   6   2   6  155.75   11.86
   6   2   6  142.49   11.42
   7   4   2   88.43    9.73
   7   4   2  110.31   14.19
  -7  -4  -2  104.39   10.53
   2   7   4    9.26    8.69
   2   7   4   24.04    6.45
   2   7   4   30.57    8.83
   2   7   4   -9.97   14.35
   2   7   4   29.64   10.32
   2   7   4   24.54   12.51
   2   7   4   27.72   14.32
  -2  -7  -4   25.33    5.25
  -2  -7  -4   12.74   16.15
   3   2  -8 1406.02   48.98
   3   2  -8 1356.09   51.33
  -3  -2   8 1422.89   50.13
   3   2  -8 1393.48   49.97
  -3  -2   8 1370.09   48.65
  -3  -2   8 1304.58   45.48
   1   4   8  338.95   17.08
  -1  -4  -8  348.17   20.07
   1   4   8  333.46   20.22
  -1  -4  -8  325.80   21.82
  -1  -4  -8  313.94   18.85
   1   4   8  287.87   16.05
  -1  -4  -8  385.50   16.70
   7  -1   3  143.03   11.85
   7  -1   3  185.32   12.81
   7  -1   3  160.08   10.63
  -7   1  -3   85.63    6.04
  -7   1  -3  159.46   10.60
   6  -2  -4  113.52    7.70
   6  -2  -4  116.90   13.85
  -3   6   3  167.80   16.25
   3  -6  -3  127.39   18.73
  -3   6   3  171.43   11.65
  -3   6   3  167.91   16.27
   3  -6  -3  182.33   11.20
  -2   0  -9  143.08   15.49
   2   0   9  126.99   12.79
   2   0   9  113.60   10.06
   2   0   9  124.64   16.12
   2   1   9  551.48   22.98
   2   1   9  634.32   27.54
  -2  -1  -9  532.60   22.56
  -2  -1  -9  577.95   26.21
  -1  -6  -6  720.23   30.15
   1   6   6  664.63   25.85
   1   6   6  673.44   26.63
  -1  -6  -6  668.75   31.28
   1   6   6  702.10   29.70
  -1  -6  -6  726.86   32.52
  -2   7   0  897.34   31.23
   2  -7   0  881.21   30.92
  -2   7   0  904.26   29.74
   2  -7   0  803.34   27.92
   2  -7   0  788.40   36.85
   4   2   8   19.23   12.96
   4   2   8   -7.59   10.16
  -4  -2  -8  -11.17    8.52
  -4  -2  -8  -22.63   10.74
  -4  -2  -8  -19.52   12.21
   4   2   8  -17.73    9.38
   4   2   8   -5.53    9.65
  -7  -4   1    9.04    7.93
   7   4  -1  -12.21   11.97
  -7  -4   1   -2.73    7.69
   5  -4   4  235.85   13.57
  -5   4  -4  222.63   15.81
   5  -4   4  184.71   17.71
   5  -4   4  210.57   11.76
   5  -4   4  189.79    8.56
   6   0   6    6.19    9.14
  -6   0  -6   -7.11   11.67
  -6   0  -6  -10.12    9.82
  -6   0  -6   -0.80   11.04
   6   0   6  -12.98    8.52
   6   0   6   -6.20    9.56
  -4  -3   7 1676.06   60.83
   4   3  -7 1610.03   60.53
   4   3  -7 1787.25   60.00
  -4  -3   7 1756.25   60.82
   7   0  -3  402.07   19.52
  -7   0   3  495.43   20.51
   7   0  -3  459.65   19.50
  -7   0   3  461.97   21.39
   1  -7  -3  644.58   31.62
  -1   7   3  672.88   25.06
  -1   7   3  642.68   25.41
  -1   7   3  683.03   25.47
  -1   7   3  743.85   34.14
  -1   7   3  755.56   30.83
  -1   7   3  727.47   32.32
  -1  -1   9 1490.35   52.70
  -1  -1   9 1623.80   57.23
  -1  -1   9 1582.55   55.16
   1   1  -9 1672.32   57.69
   1   1  -9 1604.96   60.46
   6   4   5   70.32    9.94
   6   4   5   45.81   13.77
   6   4   5   65.15    9.10
   6   4   5   60.41    9.52
  -6  -4  -5   79.77    9.26
  -6  -4  -5   60.07   10.50
   6   4   5   54.86    9.13
   6   4   5   69.15   10.64
   2  -3   8  455.98   20.47
   2  -3   8  422.56   20.77
  -2   3  -8  433.16   18.09
  -2   3  -8  446.06   19.92
  -2   3  -8  424.12   18.48
  -2   3  -8  399.50   22.85
  -6  -4   4 1323.28   46.76
  -6  -4   4 1252.75   44.50
  -6  -4   4 1386.56   45.83
  -6  -4   4 1311.34   48.61
   6   4  -4 1244.87   45.39
   6   4  -4 1408.56   48.03
   4  -5   4  176.76   18.22
   4  -5   4  168.19   12.03
   4  -5   4  163.13   10.21
  -4   5  -4  185.73   14.65
  -1   1   9    1.87   14.05
   1  -1  -9  -14.91    9.78
  -1   1   9    2.23    8.26
  -1  -2  -9   76.00   10.28
   1   2   9   59.00    9.79
   1   2   9   66.92   12.16
   1   2   9   77.50   15.22
  -1  -2  -9   84.45   13.95
  -1  -2  -9   82.31   10.12
  -7   0  -4  153.85   13.31
  -7   0  -4  166.68   12.27
   7   0   4  197.91   13.47
  -7   0  -4  181.98   14.41
   7   0   4  209.37   12.13
  -2  -6  -6    9.10   11.44
   2   6   6   -7.05    9.08
   2   6   6   -9.30    9.67
  -2  -6  -6   -9.05    7.23
   2   6   6    4.11   10.39
  -2  -6  -6   -3.93   14.17
   2   6   6   -4.42    9.20
  -2  -6  -6   -6.79   14.90
   2   6   6  -18.67   14.51
   2   6   6    1.98   12.72
  -4  -6  -5  575.82   23.45
   4   6   5  575.90   23.27
  -4  -6  -5  519.11   19.62
   4   6   5  559.85   24.27
   4   6   5  542.90   26.39
   4   6   5  558.78   23.60
   4   6   5  514.06   22.73
  -2   7   1 1185.05   39.59
  -2   7   1 1189.45   45.05
   2  -7  -1 1166.38   41.27
  -2   7   1 1165.84   43.35
  -2   7   1 1055.68   37.38
   3   6  -5  673.55   32.32
   3   6  -5  562.03   23.87
   3   6  -5  642.68   27.21
  -3  -6   5  640.72   24.49
   3   6  -5  679.34   23.85
   5  -3  -5  218.81   15.87
   5  -3  -5  232.68   17.60
   2   4   8   54.86   14.13
  -2  -4  -8   32.18   12.05
   2   4   8   26.57   10.21
  -2  -4  -8   43.23    8.91
  -2  -4  -8   35.78   14.54
  -2  -4  -8   20.63    8.56
   2   4   8   26.98    9.57
  -2  -4  -8   45.46   12.68
   2  -7   1  160.57   11.99
  -2   7  -1  132.18   16.66
  -2   7  -1  140.50   19.89
   2  -7   1  123.20    6.84
   2  -7   1  152.92   19.11
  -4   2   7  222.46   10.65
   4  -2  -7  272.92   18.22
   4  -2  -7  295.19   16.64
  -4   2   7  286.82   18.55
   5  -1   7   50.51    6.43
  -5   1  -7  120.71   11.30
  -5   1  -7  108.21   13.84
   5  -1   7   99.35    9.19
  -3  -7   3   -4.07   11.68
  -3  -7   3    7.13    7.21
   3   7  -3    6.53    4.33
   3   7  -3    7.69   18.65
   0  -4  -8 1162.34   45.94
   0  -4  -8 1078.25   43.49
   0  -4  -8 1086.16   44.24
   0   4   8 1123.21   41.72
   0  -4  -8 1219.09   40.97
   0   4   8 1162.01   44.42
  -7   2   0  422.85   17.17
  -7   2   0  344.28   20.19
   0  -2  -9    6.96   11.63
   0   2   9  -25.39   11.27
   0   2   9    3.39    8.58
   0  -2  -9   -0.44   12.84
   0  -2  -9    4.45    9.44
  -7   2  -1  156.15   10.09
  -7   2  -1   76.99   13.00
   5   3   7   13.83   11.66
   5   3   7   19.39    9.81
  -5  -3  -7   -5.16    8.82
  -5  -3  -7    6.39   10.72
  -5  -3  -7    9.87   11.56
   5   3   7    6.32    5.59
   5   3   7    6.73    9.55
   5   3   7   -5.86    9.12
   1  -7   3  618.91   22.81
  -1   7  -3  618.60   30.47
   1  -7   3  657.99   31.76
   1  -7   3  561.12   20.89
   1  -7   3  611.70   25.50
  -5   5   0  892.47   34.92
  -5   5   0  809.79   29.14
  -5   5   0  927.74   33.21
   5  -5   0  825.49   36.84
  -5   5   0  896.71   35.27
   0   7   4 1155.12   44.53
   0   7   4 1150.58   39.98
   0   7   4 1120.10   40.52
   0   7   4 1297.27   47.41
   0  -7  -4 1183.05   47.51
   0   7   4 1145.74   41.09
  -6   3   3  361.82   17.70
  -6   3   3  361.11   20.15
   6  -3  -3  319.58   18.25
   6  -3  -3  257.29   10.91
   5   6  -3  484.76   21.24
   5   6  -3  536.65   24.14
  -5  -6   3  530.72   21.85
   5  -5   1  498.69   27.30
  -5   5  -1  412.65   15.23
  -5   5  -1  545.16   23.24
   0   6   6  725.84   27.95
   0  -6  -6  846.35   36.47
   0  -6  -6  793.64   35.48
   0   6   6  806.03   28.29
   0  -6  -6  850.64   34.09
  -6   1   5  300.88   15.67
   6  -1  -5  299.11   17.26
   6  -1  -5  279.42   17.87
  -6   1   5  297.08   18.27
   6  -2   5  256.09   13.78
  -6   2  -5  255.22   15.14
   6  -2   5  271.62   12.53
   6  -2   5  211.00   17.13
   3   5   7  165.54   15.82
  -3  -5  -7  167.98   11.02
  -3  -5  -7  180.19   11.01
   3   5   7  171.32   15.96
  -3  -5  -7  169.73   17.26
  -3  -5  -7  172.34   15.11
   3   5   7  180.29   13.75
   3   5   7  178.67   12.93
   6   5   4   74.07    8.02
  -6  -5  -4   60.81    8.00
  -6  -5  -4   57.70   10.78
   6   5   4   61.49    9.87
   6   5   4   67.89   15.92
  -6  -5  -4   71.49   10.97
   6   5   4   52.40    8.35
   6   5   4   76.24    8.76
  -2   3   8  576.55   23.75
   2  -3  -8  568.42   24.25
   2  -3  -8  570.57   28.38
  -2   3   8  593.51   27.85
   5   6   4   20.55   12.29
   5   6   4   15.78   11.87
   5   6   4   14.99    8.13
   5   6   4   17.47    5.74
   5   6   4   18.59    9.77
   5   6   4   -7.78    8.89
   5   6   4    7.02   15.26
   1   5  -7  225.25   12.78
  -1  -5   7  233.37   13.78
  -1  -5   7  212.53   13.33
   1   5  -7  219.32   17.75
   1   5  -7  223.66   19.94
   0   5  -7  496.16   24.48
   0   5  -7  487.14   23.78
   0   5  -7  470.86   17.71
   0  -5   7  514.83   21.43
   0   5  -7  394.63   15.16
   0  -5   7  497.81   22.21
  -4  -7   2  322.10   17.45
   4   7  -2  345.09   13.45
   4   7  -2  330.19   18.86
  -4  -7   2  300.51   13.11
   4   7  -2  294.19   13.19
   4  -1   8  226.67   13.38
  -4   1  -8  237.48   13.36
  -4   1  -8  252.66   17.20
  -4   1  -8  218.27   13.91
   7   3   4    1.58    9.40
  -7  -3  -4    1.46    9.88
   7   3   4   -0.64    8.11
   7   3   4    9.64    8.58
  -7  -3  -4    3.72    9.98
  -7  -3  -4   11.22    9.51
   2  -1   9   86.29    8.89
   2  -1   9   61.67   14.44
  -2   1  -9   77.17   10.02
  -2   1  -9   93.21   14.54
   2  -1   9   66.04   11.46
  -2   1  -9   49.69    5.05
   6   5  -3    2.41   11.62
  -6  -5   3   -7.31    8.51
  -6  -5   3   -2.22    6.28
  -6  -5   3    9.38    7.14
   6   5  -3    4.40    7.81
  -2  -2  -9  494.02   17.43
   2   2   9  441.40   19.98
  -2  -2  -9  514.63   21.27
   2   2   9  463.69   21.75
   2   2   9  519.99   24.65
  -2  -2  -9  459.62   17.17
  -1  -7   4   39.06   11.44
  -1  -7   4   32.30    6.33
   1   7  -4   47.40   17.56
   1   7  -4   29.09    4.84
   5  -2  -6  142.73   15.93
   5  -2  -6  120.75   13.16
  -5   2   6  128.43   15.43
   5  -2  -6  131.13   14.72
   4  -5  -4   92.60   17.98
  -4   5   4  100.45   14.88
   4  -5  -4   81.61   16.27
  -6  -3   5  605.73   25.23
   6   3  -5  673.28   27.73
  -6  -3   5  667.17   25.23
  -6  -3   5  635.60   27.52
  -6  -3   5  632.57   25.72
   3   7   4 1166.24   40.17
   3   7   4 1225.61   44.14
   3   7   4 1141.60   40.73
   3   7   4 1155.64   38.69
   3   7   4 1237.28   41.83
   3   7   4 1031.54   37.34
   3   7   4 1129.17   44.28
   0   2  -9    0.39    9.39
   0  -2   9    7.65    6.29
   0  -2   9    0.62   10.21
   0  -2   9    6.93   13.33
  -7   2   1  490.79   20.32
  -7   2   1  515.16   23.34
  -5   5   1 1012.31   38.32
  -5   5   1  979.06   35.58
  -5   5   1  983.22   38.21
   5  -5  -1  940.52   40.80
  -5   5   1  900.05   32.52
   4   7   3  131.14   12.63
   4   7   3  120.28    9.79
   4   7   3  133.50   14.05
   4   7   3  113.19   15.98
   4   7   3  120.79   10.51
  -7  -3   3  525.24   20.76
   7   3  -3  471.82   18.88
   7   3  -3  597.22   23.71
   7   4   3  222.31   12.43
  -7  -4  -3  217.73   13.78
   7   4   3  262.95   14.38
  -7  -4  -3  245.27   14.27
   7   4   3  245.19   13.11
   7   4   3  218.05   13.42
   6   3   6  176.63   12.06
   6   3   6  178.90   12.73
  -6  -3  -6  138.81   12.77
   6   3   6  136.46   13.39
  -6  -3  -6  177.12   12.75
  -7   2  -2   -0.30    7.88
   6   6   1  182.26   10.31
  -6  -6  -1  191.00   12.85
  -6  -6  -1  195.47   12.06
   6   6   1  218.61   12.97
  -6  -6  -1  155.39    8.62
   6   6   1  209.99   10.26
   6   6   1  178.33   14.56
  -6  -6   0  194.26   12.65
   6   6   0  116.18    6.85
   6   6   0  158.63    9.78
  -6  -6   0  175.96    8.60
  -6  -6   0  190.70   11.79
  -4   6   0  972.13   26.12
   4  -6   0  859.51   38.72
  -4   6   0  937.41   29.11
  -4   6   0  931.44   30.54
  -2   7   2  351.43   22.36
  -2   7   2  339.52   14.38
  -2   7   2  345.71   21.16
  -2   7   2  349.72   15.97
   2  -7  -2  308.37   23.84
   2  -7  -2  346.28   14.39
   2  -7  -2  352.77   15.64
   5  -4  -4   75.33   15.03
  -5   4   4   99.33   14.81
   3  -2  -8  842.95   35.52
  -3   2   8  756.00   28.36
  -3   2   8  828.63   33.95
  -3   2   8  818.63   30.55
   3  -2  -8  878.33   33.76
   2  -7   2   25.81   17.82
   2  -7   2   11.96    7.66
   2  -7   2    8.13    9.47
  -2   7  -2   12.81    9.51
  -2   7  -2   12.01   17.02
  -7  -4   2   12.91    7.90
  -7  -4   2    0.76    7.78
  -7  -4   2   21.54    8.94
   7   4  -2   13.20   12.00
   1  -5  -7  299.56   20.64
  -1   5   7  357.71   21.44
  -1   5   7  337.60   15.98
   1  -5  -7  342.70   20.08
   0  -4   8  192.19   13.49
   0  -4   8  196.06   14.12
   0   4  -8  226.34   18.48
   0   4  -8  201.03   18.14
   3   6   6  316.69   16.59
   3   6   6  270.38   15.91
  -3  -6  -6  275.00   13.50
  -3  -6  -6  312.72   17.87
   3   6   6  306.28   19.37
  -3  -6  -6  299.80   13.19
   3   6   6  287.94   14.81
   3   6   6  271.06   14.05
   3   6   6  309.23   18.18
  -3  -6  -6  316.19   20.58
  -1   2  -9   57.67   11.90
   1  -2   9   61.96   11.56
   1  -2   9   54.32    7.61
   1  -2   9   60.30   11.07
   0   7  -4   23.40   16.64
   0  -7   4   20.74   11.21
   0  -7   4   26.43    5.94
   0  -7   4   27.29    4.69
  -6   4   0  596.31   22.74
  -6   4   0  573.32   26.80
   6  -4   0  597.42   31.11
  -6   4   0  691.69   26.60
  -6   4   0  671.68   27.95
  -2  -7   4   25.24   12.02
  -2  -7   4   17.71    7.19
   2   7  -4   11.61    3.16
   2   7  -4   13.19    6.57
   2   7  -4   19.16   18.54
  -2  -7   4   13.59    7.41
   4  -4   6  169.54   17.22
  -4   4  -6  174.83   11.99
   4  -4   6  149.22    8.34
  -4   4  -6  201.29   15.25
   6  -3   4  132.72    8.46
   6  -3   4  138.98   10.26
  -6   3  -4  112.89   11.64
   6  -3   4  131.62   12.15
   6  -3   4  118.79   15.92
  -4   3  -7   69.16   10.07
   4  -3   7   93.70    8.84
  -4   3  -7   98.85   10.15
  -4   3  -7   99.68   15.15
   4  -6   1  626.29   23.53
   4  -6   1  640.89   31.55
  -4   6  -1  653.93   30.02
   2   0  -9  -13.74   13.92
  -2   0   9   -8.01    7.99
  -2   0   9    2.53   14.31
   1   2  -9  131.43   16.15
   1   2  -9  150.43   12.10
  -1  -2   9  125.13   15.82
  -1  -2   9  144.54    8.77
  -1  -2   9  142.39   12.77
   6  -4   1  512.44   27.86
  -6   4  -1  534.85   24.70
  -6   4  -1  512.81   19.94
  -6   4  -1  598.01   24.10
  -5   5  -2  406.21   22.06
   5  -5   2  429.31   18.04
   5  -5   2  462.73   19.32
   1   4  -8   11.05    8.99
   1   4  -8   10.39   13.55
  -1  -4   8   -8.42    9.92
   1   4  -8    6.66   15.39
  -2   6   5  121.56   10.55
   2  -6  -5  125.51   17.86
   2  -6  -5  118.33   10.93
   2  -6  -5  150.78   18.12
   6  -1   6  189.67   14.44
  -6   1  -6  231.02   16.99
   6  -1   6  253.20   15.13
   6  -1   6  204.97   13.42
   6  -1   6  257.49   12.94
  -6   1  -6  239.16   15.15
  -6   1  -6  251.26   17.10
   4   3   8  129.03   12.47
   4   3   8  140.71   11.95
  -4  -3  -8  126.31   10.70
   4   3   8  148.66   15.33
  -4  -3  -8  136.65   15.18
  -4  -3  -8  139.65   14.13
   4   3   8  148.61   12.94
  -1   2   9  210.50   14.79
   1  -2  -9  224.10   13.39
  -1  -6   6  188.87   12.76
  -1  -6   6  197.85   10.41
  -1  -6   6  187.81   15.89
   1   6  -6  194.68   16.97
   1   6  -6  225.07   20.63
  -2   6  -5   46.27   15.88
   2  -6   5   56.75   17.45
   2  -6   5   38.61    9.30
   7  -1  -3  605.22   26.65
  -7   1   3  693.99   27.44
  -7   1   3  736.65   28.17
   7  -1  -3  688.61   25.47
  -4   6   1  527.23   26.87
  -4   6   1  536.77   26.18
   4  -6  -1  463.93   18.31
  -4   6   1  566.85   23.29
   4  -6  -1  453.60   27.36
   3   4   8  264.13   15.31
   3   4   8  322.67   19.02
   3   4   8  296.68   15.79
  -3  -4  -8  310.94   18.50
  -3  -4  -8  304.02   14.89
   3   4   8  270.37   16.22
  -3  -4  -8  288.41   20.10
  -3  -4  -8  291.11   15.09
   2   5  -7  102.12   10.12
   2   5  -7  107.50   18.47
   2   5  -7  101.01   15.14
  -2  -5   7   97.37   13.49
   6   6   2   79.09   10.88
  -6  -6  -2   68.30   10.08
  -6  -6  -2   62.99   10.48
   6   6   2   75.67   16.13
   6   6   2   71.90   14.39
   6   6   2   53.60    8.61
   6   6   2   57.61   12.34
   6   6   2   70.42    7.97
   6   6   2   57.39    5.90
   2   1  -9  974.16   40.34
   2   1  -9 1067.28   37.96
  -2  -1   9  980.31   38.66
  -2  -1   9  936.51   33.75
   2   1  -9  995.38   38.62
  -1   5  -7  132.19   16.03
  -1   5  -7  121.62    9.39
  -1   5  -7  116.80   16.26
   1  -5   7  125.76   11.31
   1  -5   7  133.57   11.97
  -1   5  -7  121.03    8.06
  -5  -1   7  921.80   35.57
   5   1  -7  902.53   35.15
  -5  -1   7  898.73   33.50
  -5  -1   7  849.73   33.44
   3   1   9   64.38   12.24
   3   1   9   53.90    9.69
  -3  -1  -9   53.31    9.85
   3   1   9   69.31   15.07
  -3  -1  -9   55.83   14.11
  -3   4  -7  -10.46   13.99
  -3   4  -7   -5.92    8.21
  -3   4  -7   -3.24    7.93
  -3   4  -7    5.78   12.64
   0  -6   6    6.37    5.73
   0  -6   6    1.27   11.19
   0   6  -6    1.60   15.87
   0   6  -6    3.21    4.25
   0  -6   6   -2.96    8.50
   0   6  -6   -8.24   13.12
   0  -6   6    1.46    7.97
   0   6  -6   -5.34    6.51
   7  -1   4  261.23   14.53
   7  -1   4  277.89   15.82
  -7   1  -4  266.62   16.15
  -7   1  -4  267.21   14.65
   7  -1   4  281.02   13.81
  -7   1  -4  288.75   17.54
   1  -4  -8  267.96   18.57
   1  -4  -8  270.27   19.13
  -3  -3   8  112.07   12.70
   3   3  -8  109.10   12.19
  -3  -3   8  100.32   13.93
   3   3  -8  131.43   11.11
   3   3  -8  116.17   14.50
  -3  -3   8   82.10    5.09
  -6  -6   1  485.09   18.09
   6   6  -1  395.28   15.12
  -6  -6   1  479.84   19.49
   6   6  -1  361.51   14.90
  -6  -6   1  477.97   21.03
  -3   6  -4  420.65   24.92
   3  -6   4  430.49   25.81
   3  -6   4  390.10   18.32
  -3   6  -4  427.72   20.71
  -6   4   1  250.70   18.08
   6  -4  -1  229.57   22.04
  -6   4   1  246.00   12.06
  -6   4   1  226.76   16.79
  -6   4   1  260.34   15.84
   5  -3   6  143.22   15.59
   5  -3   6  163.51   13.11
  -5   3  -6  143.62   15.13
   5  -3   6  160.72   11.58
  -5   3  -6  168.63   12.41
   5  -3   6  162.45    9.58
  -5   3  -6  169.06   15.59
   3   0   9  -27.47   14.09
   3   0   9   -4.27    8.47
   3   0   9   -5.81   10.77
  -3   0  -9    0.86   12.91
  -3   0  -9   -9.41    9.63
  -5  -5   5  494.58   21.09
  -5  -5   5  522.57   24.14
   5   5  -5  544.84   22.03
   5   5  -5  486.83   22.53
  -5   0   7  619.18   25.21
  -5   0   7  650.92   27.88
  -5   0   7  597.90   24.58
   5   0  -7  616.02   27.06
  -7  -1   4  410.65   19.12
   7   1  -4  383.29   18.02
   7   1  -4  382.54   18.39
  -7  -1   4  392.29   18.32
  -7  -1  -5   13.18    4.62
   7   1   5   27.71    9.51
   7   1   5   36.08    9.74
  -7  -1  -5   22.02   11.62
   1   8   0  125.21    8.56
   1   8   0  131.83   17.55
   1   8   0  135.26   14.47
  -1  -8   0  141.84   13.61
  -4  -5   6   32.74    8.38
   4   5  -6   40.43   10.15
   4   5  -6   25.33   12.38
  -4  -5   6   25.04   12.02
  -5   5   2  194.86   16.34
  -5   5   2  225.60   17.55
  -5   5   2  187.84   13.93
   5  -5  -2  122.50    6.37
   1  -4   8  673.35   27.88
  -1   4  -8  649.17   23.84
  -1   4  -8  656.65   28.66
   1  -4   8  658.90   26.85
  -1   4  -8  652.81   25.21
  -2   1   9  112.38   16.16
   2  -1  -9  111.48   12.94
   2  -1  -9  135.56   11.33
  -5  -7  -1   13.27    9.20
   5   7   1  -10.61    9.22
   5   7   1    5.59   12.95
   5   7   1    8.60   17.59
   5   7   1   11.78   12.61
   5   7   1    6.31    8.66
   5   7   1    7.35    4.99
   5   7   1   12.85    7.64
   5   7   0   17.69    7.61
  -5  -7   0   29.79    8.87
   5   7   0   24.67    8.75
   5   7   0   29.92    8.95
   5   7   0   37.58   13.10
   5   7   0   32.02    5.54
   5   7   0   19.08   18.85
   3  -6  -4   97.81   18.34
  -3   6   4  116.54   15.70
  -3   6   4  130.24   15.80
   3  -6  -4  101.14   10.34
   7  -2  -2  364.11   17.04
  -7   2   2  398.46   17.57
  -7   2   2  392.06   20.62
  -1  -8  -1   23.34   11.31
   1   8   1    9.45   18.11
   1   8   1    6.50    6.87
   1   8   1    8.40    3.23
   1   8   1   -8.81   13.04
   1   8   1    5.77    4.14
  -1  -8  -1    8.40   18.10
   1   8   1    7.44   15.16
   2   8   0 2626.07   85.57
   2   8   0 2581.99   90.05
   2   8   0 2388.25   86.03
   2   8   0 2462.48   83.49
   2   8   0 2458.65   89.15
  -2  -8   0 2624.79   90.52
   1   3   9   -8.06    9.46
  -1  -3  -9    3.32   10.76
  -1  -3  -9    7.42    9.27
   1   3   9  -23.29   11.82
   7   2   5   -3.30    9.09
  -7  -2  -5    2.82    9.40
  -7  -2  -5    0.77   10.93
  -7  -2  -5   -1.65    5.16
  -7  -2  -5    9.16   10.23
   7   2   5    1.46    9.30
   7   2   5    5.13    8.52
  -6   4  -2  376.70   15.28
  -6   4  -2  383.73   20.49
   6  -4   2  404.70   24.78
  -1   7   4  132.10    9.71
  -1   7   4  101.58   16.61
   1  -7  -4  117.70   18.48
  -5  -5  -6  109.41   14.83
  -5  -5  -6  106.52   12.22
   5   5   6   81.38   13.93
   5   5   6  101.57   11.33
   5   4  -6 1551.63   56.95
   5   4  -6 1647.51   56.47
  -5  -4   6 1539.16   48.04
  -5  -4   6 1526.17   47.24
  -5  -4   6 1579.99   50.02
   2   8   1 1642.06   60.87
   2   8   1 1639.02   56.11
   2   8   1 1531.12   59.83
   2   8   1 1556.68   54.22
   2   8   1 1574.73   57.37
   4  -6   2  196.01   11.16
   4  -6   2  243.44   13.08
   4  -6   2  229.15   21.17
   2   6  -6  417.38   18.15
  -2  -6   6  441.72   17.86
   2   6  -6  452.64   23.05
  -2  -6   6  420.64   19.07
   2   6  -6  457.27   26.89
  -7  -5  -1   44.50    9.50
  -7  -5  -1   37.98    9.92
   7   5   1   20.71    9.93
   7   5   1   40.00   13.99
   4   1  -8  337.05   20.82
   4   1  -8  394.55   19.99
  -4  -1   8  348.33   17.38
  -4  -1   8  365.51   18.00
  -4  -1   8  394.05   21.41
  -7  -2   4   24.74    8.95
  -7  -2   4   37.28    9.91
   7   2  -4   26.51   10.94
   7   2  -4   26.51    9.19
  -4   0   8  486.44   21.24
  -4   0   8  516.86   22.00
  -4   0   8  538.24   25.40
  -7  -5   0    6.38    7.43
   7   5   0   16.03   12.98
  -7  -5   0    4.90    9.14
  -7  -5   0    7.73    8.44
   7   5   0   -4.86    9.92
   1  -6  -6  735.27   33.92
  -1   6   6  591.44   22.58
   1  -6  -6  767.13   32.28
  -1   6   6  746.81   25.13
   1   7   5  547.49   22.98
  -1  -7  -5  517.30   19.63
   1   7   5  503.84   27.99
   1   7   5  558.91   23.34
   1   7   5  585.44   26.96
  -1  -7  -5  533.08   28.27
  -7   2  -3  110.70   12.22
  -7   2  -3  110.07   10.52
   7  -2   3  118.51    9.48
  -7   2  -3  118.58   10.13
   7  -2   3  100.53   10.45
  -3   5  -6    7.96    7.83
  -3   5  -6   18.02   14.73
   3  -5   6   10.17   15.41
   3  -5   6    8.62    4.40
   5   2  -7  -10.38   11.48
   5   2  -7  -20.75   12.40
  -5  -2   7   -3.32    9.07
  -5  -2   7    1.50   10.71
  -5  -2   7   -0.51   12.88
   2   7   5   20.69    9.34
   2   7   5    3.98    9.81
   2   7   5   25.07   14.19
  -2  -7  -5    6.73   16.52
   2   7   5   17.71   10.55
  -2  -7  -5    3.78    6.06
   2   7   5   16.14    7.72
   2   7   5    1.80   14.41
   1   8  -1  350.12   14.26
  -1  -8   1  306.69   17.78
   3   2   9  466.10   20.39
   3   2   9  446.94   22.18
  -3  -2  -9  516.64   25.03
   3   2   9  459.81   21.97
   3   2   9  523.04   24.70
  -3  -2  -9  500.98   21.39
  -8  -1  -1   39.23   10.84
  -8  -1  -1   35.40   10.04
  -8  -1  -1   31.81    9.72
  -8  -1  -1   18.92    7.27
   8   1   1   27.11    9.57
  -7   0   4  857.72   32.85
   7   0  -4  777.28   32.44
   7   0  -4  872.98   31.19
   7   0  -4  821.84   31.91
  -7   0   4  895.88   34.10
   0   3   9  370.93   18.69
   0   3   9  340.94   17.72
   0   3   9  377.54   22.23
   0  -3  -9  425.90   18.48
   0  -3  -9  360.52   21.50
   0  -3  -9  359.45   20.26
  -8  -1   0   11.30    9.36
  -8  -1   0    5.86    9.16
  -8  -1   0   -4.15   10.34
  -3   3  -8   99.84    9.94
  -3   3  -8   85.07   12.32
  -3   3  -8  108.72   10.26
  -3   3  -8  109.65   15.87
   3  -3   8   85.06   11.82
   4  -6  -2   59.81    5.72
  -4   6   2  114.43   15.88
  -4   6   2  102.13   15.42
  -4   6   2   83.41   11.16
   5  -2   7   38.52    8.16
   5  -2   7   25.79   10.63
  -5   2  -7   53.50   13.89
  -5   2  -7   41.86   10.37
  -2  -4   8   91.62   13.19
   2   4  -8  104.20   10.96
   2   4  -8  118.78   15.34
  -8  -2  -1   73.31   11.51
  -8  -2  -1  111.48   11.23
   8   2   1  102.24   11.14
  -8  -2  -1   80.01   10.95
   4   7  -3  263.91   10.93
  -4  -7   3  285.45   12.33
   4   7  -3  315.40   13.18
   4   7  -3  315.89   25.63
  -4  -7   3  271.37   18.55
  -4  -7   3  317.05   14.94
  -5   4  -5  113.88   14.41
  -5   4  -5  117.18   11.16
   5  -4   5  103.27    9.80
   5  -4   5  108.67    6.83
   5  -4   5  121.11   12.00
   5  -4   5  115.30   16.53
   2  -2   9   66.74   11.18
   2  -2   9   49.73   11.70
  -2   2  -9   49.59    9.31
  -2   2  -9   48.94    8.64
   2  -2   9   63.71    8.17
  -2   2  -9   52.77    9.72
  -2   2  -9   61.22   14.99
  -2  -8   1 2610.58   91.81
  -2  -8   1 2691.31   89.26
   2   8  -1 2658.52   88.65
  -6  -1   6 1044.93   39.02
   6   1  -6  987.46   37.64
  -6  -1   6  970.53   37.93
  -6  -1   6 1042.26   37.94
   3  -4  -7   79.34   17.15
   3  -4  -7   86.90   12.06
  -3   4   7  101.97   11.30
  -3   4   7   73.82   15.74
   3  -4  -7   85.33   14.81
   3  -4  -7   78.85   17.56
  -8  -2   0  216.87   13.89
  -8  -2   0  213.84   14.44
  -8  -2   0  245.82   14.45
   8   2   0  228.30   17.01
   4  -4  -6  432.37   23.05
   4  -4  -6  441.92   24.68
  -4   4   6  432.23   19.72
   4  -4  -6  432.47   20.33
  -7   0  -5  272.32   16.76
  -7   0  -5  309.47   18.09
  -7   0  -5  281.13   17.14
   7   0   5  323.57   16.96
   7   0   5  319.12   15.63
   4   4  -7  317.93   17.06
   4   4  -7  280.89   18.31
   4   4  -7  326.54   15.35
  -4  -4   7  291.33   17.38
   2   3   9  319.75   19.99
  -2  -3  -9  231.07   13.39
  -2  -3  -9  239.44   14.06
   2   3   9  251.14   14.87
  -2  -3  -9  281.00   14.60
   2   3   9  258.11   16.29
  -2   7   3   52.72   15.01
   2  -7  -3   48.18    8.14
   2  -7  -3   59.30   17.78
  -2   7   3   47.07    9.07
  -2   7   3   54.11   15.66
   1  -7   4    2.58   11.03
  -1   7  -4    1.24   16.87
   1  -7   4   13.67    6.67
   1  -7   4   16.66   17.72
   1  -7   4    8.16    8.22
   5   7   2   52.86    9.35
   5   7   2   49.62    8.47
   5   7   2   56.77   12.95
   5   7   2   47.82    5.99
   5   7   2   52.40   16.39
  -5  -7  -2   41.30    9.87
   5   7   2   65.37   13.81
   5   7  -1  182.92   22.92
   5   7  -1  198.96   16.38
  -5  -7   1  194.99   12.68
   5   7  -1  183.80   10.72
   5   7  -1  238.86   12.67
   3   7  -4  312.10   24.88
  -3  -7   4  292.47   18.77
  -3  -7   4  285.96   13.59
  -3  -7   4  312.62   14.30
   3   7  -4  306.43   13.08
   0   8   0   46.21    6.09
   0   8   0   35.35    7.47
   0   8   0   23.33   13.58
   0  -8   0   44.43   10.87
   5   4   7   56.05   11.18
   5   4   7   74.02   12.65
   5   4   7   42.11   10.57
  -5  -4  -7   37.30    9.29
  -5  -4  -7   57.99   13.29
   5   4   7   48.20    9.82
  -4  -6   5  240.69   17.36
  -4  -6   5  246.78   13.36
   4   6  -5  251.35   13.90
   4   6  -5  259.70   16.82
  -7  -5  -2  313.50   15.55
   7   5   2  301.32   14.59
  -7  -5  -2  289.62   16.19
   7   5   2  241.24   15.13
  -7  -5  -2  236.15   13.97
   7   5   2  297.22   14.55
   2  -7   3  101.28   20.41
   2  -7   3  133.51   10.43
  -2   7  -3  124.04   12.44
   2  -7   3  118.34   12.46
  -2   7  -3  145.00   19.13
   4  -5   5   87.93   11.15
  -4   5  -5   97.48   13.57
   4  -5   5   85.51   17.44
  -7  -4  -4  409.18   18.44
   7   4   4  504.58   20.47
  -7  -4  -4  383.02   19.60
   7   4   4  445.15   19.15
   7   4   4  408.71   19.62
   7   4   4  407.34   18.56
  -7  -4  -4  342.53   14.66
   4   5   7  365.61   18.17
   4   5   7  442.86   20.34
  -4  -5  -7  433.21   20.77
  -4  -5  -7  406.24   17.47
  -4  -5  -7  430.67   23.35
  -4  -5  -7  410.01   17.73
   4   5   7  419.73   21.06
   4   5   7  393.43   20.41
  -5   5  -3  223.51   15.86
   5  -5   3  226.68   13.67
   5  -5   3  179.46   19.55
   5  -5   3  203.22   11.68
   1  -6   6   99.30   10.09
   1  -6   6  101.97    6.75
  -1   6  -6  113.78    8.24
  -1   6  -6  114.57   17.04
  -1   6  -6  105.01    7.96
   4   7   4  130.81   10.90
   4   7   4  135.45   14.18
   4   7   4  167.16   13.26
   4   7   4  144.22   10.59
   4   7   4  136.02   16.78
   4   7   4  100.91    5.28
   6  -2  -5  118.90   13.47
   6  -2  -5  106.40   15.33
  -6   2   5  109.40   14.52
   1   8   2  236.14   14.30
   1   8   2  241.85   17.91
   1   8   2  210.06    8.76
   1   8   2  237.80   12.03
  -1  -8  -2  208.40   22.12
   1   8   2  235.35   20.04
  -6  -6  -3   42.42   10.46
   6   6   3   81.18   15.16
   6   6   3   60.46   17.51
   6   6   3   63.89    8.11
   6   6   3   40.60    9.04
   6   6   3   65.90   12.62
  -6  -6  -3   53.48   10.74
   6   6   3   48.80    7.27
  -2  -2   9   43.83    6.64
  -2  -2   9   44.01   14.86
   2   2  -9   33.95   14.10
   2   2  -9   43.05   10.22
   4  -2   8  133.55   10.91
  -4   2  -8  142.38   11.63
  -4   2  -8  148.89   11.40
  -4   2  -8  144.15   16.34
   3  -1   9   11.36    8.02
  -3   1  -9   17.41   13.46
  -3   1  -9   -0.38    9.18
  -3   1  -9   14.29    9.50
   0   8   1  512.85   19.51
   0  -8  -1  452.86   29.47
   0   8   1  524.89   25.46
   0  -8  -1  524.00   22.44
   6  -4  -2   63.34   18.93
  -6   4   2   62.54    8.13
  -6   4   2   67.49   14.23
  -6   4   2   39.65   11.51
   2   8   2  788.22   35.73
   2   8   2  746.60   31.77
   2   8   2  717.43   28.36
   2   8   2  751.12   34.56
  -2  -8  -2  687.62   34.35
   2   8   2  838.78   30.34
   7   5  -1   92.05   14.15
  -7  -5   1   90.50    9.56
  -7  -5   1   90.29   10.76
   7   5  -1   96.90   11.65
  -7  -5   1   91.01    8.79
   3  -5  -6   47.06   10.71
   3  -5  -6   31.74   15.93
   3  -5  -6   32.07   13.44
   3  -5  -6   21.72   16.82
  -3   5   6   46.75   10.24
   5   1   8  461.47   21.37
   5   1   8  454.91   20.59
  -5  -1  -8  472.17   23.26
  -5  -1  -8  468.19   21.74
   5   1   8  421.95   19.65
  -5  -1  -8  465.47   20.55
   6  -3  -4  196.54   16.80
  -6   3   4  231.26   17.58
  -6   0   6  252.93   17.64
  -6   0   6  261.87   15.15
   6   0  -6  259.24   17.05
  -6  -6   2  117.26    8.11
  -6  -6   2  122.73    8.97
  -6  -6   2  117.21    7.94
  -6  -6   2  111.38   11.06
   6   6  -2  107.19    8.64
   6   6  -2  126.66   14.72
   5  -1  -7  207.47   16.63
  -5   1   7  194.17   11.78
   5  -1  -7  198.47   15.30
  -5   1   7  192.85   17.72
  -8  -1  -2   89.19    9.39
  -8  -1  -2  111.94   11.20
  -8  -1  -2  102.72    9.09
  -8  -1  -2  128.85   11.97
   8   1   2  116.97   10.96
   4  -3  -7   12.25   13.20
  -4   3   7    8.46   14.84
   4  -3  -7   -7.45   11.42
  -4   3   7    6.35   10.18
   4  -3  -7    7.81   15.28
  -4  -2   8  305.51   17.38
   4   2  -8  329.61   18.35
   4   2  -8  312.61   19.40
  -4  -2   8  363.69   20.56
   5   6  -4   69.51   13.20
  -5  -6   4   57.45    9.24
  -5  -6   4   59.44   13.85
   5   6  -4   67.43   11.50
   5   6  -4   65.55    9.75
  -7  -4   3  -12.61    7.81
   7   4  -3    2.27    5.08
  -7  -4   3   -8.61    8.06
  -7  -4   3   -5.15    9.12
   7   4  -3  -16.44   12.81
  -8  -2  -2  108.57   11.21
   8   2   2  112.92   11.46
  -8  -2  -2  127.71   11.75
  -6  -2   6   22.60    9.58
  -6  -2   6   30.02   12.32
   6   2  -6   25.63   11.30
  -6  -2   6   24.48   11.63
   0   7   5  214.68   18.38
   0   7   5  234.21   11.91
   0   7   5  215.39   12.25
   0  -7  -5  215.48   20.39
   0   8  -1   25.52   18.36
   0   8  -1   30.23    7.83
   0  -8   1   34.34   11.00
  -8  -1   1    6.10    9.06
  -8  -1   1   -1.43    7.95
  -8  -1   1   -1.52    9.15
  -8  -1   1   -1.88   10.16
   8   1  -1    4.31   11.79
   6   5   5   27.43    9.56
  -6  -5  -5   24.63   11.02
   6   5   5   33.54   15.07
   6   5   5   12.23    9.86
   6   5   5   14.06    8.45
   6   5   5   16.49    8.67
  -6  -5  -5   27.25    9.21
   3   8   0  287.33   24.74
   3   8   0  312.68   14.97
   3   8   0  315.05   20.85
   3   8   0  332.65   15.05
  -3  -8   0  283.74   18.62
   3   8   0  343.54   18.29
   3   8   0  284.63   16.94
  -3  -8   0  320.54   15.18
   6   4   6   -0.35   10.43
  -6  -4  -6   -7.46   10.61
  -6  -4  -6   11.31    9.70
  -6  -4  -6    0.61   11.30
   6   4   6  -16.55   10.48
   6   4   6    0.61    9.71
   6   4   6    9.75   12.29
   6   4   6  -18.63    9.06
   6   4  -5 1979.45   64.69
  -6  -4   5 1796.53   61.31
  -6  -4   5 1808.20   62.16
  -6  -4   5 1951.08   64.45
   6   4  -5 1717.91   62.77
  -6  -4   5 1724.52   59.69
   6   1   7  314.04   12.98
  -6  -1  -7  310.30   17.19
   6   1   7  303.10   13.02
  -6  -1  -7  323.88   18.27
  -5  -6  -5   34.35    9.81
   5   6   5   30.74   10.30
   5   6   5   38.88   15.21
   5   6   5   34.09    9.22
   4  -1  -8  511.31   25.93
  -4   1   8  467.52   19.81
   4  -1  -8  560.91   24.57
  -4   1   8  527.16   25.32
   3   8   1  263.43   14.06
   3   8   1  275.71   13.71
   3   8   1  251.94   16.00
   3   8   1  292.16   23.39
   3   8   1  271.89   16.34
   3   8   1  256.28   19.88
   7   3   5   48.26    9.47
  -7  -3  -5   39.31    8.94
  -7  -3  -5   42.16   11.09
   7   3   5   54.73   10.65
  -7  -3  -5   44.80   11.39
   7   3   5   54.19   10.02
   7   3   5   37.90    9.46
  -8   0  -1    1.22    9.04
  -8   0  -1  -31.86   11.39
  -8   0  -1   -6.08    9.66
  -8   0  -1  -15.18    9.63
  -8   0   0   55.53   11.91
  -8   0   0   53.93   10.14
  -8   0   0   77.08   10.04
   0   3  -9   26.06   14.84
   0   3  -9    6.48    9.48
   0   3  -9  -10.96   14.03
   0  -3   9  -12.98   10.66
  -8  -2   1  139.95   11.05
  -8  -2   1  123.54   11.81
  -8  -2   1   90.21    5.50
   8   2  -1   65.70    4.66
   8   2  -1  124.02   13.94
  -8  -2   1  135.06   11.60
  -6  -5   4   81.75   14.51
  -6  -5   4   50.18    9.72
  -6  -5   4   74.32    8.82
   6   5  -4   82.22   14.02
   6   5  -4   72.40   10.11
  -6  -5   4   62.58    6.62
   3  -7   0  633.52   25.03
   3  -7   0  632.75   32.87
  -3   7   0  704.05   32.41
  -4  -6  -6  405.38   16.56
   4   6   6  424.98   19.33
  -4  -6  -6  414.55   23.36
  -4  -6  -6  447.63   20.65
  -4  -6  -6  383.07   17.25
   4   6   6  381.65   20.65
   4   6   6  377.48   18.79
   4   6   6  398.28   22.21
   4   6   6  392.07   17.24
  -5   0  -8  261.64   15.79
  -5   0  -8  264.48   17.98
   5   0   8  254.05   14.27
   5   0   8  248.62   14.65
   3   7   5  362.50   16.94
   3   7   5  323.56   21.31
   3   7   5  385.84   19.95
   3   7   5  381.39   19.27
   3   7   5  334.27   17.67
   3   7   5  325.22   15.64
   3   7   5  386.19   21.78
   3   7   5  358.27   14.75
  -3  -7  -5  326.44   14.02
   5   2   8   55.73   10.84
  -5  -2  -8   28.53   11.22
   5   2   8   36.86    9.71
  -5  -2  -8   20.37   12.51
   5   2   8   33.90   12.57
  -5  -2  -8   52.46    9.60
   5   2   8   60.91   11.23
   3   5  -7    2.29    9.64
   3   5  -7    4.36    8.97
   3   5  -7   11.12   13.09
  -3  -5   7    1.89   12.17
  -7  -3   4  310.15   15.34
  -7  -3   4  280.48   14.76
  -7  -3   4  312.51   13.98
   7   3  -4  285.53   14.35
   7   3  -4  299.09   17.62
  -1  -8   2  977.39   38.99
   1   8  -2  987.15   42.69
  -1  -8   2 1021.43   35.14
   6  -4   3  157.84   18.84
   6  -4   3  182.29   11.66
  -6   4  -3  144.28   14.59
   6  -4   3  191.13   13.14
   6   2   7  131.31   10.92
   6   2   7  146.80   11.71
  -6  -2  -7  136.38   14.29
  -6  -2  -7  111.01   12.56
  -6  -2  -7  161.38   13.70
  -2   5  -7    7.67    7.51
  -2   5  -7   37.01   14.64
   2  -5   7   23.18    9.76
  -2   5  -7   25.99    7.71
   2  -2  -9  905.79   38.54
   2  -2  -9  894.26   36.09
  -2   2   9  905.50   37.73
   2  -2  -9  999.49   35.16
  -8  -3  -1   12.11    9.76
  -8  -3  -1   -9.56   10.07
   8   3   1   -2.11   13.19
   8   3   1    3.93    9.39
   3  -7   1  504.37   29.26
  -3   7  -1  567.61   28.58
   3  -7   1  495.85   18.78
   3  -7   1  520.12   21.92
  -1  -5  -8  352.42   15.60
  -1  -5  -8  338.06   22.73
  -1  -5  -8  277.17   19.97
   1   5   8  303.48   20.56
   1   5   8  283.81   16.22
   1   5   8  289.22   16.61
  -1  -5  -8  309.74   19.88
  -5   5   3  125.88   16.00
  -5   5   3  143.11   12.45
  -8  -3   0   12.79    9.62
   8   3   0   23.13    9.95
  -8  -3   0   16.79    9.89
  -8  -3   0   24.04    9.94
   8   3   0   21.90   13.37
  -3   7   1  325.28   15.74
  -3   7   1  314.11   20.73
  -3   7   1  260.10   10.92
   3  -7  -1  303.24   14.50
  -1  -3   9  231.65   10.42
   1   3  -9  247.41   19.47
   1   3  -9  274.65   15.17
  -1  -3   9  268.93   15.31
  -7   3   0  285.63   14.13
  -7   3   0  298.96   18.79
  -2   5   7   98.36   10.65
   2  -5  -7  107.32   17.55
   2  -5  -7   91.75   17.05
   2  -5  -7   98.88   11.30
   4  -6   3  125.72    9.79
   4  -6   3  185.28   19.82
  -4   6  -3  184.29   14.58
   4  -6   3  183.04   12.21
   2  -4   8  643.09   26.32
  -2   4  -8  595.40   23.58
   2  -4   8  622.82   26.87
  -2   4  -8  645.40   24.46
  -2   4  -8  640.36   27.29
   0   8   2  951.34   37.75
   0   8   2  899.55   31.57
   0   8   2  949.66   40.72
   0  -8  -2  884.42   40.81
   0   8   2  902.38   32.33
  -3  -8   1  313.18   19.17
   3   8  -1  327.54   14.69
  -3  -8   1  320.58   15.49
   3   8  -1  359.76   18.95
   3   8  -1  302.59   14.92
  -7   3  -1  547.66   24.89
  -7   3  -1  539.15   21.36
  -7   3  -1  527.41   23.32
  -4   5   5  437.97   20.00
   4  -5  -5  422.47   27.26
  -4   5   5  480.70   24.62
   4  -5  -5  465.13   20.57
   4  -5  -5  433.97   25.31
   2   8  -2 2720.90   81.57
  -2  -8   2 2801.30   93.44
  -2  -8   2 2788.60   96.24
   2   8  -2 2764.07   73.64
   6   0   7   41.83   10.14
  -6   0  -7   63.20   11.55
  -6   0  -7   84.62   13.64
   6   0   7   37.05    5.76
   6   0   7   67.33    9.87
   1   7  -5   44.77   18.41
  -1  -7   5   28.62    6.52
   1   7  -5    5.39    5.75
  -1  -7   5   29.54   12.33
   1  -3  -9  355.28   22.84
   1  -3  -9  458.28   19.21
  -1   3   9  421.73   20.68
   5  -3  -6    1.75   12.60
   5  -3  -6   -3.14   14.46
  -5   3   6   -9.89   14.30
   5  -3  -6   -1.24   11.26
  -5   3   6   -4.15    9.49
   3  -3  -8  964.26   40.47
  -3   3   8  930.89   30.23
   3  -3  -8  946.47   39.29
   3  -3  -8  978.90   37.10
  -3   3   8  921.24   34.25
  -1  -6  -7  196.40   16.48
  -1  -6  -7  179.57   19.17
   1   6   7  179.56   17.75
  -1  -6  -7  147.50   17.86
   1   6   7  169.83   12.41
  -6   2  -6  203.40   14.25
   6  -2   6  233.75   12.21
  -6   2  -6  187.59   16.68
   6  -2   6  202.36   13.41
   6  -2   6  192.98   15.69
  -1   3  -9  199.83   13.05
  -1   3  -9  218.35   16.08
   1  -3   9  219.64   15.92
   1  -3   9  237.45   15.39
  -3  -6   6  597.95   23.53
   3   6  -6  605.62   32.66
   3   6  -6  627.42   28.61
   3   6  -6  651.78   24.52
  -8   0  -2   11.10   10.27
   8   0   2   12.04    8.94
  -8   0  -2    0.81    8.98
  -4  -4  -8  431.81   23.56
   4   4   8  430.02   21.83
  -4  -4  -8  411.47   18.51
   4   4   8  407.77   19.34
   4   4   8  377.84   18.94
  -7   2   3  203.50   12.63
   7  -2  -3  189.29   11.46
  -7   2   3  223.40   16.80
   7  -2  -3  187.98   15.18
  -2  -5  -8  137.27   15.04
   2   5   8  102.44   11.85
  -2  -5  -8  135.22   11.05
  -2  -5  -8  123.29   15.83
  -2  -5  -8  109.25   10.66
  -2  -5  -8  142.91   18.20
   2   5   8  103.39   12.47
   2   5   8  116.69   16.17
   5   7   3  115.35    9.90
   5   7   3  115.10   14.27
   5   7   3  134.71   11.54
   5   7   3  102.66   17.20
   5   7   3  125.04   15.35
   5   7   3  150.82   11.22
   6  -3   5  187.25   12.13
   6  -3   5  185.54   10.02
  -6   3  -5  185.90   13.83
   6  -3   5  134.33   17.55
   6  -3   5  199.93   13.95
   3   8   2    4.55   10.37
   3   8   2   14.89    8.35
   3   8   2   11.20   13.92
   3   8   2   25.76    9.01
   3   8   2   31.64   17.64
   3   8   2    8.25   10.74
   3   8   2    1.60    1.92
  -8   0   1  209.47   14.99
  -8   0   1  219.16   14.11
  -8   0   1  223.83   13.46
   8   0  -1  200.41   15.42
   5   7  -2  655.82   23.10
  -5  -7   2  699.71   28.18
   5   7  -2  591.79   25.16
  -5  -7   2  710.94   24.26
   7  -1  -4   62.25   12.81
  -7   1   4   67.55   10.07
  -7   1   4   62.82   13.36
   7  -1  -4   73.36    9.46
   7   5   3  531.30   22.63
  -7  -5  -3  530.46   22.66
  -7  -5  -3  608.10   24.16
   7   5   3  555.30   22.05
   5   3  -7 1220.98   43.74
  -5  -3   7 1160.47   43.45
   5   3  -7 1139.21   44.25
  -5  -3   7 1151.53   43.32
  -5  -3   7 1151.48   41.65
  -2  -6  -7   67.15   13.63
   2   6   7   59.73   11.25
  -2  -6  -7   65.71    8.29
  -2  -6  -7   63.89   16.49
  -2  -6  -7   44.87    8.49
  -2  -6  -7   59.73   16.21
   2   6   7   64.87   10.74
   2   6   7   81.62   15.16
   2  -4  -8  216.12   14.72
   2  -4  -8  193.95   19.60
  -2   4   8  215.94   13.69
   2  -4  -8  232.09   20.26
  -3   0   9  107.94   16.89
  -3   0   9   99.29   11.40
   3   0  -9  108.69   15.55
   5  -4  -5   77.30   15.83
  -3  -3  -9  563.45   28.28
  -3  -3  -9  578.04   24.00
  -3  -3  -9  608.85   24.17
   3   3   9  565.47   24.36
  -3  -3  -9  577.68   26.97
   3   3   9  533.13   24.51
   3   3   9  588.85   27.25
   3   3   9  543.68   23.42
  -8  -3  -2   -3.19    9.67
   8   3   2    8.18    9.84
  -8  -3  -2   -3.06   10.40
  -4   6   3   35.96   10.37
  -4   6   3   38.96   14.45
  -4   6   3   36.08   14.52
   0  -7   5  406.14   15.23
   0  -7   5  385.50   21.25
   0   7  -5  389.67   15.29
   0  -7   5  396.20   16.46
   0   7  -5  425.52   25.28
   0  -8   2  587.66   25.96
   0  -8   2  585.32   32.78
   0   8  -2  546.78   30.35
   3   1  -9   10.81    9.48
   3   1  -9    2.59   11.97
   3   1  -9   15.40   14.12
  -3  -1   9   35.65   15.16
  -3  -1   9   -0.15   10.67
  -7   2  -4  269.34   14.62
  -7   2  -4  291.53   16.49
  -7   2  -4  308.85   18.88
   7  -2   4  303.75   14.28
   7  -2   4  295.24   21.02
   7  -2   4  291.00   15.33
  -7   3   1   55.88   13.49
  -7   3   1   29.49    7.99
  -8  -1  -3   53.36    9.82
  -8  -1  -3   57.45   11.55
   8   1   3   44.44    9.76
   8   1   3   32.31    9.82
  -8  -1  -3   35.60   10.45
  -7   1  -5  324.02   19.15
  -7   1  -5  295.43   18.32
   7  -1   5  285.22   15.57
   7  -1   5  253.35   19.13
   7  -1   5  314.48   14.91
   7  -1   5  328.60   17.13
  -7   1  -5  304.19   17.47
   7   5  -2   50.82   13.73
  -7  -5   2   57.61   10.19
  -7  -5   2   46.13    8.37
  -7  -5   2   43.43    8.14
  -7  -5   2   51.44    8.01
   1   8   3  685.43   26.56
   1   8   3  667.53   23.32
  -1  -8  -3  653.77   33.44
   1   8   3  664.61   32.24
   1   8   3  612.93   25.05
   1   8   3  696.55   32.78
   1   8   3  631.07   29.40
   2   8   3   44.02   18.13
   2   8   3   38.55   13.43
   2   8   3   49.28    9.10
  -2  -8  -3   37.99   18.62
   2   8   3   65.15   11.39
   2   8   3   52.74    9.30
   2   8   3   39.84   15.83
   0  -5  -8  175.09   17.57
   0  -5  -8  199.87   17.10
   0  -5  -8  224.50   20.58
   0   5   8  176.48   13.80
  -2  -7   5  240.33   17.06
  -2  -7   5  240.88   13.27
   2   7  -5  212.80   17.39
   2   7  -5  243.83   12.24
  -2  -7   5  252.44   12.49
   2   7  -5  273.82   24.02
  -6   1   6   67.04   14.71
  -6   1   6   83.27   10.60
   6  -1  -6   64.85   13.22
   6  -1  -6   75.76   14.59
  -8  -2  -3  101.55    7.74
   8   2   3  145.01   12.19
  -8  -2  -3  144.35   12.51
   8   2   3  138.64   12.16
  -8  -2  -3  130.33   12.35
   8   2   3  159.83   11.65
  -8  -3   1    3.64    9.25
  -8  -3   1   16.81   10.00
  -8  -3   1    5.64    8.81
   8   3  -1    8.48   12.99
   4   1   9  -20.44    9.52
   4   1   9   -5.61   10.15
   4   1   9   -9.07   11.29
  -4  -1  -9  -18.93    9.83
   4   1   9  -30.16   14.19
  -4  -1  -9   -7.74   10.91
  -4  -1  -9  -19.17   13.98
  -7   3  -2  119.02   12.99
   7  -3   2  185.46   20.91
  -7   3  -2  161.75   10.28
  -1   8   0  818.85   29.70
  -1   8   0  979.56   36.79
  -1   8   0  989.66   32.39
  -1   8   0  952.94   39.20
   1  -8   0 1029.91   38.37
  -1   8   0  986.20   40.55
  -8  -1   2  182.48   13.25
   8   1  -2  144.32   14.02
  -8  -1   2  158.26   12.49
  -8  -1   2  152.70   11.69
   8   1  -2  115.03    9.48
   3  -7   2  209.18   13.62
   3  -7   2  198.13   21.81
  -3   7  -2  239.08   15.25
  -3   7  -2  217.21   22.39
   3  -7   2  171.12    9.77
  -3   6  -5   -2.28   16.73
   3  -6   5    3.22   17.81
   3  -6   5   -1.00    9.63
  -3   6  -5   11.80   11.51
  -6  -3   6  332.80   16.74
   6   3  -6  322.28   18.28
  -6  -3   6  314.69   18.81
  -6  -3   6  312.59   16.16
  -6  -3   6  331.96   18.19
   3   4  -8  193.47   16.51
   3   4  -8  182.15   12.75
   3   4  -8  171.93   13.67
  -3  -4   8  171.98   15.32
   0  -6  -7   23.38   13.38
   0  -6  -7   21.13   15.37
   0  -6  -7   26.53   16.48
   0   6   7   17.35    8.84
   0   6   7   14.02   15.43
  -8  -2   2    6.39    8.85
  -8  -2   2    9.94    6.04
  -8  -2   2   -5.09    9.59
  -8  -2   2    4.57    9.77
   8   2  -2    9.74   11.78
  -3   7   2  113.29   11.16
   3  -7  -2  106.52    9.01
  -3   7   2  103.90   16.74
   1  -8  -1 1090.65   40.17
  -1   8   1 1053.41   36.39
  -1   8   1 1105.11   42.55
  -1   8   1 1060.25   44.35
   6  -4  -3   10.48    2.24
  -6   4   3   33.77   11.10
  -6   4   3   48.08   14.20
   4   0   9   46.36    9.58
   4   0   9   64.89   12.10
  -4   0  -9   35.72   10.71
  -4   0  -9   56.34   14.56
   4   0   9   36.52   10.36
   0   0  10  170.63   15.43
   0   0  10  207.37   12.14
   6   6   4    8.21    6.47
   6   6   4    1.19    7.81
   6   6   4   22.99   17.51
   6   6   4    2.29    7.81
   6   6   4   11.76   11.88
   6   6   4  -13.63    9.71
   6   6   4   14.45   10.73
   6   6   4    7.64   13.88
   1   0  10  673.08   25.88
  -1   0 -10  667.93   31.55
  -1   0 -10  724.19   28.22
   1   0  10  628.30   28.60
   1   0  10  702.36   31.56
   6   3   7   42.54   11.42
   6   3   7   63.56   10.98
   6   3   7   41.89    8.13
  -6  -3  -7   63.17   12.38
  -6  -3  -7   67.58   12.25
  -5   1  -8  216.19   14.09
  -5   1  -8  221.96   17.94
   5  -1   8  213.21   13.27
  -5   1  -8  222.91   14.49
  -1   8  -1  250.03   13.73
  -1   8  -1  247.76   22.79
   1  -8   1  286.08   16.37
   1  -8   1  269.81   25.07
  -1   8  -1  260.52   21.25
   2  -7  -4   53.39   18.06
   2  -7  -4   66.40    9.14
  -2   7   4   62.63    8.87
  -2   7   4   81.13   16.11
  -2   7   4   54.09   16.04
  -5  -3  -8    7.19   11.20
   5   3   8    4.56    9.97
   5   3   8   10.54   10.45
   5   3   8   28.76   13.45
   5   3   8   27.31   10.87
  -5  -3  -8    1.92    9.52
  -5  -3  -8   19.55   12.40
  -5  -3  -8   20.88   13.24
   3  -2   9   12.56   11.72
  -3   2  -9   30.78   14.87
  -3   2  -9   16.99    9.61
  -3   2  -9   16.97    9.43
   2  -6  -6  537.50   28.42
  -2   6   6  519.05   21.94
   2  -6  -6  518.48   21.94
   2  -6  -6  472.58   28.06
  -4  -3   8   23.96   13.75
  -4  -3   8   39.27   11.99
   4   3  -8   20.27   11.86
   4   3  -8   31.03   13.37
   5  -5   4   41.93   16.82
   5  -5   4   26.11   10.23
   5  -5   4   21.84    8.07
  -5   5  -4   40.56   12.91
  -3   1   9  453.94   20.00
  -3   1   9  485.44   25.04
   3  -1  -9  506.49   23.68
  -1  -1 -10  144.81   12.10
  -1  -1 -10   98.72   10.14
   1   1  10  155.06   18.10
  -1  -1 -10  135.57   16.68
   1   1  10  127.08   10.97
  -3   6   5   -4.08   14.77
   3  -6  -5    3.71   17.04
  -3   6   5    1.82    8.66
   3  -6  -5  -16.36   10.10
   3  -6  -5  -14.52   16.66
  -3  -8   2  655.32   29.19
   3   8  -2  672.81   24.64
  -3  -8   2  668.37   25.51
  -1   7   5  101.06    9.73
   1  -7  -5   53.75   18.08
  -1   7   5  100.93   16.77
  -6  -6   3   21.75   13.62
   6   6  -3   27.15    8.84
   6   6  -3   33.45   13.33
  -6  -6   3   14.71    9.10
  -2   6  -6  412.33   17.10
   2  -6   6  291.10   10.78
  -2   6  -6  453.37   24.77
  -2   6  -6  407.04   17.22
  -8   1  -1  118.78   13.58
  -8   1  -1  167.34   11.87
  -8   1  -1  128.45   14.49
  -2  -3   9  280.64   11.40
  -2  -3   9  296.14   19.34
   2   3  -9  353.51   17.64
   2   3  -9  313.34   21.14
  -2  -3   9  309.78   17.96
  -8   1   0  160.32   14.97
  -8   1   0  147.84   14.51
  -8   1   0  198.65   12.40
   2  -7   4   61.46    9.72
   2  -7   4   70.21   19.81
  -2   7  -4   63.18   11.34
  -2   7  -4   58.84   17.87
   2  -7   4   57.52   11.97
   1   4   9  257.82   15.80
  -1  -4  -9  371.93   17.14
  -1  -4  -9  297.00   18.82
  -1  -4  -9  314.45   22.43
   1   4   9  302.53   17.20
  -1  -4  -9  325.61   21.15
   1   4   9  332.10   21.03
   0   1  10   -4.05    8.90
   0  -1 -10    2.54   10.18
  -4  -2  -9   10.06    9.54
   4   2   9    8.47   11.03
   4   2   9    6.35    9.69
   4   2   9   18.53   10.93
   4   2   9    8.59   14.31
  -4  -2  -9   16.54   13.03
  -7  -1   5  468.95   20.88
   7   1  -5  433.43   21.12
   7   1  -5  459.69   20.65
  -7  -1   5  477.99   21.91
  -7  -1   5  441.53   20.39
  -7  -1  -6    8.93   12.38
  -7  -1  -6   -7.04   11.67
  -7  -1  -6   -9.74    7.91
  -7  -1  -6   -3.61   10.75
   7   1   6  -12.20    9.68
   7   1   6  -10.13   10.65
  -4  -7   4  501.88   20.82
   4   7  -4  453.47   23.27
   4   7  -4  519.16   30.71
   4   7  -4  499.30   19.67
   5  -2  -7   50.52   15.18
   5  -2  -7   55.60   12.45
   5  -2  -7   44.38   13.69
  -5   2   7   48.39   15.10
  -8   0  -3    8.62    9.94
   8   0   3   28.89    9.27
  -8   0  -3   32.36   10.09
   8   0   3   42.49   10.23
  -8   0  -3   46.74   11.23
   4  -2  -8  208.93   17.67
  -4   2   8  164.83   10.13
   4  -2  -8  194.74   15.56
  -4   2   8  205.99   13.91
  -4   2   8  193.64   18.36
   3   6   7   63.86   11.76
  -3  -6  -7   72.43   16.16
  -3  -6  -7   48.43    8.51
   3   6   7   49.92   10.40
  -3  -6  -7   54.44   13.47
  -3  -6  -7   65.54    8.78
   3   6   7   54.44   15.52
   3   6   7   43.10   14.53
  -3  -5  -8  146.26   11.48
  -3  -5  -8  181.72   11.73
  -3  -5  -8  149.46   18.12
  -3  -5  -8  178.45   15.79
   3   5   8  166.53   14.21
   3   5   8  143.34   13.13
   3   5   8  151.83   13.24
   3   5   8  190.41   17.12
   0   8   3  346.25   16.42
   0   8   3  372.26   15.67
   0   8   3  378.32   22.26
   0  -8  -3  269.07   10.24
   0   8   3  392.21   26.48
   0  -8  -3  416.45   25.73
   0   8   3  395.33   15.50
   4   8   0  145.21   12.79
  -4  -8   0  158.58   11.97
   4   8   0  139.40   10.30
   4   8   0  163.88   14.88
   4   8   0  142.40   10.68
   4   8   0  154.26   22.06
   4   8   0  135.20   15.69
  -8   0   2  337.49   17.90
   8   0  -2  229.97   13.27
  -8   0   2  320.36   16.58
   8   0  -2  297.38   16.44
   4   8   1  154.78   13.01
   4   8   1  156.38   10.86
   4   8   1  118.86   14.26
   4   8   1  137.51   20.83
   4   8   1  139.48   10.65
  -4  -8  -1  158.36   12.10
   4   8   1  126.18   15.12
  -1  -8   3    8.58    6.42
  -1  -8   3   14.87    6.75
  -1  -8   3   24.19   12.28
   1   8  -3   39.27   18.94
  -7  -2  -6   66.41    9.29
  -7  -2  -6   81.42   12.72
   7   2   6   72.15   11.31
  -7  -2  -6   66.81   11.67
   7   2   6   76.73   11.27
   7   2   6   54.78   10.29
   3   8   3   29.94    4.63
   3   8   3   46.93   12.39
   3   8   3   66.06   17.18
   3   8   3   43.92    8.71
   3   8   3   41.20   15.02
   3   8   3   47.35    9.61
   3   8   3   80.13   11.75
   3   2  -9  109.44   11.49
   3   2  -9   90.54   15.39
  -3  -2   9   95.19   13.02
  -3  -2   9  121.38   16.37
   3   2  -9  106.85   13.35
  -3  -2   9   92.53    7.82
  -6   1  -7   68.52   11.82
  -6   1  -7   45.71   13.63
   6  -1   7   34.66   10.21
   6  -1   7   36.02    9.25
  -6   1  -7   62.34   14.46
   6  -1   7   31.12    9.05
   4  -4   7   71.45    7.62
  -4   4  -7   58.75   15.04
  -4   4  -7   72.61   10.37
   7   4   5   49.93    9.79
  -7  -4  -5   36.98    9.17
   7   4   5   50.01   10.16
   7   4   5   65.28   11.48
  -7  -4  -5   59.79   11.86
   7   4   5   48.41    9.71
   0  -1  10   35.82   11.82
   0  -1  10   45.86    8.37
   0  -1  10   23.72   15.72
  -8  -3  -3   11.58   10.52
   8   3   3   -3.30    9.26
  -8  -3  -3    3.43   10.44
  -8  -3  -3    0.74   10.34
   8   3   3    9.02   10.02
  -2   3  -9  122.85   11.06
  -2   3  -9  110.88   17.02
  -2   3  -9  119.12   12.82
  -2   3  -9  115.30   10.22
   2  -3   9  135.78   13.17
   2  -3   9  119.52   13.81
  -7  -2   5  196.37   14.48
  -7  -2   5  177.43   12.96
   7   2  -5  161.69   12.94
   7   2  -5  191.92   14.57
   4   7   5   54.01   16.53
   4   7   5   59.17   12.68
   4   7   5   21.43   11.87
   4   7   5   36.84   12.63
   4   7   5   34.98   10.22
   4   7   5   28.38    9.90
   2   4   9  -13.05   11.77
  -2  -4  -9   -0.12    9.53
   2   4   9  -11.11   10.52
  -2  -4  -9   16.62   15.42
  -2  -4  -9    0.92   13.01
  -2  -4  -9    4.02   12.15
   2   4   9    9.44   14.94
  -2  -4  -9  -25.83    9.87
  -7   3   2    9.84   12.91
  -7   3   2    7.93    8.30
   0  -5   8  550.34   24.37
   0   5  -8  589.80   28.56
   0  -5   8  568.56   23.79
   0   5  -8  545.07   28.22
  -1  -5   8   72.85   11.41
   1   5  -8  127.41   11.20
   1   5  -8  104.10   19.22
  -1  -5   8   94.41   12.24
   1   5  -8  112.88   16.41
  -1  -5   8   97.91   14.53
   2   8  -3  553.74   30.69
   2   8  -3  487.11   18.84
  -2  -8   3  487.52   19.14
   2   8  -3  566.33   19.71
  -2  -8   3  582.98   25.19
  -2  -8   3  544.35   20.36
   6  -4   4  -14.57    8.47
   6  -4   4   -3.51   16.14
  -6   4  -4   -7.49   12.81
   6  -4   4  -17.74   10.50
   1  -1  10    7.04    8.29
  -1   1 -10   22.99   15.57
   1  -1  10   12.83   11.75
  -1   1 -10   12.37    9.94
   8   4   1  270.28   16.12
   8   4   1  294.70   19.82
  -8  -4  -1  287.55   15.68
  -1   8   2  415.04   17.31
   1  -8  -2  356.19   26.38
  -1   8   2  393.75   24.57
  -1   8   2  414.52   23.54
  -1   8   2  420.16   28.13
  -1   8   2  378.26   16.06
   1  -8  -2  402.21   18.64
   1  -7   5  209.62   14.99
  -1   7  -5  232.45   21.27
   1  -7   5  217.00   11.94
   1  -7   5  238.35   10.68
   0   4   9  500.55   26.59
   0  -4  -9  432.78   24.46
   0   4   9  453.19   21.53
   0  -4  -9  469.95   25.15
   0  -4  -9  447.99   26.92
   0  -4  -9  538.24   21.05
   0   4   9  480.36   22.32
  -7   0   5  246.64   17.65
   7   0  -5  241.26   16.04
  -7   0   5  240.45   14.74
  -7   0   5  251.82   14.91
   7   0  -5  240.79   14.12
  -8   1  -2   13.51    9.31
  -8   1  -2   38.49   10.81
   1   0 -10   23.54   14.72
  -1   0  10   17.45    8.93
  -1   0  10   42.19   16.56
  -1  -7  -6  237.03   21.18
   1   7   6  226.82   14.10
   1   7   6  204.45   13.67
  -1  -7  -6  261.75   18.09
  -1  -7  -6  224.59   21.50
   5   5  -6  587.57   27.06
  -5  -5   6  613.09   24.97
  -5  -5   6  637.05   28.00
   5   5  -6  666.02   26.05
   8   4   0  322.61   19.40
   8   4   0  320.89   15.97
  -8  -4   0  302.54   15.52
  -8  -4   0  261.77   15.42
  -8   1   1  624.93   27.49
  -8   1   1  666.95   26.01
  -8   1   1  662.51   27.58
   2   7   6  265.10   16.38
   2   7   6  281.49   16.65
   2   7   6  245.63   20.11
   2   7   6  305.67   19.63
  -2  -7  -6  290.65   21.98
  -2  -7  -6  267.50   12.89
   2   7   6  318.22   15.85
  -2  -7  -6  282.85   22.17
   2   7   6  281.70   14.64
  -2  -7  -6  293.04   18.20
  -7  -4   4   28.72    9.87
   7   4  -4   29.71    8.45
  -7  -4   4   13.04    9.38
   7   4  -4   17.03   12.81
  -7  -4   4   25.85    7.76
  -8  -3   2   39.80   10.56
   8   3  -2   57.20   13.06
  -8  -3   2   46.24    9.73
  -8  -3   2   53.93   10.11
   1   6  -7  468.57   27.18
   1   6  -7  435.61   19.25
  -1  -6   7  447.15   20.63
   1   6  -7  458.59   24.81
   5  -3   7   60.77    8.19
   5  -3   7   52.59   13.86
  -5   3  -7   51.23   10.84
  -5   3  -7   49.72   15.66
  -2  -1 -10  287.63   16.42
   2   1  10  328.18   21.81
   2   1  10  296.99   15.66
  -2  -1 -10  306.81   20.56
  -2  -1 -10  328.13   16.66
   2   0  10  258.17   17.35
  -2   0 -10  272.13   20.06
   2   0  10  265.09   17.32
   2   0  10  274.73   14.65
   2   0  10  273.15   20.69
   7  -3   3   27.58   17.32
   7  -3   3   13.57    8.90
  -7   3  -3    2.73   10.24
  -7   3  -3    7.40    8.09
   3   7  -5  574.41   21.72
   3   7  -5  569.58   31.86
  -3  -7   5  552.43   22.06
  -3  -7   5  544.21   22.10
   3   7  -5  531.00   26.27
  -7   0  -6  109.75   13.03
  -7   0  -6  132.10   14.91
   7   0   6  114.94   12.82
   7   0   6  116.91   11.08
  -7   0  -6  103.00   14.31
   7   0   6   82.07   13.68
   7   5   4  290.00   16.01
  -7  -5  -4  325.11   17.67
   7   5   4  299.33   14.54
   7   5   4  322.69   15.73
   4   8  -1   34.97    3.46
   4   8  -1   39.06    7.55
   4   8  -1   29.73    4.27
   4   8  -1   42.89   13.93
   4   8  -1   49.66   21.92
   4   8  -1   16.70    8.38
  -4  -8   1   46.51    9.35
  -4  -8   1   32.92   13.67
   5   7   4  298.31   15.19
   5   7   4  284.57   21.45
   5   7   4  288.21   14.49
  -5  -7  -4  197.96    7.94
   5   7   4  307.30   18.91
   5   7   4  336.45   16.06
   5   7   4  221.57    9.60
   5   7   4  295.69   18.10
   4  -6   4   11.37    7.69
   4  -6   4   16.80    9.81
  -4   6  -4   27.75   12.45
  -5  -7   3  400.92   18.73
   5   7  -3  403.89   17.27
   5   7  -3  371.30   19.15
  -1   8  -2   -2.05    9.68
   1  -8   2    4.01   19.89
  -1   8  -2   -2.99   18.17
   1  -8   2    9.05   11.17
   4   8   2  264.64   15.76
   4   8   2  263.36   18.90
   4   8   2  262.93   17.04
   4   8   2  245.01   14.11
   4   8   2  282.32   14.51
   4   8   2  279.23   22.79
   0   6  -7  115.95    9.12
   0   6  -7  103.28   17.10
   0   6  -7   85.57    5.38
   0  -6   7   94.13   11.76
   0   6  -7  127.61   18.54
   0  -6   7  111.29   14.01
   0  -6   7  120.11   11.06
   1  -5  -8  232.13   18.59
  -1   5   8  211.06   19.53
   1  -5  -8  220.32   19.70
   5  -4   6  107.23   12.49
   5  -4   6   93.14   17.05
   5  -4   6  101.37   10.40
   5  -4   6   97.49    7.55
  -5   4  -6  121.51   15.35
  -5   4  -6   95.74   11.47
   0  -8   3   10.41    7.50
   0  -8   3   16.68   11.67
   0   8  -3   21.13   19.06
   4  -3   8    9.42    8.55
  -4   3  -8    0.25    9.27
  -4   3  -8   23.82   15.36
  -4   3  -8   13.27    9.50
  -4   1  -9  155.23   12.94
   4  -1   9  163.12   11.51
   4  -1   9  133.69   12.22
  -4   1  -9  155.57   17.26
  -4   1  -9  156.35   12.19
  -5  -5  -7   86.09   10.31
  -5  -5  -7  121.91   15.54
   5   5   7   93.94   11.20
  -5  -5  -7  101.91   13.23
   5   5   7  117.05   13.95
   1   2  10   -5.29   12.75
  -1  -2 -10   11.18   10.29
   1   2  10    8.79    9.42
   1   2  10    7.60   16.57
  -1  -2 -10   11.84   10.01
  -1  -2 -10   -3.36   14.37
  -5   5   4   14.38   10.42
   5  -5  -4   20.42   15.65
   5  -5  -4   28.19   19.55
  -5   5   4   21.42   14.64
   6  -3  -5   12.24   14.08
   2  -3  -9  494.94   23.27
   2  -3  -9  526.82   28.06
  -2   3   9  495.75   26.86
   6   7   1   12.02   10.33
   6   7   1   27.00   14.20
  -6  -7  -1   27.97   10.12
   6   7   1   24.15    6.44
   6   7   1   23.74   13.53
   6   7   1    8.77   18.41
   6   7   1   20.82    8.24
   1   1 -10  -15.68   15.36
  -1  -1  10    1.93   11.33
   1   1 -10    5.31   10.83
  -1  -1  10    2.36    7.51
  -1  -1  10   -1.62   15.72
  -1   1  10   58.34   16.75
  -1   1  10   32.36    9.35
   1  -1 -10   44.30   11.24
   8   4   2   30.68    9.61
   8   4   2   51.78   15.14
  -8  -4  -2   28.74   11.05
   8   4   2   25.17   10.91
  -8  -4  -2   47.33   10.85
  -3   7  -3   -4.45   11.27
   3  -7   3    1.00    8.86
  -3   7  -3    1.08   18.35
   3  -7   3   -6.74   19.01
  -8  -1  -4   69.66   11.62
   8   1   4   93.41   11.49
  -8  -1  -4   75.88   12.50
  -8  -1  -4   96.22   11.40
  -8  -1  -4   86.13   13.52
   8   1   4   78.66   10.65
   6   7   0  371.93   16.32
  -6  -7   0  405.23   19.48
   6   7   0  408.76   27.53
   6   7   0  435.93   18.25
   6   7   0  425.00   22.19
  -7  -6  -1  343.87   15.94
   7   6   1  308.43   15.23
   7   6   1  317.82   15.31
   7   6   1  364.45   17.66
   7   6   1  277.94   18.43
  -7  -6  -1  332.31   16.74
   8   2   4   69.87   10.23
   8   2   4   91.22   11.12
  -8  -2  -4   92.90   12.69
   8   2   4   81.89   11.13
  -8  -2  -4   94.15   12.53
  -8  -2  -4   71.86    9.21
  -8  -2  -4   90.97   12.88
   4  -5   6    8.74   10.42
  -4   5  -6   24.10   12.99
   4  -5   6   16.32   17.03
  -4   5  -6   13.30    9.29
   4  -5   6   13.51    3.82
   7   5  -3  117.19   15.04
  -7  -5   3  126.19   10.05
  -7  -5   3  105.99    9.05
  -7  -5   3  103.41   11.29
  -3   7   3    4.87    9.77
  -3   7   3   12.11   15.18
   3  -7  -3  -25.50   18.91
   3  -7  -3    7.16    8.39
   7   6   0  105.42   12.08
  -7  -6   0  113.11   10.66
   7   6   0   82.55   13.44
   7   6   0  109.11   15.84
  -7  -6   0  114.76   11.88
  -5  -6   5   -3.82    8.82
   5   6  -5   -1.96    9.57
  -5  -6   5   -1.47   13.19
   5   6  -5   -1.64   11.83
   0   2  10    9.29    9.31
   0   2  10   22.06   11.86
   0  -2 -10   38.44   10.77
   0  -2 -10   33.53   12.84
  -5   6   0  417.57   22.05
   5  -6   0  367.56   25.99
  -5   6   0  396.71   21.85
  -5   6   0  437.91   18.60
  -4  -5   7  117.83   11.01
   4   5  -7  121.36   12.56
  -4  -5   7  126.09   14.81
   4   5  -7  121.06   10.74
   4   5  -7  113.32   15.09
  -6  -5  -6   25.05   11.57
   6   5   6   26.44   14.04
   6   5   6   41.82   11.12
   6   5   6   25.65   10.45
  -6  -5  -6   43.00   10.72
   2   8   4   23.55   11.32
   2   8   4   19.47   15.80
   2   8   4   15.85    9.34
   2   8   4   21.55    4.49
   2   8   4   28.23    9.63
  -2  -8  -4   19.82   18.69
   2   8   4   25.32   13.98
   2   8   4    2.02   17.02
  -1  -8  -4  483.15   28.27
   1   8   4  515.97   18.87
   1   8   4  563.00   29.22
  -1  -8  -4  427.36   15.87
   1   8   4  466.57   25.47
   1   8   4  497.59   21.74
   1   8   4  485.15   21.29
   1   8   4  488.37   27.89
  -1   6   7  129.43   10.85
   1  -6  -7  152.83   18.66
  -1   6   7  144.73   18.48
  -1   6   7   90.85    7.56
   1  -6  -7  154.99   16.80
  -3   4  -8    5.73   15.90
  -3   4  -8   -2.03    8.48
   3  -4   8   -3.47   10.92
  -3   4  -8   -5.04    8.59
  -3   4  -8   -2.09   13.15
  -8  -4   1  256.57   14.83
   8   4  -1  273.93   18.77
  -8  -4   1  277.05   14.81
   5   6   6   55.16   12.22
  -5  -6  -6   60.88   12.19
  -5  -6  -6   53.64    7.81
   5   6   6   61.02   10.71
   5   6   6   57.38   15.46
   5   6   6   56.53   11.56
   6  -5   0  -18.04   19.22
  -6   5   0   -9.42   14.04
  -6   5   0  -19.58   12.35
  -6   5   0    2.86    6.19
  -6   5   0    3.26   13.29
   7   3   6  141.54   12.27
  -7  -3  -6  112.12   12.11
  -7  -3  -6  101.44   11.34
  -7  -3  -6  135.75   13.71
   7   3   6  133.00   12.73
   7   3   6  122.73   11.96
  -8  -1   3  330.71   17.46
   8   1  -3  311.16   17.31
   8   1  -3  244.22   14.95
  -8  -1   3  338.26   17.61
  -8  -1   3  336.69   17.26
   7  -2  -4  255.31   18.25
   7  -2  -4  289.88   13.34
  -7   2   4  262.89   14.98
  -3   5  -7  100.93   10.01
  -3   5  -7  114.95   16.69
  -3   5  -7   92.17   10.08
  -3   5  -7   71.20   16.21
   3  -5   7   95.06    7.71
  -1   5  -8  492.09   27.06
  -1   5  -8  506.21   19.45
   1  -5   8  508.13   22.33
   1  -5   8  492.54   23.05
  -1   5  -8  537.35   26.41
  -1   5  -8  508.31   20.89
   4  -6  -4  109.83   19.82
  -4   6   4  119.54   17.13
  -4   6   4  124.60   11.71
   4  -6  -4  121.45   11.85
   5  -6   1  596.64   31.92
  -5   6  -1  564.37   27.88
  -4  -6   6   12.09    8.63
  -4  -6   6   20.99   13.46
   4   6  -6   16.86    9.76
   4   6  -6   24.54   13.65
   6   5  -5  442.36   20.79
  -6  -5   5  369.80   15.30
  -6  -5   5  486.03   23.14
  -6  -5   5  463.47   19.66
  -6  -5   5  462.38   18.23
   6   5  -5  473.34   22.91
   6   5  -5  480.17   21.42
   2   6  -7  683.90   33.38
   2   6  -7  630.10   25.43
   2   6  -7  657.38   30.13
  -2  -6   7  631.42   24.49
  -2  -6   7  613.50   25.75
   2   5  -8   92.08   10.75
   2   5  -8   83.30   15.96
  -2  -5   8  101.91   14.34
   2   5  -8   83.65   19.61
  -6   5  -1   46.16   13.96
   6  -5   1    7.61   18.40
  -6   5  -1   38.39    5.96
   0   7   6  496.38   20.20
   0   7   6  499.97   20.19
   0  -7  -6  519.88   28.64
   0  -7  -6  481.98   28.00
   0  -7  -6  505.95   24.97
   5   4  -7  503.94   22.36
  -5  -4   7  428.76   19.96
  -5  -4   7  455.61   17.31
   5   4  -7  442.54   23.01
  -6   2   6    3.07   14.11
   6  -2  -6   -5.50   12.86
   6  -2  -6   -5.26   14.06
   8   2  -3  155.78   14.67
  -8  -2   3  125.79   11.13
  -8  -2   3  128.60   11.77
  -8  -2   3  148.16   10.95
  -8  -2   3  111.68   12.15
  -4  -3  -9  240.03   19.50
  -4  -3  -9  263.20   14.99
   4   3   9  259.70   15.46
  -4  -3  -9  275.69   18.78
   4   3   9  254.66   16.69
   4   3   9  288.42   19.68
   4   3   9  256.78   16.28
  -5  -1   8  331.95   18.35
  -5  -1   8  354.31   18.05
  -5  -1   8  401.37   21.86
   5   1  -8  379.55   20.35
   3  -2  -9  781.85   34.41
  -3   2   9  663.80   26.86
  -3   2   9  760.76   33.12
  -3   2   9  793.54   29.13
   3  -2  -9  793.07   32.21
   6   7   2   15.98   13.94
   6   7   2    4.21   15.81
   6   7   2  -11.91   10.65
  -6  -7  -2   12.68   10.85
   6   7   2   15.95   13.23
   6   7   2   -3.51    8.35
   6   7   2    8.81    7.67
   6   7   2    7.76    6.76
   0   4  -9  199.38   19.08
   0  -4   9  163.63   14.53
   0   4  -9  172.10   19.11
   0   4  -9  201.96   13.71
   0  -4   9  172.22   14.16
   2   2  10  260.43   20.33
  -2  -2 -10  182.43   12.60
  -2  -2 -10  216.71   17.70
  -2  -2 -10  221.58   13.02
   2   2  10  219.01   14.02
   2   2  10  224.68   16.63
   3   7   6    1.95    7.76
   3   7   6    5.86    9.93
   3   7   6   -2.25   12.26
   3   7   6  -10.21   13.63
  -3  -7  -6   -7.78   11.82
  -3  -7  -6    1.58    6.99
  -3  -7  -6  -14.00   16.29
   3   7   6  -11.31   10.61
   3   7   6    5.01   15.63
   3   7   6   -5.55    9.45
   7   3  -5   69.93   12.97
  -7  -3   5   65.41    8.15
  -7  -3   5   41.91   10.38
   7   3  -5   54.44   10.45
  -7  -3   5   56.24   11.48
   2  -1  10   38.37    8.95
   2  -1  10   35.32   11.98
   2  -1  10   20.89   15.22
  -2   1 -10    9.20    3.62
  -2   1 -10   10.84   10.46
  -5   6   1  211.23   18.73
   5  -6  -1  185.23   10.57
  -5   6   1  189.83    9.60
  -5   6   1  217.61   14.95
  -5   6   1  218.65   18.71
   5  -6  -1  208.33   22.70
  -7  -6  -2  385.58   17.64
   7   6   2  386.68   18.72
   7   6   2  365.46   16.72
  -7  -6  -2  343.54   18.23
   7   6   2  372.61   16.51
   3   8  -3   10.50   20.63
  -3  -8   3   18.69    8.39
   3   8  -3   12.82    5.43
  -3  -8   3   26.78   13.01
   3   4   9  197.23   14.41
  -3  -4  -9  191.22   17.30
  -3  -4  -9  194.90   19.28
   3   4   9  211.11   18.30
  -3  -4  -9  184.47   13.23
   3   4   9  191.13   15.14
   3   4   9  187.24   13.83
  -3  -4  -9  215.09   13.31
   6   7  -1  638.56   22.72
   6   7  -1  438.93   20.03
  -6  -7   1  544.61   23.55
   6   7  -1  475.54   20.36
   6   7  -1  531.65   20.19
   6   7  -1  559.36   31.77
   7  -2   5  205.05   13.40
   7  -2   5  159.04   17.73
  -7   2  -5  230.04   17.88
  -7   2  -5  208.10   15.21
   7  -2   5  217.97   12.01
  -5   0   8  346.57   17.46
  -5   0   8  362.44   18.31
   5   0  -8  351.67   20.95
  -5   0   8  391.52   22.12
   4  -4  -7  180.41   17.67
  -4   4   7  158.86   13.40
  -4   4   7  156.82   18.35
   4  -4  -7  165.30   14.48
   4  -4  -7  179.61   19.39
   6  -5  -1  115.50   21.12
  -6   5   1  103.46   16.16
  -6   5   1   92.22    8.11
  -6   5   1   97.86   14.89
  -6   5   1   90.83   13.50
   8  -1   3   -0.87    8.82
   8  -1   3   -7.56   10.30
  -8   1  -3  -10.31    9.70
   8  -1   3  -22.04   10.28
   0  -2  10  230.16   19.67
   0  -2  10  284.81   17.02
   0  -2  10  271.41   13.12
   0   2 -10  283.84   16.67
   1   4  -9    3.73   16.78
  -1  -4   9  -11.50   11.40
   1   4  -9    7.32   10.08
   1   4  -9   19.54   15.05
   8  -1  -2  291.00   16.63
  -8   1   2  321.20   16.16
  -8   1   2  265.51   17.95
  -8   1   2  329.25   18.12
  -7  -6   1    8.36    7.38
  -7  -6   1   23.00    7.01
   7   6  -1    8.18   10.95
   7   6  -1   25.47   14.18
  -7  -6   1   18.44   10.11
  -7  -6   1   19.28    8.52
   6   4   7    0.11   11.03
   6   4   7   -5.10   10.91
  -6  -4  -7   -1.74   12.18
   6   4   7    4.65   11.82
   8   0   4   42.25    9.93
   8   0   4   45.50   11.21
  -8   0  -4   32.67   10.83
  -8   0  -4   49.20   11.90
  -8   0  -4   42.48   13.16
   6   4  -6 2070.99   73.93
   6   4  -6 2203.15   74.23
  -6  -4   6 2107.47   71.11
  -6  -4   6 1954.16   68.18
  -6  -4   6 2161.65   70.57
  -6  -4   6 2205.03   73.09
  -6  -1   7  423.82   20.00
  -6  -1   7  405.30   20.58
   6   1  -7  427.03   22.11
  -6  -1   7  444.71   22.72
   6   1  -7  437.55   22.40
  -1   6  -7  -10.46   15.91
  -1   6  -7   -2.13    6.70
   1  -6   7    7.02    9.65
   1  -6   7   10.88   10.55
  -1   6  -7    4.35    7.45
  -1   6  -7   15.44   16.59
  -1   8   3  369.21   16.22
  -1   8   3  369.48   27.59
  -1   8   3  346.10   24.13
  -1   8   3  345.21   16.09
   1  -8  -3  369.01   26.43
  -1   8   3  381.00   22.95
  -1   8   3  349.02   15.47
   4   8  -2  101.78    6.80
  -4  -8   2  137.46   15.59
   4   8  -2  147.79   15.52
  -4  -8   2  108.19   10.57
   4   8  -2  117.24    8.29
   1  -4  -9  440.00   24.59
   1  -4  -9  446.11   24.90
   5  -2   8   29.80    9.25
  -5   2  -8   18.55   10.19
  -5   2  -8   34.81   14.98
  -5   2  -8   23.74   10.42
   7  -1  -5  234.66   16.13
   7  -1  -5  193.34   17.05
  -7   1   5  232.68   17.88
  -6   4   4   -6.52   14.72
  -6   4   4   24.92   11.05
   6  -4  -4    3.23   14.46
   2  -8   0  192.35   23.05
  -2   8   0  180.10   23.46
   2  -8   0  143.81    7.31
   2  -8   0  204.85   13.40
   2  -8   0  138.47    6.68
  -2   8   0  196.32   18.20
  -2   8   0  214.21   20.57
   3  -5  -7   48.02   11.64
   3  -5  -7   33.93   14.71
   3  -5  -7   40.55   16.96
   3  -5  -7   42.84   18.20
  -3   5   7   43.12   10.51
  -3   5   7   28.16   16.18
   8   0  -3  160.38   13.55
  -8   0   3  231.02   15.02
   8   0  -3  194.72   14.36
  -8   0   3  207.79   14.03
  -8   0   3  206.07   15.41
   8   3   4    3.50    9.33
  -8  -3  -4   -3.97   11.34
   8   3   4   -9.67   10.32
  -8  -3  -4    4.76   10.56
  -8  -3  -4   -2.50   11.25
   8   3   4    2.99    8.84
   4   8   3   68.45   14.31
   4   8   3   90.22   12.36
   4   8   3   74.28    9.66
   4   8   3   70.90   16.74
   4   8   3   74.20   10.02
   4   8   3   63.11   11.67
  -4  -6  -7  166.81   10.88
   4   6   7  179.93   14.15
  -4  -6  -7  164.17   15.50
   4   6   7  155.29   16.79
  -4  -6  -7  154.56   18.21
   4   6   7  142.60   11.99
  -4  -6  -7  180.97   11.42
   4   6   7  139.08   13.08
   4   6   7  162.40   16.37
   5   4   8   46.31   11.00
   5   4   8   67.61   14.24
   5   4   8   19.52   10.56
  -5  -4  -8   29.82    9.72
   5   4   8   42.01   11.77
  -5  -4  -8   34.46   14.47
   6  -3   6   70.40   10.46
   6  -3   6   79.63    8.19
  -6   3  -6   31.27   13.92
   6  -3   6   55.26   15.05
  -6   3  -6   73.00   11.63
   6  -3   6   79.22   12.53
  -6  -6  -5    2.72    9.26
   6   6   5  -29.50   10.86
   6   6   5   -3.13    7.45
   6   6   5   -8.94   16.21
   6   6   5   -2.35   11.14
   3   8   4  353.95   22.71
   3   8   4  345.94   20.01
   3   8   4  373.68   19.31
   3   8   4  382.66   17.34
   3   8   4  301.99   16.90
   3   8   4  320.65   23.07
   3   8   4  335.86   14.16
   1  -2  10   76.87   13.15
   1  -2  10   76.42    8.87
   1  -2  10   93.90   13.20
  -1   2 -10   93.32   13.13
   3   3  -9  241.39   14.45
  -3  -3   9  190.11   17.20
  -3  -3   9  186.27    8.47
   3   3  -9  210.20   15.62
   3   3  -9  223.65   18.89
  -3  -3   9  223.07   16.29
  -8  -4  -3   19.95   10.49
  -8  -4  -3   20.41   11.83
   8   4   3   19.26   10.84
  -8  -4  -3   16.34   10.97
   8   4   3   19.87    9.35
   6  -5   2   43.66   18.89
  -6   5  -2   71.52   14.40
   6  -5   2   75.43    9.55
   0   8   4  261.74   14.25
   0  -8  -4  261.49   23.69
   0   8   4  267.61   14.67
   0   8   4  259.35   12.65
   0   8   4  270.61   20.21
   0   8   4  269.53   13.03
   0   8   4  317.02   25.00
   7  -3  -3   66.22   14.28
  -7   3   3   84.56    9.76
  -7   3   3  105.34   15.54
   7  -3  -3   68.77    7.76
  -5   6  -2  285.70   20.59
   5  -6   2  285.24   13.97
   5  -6   2  274.49   23.78
  -4   5   6   -1.27    9.74
   4  -5  -6   -5.19   17.90
   4  -5  -6    8.13   14.06
   4  -5  -6   -0.14   11.08
   4  -5  -6   -4.44   16.94
  -4  -5  -8  183.49   16.32
   4   5   8  180.40   16.74
  -4  -5  -8  194.28   12.02
   4   5   8  158.98   13.23
  -4  -5  -8  162.74   18.06
  -4  -5  -8  171.55   12.17
  -5  -2   8   -4.77    9.89
  -5  -2   8    7.39   14.54
  -5  -2   8   -0.32   11.68
   5   2  -8   -6.02   13.45
   5   2  -8   -1.19   12.77
   6   0  -7  387.71   21.21
  -6   0   7  374.88   19.22
  -6   0   7  369.63   22.02
  -1   4  -9  447.28   20.10
   1  -4   9  469.37   23.05
   1  -4   9  490.37   22.64
  -1   4  -9  483.13   24.03
  -2   8   1  231.23   10.07
  -2   8   1  290.58   20.26
   2  -8  -1  286.15   14.75
   2  -8  -1  228.44    9.72
   2  -8  -1  239.66   10.40
  -2   8   1  276.32   21.15
  -1  -7   6    5.35   12.82
   1   7  -6   -6.88   14.30
   1   7  -6    2.12    6.89
   1   7  -6   17.27   18.60
  -1  -7   6    9.09    7.09
  -1  -7   6   -1.43    9.66
   3  -4  -8   -6.37   17.02
   3  -4  -8    3.30   14.55
  -3   4   8    3.62   15.98
   3  -4  -8   -1.95   17.81
  -3   4   8    6.45    9.97
   3  -4  -8    4.27   11.47
  -7   1  -6  173.06   16.68
   7  -1   6  192.73   12.09
   7  -1   6  129.84   14.80
  -7   1  -6  172.09   16.53
  -7   1  -6  168.14   14.74
   7  -1   6  181.88   14.86
   7  -1   6  154.85   12.96
  -1  -2  10  540.35   28.50
  -1  -2  10  616.91   26.20
  -1  -2  10  582.15   22.14
   1   2 -10  645.84   26.74
   1   2 -10  610.38   30.45
   2   0 -10    7.40   15.17
  -2   0  10   23.36    8.88
  -2   0  10   33.40   16.54
  -2   8  -1  470.61   20.78
  -2   8  -1  455.18   26.73
   2  -8   1  458.27   30.62
  -2   8  -1  465.19   29.66
   2  -8   1  470.98   21.72
  -1   2  10  204.25   15.65
  -1   2  10  206.43   13.81
   1  -2 -10  221.48   14.32
  -6  -6   4    1.03    9.72
   6   6  -4   24.35   13.79
  -6  -6   4   30.20   14.34
   6   6  -4   14.62    9.98
  -1   8  -3  247.65   22.83
   1  -8   3  173.23    7.79
   1  -8   3  261.71   24.55
   1  -8   3  238.17   12.09
   1  -8   3  240.53   15.58
   3   1  10  229.29   20.17
  -3  -1 -10  204.10   18.87
  -3  -1 -10  229.67   14.39
   3   1  10  215.91   13.87
   3   1  10  203.89   16.43
  -6  -2   7  297.20   19.18
   6   2  -7  318.32   18.94
  -6  -2   7  305.02   18.11
  -6  -2   7  310.30   16.57
  -4  -4   8  317.77   19.24
   4   4  -8  306.57   20.13
   4   4  -8  333.53   16.28
   4   4  -8  315.52   17.97
  -5   5  -5    0.96   12.90
   5  -5   5  -11.07    8.63
   5  -5   5   -7.74   10.35
   5  -5   5    4.18   16.96
  -1  -8   4   35.93    6.86
   1   8  -4   55.57   20.28
  -1  -8   4   30.38    7.98
  -1  -8   4   48.35   13.38
  -8   2   0  444.90   22.04
  -8   2   0  421.68   21.93
  -8   2   0  419.62   19.06
  -8   2  -1  326.18   20.37
  -8   2  -1  383.86   20.67
  -8   2  -1  398.36   17.81
  -6  -1  -8  194.07   15.52
  -6  -1  -8  187.53   16.63
   6   1   8  182.08   13.42
   6   1   8  178.64   13.14
  -2   7   5    3.24   15.49
  -2   7   5   -6.10    9.25
  -2   7   5   -3.02   15.69
   2  -7  -5   -9.34   18.62
   2  -7  -5   -1.56    9.06
   8   3  -3  190.62   16.29
  -8  -3   3  159.02   11.98
  -8  -3   3  195.15   12.93
  -3   0 -10   -7.21   14.97
   3   0  10   -4.64    9.36
   3   0  10   -6.49   12.30
   3   0  10  -25.01   15.57
   3   0  10    2.20   12.39
  -8  -4   2  225.50   13.69
   8   4  -2  262.92   18.56
  -8  -4   2  254.66   14.32
   7  -3   4  -11.54    8.91
   7  -3   4    6.59   15.90
   7  -3   4    3.53    7.34
  -7   3  -4  -14.29   11.34
  -4   7   0  539.29   27.18
  -4   7   0  534.25   28.00
   4  -7   0  484.54   30.44
   4  -7   0  516.36   21.48
  -6   2  -7   64.13   15.32
  -6   2  -7   80.39   12.23
   6  -2   7   53.25   10.53
   6  -2   7   54.99   12.61
   6  -2   7   67.10    9.55
   5  -4  -6  225.59   19.83
   5  -4  -6  230.35   15.98
   5  -4  -6  209.11   17.77
  -5   4   6  219.84   14.44
  -2  -1  10  172.00   11.17
   2   1 -10  209.08   19.28
   2   1 -10  193.43   14.67
  -2  -1  10  190.04   19.52
   4   1  -9  131.84   16.43
  -4  -1   9  136.80   13.32
  -4  -1   9  152.46   17.87
   4   1  -9  145.41   15.31
  -5   6   2  -10.30   15.53
  -5   6   2   -1.60   11.00
   5  -6  -2   -5.92    4.61
  -5   6   2    1.29   13.97
   0  -7   6  143.73   10.62
   0  -7   6  146.17    8.58
   0   7  -6  146.84    8.91
   0   7  -6  119.40    7.19
   0  -7   6  156.23   15.62
   0   7  -6  151.71   20.25
  -4   0   9  353.01   18.25
  -4   0   9  382.39   22.57
  -4   0   9  344.32   17.59
   3  -3   9  130.25   14.23
  -3   3  -9  125.77   11.66
  -3   3  -9  122.86   12.70
  -3   3  -9  133.96   17.64
  -3   3  -9  131.79   11.66
   2  -7   5  268.16   15.45
  -2   7  -5  262.11   21.81
   2  -7   5  299.87   24.48
   6   7   3   24.17   14.33
  -6  -7  -3    7.64   10.71
   6   7   3    2.21    7.10
   6   7   3   -1.48   10.44
   6   7   3  -18.22    9.47
   6   7   3   -1.28   13.63
   6   7   3   27.40    8.83
   6   7   3    3.55   17.80
  -6  -7  -3   -0.17    2.67
   7   6   3  232.96   14.85
   7   6   3  187.74   12.33
   7   6   3  178.43   21.60
   7   6   3  195.08   19.12
  -7  -6  -3  165.47   14.92
  -7  -6  -3  208.18   14.47
   7   6   3  183.40   12.83
   7   6   3  137.24   14.66
   4  -3  -8   23.38   16.56
  -4   3   8  -13.88   16.40
   4  -3  -8    0.75   14.64
  -4   3   8    7.75   10.78
   4  -3  -8   -0.35   12.27
   2   8  -4  297.19   11.61
  -2  -8   4  405.38   21.48
   2   8  -4  351.92   13.69
   2   8  -4  316.85   12.20
  -2  -8   4  390.77   16.82
  -5   1   8  316.11   20.88
   5  -1  -8  282.83   19.37
  -5   1   8  255.79   14.09
   5  -1  -8  284.90   18.23
   4  -7   1  358.94   26.18
   4  -7   1  311.73   14.26
  -4   7  -1  351.28   23.16
   4  -7   1  327.99   16.77
  -6  -2  -8  109.97   13.50
   6   2   8   93.96   11.85
  -6  -2  -8   84.09   14.51
  -6  -2  -8   89.97   13.08
   6   2   8  114.46   12.14
  -2  -7   6  475.63   19.14
   2   7  -6  447.92   18.99
   2   7  -6  519.42   29.98
  -2  -7   6  456.70   20.45
   2   7  -6  448.49   25.12
  -2  -7   6  444.43   23.57
   6  -5  -2  388.13   27.92
  -6   5   2  373.46   22.68
  -6   5   2  375.13   19.49
  -6   5   2  337.05   15.30
  -6   5   2  365.14   21.56
   3  -6   6  493.95   22.23
   3  -6   6  511.83   28.62
  -3   6  -6  460.42   26.45
  -3   6  -6  458.22   19.42
   1   3  10  152.46   18.68
  -1  -3 -10  179.17   13.59
  -1  -3 -10  140.67   13.76
   1   3  10  138.40   14.93
   1   3  10  130.39   12.59
  -7   4   0   80.12   13.86
  -7   4   0  112.22   15.88
  -7   4   0  115.04    9.48
   7  -4   0  118.10   21.60
  -7   4   0  129.74   14.91
   2   4  -9  244.21   19.68
  -2  -4   9  234.46   17.40
   2   4  -9  256.36   15.20
  -5   3   7   41.83   11.76
   5  -3  -7   33.60   12.53
   5  -3  -7   60.96   14.56
  -5   3   7   49.08   16.09
   5  -3  -7   60.25   16.68
  -2   1  10  370.07   17.87
   2  -1 -10  388.52   18.85
  -2   1  10  372.02   23.98
  -7   4  -1  316.63   18.47
  -7   4  -1  281.49   13.61
  -7   4  -1  313.45   19.52
  -7   4  -1  260.77   18.22
   7  -4   1  320.69   25.57
  -4   2  -9  263.60   15.75
  -4   2  -9  281.07   15.31
   4  -2   9  263.39   14.87
  -4   2  -9  292.43   20.71
  -4   7   1  191.74   19.06
  -4   7   1  221.54   14.76
   4  -7  -1  169.12   11.12
  -4   7   1  176.36   18.82
   4  -7  -1  171.97   22.88
   6   7  -2  674.47   26.06
  -6  -7   2  757.86   27.32
  -6  -7   2  622.58   23.03
   5   1   9   14.18   11.49
  -5  -1  -9   16.06   11.29
   5   1   9   32.07   11.07
   5   1   9   21.30    9.84
  -5  -1  -9   10.90   10.16
  -5  -1  -9   41.82   14.68
   5   8   1   35.36   14.50
   5   8   1   41.98   20.44
  -5  -8  -1   30.64   10.47
   5   8   1   24.17    9.47
   5   8   1   25.08   13.56
   5   8   1   33.76    9.06
   5   8   1   34.16    5.82
   5   8   1   37.49   10.57
  -4  -7   5  429.23   19.05
   4   7  -5  417.64   22.19
   4   7  -5  411.67   18.13
   4   7  -5  431.85   29.64
   5   8   0   -7.51   10.57
   5   8   0    7.79   13.72
   5   8   0   -3.15    8.20
  -5  -8   0   -5.50    9.65
   5   8   0    2.64   13.56
   5   8   0   -3.58    9.01
   5   8   0    0.68    5.25
   5   8   0  -19.88   21.58
  -3  -6   7  204.91   12.61
  -3  -6   7  211.77   17.56
   3   6  -7  232.13   13.90
   3   6  -7  233.20   19.07
   3   6  -7  240.47   24.34
   6  -4   5  -13.10    9.23
   6  -4   5    3.12    5.74
   6  -4   5   -7.70   10.92
  -6   4  -5   -1.00   13.62
  -6   4  -5    7.41   10.39
   6  -4   5   14.33   16.47
   0  -8   4  196.28   12.04
   0  -8   4  213.87   16.06
   0   8  -4  217.59   22.68
   0  -8   4  176.26    8.15
   6   0   8   51.85   10.59
  -6   0  -8   59.81   14.54
  -6   0  -8   58.32   12.04
  -8   2   1  -20.16   12.81
  -8   2   1   -5.81    9.15
  -8   2   1  -15.47   13.06
  -7  -6   2    2.21    7.55
   7   6  -2    0.58    2.67
   7   6  -2    8.61   13.77
  -7  -6   2   -7.80    8.17
  -7  -6   2    6.78    7.06
  -7  -6   2   -3.09   10.22
   7   5   5  135.66   11.01
  -7  -5  -5  129.93   10.53
   7   5   5   99.65   18.44
   7   5   5  138.98   12.33
   7   5   5  136.08   11.86
  -7  -5  -5  170.69   14.36
  -3  -2 -10  443.43   20.17
   3   2  10  404.19   19.47
   3   2  10  413.94   21.13
   3   2  10  434.66   24.46
  -3  -2 -10  408.30   19.56
  -3  -2 -10  405.09   23.63
   3   2  10  377.29   21.04
  -2   5  -8   10.01    8.02
   2  -5   8   26.25   10.82
  -2   5  -8   21.70   15.48
   2  -5   8   31.68   11.47
  -2   5  -8   23.88    8.74
  -8   2  -2  146.48   11.89
   3  -7   4  188.76   13.31
  -3   7  -4  214.82   22.37
   3  -7   4  187.15   23.83
  -3   7  -4  215.98   15.97
   2  -8  -2   10.70    9.42
  -2   8   2    6.69   15.83
   2  -8  -2   13.64    6.63
  -2   8   2   11.15    9.69
  -2   8   2   18.91    6.78
   2  -8  -2   24.25   20.24
  -2   8   2   22.75   16.06
   5   7   5  241.92   11.33
   5   7   5  264.74   21.46
   5   7   5  268.29   15.94
   5   7   5  264.48   15.18
   5   7   5  275.73   17.99
  -5  -7  -5  229.78   10.25
   5   7   5  222.26   15.67
   1  -7  -6  112.76   19.27
  -1   7   6  113.94   10.40
  -1   7   6   65.28    7.37
   5   7  -4  305.64   19.97
   5   7  -4  310.96   18.35
   5   7  -4  336.56   15.78
  -5  -7   4  329.28   16.67
  -3  -5   8   28.40   12.95
   3   5  -8   24.58   14.58
   3   5  -8   35.01   10.33
  -7  -4  -6  113.46   13.79
   7   4   6  106.23   11.62
  -7  -4  -6  106.31   11.46
   7   4   6   95.47   12.14
   7   4   6  104.40   15.75
   7   4   6  144.73   13.28
   7   4   6  109.97   11.77
   0   3  10  187.37   19.41
   0  -3 -10  189.96   13.75
   0  -3 -10  190.39   16.46
   0  -3 -10  166.34   17.84
   0   3  10  168.33   13.27
   0   3  10  151.50   14.99
  -8  -5  -1   43.10   10.50
   8   5   1   43.47   15.40
   8   5   1   35.83    9.20
   3  -6  -6  118.25   19.63
   3  -6  -6  141.48   19.48
   3  -6  -6  121.08   12.81
  -3   6   6  148.40   12.57
  -2   5   8    2.37    9.44
  -2   5   8    1.93    3.20
   2  -5  -8    9.16   10.94
   2  -5  -8   -4.51   17.76
   2  -5  -8   15.17   16.97
   1   6   8  135.64   17.96
  -1  -6  -8  125.20   19.86
   1   6   8  113.18   12.70
  -1  -6  -8  143.74   16.51
  -1  -6  -8  106.17   17.60
   2  -8   2  209.55   15.40
  -2   8  -2  220.06   14.91
  -2   8  -2  223.81   23.96
   2  -8   2  203.57   25.11
   3  -7  -4    8.24   19.67
   3  -7  -4   57.30    9.78
  -3   7   4   42.95   16.06
  -3   7   4   51.51   10.38
  -2  -3 -10   28.06    9.13
   2   3  10   24.13   12.81
   2   3  10   61.19   17.01
   2   3  10   44.83   10.51
  -2  -3 -10   46.68   11.05
  -2  -3 -10   36.98   10.59
   8   5   0   87.77   15.52
  -8  -5   0   72.87   10.62
   8   5   0   52.07   10.55
  -2   2 -10    2.62    7.70
  -2   2 -10    4.53   15.68
   2  -2  10    4.44    8.08
   2  -2  10  -17.59   11.87
   2  -2  10   -3.67   12.34
  -2  -6  -8  195.05   19.70
  -2  -6  -8  255.29   18.76
  -2  -6  -8  220.63   13.17
  -2  -6  -8  262.79   21.71
   2   6   8  224.06   15.15
  -2  -6  -8  221.82   12.71
   2   6   8  220.49   19.40
  -7   4   1  -13.67   12.69
  -7   4   1  -14.90    8.11
   7  -4  -1   -8.80   20.00
  -7   4   1   -6.41   14.33
  -5   0  -9   94.95   12.84
  -5   0  -9  109.17   15.90
   5   0   9   84.74   11.92
   5   0   9   95.92   11.08
   5   0   9   90.34   13.28
  -5  -2  -9   -2.10   11.92
   5   2   9  -25.63   14.30
   5   2   9    9.83   11.22
   5   2   9   -5.92   10.38
  -5  -2  -9  -11.94   10.37
   5   2   9  -11.57   11.84
  -5  -2  -9  -10.02   13.75
  -4   6  -5   79.09   14.33
   4  -6   5  107.05   20.37
   4  -6   5   59.63   11.39
  -8  -1  -5   98.75   14.38
   8   1   5   92.68   11.27
  -8  -1  -5   90.23   12.12
   8   1   5  103.64   12.37
  -8  -1  -5   85.27   12.33
   4   7   6   22.49   10.90
  -4  -7  -6   33.03   12.34
   4   7   6   28.64   13.55
   4   7   6   35.01    7.87
  -4  -7  -6   21.75    6.69
   4   7   6   34.29   13.44
   4   7   6   10.42    9.89
   4   7   6   22.47   10.69
   4   7   6   53.63   16.70
   8   2   5   10.54   10.26
  -8  -2  -5    6.79   12.20
   8   2   5    0.92    9.98
  -8  -2  -5   -3.67   11.26
   8   2   5   14.10   10.45
  -8  -2  -5   -0.75    9.91
  -8  -2  -5    9.92   11.59
  -4  -2   9  612.02   28.49
   4   2  -9  583.89   28.65
   4   2  -9  633.15   27.34
  -4  -2   9  557.40   25.59
  -6   1   7   63.51   16.11
  -6   1   7   67.27   12.15
   6  -1  -7   55.42   14.39
   6  -1  -7   55.66   13.49
  -6   5  -3   10.43   13.73
   6  -5   3   45.01   10.65
   6  -5   3   24.21    8.59
  -6   5  -3   34.49   13.37
   5  -6   3  329.14   15.95
  -5   6  -3  401.53   21.41
   5  -6   3  373.48   17.78
   5  -6   3  325.36   25.13
  -4   1   9  185.80   12.73
   4  -1  -9  238.66   17.36
   4  -1  -9  214.82   18.85
  -4   1   9  228.35   19.61
   8  -1   4   66.19   10.89
  -8   1  -4   81.50   11.45
   8  -1   4   97.79   10.35
   8  -1   4   89.94   12.33
  -8   1  -4   99.19   14.89
  -3   1 -10   39.34   15.72
  -3   1 -10   28.59   10.93
   3  -1  10   47.78   12.93
  -3   1 -10   24.46   10.34
   3  -1  10   54.75    9.66
   5   8   2  127.90   16.48
   5   8   2  112.36   11.24
  -5  -8  -2  125.72   12.57
   5   8   2  117.95   19.75
   5   8   2  119.60   10.63
   5   8   2  112.86   12.52
   5   8   2  129.02   15.19
  -7  -5   4  273.30   13.21
  -7  -5   4  267.56   16.28
  -7  -5   4  325.05   14.91
   7   5  -4  311.08   19.68
   7  -4   2  315.65   25.15
  -7   4  -2  294.87   18.28
  -7   4  -2  291.93   13.85
  -8   1   3  181.49   14.72
   8  -1  -3  153.10   12.73
   8  -1  -3  153.59   13.81
  -8   1   3  172.52   13.04
  -7  -1   6  246.69   15.55
  -7  -1   6  240.55   17.54
  -7  -1   6  247.41   15.57
   7   1  -6  223.60   16.11
   5   8  -1   69.67   23.16
   5   8  -1   57.71    6.29
  -5  -8   1   50.69   10.23
   5   8  -1   83.83    9.95
   5   8  -1   43.25   10.56
   5   8  -1   80.68   14.92
   5   8  -1   41.44    8.21
   7   1   7    9.79    8.00
   7   1   7   -5.17   11.08
   7   1   7   -4.21   10.37
  -7  -1  -7   -0.17   11.23
  -7  -1  -7   19.04   12.90
  -4   7  -2  391.24   24.13
  -4   7  -2  393.74   20.43
   4  -7   2  340.46   15.14
   4  -7   2  369.53   26.95
  -7  -4   5   14.59    9.63
  -7  -4   5   -2.99   13.89
  -7  -4   5   19.26    7.41
  -7  -4   5   19.52   10.57
   7   4  -5   23.66   13.12
  -1  -5  -9  169.71   12.23
  -1  -5  -9  130.91   17.04
  -1  -5  -9  149.13   20.41
   1   5   9  148.00   13.68
  -1  -5  -9  167.92   16.92
   1   5   9  157.55   14.23
   1   5   9  147.51   19.17
  -4  -8   3    8.62   14.29
   4   8  -3    3.58    5.02
   4   8  -3    7.89    6.10
  -4  -8   3   -0.38    9.11
   2   8   5   62.95   11.25
  -2  -8  -5   87.40   20.31
   2   8   5   76.32   17.25
   2   8   5   74.65   12.28
   2   8   5   78.73   11.34
  -2  -8  -5   57.93    6.86
   2   8   5   84.61   18.05
  -8  -1   4  294.39   16.93
   8   1  -4  273.73   16.61
  -8  -1   4  280.64   16.36
   8   5   2    4.69   15.41
   8   5   2   -8.70    9.88
  -8  -5  -2  -25.14   10.27
  -8  -5  -2   -4.65   11.02
  -2  -2  10  142.27   18.94
  -2  -2  10  152.17    9.54
   2   2 -10  142.94   17.95
   2   2 -10  187.54   14.58
  -2   6   7   57.69   10.30
   2  -6  -7   54.18   18.19
   2  -6  -7   53.62   18.47
   2  -6  -7   46.96   11.05
   5  -5  -5  256.35   25.00
  -5   5   5  289.63   21.63
   5  -5  -5  303.37   17.16
   5  -5  -5  273.23   22.11
   5   3  -8   41.64   12.89
   5   3  -8   23.08   13.71
  -5  -3   8   28.18   13.13
  -5  -3   8   20.66   14.45
   1   8   5  207.20   19.38
  -1  -8  -5  200.99   23.05
   1   8   5  174.37   20.28
  -1  -8  -5  193.45    9.96
   1   8   5  214.59   13.85
   1   8   5  203.76   14.03
   1   8   5  244.15   22.47
  -6  -3   7  144.08   15.75
   6   3  -7  158.24   15.03
  -6  -3   7  152.40   13.09
  -6  -3   7  141.94   12.44
  -6  -3   7  157.09   15.38
   7   2   7   67.10    9.97
  -7  -2  -7   86.84   12.01
  -7  -2  -7  111.78   13.88
   7   2   7  124.34   12.29
   7   2   7  115.68   12.33
   7   2   7  132.90   12.64
   7   2   7  120.75   12.53
  -2   4  -9  487.74   21.08
   2  -4   9  472.29   23.51
  -2   4  -9  494.50   20.26
  -2   4  -9  503.96   24.06
   2  -4   9  511.12   23.00
  -4  -4  -9  335.52   16.88
   4   4   9  340.94   18.77
  -4  -4  -9  334.16   16.73
   4   4   9  351.41   21.20
   4   4   9  299.86   18.01
  -4  -4  -9  309.30   22.48
   4   4   9  301.05   17.28
  -2   6  -7  218.68   20.67
   2  -6   7  229.99   14.31
  -2   6  -7  211.33   12.24
  -2   6  -7  239.62   12.41
  -8  -4  -4   -1.13   11.91
  -8  -4  -4    6.72   11.56
   8   4   4   -1.22   11.01
   8   4   4   11.70    9.19
   8   4   4    3.27    9.36
  -8  -4  -4    9.21   11.13
   4   8   4   -1.17    7.24
   4   8   4    5.68   12.07
   4   8   4   23.13    9.40
   4   8   4   23.26    9.22
   4   8   4   25.42   13.42
   4   8   4   22.91   16.18
  -1   7  -6  382.67   15.87
  -1   7  -6  438.98   25.91
   1  -7   6  404.94   16.17
  -1   7  -6  389.76   16.21
   1  -7   6  374.72   20.10
  -4   7   2   -2.62   15.47
  -4   7   2    1.50   10.84
   4  -7  -2    9.57    6.39
  -4   7   2    6.04   15.34
   2   5   9  212.68   15.57
  -2  -5  -9  218.84   13.76
  -2  -5  -9  200.01   13.36
  -2  -5  -9  219.47   18.29
   2   5   9  229.29   19.60
  -2  -5  -9  209.90   21.02
   2   5   9  167.29   14.53
  -2  -5  -9  178.39   17.39
  -8  -2   4  194.25   14.75
   8   2  -4  206.44   15.77
  -8  -2   4  206.98   13.82
  -8  -2   4  230.34   14.23
   1  -8  -4  191.50   22.97
  -1   8   4  169.46   20.21
  -1   8   4  197.69   11.95
  -1   8   4  194.55   19.58
  -1   8   4  204.06   11.96
  -1   8   4  189.74   12.61
  -7  -2   6  414.89   21.35
   7   2  -6  371.51   19.22
  -7  -2   6  422.07   20.09
   3   8  -4    2.21    2.60
  -3  -8   4    0.66    8.24
  -3  -8   4   10.09   13.51
   3   8  -4   -0.16    6.27
  -6  -3  -8   -0.72   12.25
   6   3   8   -4.44   10.35
   6   3   8   -3.96   11.16
   6   3   8  -12.46   12.39
  -6  -3  -8   -3.20   12.70
  -6  -3  -8   16.93   12.98
   0  -6  -8  318.60   21.10
   0  -6  -8  295.38   24.01
   0  -6  -8  275.97   22.05
   0   6   8  285.86   22.18
  -8  -5   1  170.54   12.43
  -8  -5   1  180.55   14.29
   8   5  -1  146.97   16.98
  -8  -5   1  186.52   12.40
   3  -3  -9  166.45   15.15
  -3   3   9  128.16    9.07
   3  -3  -9  188.53   20.22
  -3   3   9  159.77   19.40
   3  -3  -9  140.20   17.74
  -3   3   9  146.10   13.18
   0   3 -10   35.61   15.55
   0   3 -10   31.83   11.20
   0   3 -10   56.86   16.63
   0  -3  10   34.72   11.94
   7   0  -6  259.71   17.95
  -7   0   6  259.30   15.98
  -7   0   6  264.67   18.98
  -4   6   5  156.17   18.53
   4  -6  -5  134.10   19.27
  -4   6   5  134.01   11.90
   4  -6  -5  134.42   12.73
   4  -6  -5  111.62   21.17
  -8   0  -5  197.35   17.16
  -8   0  -5  179.42   15.74
   8   0   5  192.75   13.24
   8   0   5  179.51   14.59
  -2   4   9   -5.15    9.88
   2  -4  -9   -4.81   17.00
   2  -4  -9    1.48   11.81
   2  -4  -9    2.11   17.56
  -5   6   3   77.63   12.14
  -5   6   3   65.90   16.53
  -5   6   3   75.89   16.27
  -3  -7   6  704.83   26.84
   3   7  -6  679.65   31.33
   3   7  -6  712.94   36.92
  -3  -7   6  681.16   27.32
   3   7  -6  710.84   26.63
  -7   2   5   60.56   15.24
   7  -2  -5   64.91   15.00
   8  -2  -2   72.16   11.42
  -8   2   2   81.32   14.61
  -8   2   2   71.58   13.28
  -8   2   2   70.61   10.65
  -8   2  -3   28.35    9.89
  -8   2  -3   23.52    6.90
   8  -2   3   11.60   10.11
   1   7   7  304.54   21.57
  -1  -7  -7  292.39   23.23
  -1  -7  -7  310.99   24.43
   1   7   7  290.83   16.28
  -1  -7  -7  313.97   20.39
   1   7   7  287.76   16.05
   0   5   9  324.57   18.72
   0  -5  -9  316.04   21.93
   0  -5  -9  340.35   24.41
   0  -5  -9  306.63   21.44
   0   5   9  370.14   23.84
  -2  -7  -7  204.88   21.51
  -2  -7  -7  255.51   18.34
   2   7   7  242.48   15.20
   2   7   7  259.58   19.82
   2   7   7  223.54   14.16
   2   7   7  223.21   16.02
  -2  -7  -7  259.74   21.88
   2   7   7  236.91   16.11
  -2  -7  -7  209.79   12.48
  -7   0  -7   -4.90   13.84
   7   0   7   -9.56   11.70
   7   0   7    9.99   10.02
   7   0   7    5.78    9.02
  -7   0  -7   23.47   11.55
  -7   0  -7   -5.50   13.88
   7   0   7  -14.30   10.70
   2   9   0  117.65   15.55
   2   9   0  121.03    9.99
  -2  -9   0  106.08   15.72
   2   9   0  156.79   23.21
   2   9   0  101.38   19.05
   1   9   0  221.52   18.43
   1   9   0  197.30   21.59
  -1  -9   0  206.61   16.54
   1   9   0  206.81   11.07
  -8  -3  -5    7.71   11.67
   8   3   5    4.90   10.19
   8   3   5   -4.67   10.86
  -8  -3  -5    9.32   12.07
  -8  -3  -5    1.04    8.56
   8   3   5    7.67   10.18
  -8  -3  -5    4.41   11.92
   2  -2 -10  481.29   27.07
   2  -2 -10  520.18   22.45
  -2   2  10  471.66   26.75
   3   6   8  129.28   14.28
  -3  -6  -8  119.83   10.76
  -3  -6  -8  123.86   10.98
   3   6   8  113.13   17.00
   3   6   8  121.90   13.25
  -3  -6  -8  141.77   18.84
  -3  -6  -8  128.16   15.83
  -8  -4   3  103.81   11.03
   8   4  -3   85.16   14.64
  -8  -4   3   79.45   10.49
  -8  -4   3   96.82   10.63
  -8   0   4   14.18   10.38
   8   0  -4    2.05   12.02
  -8   0   4    6.32   12.71
   8   0  -4   28.23   10.87
   2   9   1   13.93   20.33
   2   9   1    7.06   10.90
   2   9   1   -0.21   14.77
   2   9   1   14.61   17.48
   2   9   1    8.79    8.55
  -6   3   6   67.41   11.49
   6  -3  -6   65.50   16.35
   6  -3  -6   67.84   14.40
  -6   3   6   45.55   16.15
   6   7   4   25.46   18.63
  -6  -7  -4   17.21    4.55
   6   7   4   26.75    9.28
   6   7   4   38.21   14.88
   6   7   4   28.30   11.57
   6   7   4    5.34   10.09
   6   7   4   35.07   13.67
   7   6   4  185.38   21.89
  -7  -6  -4  201.59   15.36
   7   6   4  201.66   13.97
  -7  -6  -4  192.95   15.65
   7   6   4  170.68    9.98
   7   6   4  248.81   15.28
   7   6   4  227.08   19.55
   7   6   4  226.46   13.21
   7  -3  -4    0.21   13.98
   7  -3  -4   -3.21    4.17
  -7   3   4    3.20   14.74
  -7   3   4  -11.96    9.63
  -6   5   3 1159.43   42.93
  -6   5   3 1125.78   45.83
   1   9   1    5.26    3.07
   1   9   1   -7.03   21.11
  -1  -9  -1   11.22   13.16
  -1  -9  -1   16.58   20.79
   1   9   1   -2.00   15.07
   1   9   1   -1.16    7.72
   1   9   1    3.89   17.39
  -7   4   2    6.58   12.30
  -7   4   2    8.11    8.39
  -7   4   2   -0.87   14.57
  -1  -3  10  368.63   14.87
   1   3 -10  372.39   23.92
  -1  -3  10  386.35   19.95
   1   3 -10  390.75   19.56
  -6   1  -8    0.16   11.12
   6  -1   8  -14.40    9.60
  -6   1  -8   17.24   14.70
   1  -3 -10  545.29   29.51
  -1   3  10  577.30   24.96
   1  -3 -10  702.46   26.68
   1  -8   4    3.55    5.91
   1  -8   4   12.79    8.92
  -1   8  -4    3.97   19.69
   1  -8   4    0.58   12.53
   3   8   5  372.78   15.83
   3   8   5  424.14   17.85
   3   8   5  409.02   23.59
   3   8   5  345.59   18.51
   3   8   5  365.89   23.45
   3   8   5  328.23   13.91
   3   8   5  377.96   20.03
  -2   8   3   18.51   16.47
  -2   8   3    1.40    7.79
   2  -8  -3  -11.34   20.55
  -2   8   3   14.02   16.02
  -2   8   3    8.59    9.72
   2  -8  -3   13.83    7.65
  -1   3 -10   30.40   13.51
  -1   3 -10   -0.14   10.28
   1  -3  10   21.09   12.26
   1  -3  10    8.45   12.85
  -5   4  -7    8.06   10.46
  -5   4  -7    5.20   14.70
   5  -4   7   17.26   15.93
   5  -4   7   10.18    7.17
   5  -4   7   16.13   11.65
  -4   4  -8  114.76   11.62
   4  -4   8  100.11    9.58
  -4   4  -8   78.93   11.30
  -4   4  -8  110.96   18.11
  -5   1  -9  185.05   18.46
   5  -1   9  179.83   13.70
  -5   1  -9  194.05   14.15
  -5   1  -9  189.53   14.69
  -5  -3  -9   25.59   13.76
   5   3   9   51.09   11.97
   5   3   9   45.57   15.61
   5   3   9   51.91   12.63
  -5  -3  -9   36.29   14.46
   5   3   9   34.88   11.48
  -5  -3  -9   27.87   10.21
   3   3  10  238.01   15.32
  -3  -3 -10  277.68   15.94
  -3  -3 -10  246.20   19.67
  -3  -3 -10  268.47   15.77
   3   3  10  225.58   17.17
   3   3  10  262.58   16.84
   3   3  10  248.16   20.56
   0   8   5  347.88   15.70
   0   8   5  348.54   17.63
   0   8   5  352.64   16.61
   0  -8  -5  356.39   26.11
   0   8   5  401.30   24.04
   5  -2  -8   -8.37   13.09
  -5   2   8   -9.13   16.50
   5  -2  -8    6.76   14.33
   5  -2  -8   15.13   16.52
   5   6  -6   37.39   11.19
  -5  -6   6   39.82    9.98
   5   6  -6   43.90   13.37
  -5  -6   6   36.15   14.32
   5   8   3  288.38   15.25
   5   8   3  284.84   18.57
   5   8   3  252.83   19.69
   5   8   3  251.13   14.31
   5   8   3  250.22   21.57
  -5  -5   7  734.74   28.99
  -5  -5   7  728.52   31.72
   5   5  -7  665.61   30.86
   5   5  -7  767.94   29.77
  -7   2  -6  215.97   18.01
   7  -2   6  157.33   17.53
  -7   2  -6  196.91   18.11
   7  -2   6  230.61   12.58
  -7   2  -6  198.99   15.82
   7  -2   6  203.91   14.20
  -6  -7   3  327.43   17.33
   6   7  -3  309.61   16.53
   6   7  -3  334.59   20.87
   2  -8   3  450.96   22.50
   2  -8   3  450.70   30.45
  -2   8  -3  452.69   21.64
  -2   8  -3  484.51   29.57
   2  -8   3  441.43   19.34
  -6  -5  -7    9.35   13.78
   6   5   7  -10.88   11.36
   6   5   7    1.42   13.03
  -6  -5  -7    9.25   11.42
   6   5   7   21.08   12.33
  -1  -9   1  643.10   28.56
  -5  -8   2   41.68   15.24
   5   8  -2   60.74    8.13
  -5  -8   2   46.41   10.54
   5   8  -2   60.52    7.53
   5   8  -2   70.65   15.17
  -8  -5  -3  223.17   15.30
  -8  -5  -3  167.39   13.76
   8   5   3  185.40   19.30
   8   5   3  213.56   13.40
   7   3   7  156.95   13.72
  -7  -3  -7  118.13   13.17
   7   3   7  138.44   13.03
   7   3   7  107.15   12.66
  -7  -3  -7  130.47   13.93
   7   3   7  131.30   12.89
   6  -4  -5   20.25   16.12
   7  -4   3  231.91   14.84
  -7   4  -3  169.27   15.83
   7  -4   3  160.48   21.11
   7  -4   3  211.08   13.59
  -2  -9   1  696.20   30.69
   2   9  -1  741.53   26.91
   2   9  -1  705.93   27.74
  -3  -4   9  222.56   17.69
   3   4  -9  241.79   19.71
   3   4  -9  270.88   15.78
   5   6   7  108.35   16.24
   5   6   7  140.46   13.83
   5   6   7  139.31   15.07
  -5  -6  -7  123.54    9.87
  -5  -6  -7  132.65   14.55
  -5  -6  -7  120.46   17.29
   5   6   7  140.66   13.30
   4  -5   7  245.87   20.82
  -4   5  -7  182.94   19.40
  -4   5  -7  232.57   14.22
   4  -5   7  195.78    9.57
  -9  -2  -1   -0.67   10.96
  -9  -2  -1  -25.71   11.94
   9   2   1   12.51   10.98
  -4  -1 -10   11.23   10.34
   4   1  10   -1.54    9.94
  -4  -1 -10   -6.69   15.50
   4   1  10   -3.98   12.81
   4   1  10  -20.17   15.55
  -3   0  10   30.50   17.79
  -3   0  10   38.24   11.49
   7   6  -3   18.40   13.82
  -7  -6   3   24.87    7.78
  -7  -6   3    7.47   10.33
   7   6  -3    9.53    6.52
  -7  -6   3   -0.83    7.59
  -9  -1  -1   35.86   11.62
  -9  -1  -1   26.73   11.18
  -9  -1  -1   29.56    8.16
  -8  -3   4  459.72   19.53
  -8  -3   4  445.48   19.15
  -8  -3   4  472.42   20.62
   8   3  -4  397.46   17.74
   8   3  -4  485.08   22.70
   6   5  -6  265.85   17.05
  -6  -5   6  261.24   14.10
   6   5  -6  281.87   16.97
  -6  -5   6  278.01   18.80
   9   2   0   36.35   14.91
  -9  -2   0   26.84   11.41
  -9  -2   0   23.29   12.37
  -9  -2   0   41.52   11.52
   5  -3   8    9.72    8.45
  -5   3  -8    5.20   15.58
  -5   3  -8   -1.15   10.84
   7  -3   5   42.40   10.11
   7  -3   5   42.01    8.11
  -7   3  -5   32.12   12.03
   7  -3   5   49.16   16.62
  -3  -5  -9   23.23   14.31
  -3  -5  -9   17.42   16.44
  -3  -5  -9    7.44    9.57
  -3  -5  -9   18.63    9.81
   3   5   9   16.62   12.31
   3   5   9    7.18   10.73
   3   5   9    6.18   11.87
   3   5   9   17.98   15.94
   9   1   0  162.09   17.20
  -9  -1   0  180.82   13.89
  -9  -1   0  161.13   15.65
  -9  -1   0  184.01   14.24
   6   6   6   20.80    8.85
   6   6   6   20.48   11.99
   6   6   6    1.00   10.86
   6   6   6   13.19   15.93
  -6  -6  -6   29.78   11.42
  -4   7  -3  306.89   18.74
   4  -7   3  322.56   25.66
   4  -7   3  275.51   13.95
   4  -7   3  305.08   16.09
   3   1 -10  890.76   33.57
  -3  -1  10  799.25   32.62
  -3  -1  10  884.68   36.73
  -3  -1  10  786.88   29.95
   3   1 -10  817.07   37.09
   3   1 -10  867.75   34.94
  -5  -5  -8  136.16   15.53
  -5  -5  -8  133.01   17.42
  -5  -5  -8  144.64   12.07
   5   5   8  131.27   12.80
   5   5   8  103.50   14.17
   2   9   2  227.52   22.32
   2   9   2  259.02   24.88
   2   9   2  248.83   16.49
   2   9   2  260.50   14.90
   2   9   2  253.02   13.77
   2   9   2  207.47   18.89
   4   3  -9   -3.05   12.31
   4   3  -9    6.36   14.86
  -4  -3   9   -2.78    5.05
  -4  -3   9  -10.41   15.41
   4   3  -9   -7.72   10.34
  -4  -3   9    1.84   12.55
   7   3  -6   -3.45   11.54
  -7  -3   6   -5.50   12.40
  -7  -3   6    1.13   10.34
  -7  -3   6   -6.00   13.38
  -7  -3   6    3.88   10.15
   0  -7  -7  987.60   44.05
   0   7   7  938.25   35.06
   0  -7  -7 1112.65   45.43
   0  -7  -7 1028.69   42.15
   0   7   7 1116.50   42.00
   1   9   2   74.22    5.75
   1   9   2  107.51   21.71
   1   9   2  101.58    9.65
   1   9   2   78.84    4.77
  -1  -9  -2   77.97   22.30
   1   9   2  108.48   16.63
   1   9   2  105.12   19.30
   3   7   7   41.17   10.93
   3   7   7   27.80   13.53
   3   7   7   39.52   12.14
  -3  -7  -7   46.02   14.28
   3   7   7   46.44   15.60
  -3  -7  -7   54.41   17.54
   3   7   7   24.74   17.08
   3   7   7   28.01   11.92
  -3  -7  -7   38.11    8.57
   3   9   0  248.53   14.26
   3   9   0  264.85   14.02
  -3  -9   0  249.65   18.45
   3   9   0  244.53   21.92
   3   9   0  270.72   25.47
   3   9   0  234.37   17.32
   3   9   0  312.46   17.73
  -4   0 -10   25.41   15.70
   4   0  10    2.15    9.71
  -4   0 -10    2.58   11.38
   4   0  10    5.94   12.82
   0   9   0  641.11   22.85
   0   9   0  639.67   30.23
   0  -9   0  672.98   28.74
   0   9   0  623.96   23.98
   1   6  -8  187.74   22.07
   1   6  -8  195.77   19.75
   1   6  -8  186.90   13.31
  -1  -6   8  187.27   13.80
  -1  -6   8  188.20   14.68
   3   9   1   31.42   12.03
   3   9   1   29.22   17.37
   3   9   1   26.23   21.02
   3   9   1   19.30    9.78
   3   9   1   13.50   12.87
   3   9   1   29.05    9.19
  -4   2   9  271.59   15.95
  -4   2   9  258.64   20.95
   4  -2  -9  267.11   20.48
   4  -2  -9  271.81   18.38
  -4   2   9  199.43   12.26
  -8  -5   2  265.56   14.00
   8   5  -2  267.78   19.41
  -8  -5   2  263.58   13.61
  -8  -5   2  235.79   14.33
  -8  -5   2  242.32   16.15
  -1  -8   5  192.18   10.45
  -1  -8   5  201.86   16.90
   1   8  -5  219.33   23.52
   1   8  -5  163.25    8.29
   6   6  -5   54.12   14.30
   6   6  -5   50.84   11.55
  -6  -6   5   30.77   10.36
  -6  -6   5   36.89   15.25
   6   6  -5   42.27   11.76
   6  -5   4   25.74   18.35
  -6   5  -4   47.99   14.01
   6  -5   4   34.77    9.55
   6  -5   4   40.18   11.55
   0  -6   8   66.66   12.39
   0   6  -8   73.35   17.46
   0   6  -8   88.46    9.71
   0   6  -8   94.52   18.98
   0  -6   8   78.68   11.44
  -3   8   0   60.63   17.63
   3  -8   0   65.58    6.71
   3  -8   0   95.78   22.53
   3  -8   0   73.97   11.38
  -9  -2  -2  -27.01   12.02
  -9  -2  -2   -9.97   11.25
   9   2   2   13.61   10.73
   0  -9  -1  467.10   22.77
   0  -9  -1  450.48   31.14
   0   9   1  372.32   16.28
   0   9   1  382.90   15.68
   0   9   1  406.29   24.28
  -4   7   3    6.95   15.93
  -4   7   3    4.12   15.39
  -4   7   3    9.02   11.10
  -3   2 -10   32.87   16.20
   3  -2  10   11.06   12.60
  -3   2 -10    2.98   10.50
  -3   2 -10   20.24   10.43
   3  -2  10   11.11   12.72
  -9  -1  -2   -5.27    8.51
  -9  -1  -2    3.88   11.48
  -9  -1  -2  -16.76   11.08
   9   1   2    1.83   10.33
  -9  -1  -2    2.18    8.31
   4   6  -7    2.84    9.04
   4   6  -7    2.85   14.19
   4   6  -7    4.47   10.57
  -4  -6   7   -3.23    9.23
  -4  -6   7    7.20   13.84
   5  -6   4  123.40   10.94
   5  -6   4  153.10   21.34
   5  -6   4  141.51   13.28
  -5   6  -4  173.03   16.66
   4   2  10  157.45   13.86
  -4  -2 -10  181.67   13.57
  -4  -2 -10  170.77   17.62
   4   2  10  179.52   15.65
   4   2  10  160.74   18.93
   4   2  10  179.52   15.08
   7  -1  -6   53.75   13.92
   7  -1  -6   80.19   15.36
  -7   1   6   45.36   15.39
  -7   1   6   58.03   11.43
  -6   2   7   72.86   16.73
   6  -2  -7   73.07   16.68
   6  -2  -7   87.26   14.07
   6  -2  -7   68.63   15.32
  -1  -4 -10   62.08   16.26
  -1  -4 -10   81.71   18.24
  -1  -4 -10   69.59   14.67
   1   4  10   55.19   11.85
   1   4  10   95.52   18.44
   1   4  10   70.54   13.51
  -1  -4 -10   85.47   11.99
  -5   5  -6   13.33   14.77
   5  -5   6   11.45   17.38
  -5   5  -6   14.72   10.37
   5  -5   6    4.87    3.69
   5  -5   6   13.11   11.43
   0  -5   9  260.03   16.44
   0   5  -9  261.46   21.46
   0   5  -9  272.48   21.30
   0  -5   9  274.81   17.39
   0   5  -9  232.39   14.24
  -2  -8   5  107.64    9.65
  -2  -8   5  104.98   15.24
   2   8  -5  106.23    8.94
   2   8  -5   87.70    7.16
   2   8  -5  117.69   22.23
  -1   6   8   -8.88   17.17
  -1   6   8    1.74    6.72
   1  -6  -8    6.64   14.64
  -1   6   8  -13.97    9.74
   1  -6  -8  -15.17   17.81
   0  -9   1  277.05   17.69
   0   9  -1  268.43   25.32
  -1  -5   9    2.13   13.08
  -1  -5   9  -14.18   11.74
   1   5  -9    1.39   10.52
   1   5  -9   -2.99   18.43
   1   5  -9   12.44   16.55
  -1  -5   9  -32.40   12.03
  -3   1  10  289.79   21.57
   3  -1 -10  291.23   18.54
  -3   1  10  257.81   15.39
   9   2  -1  156.10   16.93
  -9  -2   1  121.57   12.41
  -9  -2   1  127.22   13.15
  -9  -2   1  115.17   13.30
   3  -8   1  285.61   12.37
   3  -8   1  288.69   16.72
   3  -8   1  299.37   26.26
  -3   8  -1  290.28   23.27
  -3   8  -1  335.32   18.13
  -9  -1   1  250.14   14.62
  -9  -1   1  289.49   17.88
   9   1  -1  297.17   19.31
  -9  -1   1  299.41   16.73
  -9  -1   1  308.49   16.65
  -7  -7  -1   45.59    5.23
   7   7   1  100.19    9.39
   7   7   1  105.77   12.84
   7   7   1   87.36   14.68
   7   7   1   92.63   19.93
  -7  -7  -1   88.43   12.35
   7   7   1   75.60    9.66
  -3   8   1   96.65    5.31
   3  -8  -1  131.47   11.62
  -3   8   1  160.88   18.89
   9   3   1  376.41   23.40
  -9  -3  -1  348.94   18.63
   9   3   1  378.38   19.62
  -9  -3  -1  327.99   19.21
  -3   5  -8   25.03    9.44
  -3   5  -8   26.72   16.71
  -3   5  -8   20.27    9.45
  -3   5  -8   35.74   15.82
   6  -3   7   56.64    8.78
   6  -3   7   65.45   12.97
  -6   3  -7   63.44   12.13
   6  -3   7   45.80   15.05
  -6   3  -7   47.99   16.31
   3  -7   5   53.12   11.34
   3  -7   5   81.80   21.23
  -3   7  -5   60.03   20.32
  -3   7  -5   69.71   13.57
   2  -7  -6   70.61   20.03
  -2   7   6   93.27   11.20
  -2   7   6  112.18   18.40
   2  -7  -6   94.81   11.26
   2  -7  -6   99.08   20.01
   2   3 -10  553.85   23.78
  -2  -3  10  440.19   23.14
   2   3 -10  467.77   27.04
  -2  -3  10  452.78   16.92
   3   9  -1  828.76   30.25
  -3  -9   1  856.76   35.95
  -3  -9   1  848.05   31.95
   3   9  -1  793.99   30.11
   7   7   0  169.87   11.53
   7   7   0  185.58   17.48
  -7  -7   0  140.63    7.43
   7   7   0  230.80   14.97
  -7  -7   0  120.77    8.08
  -4   3  -9   52.78   17.19
  -4   3  -9   48.57   10.83
   4  -3   9   51.12   10.03
  -4   3  -9   38.50   10.51
  -9  -3   0  310.13   17.96
  -9  -3   0  331.82   18.39
  -9  -3   0  304.64   17.64
   9   3   0  324.93   21.42
   0  -8   5  242.18   13.26
   0  -8   5  234.54   17.71
   0  -8   5  198.12    9.21
   0   8  -5  271.17   24.51
  -8   3   0   31.12   14.71
  -8   3   0   68.31    9.80
  -9   0  -1  109.31   12.58
  -9   0  -1   64.53   11.46
  -9   0  -1   34.62   13.86
  -9   0  -1   -6.41   12.27
   1  -5  -9   27.03   15.39
  -1   5   9   -7.16   17.82
   1  -5  -9   35.80   16.55
  -8   3  -1  222.12   18.07
  -8   3  -1  235.34   13.40
  -1  -9   2  232.60   17.84
   1   9  -2  243.82   25.05
   4   5  -8  211.90   13.52
   4   5  -8  169.80   14.77
   4   5  -8  191.69   17.66
  -4  -5   8  179.88   16.89
  -8   1  -5   45.31   14.15
   8  -1   5   55.29   12.64
  -8   1  -5   45.80   14.16
   8  -1   5   53.70   10.96
   8  -1   5   56.23    9.91
  -8   1  -5   58.30   12.71
   8  -1   5   49.45   17.06
  -8   1  -5   35.64    6.10
   7  -1   7  103.43   12.51
  -7   1  -7  142.06   14.06
  -7   1  -7  117.58   16.77
   7  -1   7   95.65   12.93
  -7   1  -7  126.57   16.63
   7  -1   7  136.74   11.50
   7  -1   7  110.45   14.02
  -2  -4 -10   56.75   17.50
  -2  -4 -10   31.66   12.81
  -2  -4 -10   19.71   10.85
  -2  -4 -10   63.11   11.32
  -2  -4 -10   51.50   15.64
   2   4  10   31.29   11.64
   2   4  10   70.43   17.99
   2   4  10   35.35   13.36
  -9   0   0  209.62   16.15
  -9   0   0  282.53   16.35
  -9   0   0  292.01   16.39
  -9   0   0  279.25   18.18
   3   9   2   -0.77   13.02
   3   9   2   31.69   20.41
   3   9   2   10.44    9.33
   3   9   2   18.12    9.88
   3   9   2    4.65   16.43
   3   9   2   11.26   11.18
   2  -3  10   85.88   13.66
   2  -3  10   98.35   14.54
  -2   3 -10   62.03   12.73
  -2   3 -10   94.47   11.67
  -2   3 -10   67.42   10.18
  -2   3 -10   76.43   17.48
  -2  -9   2  157.10   10.83
  -2  -9   2  145.32   16.21
   2   9  -2  152.97   10.09
   2   9  -2  161.98   23.72
  -3   7   5  204.72   13.34
   3  -7  -5  203.90   23.53
   3  -7  -5  200.60   14.12
   0   0  11   80.81   13.82
   0   0  11   87.02   10.50
   1   0  11   22.30    9.70
  -1   0 -11   32.46   11.37
  -1   0 -11    4.79   16.59
   1   0  11   14.18   17.57
   1   0  11   10.84   13.65
   8  -1  -4  229.97   17.44
  -8   1   4  264.46   15.82
  -8   1   4  265.73   19.07
  -8   1   4  319.78   17.36
   8  -1  -4  282.48   15.01
  -2   7  -6  335.67   15.43
   2  -7   6  354.92   17.75
  -2   7  -6  357.19   24.98
   2  -7   6  320.23   16.36
   7   5   6   11.43    9.94
   7   5   6   -0.17   10.70
   7   5   6   10.23   11.97
   7   5   6   15.92   16.01
  -7  -5  -6    6.64    9.85
   7   5   6    2.46    9.94
  -7  -5  -6    7.80   12.05
   7   5   6  -15.21   10.59
   6   4   8  -15.16   11.79
   6   4   8   13.31   13.20
   6   4   8   -2.15    7.54
  -6  -4  -8  -12.78   13.76
   2   6  -8  120.33   22.25
  -2  -6   8   99.33   12.94
  -2  -6   8  113.07   15.75
   2   6  -8  135.31   18.02
   2   6  -8  129.19   11.87
  -6  -4   7  319.76   19.33
   6   4  -7  304.90   18.21
   6   4  -7  283.86   18.46
  -6  -4   7  299.60   16.65
  -6  -4   7  318.95   15.93
  -6  -4   7  254.61   11.35
   8  -2  -3  247.50   13.93
   8  -2  -3  208.45   16.68
  -8   2   3  285.41   15.68
  -8   2   3  288.83   17.88
   4   8  -4  155.52   16.21
   4   8  -4  206.29   25.68
  -4  -8   4  217.30   18.46
  -4  -8   4  202.45   12.94
  -4  -8   4  173.03   10.51
  -3  -2  10   78.16   17.79
   3   2 -10   77.69   12.10
  -3  -2  10   81.29   13.74
   3   2 -10   62.78   16.45
  -3  -2  10   76.32    8.54
   3   2 -10   93.69   14.51
  -8   2  -4   -8.26   11.90
   8  -2   4    9.93   16.87
   8  -2   4   -4.87    8.63
   8  -2   4  -20.45   10.36
  -8   2  -4  -14.50   13.83
   8  -2   4  -15.20   11.75
  -8   2  -4   -2.57    7.54
  -8   2  -4   -3.69   10.05
   6  -4   6   -5.15    9.94
   6  -4   6  -10.64   11.84
   6  -4   6   12.25   16.43
  -6   4  -6   -1.79   10.79
  -6   4  -6   -1.28   14.01
   6  -4   6    7.17    6.58
  -1  -1 -11    5.85   11.17
  -1  -1 -11   13.61    8.62
  -1  -1 -11   17.26   15.74
   1   1  11    6.40    9.55
   1   1  11   22.02   17.79
   5   7   6  140.16   15.51
   5   7   6  138.40   13.67
  -5  -7  -6  145.32   14.30
   5   7   6  147.50   19.25
   5   7   6  159.74   14.29
  -5  -7  -6  132.58    9.40
   5   7   6  136.11   15.35
   0  -4 -10  502.85   20.64
   0  -4 -10  421.91   27.27
   0   4  10  448.97   26.11
   0   4  10  415.46   21.64
   0   4  10  399.52   20.77
   0  -4 -10  418.88   25.10
   0  -4 -10  397.90   23.96
   4  -5  -7   11.92   14.67
   4  -5  -7   -0.30   17.94
   4  -5  -7   31.17   12.52
  -4   5   7   24.94   11.19
  -4   5   7   10.68   17.01
   4  -5  -7   25.57   20.46
   8   4   5   58.23   11.39
   8   4   5   40.34   10.76
   8   4   5   47.33   10.66
   8   4   5   74.53   12.15
  -8  -4  -5   60.30   13.12
  -8  -4  -5   60.98   13.05
  -8  -4  -5   62.23   12.51
  -8  -4  -5   44.14    7.40
   5   7  -5  111.39   14.51
  -5  -7   5  110.28   16.30
  -5  -7   5  107.15   11.39
   5   7  -5   88.27   11.45
   0  -9  -2  580.15   34.49
   0   9   2  535.59   20.82
   0   9   2  640.83   33.97
   0   9   2  613.39   29.41
   0   9   2  580.43   21.88
  -5  -4   8   58.03    3.15
  -5  -4   8   59.67    3.11
   5   4  -8  140.19   16.53
   5   4  -8  146.02   14.95
   7  -4  -3  178.02    7.99
  -7   4   3  361.69   22.18
  -7   4   3  375.33   19.39
  -7   4   3  309.19   16.08
   7   7   2   12.23   11.43
  -7  -7  -2   13.91   12.10
   7   7   2   28.67   17.81
   7   7   2   21.83   15.34
   7   7   2   31.85   13.68
   7   7   2   13.95    8.52
   7   7   2   10.95    2.85
   7   7   2    8.31    7.97
  -9  -3  -2  397.80   20.17
   9   3   2  387.53   19.83
  -9  -3  -2  361.43   20.40
  -3   4  -9   81.38   10.78
  -3   4  -9   57.96   17.65
  -3   4  -9   73.04   10.57
   3  -4   9   79.36   13.54
  -3   4  -9   83.69   14.69
   4   8   5  -12.30   10.60
   4   8   5  -17.10    8.78
   4   8   5  -29.10   13.50
   4   8   5   -8.58   13.22
   4   8   5  -19.36   10.57
   4   8   5   23.82   17.47
   4   8   5    4.36   13.18
   4   6   8   -1.55   14.69
  -4  -6  -8   -6.00    8.65
   4   6   8   -9.05   12.20
  -4  -6  -8    5.30   13.78
   4   6   8   -3.66   10.51
  -4  -6  -8   16.85   16.78
   4   6   8   -0.15   11.54
  -4  -6  -8    6.54    8.88
   0  -1 -11    1.61   11.31
   0   1  11   -1.16    9.84
   1   7  -7   80.62   18.07
  -1  -7   7   92.45   12.06
  -1  -7   7  120.65   16.02
  -1  -7   7  113.92    9.39
   1   7  -7  120.38   21.37
   1   7  -7  100.41   10.67
   1   7  -7   93.40    9.02
   4  -4  -8   32.74   15.46
   4  -4  -8   -0.30   17.84
   4  -4  -8   -5.60   13.04
  -4   4   8    6.49   11.13
  -4   4   8    3.06   17.25
   8   1   6   88.71   11.74
   8   1   6   71.69   12.31
  -8  -1  -6   61.00   14.48
  -8  -1  -6   26.05    4.60
  -8  -1  -6   69.10   12.87
  -8  -2  -6  -12.85   11.53
  -8  -2  -6    4.32   13.30
   8   2   6    9.50   10.66
   8   2   6   -1.97   10.05
   8   2   6   -3.31   10.79
  -9   0  -2   87.22   12.14
  -9   0  -2  111.46   12.94
  -9   0  -2   72.68   12.23
   1  -6   8   13.09   11.10
  -1   6  -8    9.88   16.91
  -1   6  -8   27.82   17.22
  -1   6  -8   15.53    6.70
  -1   6  -8   10.15    8.47
   2   9   3  493.96   22.33
   2   9   3  433.58   19.90
   2   9   3  459.87   20.79
   2   9   3  436.34   27.47
   2   9   3  449.62   24.94
   2   9   3  484.53   29.82
  -2  -9  -3  457.62   30.83
  -4   1 -10  148.65   13.74
  -4   1 -10  147.14   12.90
   4  -1  10  146.07   12.22
  -4   1 -10  167.21   18.84
   5  -6  -4   33.86   21.16
  -5   6   4   38.28   16.89
  -5   6   4   59.70   12.17
  -8   3   1   17.65    9.19
  -8   3   1   34.85   14.64
   1  -5   9  398.37   20.43
  -1   5  -9  387.43   25.07
  -1   5  -9  378.60   16.03
  -1   5  -9  390.12   24.13
  -1   5  -9  400.60   18.23
   1  -5   9  399.74   21.02
   7   7  -1  205.41   13.73
  -7  -7   1  131.01    7.77
   7   7  -1   59.61    4.53
  -7  -7   1  148.15   13.62
  -8   3  -2  297.57   14.74
  -8   3  -2  247.97   15.77
   8  -3   2  298.09   25.64
  -9  -2  -3    0.17   11.74
  -9  -2  -3    7.43    5.16
   9   2   3    5.80   10.34
  -9  -2  -3   20.30   11.43
  -9  -2  -3    9.37    5.41
   9   2   3    8.43   10.96
   5   8   4  260.55   20.23
   5   8   4  263.63   18.53
   5   8   4  308.19   16.66
   5   8   4  279.88   23.24
   5   8   4  300.39   15.63
   5   8   4  267.06   16.55
   8   5   4  270.79   15.52
   8   5   4  288.82   17.22
  -8  -5  -4  244.10   15.74
   8   5   4  249.46   16.19
  -8  -5  -4  250.76   16.83
  -3   5   8   45.14   11.05
  -3   5   8   49.31   17.58
   3  -5  -8   19.08   15.70
   3  -5  -8   42.76   19.47
   3  -5  -8   49.92   12.54
   3  -5  -8   46.87   18.72
   1   9   3   29.61   11.49
   1   9   3   18.18    9.47
  -1  -9  -3   20.77   21.17
   1   9   3   14.03   15.59
   1   9   3   15.57   21.43
   1   9   3   18.85   17.82
   4   7  -6  276.26   15.39
   4   7  -6  318.33   20.68
   4   7  -6  313.62   27.84
  -4  -7   6  316.91   16.23
  -9  -3   1   95.44   12.56
   9   3  -1  116.87   16.23
  -9  -3   1  129.77   13.25
  -9  -3   1  107.07   13.39
  -1   8   5  110.11   10.51
  -1   8   5  128.67   18.66
   1  -8  -5  133.08   21.89
  -9  -1  -3   -4.03   11.52
  -9  -1  -3  -20.32   12.45
   9   1   3    5.41   10.22
  -9  -1  -3    4.37    9.69
  -3   8  -2  306.98   27.05
  -3   8  -2  314.13   23.40
   3  -8   2  295.73   17.85
  -3   8  -2  302.32   17.99
   3  -8   2  298.62   26.92
  -4   6  -6   95.43   11.19
  -4   6  -6   96.12   15.25
   4  -6   6   71.78   12.60
   4  -6   6   89.21   20.72
  -9   0   1  392.82   19.63
   9   0  -1  382.48   21.25
  -9   0   1  409.45   21.40
   0  -1  11  182.68   20.85
   0  -1  11  239.20   13.15
   0  -1  11  203.42   17.12
  -6  -1   8  453.99   21.63
  -6  -1   8  490.28   24.77
   6   1  -8  479.40   23.94
   6   1  -8  473.88   24.76
  -6  -1   8  435.98   21.72
  -5   4   7  269.87   16.71
   5  -4  -7  266.92   17.55
   5  -4  -7  252.17   20.17
   5  -4  -7  217.57   21.73
  -5   4   7  202.92   20.64
   0  -7   7   81.63   14.92
   0   7  -7   68.81   20.27
   0   7  -7   51.30    4.42
   0   7  -7   47.57   16.20
   0   7  -7   67.16    8.25
   0  -7   7   87.40   12.14
   0  -7   7   70.85   10.48
   0  -7   7   67.77    7.74
  -3   8   2    7.83    6.60
  -3   8   2   14.91   10.93
  -3   8   2    3.19   16.66
   3  -8  -2   11.47    8.24
   3  -8  -2   11.02    9.03
  -7  -5   5  569.87   24.36
  -7  -5   5  526.14   20.75
   7   5  -5  627.93   27.08
   7   5  -5  513.23   22.98
  -7  -5   5  573.39   27.71
  -7  -5   5  589.22   23.04
  -2   8   4  116.56   10.60
  -2   8   4  133.52   19.06
   2  -8  -4   88.87   22.02
  -2   8   4  123.38   18.39
   2  -8  -4  115.05   10.12
  -2   8   4  112.98   11.46
  -5  -8   3  269.26   14.67
   5   8  -3  288.50   13.72
   5   8  -3  233.02   17.02
  -5  -8   3  281.16   20.17
   2   5  -9   53.25   19.76
  -2  -5   9   50.55   14.72
   2   5  -9   26.69   16.29
   2   5  -9   42.80   11.01
   6   8   1  -11.29   15.30
  -6  -8  -1    3.52   11.00
   6   8   1    0.89    9.46
   6   8   1   -2.81   10.95
   6   8   1   12.04    8.99
   6   8   1   -1.97   21.72
   6   8   1   -3.63   14.49
   6   8   1    6.04    6.02
   3  -6   7  255.43   10.15
  -3   6  -7  426.53   25.05
  -3   6  -7  370.27   17.46
  -3   6  -7  342.24   23.32
   0   9  -2  441.64   29.99
   0  -9   2  477.10   23.74
   6   8   0    4.96    9.22
   6   8   0   -6.14   14.31
  -6  -8   0    4.13   10.94
   6   8   0    6.12   10.29
   6   8   0    6.80    8.41
   6   8   0    1.60    5.90
   6   8   0   -3.01   22.36
   6   8   0    9.26   15.34
  -2   3  10  180.86   20.30
   7  -4   4  100.98   12.82
   7  -4   4   92.12   19.32
  -7   4  -4  115.12   15.93
  -7   4  -4   78.41   14.39
   7  -4   4   94.95   11.10
  -6   5   4 1021.46   42.71
  -6   5   4 1028.07   39.11
  -1   1 -11  230.22   14.73
  -1   1 -11  297.65   21.88
   1  -1  11  318.93   16.22
   1  -1  11  330.26   20.09
  -8  -1   5  107.46   14.23
  -8  -1   5   96.29   12.33
   8   1  -5   92.25   12.46
   8   1  -5   95.85   13.26
  -8  -1   5  101.45   12.23
  -7  -4  -7   68.78   13.59
  -7  -4  -7   56.10   13.17
   7   4   7   80.70   11.83
   7   4   7   59.43   13.74
   7   4   7   76.44   12.84
   7   6   5   39.27   10.15
   7   6   5   61.18   18.90
   7   6   5   60.74    8.96
   7   6   5   45.55   11.85
  -7  -6  -5   23.34   12.40
   7   6   5   49.35    9.54
   2   8   6   14.64   12.01
   2   8   6   23.90   10.84
  -2  -8  -6   10.82    7.50
   2   8   6  -21.04   17.98
   2   8   6   20.89   11.93
   2   8   6   10.41    9.03
  -2  -8  -6   -1.51   19.64
   6   7   5   89.94   11.49
   6   7   5   88.60    7.96
   6   7   5   85.53   19.14
   6   7   5  111.34   13.55
  -6  -7  -5   70.17    7.15
   6   7   5  104.42   16.80
   6   7   5   86.80   12.34
   5   1  -9   37.87   14.21
  -5  -1   9   41.64   12.09
  -5  -1   9   58.07   17.09
  -5  -1   9   58.49   11.61
  -8  -6  -1  -13.64    9.49
  -8  -6  -1   15.33   11.48
   8   6   1   17.55   11.72
   8   6   1   32.78   15.87
  -8  -6  -1   10.60   10.77
   6  -2   8   29.55    9.50
  -6   2  -8   40.81   11.95
  -6   2  -8   38.11   16.10
  -5   2  -9  113.64   12.62
   5  -2   9  118.24   11.67
  -5   2  -9  115.83   17.78
  -5   2  -9   99.42   12.88
   5   4   9  170.28   17.63
  -5  -4  -9  112.13   17.53
   5   4   9  150.62   14.44
   5   4   9  138.31   13.85
  -5  -4  -9  126.22   12.33
   2   7  -7  366.00   17.52
  -2  -7   7  354.42   18.52
   2   7  -7  363.07   23.66
   2   7  -7  444.88   28.96
  -2  -7   7  373.01   16.66
   2   1  11   85.10   11.42
  -2  -1 -11   67.09   11.91
   2   1  11   96.36   19.02
  -2  -1 -11   90.27   17.51
  -2  -1 -11   84.41   12.33
  -8  -4   4    0.13   10.09
   8   4  -4    0.66    6.98
  -8  -4   4  -11.23    9.09
   8   4  -4    3.26   13.78
  -8  -4   4   -3.40   10.86
  -1   0  11  375.63   24.65
   1   0 -11  356.71   23.61
  -1   0  11  344.60   20.45
  -1   0  11  363.48   17.41
   2   0  11   22.56   17.16
  -2   0 -11   11.50   16.13
  -2   0 -11   36.84   11.78
   2   0  11   42.28   13.68
   2   0  11   29.46   13.72
   2   0  11   27.47   10.20
   1   8   6  261.98   15.25
   1   8   6  263.24   16.37
  -1  -8  -6  241.86   12.27
  -1  -8  -6  255.44   24.69
  -3  -8   5   97.46   10.13
  -3  -8   5  111.57   10.22
  -3  -8   5  102.29   15.95
   3   8  -5   92.01   24.17
   3   8  -5   85.98   15.66
   3   8  -5  106.09    8.91
  -2   8  -4  -33.51   21.01
   2  -8   4  -20.37   22.19
   2  -8   4   -9.47    7.68
   2  -8   4    4.95   12.51
   2  -8   4  -10.32   10.11
   3   9  -2  113.47    9.54
  -3  -9   2  109.66   10.93
  -3  -9   2  111.31   16.38
  -6   0   8  287.86   16.91
  -6   0   8  297.42   20.93
  -6   0   8  255.24   16.35
   6   0  -8  292.52   19.84
  -8  -6   0   -5.55   11.41
   8   6   0   13.22   14.74
   8   6   0   -3.38   11.52
   8   6   0   -1.59   11.80
  -8  -6   0   -5.85   10.01
   8   2  -5  264.50   16.25
  -8  -2   5  317.44   17.55
  -8  -2   5  285.94   16.56
   8   2  -5  309.95   18.13
  -8  -2   5  306.75   17.70
   4   3  10  196.33   14.81
  -4  -3 -10  192.39   19.56
  -4  -3 -10  185.13   18.35
   4   3  10  201.03   15.84
   4   3  10  191.13   16.10
  -4  -3 -10  194.05   14.06
   4   3  10  213.97   19.89
   4   3  10  177.71   16.73
  -1   7   7  151.99   11.77
  -1   7   7   98.84    7.72
   1  -7  -7  164.96   21.62
   1  -7  -7  154.00   17.42
   9   2  -2  191.86   10.61
   9   2  -2  346.17   18.75
  -9  -2   2  274.76   12.54
  -9  -2   2  352.46   18.14
  -9  -2   2  323.84   16.81
  -9  -2   2  292.53   17.54
   9   1  -2  180.90   15.71
  -9  -1   2  204.78   14.54
   9   1  -2   87.95    7.69
  -9  -1   2  171.71   13.20
  -9  -1   2  173.91   15.75
  -6   6   0   25.17   15.87
   6  -6   0   51.25   21.32
  -6   6   0   18.06    5.40
  -6   6   0   15.47   16.14
  -6   6   0   15.81   13.24
  -5   0   9  168.66   13.44
   5   0  -9  184.17   18.63
  -5   0   9  179.07   19.26
  -5   0   9  177.42   14.37
   4   9   0  425.59   18.44
  -4  -9   0  395.33   19.33
   4   9   0  353.40   24.40
   4   9   0  383.32   20.83
   4   9   0  441.25   22.63
   4   9   0  377.39   17.86
   4   9   0  443.65   29.63
   4   9   1  271.80   25.77
   4   9   1  260.48   18.39
   4   9   1  250.69   14.48
   4   9   1  237.67   16.71
   4   9   1  235.48   20.65
   4   9   1  287.73   14.67
  -4  -5  -9   51.64   10.16
   4   5   9   40.97   11.90
   4   5   9   55.07   16.46
  -4  -5  -9   47.23   15.08
   4   5   9   36.64   13.10
   4   5   9   43.47   11.23
  -4  -5  -9   54.02   10.33
   4   7   7  115.65   12.12
  -4  -7  -7  127.36   15.57
  -4  -7  -7  113.72    9.48
   4   7   7  143.97   16.21
  -4  -7  -7  140.56   19.36
   4   7   7   93.74   13.37
  -4  -7  -7  110.03   10.50
   4   7   7  128.94   18.49
   4   7   7  106.86   10.81
   4   7   7  122.60   13.78
   4   7   7  106.00   16.34
  -1   9   0  336.25   24.03
  -1   9   0  342.15   14.96
  -1   9   0  389.53   27.53
  -1   9   0  341.05   22.01
   1  -9   0  358.35   19.41
  -4   7  -4  511.76   24.95
   4  -7   4  462.71   30.19
  -6   6  -1   99.63   16.43
  -6   6  -1   51.92    4.19
   6  -6   1  106.48   22.80
  -6   6  -1   99.90   16.48
   6   2  -8  105.19   15.22
  -6  -2   8   85.56   14.07
  -6  -2   8   96.52   12.09
  -6  -2   8  114.49   16.77
   1   2  11   21.25   10.46
   1   2  11   14.13   13.20
  -1  -2 -11   19.58   10.51
  -1  -2 -11   17.03   15.82
  -1  -2 -11   28.51   11.81
   1   2  11   31.61   17.86
   3   4  10   24.30   10.71
  -3  -4 -10   13.36   17.43
  -3  -4 -10   -0.43   10.72
   3   4  10   19.20   12.36
   3   4  10   55.31   17.40
  -3  -4 -10   15.68   10.69
   3   4  10   13.16   12.98
   3  -6  -7  121.00   13.19
  -3   6   7  130.83   12.78
   3  -6  -7  111.28   20.06
   3  -6  -7  108.84   19.83
   5  -5  -6   -3.38   12.23
   5  -5  -6   -1.36   20.98
   5  -5  -6  -33.56   18.49
  -5   5   6   17.63   11.15
   3   9   3  173.36   12.79
   3   9   3  169.88   12.98
   3   9   3  148.11   23.11
   3   9   3  215.39   15.43
   3   9   3  133.41   19.79
   3   9   3  151.46   16.26
  -8   0  -6  105.33   14.19
   8   0   6  116.92   11.73
   8   0   6  119.69   13.52
  -8   0  -6  111.19   16.26
   8   0   6   99.20   12.20
  -8   0  -6  130.63   15.33
   6   8   2  100.45   16.38
   6   8   2   80.42   20.21
   6   8   2  113.79   10.71
   6   8   2   83.96   16.75
   6   8   2   94.88    7.86
  -6  -8  -2   90.33   12.88
   6   8   2   83.02   12.25
   6   7  -4   43.94   11.68
   6   7  -4   51.27   14.95
  -6  -7   4   42.02   16.46
  -6  -7   4   37.36   10.76
   6   7  -4   42.69   10.65
  -8  -5   3  258.89   14.53
  -8  -5   3  271.23   16.14
  -8  -5   3  272.49   14.70
  -8  -5   3  238.28   13.61
   8   5  -3  262.43   19.29
  -1   9   1  256.28   11.35
   1  -9  -1  292.02   17.50
  -1   9   1  265.33   23.17
  -1   9   1  277.77   21.90
   8   3   6  163.59   13.66
   8   3   6  117.06   13.63
  -8  -3  -6  172.29   13.15
  -8  -3  -6  158.20   15.28
   8   3   6  178.20   14.54
  -8  -3  -6  148.72   15.74
   0  -4  10  -12.25   13.16
   0  -4  10   -6.89   12.27
   0   4 -10   13.29   16.64
   0   4 -10    0.15   11.29
   0   4 -10  -14.63   17.31
  -7  -4   6   43.79    7.66
  -7  -4   6   43.71   14.96
  -7  -4   6   37.35   10.50
  -7  -4   6   37.88   10.87
   7   4  -6   35.82   13.42
  -3   2  10  233.70   20.91
  -3   2  10  198.69   13.13
   3  -2 -10  222.66   16.94
   3  -2 -10  209.81   20.04
   1  -8   5  316.54   14.08
   1  -8   5  297.58   16.22
  -1   8  -5  308.81   25.68
   1  -8   5  288.46   20.24
   9   3   3  288.37   17.06
  -9  -3  -3  253.38   17.46
   9   3   3  236.71   16.03
  -9  -3  -3  230.47   17.53
  -9  -3  -3  281.79   17.13
  -1   1  11  106.95   11.83
   1  -1 -11  151.97   14.18
  -1   1  11  113.52   20.17
  -8  -6  -2  141.56   13.57
  -8  -6  -2  152.09   14.55
  -8  -6  -2  107.38   11.41
   8   6   2  131.19   11.79
   8   6   2   95.58   13.01
   6   1   9   31.46   11.64
  -6  -1  -9   28.75   15.40
  -6  -1  -9   33.14   12.91
   6   1   9   36.41   10.78
  -6  -1  -9   17.18   10.88
  -1  -1  11  -37.12   14.15
   1   1 -11  -16.91   17.23
   1   1 -11    4.83   11.92
  -1  -1  11    9.98    8.48
  -1  -1  11  -12.12   17.95
   7   7   3    6.20    9.35
   7   7   3    3.37   11.59
   7   7   3   15.34   15.41
   7   7   3   16.40   20.09
   7   7   3    3.96    5.18
   7   7   3   21.23    8.50
   7   7   3   19.00   13.41
  -7  -7  -3    3.64   12.29
   6   8  -1  164.74   12.84
   6   8  -1   91.06   11.39
  -6  -8   1  112.19   12.46
   6   8  -1  138.21   25.32
   6   8  -1   98.94   11.45
   6   8  -1  115.58    9.80
   6   8  -1  122.50   16.68
   7  -3  -5   89.51   16.59
   7   6  -4  289.75   19.34
   7   6  -4  228.68   13.60
  -7  -6   4  277.86   13.47
  -7  -6   4  219.64   11.81
  -7  -6   4  271.19   15.98
  -3   4   9    3.75    3.48
   3  -4  -9  -10.05   13.00
   3  -4  -9   23.81   18.75
   3  -4  -9    0.28   15.95
   3  -4  -9    7.82   18.57
  -3   4   9    9.96   11.02
   1  -9   1  527.29   33.57
   1  -9   1  496.48   23.87
  -1   9  -1  468.44   28.98
  -1   9  -1  495.63   30.86
  -1   9  -1  458.44   20.38
   0  -2 -11  118.13   15.61
   0   2  11  137.37   14.90
   0  -2 -11  167.63   14.43
  -6   6   1    1.01   16.41
  -6   6   1   13.66    6.58
   6  -6  -1   16.49   20.26
  -6   6   1   16.25   15.72
  -6   6   1   -1.20   13.21
  -9  -4  -1  296.92   17.14
  -9  -4  -1  294.06   18.26
   9   4   1  332.51   22.13
   9   4   1  311.02   18.17
  -8   0   5   59.21   11.68
  -8   0   5   69.38   14.80
   8   0  -5   63.40   11.57
   8   0  -5   61.37   14.07
  -8   0   5   65.63   11.50
   4  -6  -6    3.26   11.82
   4  -6  -6    9.11   19.84
  -4   6   6    2.52   10.51
   4  -6  -6    5.88   18.02
  -5  -2   9  843.76   35.91
   5   2  -9  785.43   35.38
  -5  -2   9  809.43   33.50
   5   2  -9  860.88   34.42
  -9   0  -3   -4.60   10.87
  -9   0  -3  -12.88   11.03
   9   0   3    2.51   10.34
  -9   0  -3   -9.27   12.27
  -5   3   8  235.64   21.25
   5  -3  -8  232.53   17.14
  -5   3   8  223.26   16.11
   5  -3  -8  241.09   22.22
   5  -3  -8  231.98   20.02
  -1  -4  10   83.77   13.35
   1   4 -10   80.65   12.28
   1   4 -10   91.35   17.80
   1   4 -10  109.47   19.05
   0   9   3  252.08   12.43
   0   9   3  256.80   20.76
   0   9   3  227.47   11.73
   0   9   3  252.13   26.29
   0   9   3  230.97   13.06
   0  -9  -3  240.88   26.26
  -1  -9   3  585.53   26.95
   1   9  -3  635.20   35.00
  -1  -9   3  547.64   20.90
  -9  -4   0  339.04   19.78
  -9  -4   0  336.51   18.52
  -9  -4   0  394.94   18.86
   9   4   0  365.36   22.96
  -4   7   4  161.65   20.03
  -4   7   4  174.93   14.22
   4  -7  -4  177.74   13.33
   4  -7  -4  144.94   23.42
  -4   7   4  179.85   19.94
   1  -4 -10   69.08   17.17
   1  -4 -10   64.67   17.33
   3   8   6  441.03   22.39
   3   8   6  511.69   25.84
   3   8   6  499.42   21.89
   3   8   6  502.89   23.73
  -3  -8  -6  448.66   18.42
   3   8   6  498.95   27.29
   3   8   6  466.70   20.29
   3   8   6  475.50   19.33
  -4  -9   1  434.81   20.35
   4   9  -1  369.18   18.01
   4   9  -1  475.45   22.70
   4   9  -1  339.66   19.80
  -4  -9   1  428.95   24.04
   4   9  -1  413.70   17.38
   4   9  -1  418.63   29.83
   6   2   9  -13.88   11.10
  -6  -2  -9  -10.41   14.65
  -6  -2  -9    0.18   12.68
   6   2   9    9.69   11.58
  -6  -2  -9  -21.23   11.24
  -5   7   0   54.39   16.46
   5  -7   0   51.70   21.96
   5  -7   0   42.79   10.09
   8  -3  -2  -19.26   10.77
  -8   3   2   10.10   14.44
  -8   3   2  -18.92    9.62
   4   9   2  108.36   14.54
   4   9   2  127.01   22.32
   4   9   2   88.32   13.11
   4   9   2   65.54   16.36
   4   9   2  137.47   11.51
   4   9   2  115.74   11.68
  -8  -6   1   31.65    9.08
  -8  -6   1   34.70   11.68
   8   6  -1   41.15   15.59
  -8  -6   1   25.82    9.99
  -8  -6   1   34.83    7.80
  -9   1  -1  168.56   14.62
  -9   1  -1  159.73   15.25
  -9   1  -1  174.09   15.99
  -9   1  -1  166.12   13.46
  -2  -9   3  298.33   13.56
   2   9  -3  284.38   12.35
  -2  -9   3  270.91   19.38
   2   9  -3  254.51   25.84
   2   9  -3  220.22   10.32
  -2  -9   3  233.46   10.64
   3   6  -8    3.30   15.60
  -3  -6   8   -5.24    9.57
   3   6  -8    8.61   10.15
  -3  -6   8    3.13   14.43
   3   6  -8   -2.76   21.34
  -9   1   0   13.26   10.61
  -9   1   0   13.64   13.36
  -9   1   0   27.86   12.79
  -8   3  -3  137.02   13.60
   8  -3   3  164.41   22.23
  -8   3  -3  154.99   12.22
   8  -3   3  168.54   13.64
   2   2  11   23.80   10.45
  -2  -2 -11    9.34   11.33
  -2  -2 -11   -0.47   11.20
  -2  -2 -11   19.98   15.70
   2   2  11   11.15   13.90
   4   4  -9  239.89   17.15
  -4  -4   9  219.36   17.77
   4   4  -9  266.87   15.29
   4   4  -9  221.61   19.91
   7   7  -2   93.49    7.15
  -7  -7   2  158.11   13.68
  -7  -7   2  136.43    9.28
   7   7  -2   89.48    7.30
  -2   1 -11  220.26   21.17
  -2   1 -11  238.34   15.74
   2  -1  11  250.83   14.57
   2  -1  11  233.88   17.88
  -7  -1   7  350.09   19.34
   7   1  -7  324.00   19.87
  -7  -1   7  391.22   21.91
   7   1  -7  350.29   20.56
   7  -2  -6   41.19   14.06
   7  -2  -6   34.51   16.18
  -7   2   6   53.27   16.35
   5  -7   1   15.18    8.51
  -5   7  -1   18.67   16.44
   5  -7   1   18.25   21.09
   1  -7   7  217.44   10.44
  -1   7  -7  206.24   20.21
   1  -7   7  259.49   14.51
  -1   7  -7  220.17   11.62
  -1   7  -7  281.36   23.00
  -1   7  -7  251.50   12.48
   1  -7   7  245.04   18.19
  -7   5   0   55.06   15.04
  -7   5   0   61.68   14.51
  -7   5   0   82.85   17.32
  -7   5   0   84.22    8.60
   7  -5   0  103.70   22.34
  -7  -1  -8   26.74   14.17
  -7  -1  -8   23.36   12.72
   7   1   8   22.83   11.17
   9   3  -2   18.72   14.55
  -9  -3   2    1.21   10.69
  -9  -3   2    1.54   11.33
  -9  -3   2  -10.79   11.65
  -9   0   2  137.63   14.31
   9   0  -2  145.54   14.80
  -9   0   2  144.96   15.26
  -9   0   2  174.63   13.80
  -6   6  -2   96.32   16.89
   6  -6   2   98.86   10.60
   6  -6   2   68.34   21.17
   0   8   6  168.19   13.83
   0   8   6  169.79   11.92
   0  -8  -6  187.82   22.60
   6  -5   5   13.83   18.08
  -6   5  -5   47.98   11.94
   6  -5   5   32.57   11.69
  -6   5  -5   33.13   15.05
   6  -5   5   14.83    9.95
  -7   5  -1  159.55    9.64
   7  -5   1  163.19   23.04
  -7   5  -1  152.32   16.75
  -7   5  -1  169.26   18.30
   6   0   9   45.57   11.75
  -6   0  -9   39.93   13.06
  -6   0  -9   79.10   16.05
  -9  -4  -2  110.24   13.51
   9   4   2  143.80   18.42
  -9  -4  -2  108.83   14.26
   9   4   2   94.57   12.67
   9   4   2  127.37   13.59
   1  -4  10   90.30   14.04
  -1   4 -10   79.32   11.81
  -1   4 -10   89.13   16.50
   1  -4  10   90.76   14.17
  -4   3   9   -9.35   18.14
   4  -3  -9  -13.99   13.95
  -4   3   9    5.25    4.97
   4  -3  -9   -7.19   17.80
  -4   3   9   -2.19   11.37
   4  -3  -9    9.64   15.29
   3   3 -10  143.46   13.52
  -3  -3  10  110.27    7.11
  -3  -3  10  113.71   15.43
  -3  -3  10   90.90   17.43
   3   3 -10  115.32   18.23
  -7  -2  -8  115.89   14.69
  -7  -2  -8  101.78   15.21
   7   2   8  109.45   12.69
   7   2   8  106.74   12.94
  -7  -2  -8   86.66   13.41
   8   3  -5  461.31   22.76
   8   3  -5  387.16   19.09
  -8  -3   5  430.97   19.76
  -8  -3   5  407.55   18.27
   5  -7  -1  -32.52   21.37
  -5   7   1   -6.14   12.69
  -5   7   1   -9.94   16.10
   5  -7  -1   -6.52    8.43
  -5   7   1    4.44    4.76
  -5   7   1  -11.27   16.49
   5  -1  -9  142.78   15.99
  -5   1   9  144.33   18.94
   5  -1  -9  119.72   17.41
  -5   1   9  117.53   11.63
  -1   9   2  446.76   30.63
  -1   9   2  408.99   26.24
   1  -9  -2  375.45   29.05
  -1   9   2  420.18   25.20
  -1   9   2  375.80   16.27
  -7   3  -6   44.22   12.73
   7  -3   6   22.05   10.88
  -7   3  -6   22.39   14.56
   7  -3   6   44.30   16.16
   7  -3   6   48.44    8.47
   0  -2  11  396.23   17.62
   0  -2  11  435.91   21.75
   0  -2  11  377.03   24.67
   0   2 -11  439.51   21.75
  -3   8  -3  757.37   38.01
   3  -8   3  684.60   26.34
   3  -8   3  684.22   37.14
   3  -8   3  604.22   28.26
  -3   8  -3  726.52   30.49
   5  -6   5  250.00   14.65
  -5   6  -5  297.71   20.27
   5  -6   5  273.75   16.92
   5  -6   5  278.51   24.24
   3  -8  -3   29.89    9.16
  -3   8   3   28.76   11.14
  -3   8   3   29.70   17.42
   3  -8  -3   34.28   21.27
   7   2  -7  188.47   16.03
  -7  -2   7  202.97   15.11
  -7  -2   7  196.25   16.61
  -7  -2   7  241.86   18.05
   7   2  -7  195.70   17.11
   6  -1  -8   96.01   14.80
  -6   1   8  115.57   18.28
   6  -1  -8   91.97   15.91
  -6   1   8  101.21   13.02
  -2   5  -9   60.54    9.32
  -2   5  -9   58.03   16.88
  -2   5  -9   85.44   10.75
   2  -5   9   63.47   12.92
   2  -5   9   93.93   13.93
   1   6   9  299.32   22.91
   1   6   9  296.05   17.84
  -1  -6  -9  284.59   24.09
  -1  -6  -9  311.20   21.58
   1   6   9  275.23   17.96
  -1  -6  -9  265.86   21.96
  -9   1  -2   90.70   12.01
  -9   1  -2   63.78   13.51
  -9   1  -2  114.88   13.37
   9   2   4   27.89   11.12
  -9  -2  -4    8.56    7.81
  -9  -2  -4   39.90   13.61
   9   2   4   16.98   10.19
  -9  -2  -4   16.31   12.31
   9   2   4   24.63   10.74
  -9  -2  -4   28.95   12.67
  -3   3 -10  163.58   20.52
   3  -3  10  148.96   15.53
  -3   3 -10  153.92   12.72
  -3   3 -10  152.90   12.93
   3  -3  10  151.77   15.56
   2  -6  -8  120.24   13.86
   2  -6  -8  165.87   21.81
  -2   6   8  129.38   12.66
   2  -6  -8  124.47   21.04
  -2  -6  -9   44.02   17.83
   2   6   9   64.23   17.94
  -2  -6  -9   59.45   19.11
   2   6   9   55.90   12.25
  -2  -6  -9   73.69   15.98
  -2  -6  -9   69.75   10.06
  -2  -6  -9   54.66   10.53
   2   6   9   59.78   12.96
  -9  -4   1  213.51   14.90
  -9  -4   1  203.46   14.35
   9   4  -1  192.00   18.43
   7   0  -7  345.79   21.02
  -7   0   7  382.44   20.44
  -7   0   7  409.77   23.04
   2   9   4  450.77   18.96
   2   9   4  473.55   28.09
   2   9   4  476.71   27.74
   2   9   4  481.60   20.61
   2   9   4  345.39   13.72
   2   9   4  437.17   24.38
  -2  -9  -4  447.11   30.44
   2   9   4  440.67   19.85
  -9  -1  -4   12.17   12.77
  -9  -1  -4   20.45   12.06
  -9  -1  -4   34.73   11.05
   9   1   4   15.24   11.10
  -9  -1  -4   30.76   13.90
   9   1   4   16.84   11.03
   6  -4  -6  270.18   22.99
  -6   4   6  306.40   17.86
   6  -4  -6  316.89   19.27
   2  -6   8   84.02   12.35
  -2   6  -8   93.86   10.00
  -2   6  -8   84.59    9.24
   6   8   3  156.78   18.55
   6   8   3  143.26   12.41
   6   8   3  178.94   13.98
   6   8   3  181.20   21.02
   6   8   3  161.76   12.95
   6   8   3  178.04   17.75
  -7   5   1   -5.00    8.00
  -7   5   1  -12.33   16.70
   7  -5  -1   -2.77   21.50
  -7   5   1   15.20   14.21
  -7   5   1  -23.28   13.89
  -2   5   9  103.48   12.15
   2  -5  -9  101.91   20.96
   2  -5  -9   77.29   19.29
   2  -5  -9  108.46   14.16
   0  -9   3   32.76   13.80
   0   9  -3   24.05   21.94
   0  -9   3   38.40    8.34
   3   7  -7  272.55   14.84
   3   7  -7  284.71   21.01
   3   7  -7  248.12   26.71
  -3  -7   7  256.53   15.94
  -3  -7   7  279.14   14.75
  -9   1   1  -11.26   12.98
  -9   1   1   -0.17   12.55
   9  -1  -1    2.20   12.92
  -9   1   1  -11.01   10.67
  -1   2 -11  130.04   14.15
  -1   2 -11  145.44   14.38
   1  -2  11  166.21   16.19
   1  -2  11  139.93   15.44
   1  -2  11  136.87   10.85
  -7   2  -7  136.25   17.22
   7  -2   7   78.22   15.05
  -7   2  -7  110.60   17.30
   7  -2   7  104.76   12.46
   7  -2   7  128.24   11.02
  -7   2  -7  116.03   14.47
  -5  -1 -10    1.09   12.43
  -5  -1 -10  -11.06   15.63
   5   1  10   -4.66   10.66
   5   1  10  -12.52   12.11
  -5  -1 -10  -15.77   10.73
   5   1  10    9.59   12.72
   8   6   3  315.04   16.78
  -8  -6  -3  290.60   19.12
  -8  -6  -3  333.40   18.34
   8   6   3  325.06   16.60
  -8  -6  -3  291.12   15.69
   1  -9   2  781.96   41.09
   1  -9   2  777.33   32.62
  -1   9  -2  769.61   29.38
  -1   9  -2  728.28   37.92
   8  -2  -4   47.60   14.72
  -8   2   4   63.25   13.13
   8  -2  -4   30.49    9.04
  -8   2   4   54.49   10.59
  -4  -1  10  421.02   24.97
  -4  -1  10  350.16   19.71
   4   1 -10  366.05   24.06
   4   1 -10  418.95   22.00
   1   9   4  202.81   24.25
   1   9   4  164.15   21.67
   1   9   4  168.76   19.07
   1   9   4  173.00   13.70
   1   9   4  140.70   12.01
  -1  -9  -4  175.57   24.20
   1   9   4  151.75    9.27
  -4   0  10  183.01   20.16
  -4   0  10  148.28   13.54
  -4   2 -10  150.38   18.78
   4  -2  10   98.53   12.24
  -4   2 -10  130.62   12.57
  -4   2 -10  119.91   12.99
   3   5  -9  185.49   19.28
  -3  -5   9  153.63   16.63
   3   5  -9  201.61   14.63
  -6   6   2   36.95   13.46
  -6   6   2   37.90    7.83
  -6   6   2   43.96   17.32
   6  -6  -2   16.14    4.62
   6  -6  -2   29.92   21.55
  -6   6   2   57.93   16.67
   8  -2   5   11.30    8.83
  -8   2  -5   -7.13   14.05
   8  -2   5   23.58   17.24
   8  -2   5   12.20   11.98
   8  -2   5    8.42   10.30
  -8   2  -5   -1.30   14.55
  -8   2  -5   11.13   12.37
   3   1  11  163.57   20.39
   3   1  11  183.08   17.01
  -3  -1 -11  196.09   14.54
   3   1  11  167.62   13.74
  -3  -1 -11  182.90   19.56
  -7   4   4   74.01   13.42
   7  -4  -4   63.84   16.33
  -7   4   4   83.76   10.83
  -7   4   4   78.93   17.52
   6  -3  -7  412.11   24.06
   6  -3  -7  397.60   25.86
   6  -3  -7  436.86   22.39
  -6   3   7  450.88   21.87
  -6   3   7  428.05   26.24
  -6  -3   8  178.37   18.02
  -6  -3   8  180.71   16.45
   6   3  -8  185.57   16.38
  -6  -3   8  159.20   13.53
   7   0   8   -0.72   12.04
   7   0   8   -9.58   10.64
  -7   0  -8   -0.88   12.03
  -7   0  -8    2.70   14.73
  -7   5  -2  203.15   18.00
  -7   5  -2  203.63   10.69
   7  -5   2  176.70   22.75
   7  -5   2  196.61   13.78
   6   6   7  151.34   17.70
   6   6   7  204.27   15.90
   6   6   7  196.46   16.04
  -6  -6  -7  209.59   16.37
   6   6   7  164.44   14.61
  -5   7  -2  178.89   19.75
   5  -7   2  158.44   24.30
   5  -7   2  163.56   11.05
   6   8  -2  139.75   25.88
   6   8  -2  116.93   12.90
  -6  -8   2  120.35   12.84
  -1   2  11  219.39   14.86
  -1   2  11  220.06   17.12
   1  -2 -11  262.36   16.20
   2   7   8   28.67   17.18
  -2  -7  -8    9.76   18.68
   2   7   8   11.93   12.44
   2   7   8   19.79   12.00
  -2  -7  -8   18.14   18.02
  -2  -7  -8   11.46    9.30
   2   7   8    8.48   10.95
  -2  -7  -8    3.75   14.83
  -1  -2  11  436.72   26.31
  -1  -2  11  453.48   23.44
   1   2 -11  464.62   27.56
  -1  -2  11  464.90   18.94
   1   2 -11  515.50   23.33
  -1  -7  -8  188.44   22.56
   1   7   8  199.47   20.49
   1   7   8  178.25   13.81
  -1  -7  -8  193.04   18.95
   1   7   8  139.69   13.78
  -1  -7  -8  168.20   21.30
  -2   0  11  399.34   25.82
   2   0 -11  394.45   24.76
  -2   0  11  396.87   18.54
   3   0  11    3.09   13.20
   3   0  11   -6.60   16.68
   3   0  11    5.84   13.01
   3   0  11    6.25   10.02
  -3   0 -11   -0.54   16.80
   3   9  -3  128.03   24.18
  -3  -9   3   60.27    3.95
   3   9  -3   95.16    7.88
  -3  -9   3  103.14    9.89
  -3  -9   3   98.51   16.01
   2   4 -10  421.50   25.34
  -2  -4  10  392.40   22.32
   2   4 -10  425.09   21.16
   1   8  -6   21.89   15.90
   1   8  -6   32.64   21.80
  -1  -8   6   38.15   14.85
   1   8  -6   17.74    6.78
  -1  -8   6   33.02    7.54
   6   3   9  -17.80   13.86
  -6  -3  -9   -6.11   14.15
  -6  -3  -9  -28.13   11.57
  -6  -3  -9   -3.70   13.09
   6   3   9   -5.63   10.91
   6   3   9   -3.28   12.16
  -6  -3  -9   10.95   14.21
  -4  -9   2  102.61   16.79
   4   9  -2  119.58   15.83
   4   9  -2  102.25    9.03
  -4  -9   2   73.83   11.00
  -5  -2 -10   14.78   15.11
   5   2  10   10.66   10.59
   5   2  10  -24.54   16.32
  -5  -2 -10   18.16   12.96
   5   2  10   15.82   12.35
  -5  -2 -10   -0.44   10.48
   5   2  10   13.67   12.88
   8   5   5  166.50   13.39
   8   5   5  157.45   12.42
   8   5   5  194.39   14.81
   8   5   5  145.38   13.89
   8   5   5  154.74   20.39
  -8  -5  -5  161.76   15.69
   4   9   3    6.69   15.54
   4   9   3    6.11    4.53
   4   9   3   23.68   12.09
   4   9   3   28.18   10.72
   4   9   3   12.10   12.34
   4   9   3   22.31   10.12
   4   9   3   50.99   19.59
   5   0  10   39.74   13.70
   5   0  10   52.40   10.99
  -5   0 -10   36.15   13.03
  -5   0 -10   55.77   17.11
   5   0  10   57.05   12.80
   9   1  -3  152.18   12.95
  -9  -1   3  225.38   16.33
   9   1  -3  241.41   16.39
  -9  -1   3  214.30   15.26
  -9  -1   3  240.74   15.54
  -9  -2   3  439.94   21.16
  -9  -2   3  412.28   17.71
   9   2  -3  435.56   22.68
  -9  -2   3  416.53   20.54
  -9  -2   3  387.70   19.33
   5   8   5  221.02   21.78
   5   8   5  228.70   14.30
   5   8   5  226.52   15.28
   5   8   5  244.32   17.15
   5   8   5  176.57   17.96
   5   8   5  244.49   14.80
  -8   1  -6   42.46   13.63
  -8   1  -6   60.76   15.30
   8  -1   6   68.17   12.85
   8  -1   6   48.25   11.54
   8  -1   6   71.98   10.53
   8  -1   6   47.13   16.13
  -8   1  -6   48.58   15.28
   5   6  -7   90.14   12.70
  -5  -6   7   93.60   11.52
   5   6  -7   90.95   15.25
  -5  -6   7   83.72   15.97
  -5   4  -8  191.05   20.87
  -5   4  -8  200.64   14.84
   5  -4   8  173.84   10.95
  -6  -5  -8   26.01   13.84
   6   5   8   20.21   12.27
   6   5   8   38.98   14.28
  -6  -5  -8   25.09   15.26
  -8  -6   2   84.04   12.69
  -8  -6   2   65.35   10.23
  -8  -6   2   75.91   10.10
   8   6  -2   82.91   16.16
  -8  -6   2   82.08    9.94
  -2  -1  11   99.93   19.17
   2   1 -11   81.62   17.83
   2   1 -11   90.84   13.37
  -2  -1  11   78.31   10.01
   6   6  -6   90.29   13.99
   6   6  -6  102.80   13.01
  -6  -6   6   88.79   12.10
  -6  -6   6   88.74   16.44
   9   4   3   71.44   12.94
  -9  -4  -3   65.90   12.64
  -9  -4  -3   65.44   13.56
  -9  -4  -3   54.34   12.67
   9   4   3   67.87   11.78
  -8   1   5   74.66   15.69
   8  -1  -5   75.40   10.46
  -8   1   5   72.73   11.89
   8  -1  -5   87.41   15.77
   9   3   4  230.80   15.98
  -9  -3  -4  185.51   15.68
  -9  -3  -4  214.69   16.12
   9   3   4  200.22   14.58
  -9  -3  -4  236.37   15.24
  -7  -3  -8   70.17   13.87
   7   3   8   67.84   11.74
   7   3   8   76.53   13.08
  -7  -3  -8   84.39   14.36
   0  -6  -9  152.20   21.83
   0  -6  -9  145.93   19.60
   0  -6  -9  187.26   19.04
   0   6   9  187.52   20.88
   5  -7  -2    1.70    5.16
  -5   7   2    5.91   16.25
  -5   7   2   -6.39   13.05
  -5   7   2  -24.39   17.63
   1   3  11   48.97   18.91
  -1  -3 -11   56.19   12.29
   1   3  11   41.09   14.03
   1   3  11   32.51   11.68
  -1  -3 -11   38.14   12.74
   3   9   4  365.55   18.95
   3   9   4  297.06   16.89
   3   9   4  281.83   24.93
   3   9   4  300.22   20.97
   3   9   4  280.45   23.39
   3   9   4  298.92   16.85
  -4  -8   5  205.79   19.29
  -4  -8   5  224.08   12.90
  -4  -8   5  244.68   14.12
   4   8  -5  258.14   27.58
   4   8  -5  229.91   18.69
  -3   7  -6  285.17   15.02
  -3   7  -6  282.90   24.58
   3  -7   6  273.24   25.32
   3  -7   6  266.17   16.75
   7   7   4   -6.68   12.17
   7   7   4    3.88    8.98
   7   7   4   -3.03   15.82
   7   7   4  -12.18   20.34
   5   8  -4  412.31   22.20
   5   8  -4  432.66   18.57
   5   8  -4  442.93   32.40
  -5  -8   4  435.78   19.80
  -5  -8   4  390.94   16.70
   8   4   6   82.65   12.18
   8   4   6   64.77   17.14
  -8  -4  -6   72.61   14.01
   8   4   6   77.22   12.02
  -8  -4  -6   59.74   10.84
   8   4   6   86.93   13.20
   8   4   6   63.32   11.99
  -5  -6  -8    3.10   16.80
  -5  -6  -8    0.92    9.92
   5   6   8   27.20   12.96
  -5  -6  -8    9.87   13.93
   5   6   8   11.60   10.34
   5   6   8   33.71   14.84
   5   6   8   10.32   14.78
  -5  -6  -8   21.24    9.22
   5   3  -9  217.75   17.18
  -5  -3   9  206.28   17.07
   5   3  -9  172.18   18.65
  -5  -3   9  190.82   19.17
  -2  -8   6    6.44    8.30
   2   8  -6    8.99   22.01
   2   8  -6   -1.32    6.84
   2   8  -6   -5.98   16.02
   2   8  -6    3.00    8.68
  -2  -8   6   -8.76   14.47
  -2  -8   6   -0.99    9.75
   6   5  -7  188.89   15.98
  -6  -5   7  186.40   18.20
  -6  -5   7  199.40   14.35
   6   5  -7  200.17   16.44
   7  -4   5   44.98   18.23
   7  -4   5   29.58   10.63
   7  -4   5   40.88   12.30
  -7   4  -5   44.22   15.59
  -7   4  -5   42.97   12.47
   6  -6   3   95.94   21.83
  -6   6  -3  136.74   16.46
   6  -6   3  103.45   10.85
   6  -6   3  132.04   12.97
  -6   6  -3  116.51   17.89
   3   2  11  148.88   16.05
   3   2  11  140.98   16.17
   3   2  11  154.94   13.80
  -3  -2 -11  151.50   13.56
  -3  -2 -11  121.48   18.43
  -3  -2 -11  160.60   13.96
   3   2  11  158.30   19.95
   1   5  10  195.02   16.37
  -1  -5 -10  209.98   19.79
  -1  -5 -10  184.61   22.82
  -1  -5 -10  176.91   18.44
  -1  -5 -10  238.77   14.52
   1   5  10  191.66   20.95
   1   5  10  168.28   14.79
   5  -6  -5  547.88   30.67
   5  -6  -5  550.45   24.22
  -5   6   5  582.93   30.50
   5  -6  -5  471.13   31.95
  -2   1  11  358.67   18.82
  -2   1  11  413.08   25.62
   2  -1 -11  383.04   19.56
  -3  -6  -9  117.04   17.15
   3   6   9  118.99   18.48
   3   6   9   91.08   14.47
  -3  -6  -9  117.63   11.79
  -3  -6  -9  117.17   19.85
  -3  -6  -9  105.55   11.39
   3   6   9   79.32   13.54
   9   0   4    2.68   10.36
   9   0   4   -1.98   11.20
  -9   0  -4    5.10   14.00
  -9   0  -4    2.02   11.71
  -9   0  -4   13.74   12.52
   0  -8   6  287.26   19.72
   0   8  -6  274.46   11.89
   0   8  -6  220.54   10.70
   0   8  -6  285.62   25.21
   0  -8   6  255.62   11.49
   4   4  10  200.67   14.98
   4   4  10  209.31   16.52
   4   4  10  216.49   16.71
   4   4  10  236.89   20.80
   4   4  10  190.74   16.76
  -4  -4 -10  212.11   14.67
  -4  -4 -10  196.03   14.37
  -4  -4 -10  198.58   20.72
   4   8   6    8.26   14.09
   4   8   6   25.90   17.80
   4   8   6    2.25    9.89
   4   8   6    4.03   14.38
   4   8   6   -5.82   11.20
   4   8   6  -10.52   11.97
   3  -7  -6  704.31   28.11
   3  -7  -6  632.44   36.05
   3  -7  -6  703.06   35.69
  -3   7   6  687.35   27.88
  -2   8   5  373.71   17.75
  -2   8   5  381.45   25.77
   2  -8  -5  344.12   16.74
  -2   8   5  365.39   17.92
  -2   8   5  361.86   25.20
   2  -8  -5  350.02   27.66
  -4   5  -8  162.14   20.17
  -4   5  -8  144.85   12.84
   4  -5   8  161.05    9.93
   4   2 -10  427.62   22.46
  -4  -2  10  398.60   17.21
  -4  -2  10  406.79   21.75
   4   2 -10  391.95   24.46
  -4  -2  10  440.96   25.60
   9  -1   3   27.13   11.13
   9  -1   3   49.46   10.56
  -9   1  -3   19.90   10.91
  -4   1  10  215.93   20.80
  -4   1  10  137.11   12.88
   4  -1 -10  189.78   16.91
   4  -1 -10  189.34   19.13
   5  -5   7  159.89   14.57
   5  -5   7  111.89    7.15
  -5   5  -7  121.67   13.04
  -5   5  -7  117.86   18.13
   5  -5   7  126.69   20.03
  -6   1  -9   16.29   12.33
  -6   1  -9   49.17   16.20
   6  -1   9   20.05   10.69
  -8   3   3    5.04   15.24
  -8   3   3    1.34    9.73
   8  -3  -3    1.80    8.17
   7   3  -7   -1.30   13.76
   7   3  -7   15.05   12.98
  -7  -3   7   -4.91   10.75
  -7  -3   7   -9.73   14.25
  -7  -3   7    5.92   10.88
  -7  -3   7   -0.68   14.03
  -2  -5 -10   89.74   12.05
  -2  -5 -10   54.03   16.33
   2   5  10  102.07   18.88
   2   5  10  106.28   14.76
   2   5  10   66.14   12.95
  -2  -5 -10  106.90   20.23
  -2  -5 -10   95.64   17.01
  -2  -5 -10  115.61   12.78
  -7   5   2  123.17   10.63
  -7   5   2  105.13   18.65
  -7   5   2  139.13   15.65
   7  -5  -2  147.06   24.91
  -2   4 -10  278.42   18.91
  -2   4 -10  275.94   16.24
   2  -4  10  279.65   18.27
   2  -4  10  291.24   18.93
  -2   4 -10  287.39   14.94
   0  -3 -11  131.98   16.54
   0  -3 -11  155.15   19.17
   0   3  11  139.68   13.99
   0   3  11  173.43   20.99
   0   3  11  170.12   16.18
  -1   9   3  118.71   19.03
  -1   9   3  111.33    9.98
  -1   9   3  134.06   20.50
  -1   9   3  127.27   11.10
  -1   9   3  111.18   10.13
  -1   9   3  133.44   25.19
   1  -9  -3  103.18   23.32
   2   3  11  -12.65   14.05
  -2  -3 -11   -1.65    7.94
  -2  -3 -11  -33.13   11.98
  -2  -3 -11  -19.81   11.73
   2   3  11   -5.34   10.66
   2   3  11   13.02   18.14
   5   5  -8  604.95   29.36
  -5  -5   8  638.89   27.10
  -5  -5   8  652.46   29.80
   5   5  -8  638.38   27.58
  -3  -7  -8   48.79   15.60
   3   7   8   65.52   13.47
  -3  -7  -8   59.49    9.35
   3   7   8   41.11   13.24
   3   7   8   40.27   11.75
   3   7   8   48.99   17.19
  -3  -7  -8   54.80    9.52
  -3  -7  -8   38.93   19.17
   0   9   4  102.99    9.58
   0   9   4  125.19   23.88
   0  -9  -4  135.85   24.04
   0   9   4   98.08    8.95
   0  -9  -4   81.18    5.36
   0   9   4  131.87   18.57
   0   9   4   96.84   10.91
  -8   3  -4   50.44   11.95
   8  -3   4   61.56   11.16
   8  -3   4   56.18   19.17
  -8   3  -4   66.55   13.02
   7   5   7   -6.09   11.42
   7   5   7    4.12   10.47
   7   5   7   -3.89   12.26
  -7  -5  -7    7.24   11.61
   7   5   7    3.09   11.97
   7   5   7    6.48   14.27
  -7  -5  -7  -15.33   13.14
  -2   2 -11   -2.66    7.04
  -2   2 -11    2.50   16.80
   2  -2  11   -4.50   13.18
  -2   2 -11  -18.00   11.39
   2  -2  11   -4.18   13.19
   2  -2  11    3.66    9.05
   0   7   8   94.50   19.34
   0  -7  -8   74.56   20.38
   0  -7  -8   64.87   16.38
   0  -7  -8   84.49   20.81
   0   7   8   61.16   10.09
   9   4  -2  126.25   17.13
  -9  -4   2  114.36   12.57
  -9  -4   2   96.49   11.81
  -6   5   5  357.88   24.70
   6  -5  -5  360.34   25.31
   6  -5  -5  363.31   29.16
  -9   1   2  -18.98   10.75
  -9   1   2    8.34   12.69
   9  -1  -2    3.73   11.99
   4  -4   9   20.11    9.43
  -4   4  -9   16.31   10.39
  -4   4  -9  -10.43   11.18
  -4   4  -9   25.41   17.50
   2  -8   5   49.36    9.08
  -2   8  -5   78.27   21.87
   2  -8   5   49.08   11.22
   2  -8   5   53.95   14.11
  -7  -7   3   16.19    7.56
   7   7  -3   22.14   15.06
  -7  -7   3    1.22   11.40
  -2   7   7   29.91   10.80
   2  -7  -7   -4.80   11.85
   2  -7  -7   26.61   15.26
   2  -7  -7   23.72   20.16
   2  -7  -7   51.36   19.93
   5   9   1  186.18   17.52
   5   9   1  162.54   18.61
   5   9   1  129.23   15.13
  -5  -9  -1  185.58   14.60
   5   9   1  202.45   24.75
   5   9   1  195.22   12.70
   5   9   1  190.77   13.28
   7  -1  -7    2.96   13.79
  -7   1   7   13.01   11.65
  -7   1   7  -11.56   16.76
   7  -1  -7    4.47   14.70
   7  -1  -7   14.98   16.16
  -8  -5   4  313.49   16.38
   8   5  -4  192.61   10.35
   8   5  -4  333.07   19.62
  -8  -5   4  290.35   14.55
  -8  -5   4  320.77   18.03
   5   9   0  180.07   17.41
   5   9   0  140.21   12.06
   5   9   0  138.68   17.93
   5   9   0  174.11   24.95
   5   9   0  122.07   14.70
  -5  -9   0  124.20   13.17
   5   9   0  157.30   11.58
   7   6   6   -7.50    9.47
   7   6   6  -12.61   17.39
  -7  -6  -6    0.24   10.38
   7   6   6   13.89   10.72
   7   6   6  -19.74   11.76
  -9   0   3   37.49   12.80
  -9   0   3   35.16   11.32
  -9   0   3   35.49   13.16
   9   0  -3   26.31   10.74
   9   0  -3   53.43   12.85
   5   7   7   80.84   15.30
   5   7   7  102.94   17.90
   5   7   7   80.71   13.09
  -5  -7  -7   88.02   14.63
  -5  -7  -7   88.12    9.20
   5   7   7  105.71   13.83
   2  -9   0  118.53   24.74
  -2   9   0   84.38   17.85
  -2   9   0  112.95   24.60
   2  -9   0  128.36   13.85
  -2   9   0   99.63   19.61
  -2   9   0   99.37   12.24
  -4   8   0  -11.91   16.82
   4  -8   0   -0.59   10.46
  -4   8   0   -7.28   17.46
   4  -8   0   -1.82   22.15
   4  -8   0   -6.68    7.50
   3  -1  11    6.05    9.71
  -3   1 -11   -4.09   16.80
  -3   1 -11  -22.55   11.51
   3  -1  11  -15.09   13.32
   4  -7   5  -17.05   11.88
   4  -7   5   -7.86   22.26
  -4   7  -5    2.99   14.66
   6   7   6  146.75   14.02
   6   7   6  129.23   19.62
   6   7   6  127.39   17.23
   6   7   6  119.66   10.17
  -6  -7  -6  105.98    8.99
   6   7   6  128.79   13.65
   6   7   6  134.88   14.44
  -9  -3   3  100.81   13.05
  -9  -3   3   91.29   11.60
  -9  -3   3  102.20   12.97
   9   3  -3  125.45   16.39
  -5  -7   6   24.02   10.25
   5   7  -6   36.68   14.50
  -5  -7   6   35.43   15.29
   5   7  -6   31.50   10.79
  -1   8   6    3.82    9.07
   1  -8  -6   16.48   20.00
  -1   8   6   23.63   17.62
   3  -3 -10  380.95   21.34
  -3   3  10  381.25   18.92
   3  -3 -10  410.48   26.97
  -3   3  10  393.97   25.14
   3  -3 -10  365.20   24.45
  -6   4  -7    6.53   15.28
   6  -4   7   13.92   17.09
   6  -4   7   -5.72   12.54
   6  -4   7    8.98    7.29
  -6   4  -7   -9.69   15.95
  -6   4  -7    4.28   12.12
  -1  -9   4  844.14   29.03
  -1  -9   4  865.87   34.74
  -1  -9   4  748.95   29.33
   1   9  -4  878.45   42.08
  -7   5  -3  139.74   17.05
   7  -5   3   96.68   21.80
   7  -5   3  143.19   12.47
  -8  -1  -7   -2.06   14.13
   8   1   7   -3.20   12.32
  -8  -1  -7   11.45   13.39
   8   1   7    1.36   11.14
  -8  -1  -7   -5.64   12.61
  -8  -1  -7    8.29    8.13
   8   2   7   15.05   11.83
  -8  -2  -7    4.60    8.27
   8   2   7   -1.60   11.12
  -8  -2  -7   -0.63   12.90
   8   2   7   18.54   12.31
  -2   7  -7  368.46   16.53
   2  -7   7  189.93    8.09
  -2   7  -7  358.83   24.57
  -2   7  -7  389.87   25.90
   2  -7   7  211.86    8.43
   2  -4 -10   24.10   18.16
   5  -3   9    4.61    9.29
  -5   3  -9   12.47   16.99
  -5   3  -9   14.75   11.26
  -5  -5  -9   50.74   11.15
  -5  -5  -9   47.52   10.35
  -5  -5  -9   30.15   17.01
  -5  -5  -9   57.26   15.35
   5   5   9   51.11   12.21
   5   5   9   42.80   12.44
   5   5   9   73.11   16.53
   0  -5 -10  141.04   18.66
   0   5  10  158.21   14.92
   0  -5 -10  156.34   22.34
   0  -5 -10  176.89   19.36
   0   5  10  133.89   15.33
   0   5  10  153.70   20.91
   8   4  -5   14.60    9.67
  -8  -4   5   16.20   10.84
  -8  -4   5    8.79   11.61
  -8  -4   5    4.82    8.60
   8   4  -5   15.76   14.57
   2  -9  -1   57.68    3.63
  -2   9   1  101.54   19.02
  -2   9   1  110.93   19.81
  -2   9   1   83.48    5.54
   2  -9  -1  122.55   12.74
   4  -8   1   50.43   11.70
   4  -8   1   38.50   22.28
  -4   8  -1   45.99   18.43
   4  -8   1   33.87    7.76
   2   9  -4  269.52   12.53
  -2  -9   4  309.75   20.40
  -2  -9   4  316.46   14.34
  -2  -9   4  264.09   13.34
   2   9  -4  273.43   11.72
   2   9  -4  308.42   27.47
   5  -2  -9   -3.80   13.97
   5  -2  -9    0.79   15.75
   5  -2  -9  -15.53   18.53
  -5   2   9   -7.11   18.04
   1  -9   3  181.76   16.44
   1  -9   3  174.32   25.65
  -1   9  -3  194.95   24.43
  -5   7  -3  198.79   20.07
   5  -7   3  197.47   24.84
   5  -7   3  188.59   14.25
  -5   7  -3  201.32   17.68
   5  -7   3  179.67   11.98
   9   5   1   71.11   16.73
  -9  -5  -1   81.16   12.44
  -6   3  -8   37.83   13.00
   6  -3   8   27.94   14.28
   6  -3   8   38.83   13.03
   6  -3   8   41.54    9.56
  -6   3  -8   55.12   17.70
  -4   8   1   18.68    2.91
  -4   8   1   35.17   17.68
   4  -8  -1   45.14   22.68
  -4   8   1   30.53   12.38
  -4   8   1   17.03    3.02
   4  -8  -1   30.23   10.01
  -4   8   1   44.26   17.83
   6   8   4  254.54   24.24
   6   8   4  299.65   17.27
   6   8   4  223.75   20.30
   6   8   4  278.34   15.98
   6   8   4  266.96   15.87
   6   8   4  265.86   20.13
  -2   9  -1  218.32   22.51
   2  -9   1  233.61   16.72
   2  -9   1  295.93   28.46
  -2   9  -1  207.37   15.19
  -2   9  -1  267.40   27.09
   8   6   4  184.02   14.27
  -8  -6  -4  205.20   16.31
   8   6   4  176.44   22.91
   8   6   4  185.00   13.63
   5   3  10  144.01   15.21
   5   3  10  129.19   18.37
  -5  -3 -10  128.15   17.97
  -5  -3 -10  110.24   12.63
  -5  -3 -10  148.31   17.75
   5   3  10  123.04   13.72
   5   3  10  121.15   15.08
  -8   4   0   41.50   14.39
  -8   4   0   54.17    9.54
  -8   4   0   44.54   16.69
   8  -4   0   50.60   21.79
   7  -1   8   47.38   10.62
  -7   1  -8   63.46   16.68
  -7   1  -8   56.03   13.02
   7  -1   8   19.36    7.94
   7  -1   8   47.01   13.23
  -2  -2  11   28.77    7.79
   2   2 -11    9.68   17.02
   2   2 -11   31.35   12.82
  -2  -2  11    3.06   17.51
  -2  -2  11   22.62   13.50
  -6   6   3  161.02   15.73
  -6   6   3  136.21   19.31
   8  -4   1   16.60   21.75
  -8   4  -1   37.34   15.84
  -8   4  -1   24.95    8.95
  -8   4  -1    9.91   12.79
  -9  -5   0  161.79   13.32
   9   5   0   91.54    9.20
   9   5   0  135.57   17.94
   3  -8   4  120.68   15.11
  -3   8  -4  179.99   16.27
  -3   8  -4  176.20   24.62
   3  -8   4  150.98   13.04
   5  -1  10  203.61   15.10
   5  -1  10  203.88   17.39
  -5   1 -10  224.69   15.08
  -5   1 -10  195.74   16.27
  -5   1 -10  205.60   20.53
   3  -8  -4  489.51   32.45
  -3   8   4  521.26   29.92
  -3   8   4  566.22   23.42
  -3   8   4  518.54   22.56
   3  -8  -4  545.32   22.49
   5   9   2  289.53   25.22
   5   9   2  263.54   20.54
   5   9   2  238.95   14.68
   5   9   2  257.46   18.94
   5   9   2  254.50   14.92
   5   9   2  187.31   16.77
   6   7  -5    5.97   10.73
   6   7  -5   12.65   12.58
  -6  -7   5    3.80   10.63
  -6  -7   5   20.49   15.77
  -4  -6   8  164.61   12.95
   4   6  -8  165.77   14.59
   4   6  -8  174.85   12.90
   4   6  -8  173.91   18.49
  -4  -6   8  168.35   18.01
   6  -2  -8  417.24   24.72
   6  -2  -8  460.24   23.20
   6  -2  -8  402.42   26.38
  -6   2   8  413.65   25.98
  -7  -5   6   86.82    7.15
  -7  -5   6   86.09   11.31
  -7  -5   6  107.72   12.97
   7   5  -6   97.05   14.55
  -7  -5   6   92.54   16.80
   7   5  -6   83.42   13.16
   5   9  -1  188.01    8.86
  -5  -9   1  235.37   15.40
   5   9  -1  236.91   12.30
   5   9  -1  245.13   27.70
   5   9  -1  176.22    8.13
   5   9  -1  189.89   15.68
   5   9  -1  278.88   19.43
   5   9  -1  223.61   13.73
  -9   2  -1   86.56   11.53
  -9   2  -1   65.42   15.14
  -9   2  -1  107.13   15.28
  -4   7   5  546.24   24.40
   4  -7  -5  476.57   32.31
  -4   7   5  594.06   25.00
  -4   7   5  618.25   31.08
   4  -7  -5  561.76   23.67
  -9   2   0    2.47   13.91
  -9   2   0   10.88   10.17
  -9   2   0    5.11   13.86
  -8  -1   6  212.78   17.17
  -8  -1   6  208.04   15.40
   8   1  -6  181.69   15.77
  -8  -1   6  186.34   15.16
  -4   6  -7  116.94   12.22
   4  -6   7  160.47   21.37
   4  -6   7  141.43   14.44
   0   3 -11  178.37   20.94
   0  -3  11  192.46   16.37
   0   3 -11  204.66   19.30
   0   3 -11  212.91   15.83
   3   8  -6  222.57   12.84
  -3  -8   6  218.16   13.05
   3   8  -6  223.75   20.23
  -3  -8   6  206.84   13.83
   3   8  -6  207.81   27.19
  -3  -8   6  204.68   18.71
   7   6  -5  174.49   17.55
  -7  -6   5  123.82    7.93
   7   6  -5  174.64   14.88
  -7  -6   5  169.70   13.75
  -7  -6   5  164.52   18.26
   7   6  -5  154.78   13.35
  -6  -8   3  114.46   12.42
   6   8  -3  101.55   13.63
   6   8  -3  110.21   11.21
  -6  -8   3   86.25    6.27
   1   6  -9  522.29   30.80
  -1  -6   9  449.38   22.87
   1   6  -9  500.12   22.71
   1   6  -9  500.97   28.40
  -9  -5  -2   23.39   11.34
   9   5   2   13.35   12.44
  -9  -5  -2   26.76   12.53
   9   5   2   29.81   16.91
   9   5   2   18.94   11.23
  -2  -8  -7  143.75   21.14
   2   8   7  125.23   14.51
  -2  -8  -7  117.71   10.29
   2   8   7  148.43   13.23
   2   8   7  104.79   11.89
  -2  -8  -7  122.07   16.68
  -2  -8  -7   88.85   21.89
   2   8   7  135.57   19.19
   2   8   7  117.68   14.07
   3   5  10   46.67   13.96
  -3  -5 -10   61.11   11.64
  -3  -5 -10   74.61   19.77
  -3  -5 -10   49.92   11.29
  -3  -5 -10   63.96   16.90
   3   5  10   52.93   12.44
  -9  -2  -5   26.54   12.71
  -9  -2  -5   13.56   10.29
   9   2   5   25.80   11.25
   9   2   5   17.62   11.71
   9   2   5   22.98   11.52
  -9  -2  -5   12.48   14.31
  -9  -2  -5   14.80   12.57
   0   9  -4   20.78   22.03
   0  -9   4   33.55   14.28
   0  -9   4   15.17    8.99
   0   6  -9  504.08   21.76
   0  -6   9  492.62   22.81
   0   6  -9  503.00   29.31
   0  -6   9  488.14   24.09
   0   6  -9  524.70   29.49
  -4  -9   3    1.71   15.20
  -4  -9   3    3.78    9.42
   4   9  -3   24.61   23.83
   4   9  -3    2.71    6.05
  -8  -2   6  179.19   15.13
  -8  -2   6  234.70   17.01
   8   2  -6  224.03   16.20
   8   2  -6  186.74   15.76
  -8  -2   6  210.78   15.72
  -5   7   3  295.30   18.66
  -5   7   3  322.72   23.29
  -5   7   3  279.42   22.90
   9   1   5   49.96   12.59
  -9  -1  -5   31.09   12.75
  -9  -1  -5   55.06   12.23
   9   1   5   36.49   11.78
  -9  -1  -5   37.13   14.81
   1   8   7  180.39   14.99
   1   8   7  180.97   14.16
   1   8   7  182.29   20.49
  -1  -8  -7  173.63   11.80
  -1  -8  -7  194.24   23.81
  -1  -8  -7  200.77   22.93
   4   9   4    6.41   11.03
   4   9   4    4.06   15.90
   4   9   4   -3.62    6.21
   4   9   4    2.75   10.25
   1  -8   6  227.81   18.84
  -1   8  -6  219.23   11.60
   1  -8   6  212.44   14.71
  -1   8  -6  218.64   24.62
   1  -8   6  230.25   13.05
  -9  -4  -4   10.17   13.42
  -9  -4  -4   22.09   12.61
   9   4   4   32.93   12.47
  -9  -4  -4   23.64   12.70
   9   4   4   41.47   11.04
  -8   4   1  -18.82   14.71
   8  -4  -1   12.68   22.47
  -8   4   1   -6.68   16.28
  -8   4   1   -0.67    8.78
  -4  -7   7   15.02   15.16
   4   7  -7   28.10   16.46
  -4  -7   7    9.57    9.92
   4   7  -7   43.00   24.02
   4   7  -7   17.37    9.23
   2  -2 -11  242.66   21.99
  -2   2  11  246.49   22.69
  -2   2  11  224.43   15.61
   2  -2 -11  273.29   16.61
   1  -6  -9   46.25   18.89
   1  -6  -9   56.09   17.27
  -1   6   9   33.39    7.85
  -1   6   9   45.49   19.08
   4  -5  -8  462.39   26.10
   4  -5  -8  457.34   23.41
   4  -5  -8  414.76   30.08
   4  -5  -8  446.22   28.76
  -4   5   8  436.73   27.61
  -4   5   8  464.88   22.00
   3   4 -10  318.44   17.78
   3   4 -10  262.64   22.19
  -3  -4  10  252.93   19.35
   8   0   7   77.24   13.62
   8   0   7   73.40   11.66
  -8   0  -7   81.33   15.66
  -8   0  -7   85.07   14.17
   8   0   7   73.14   12.68
   8   0   7   53.54   12.88
  -8   0  -7   98.78   16.57
   2   9   5  353.04   18.67
   2   9   5  397.75   19.81
   2   9   5  389.10   19.91
   2   9   5  365.23   24.23
   2   9   5  438.73   27.94
   2   9   5  324.97   25.49
  -2  -9  -5  360.73   28.89
   2   9   5  350.50   14.26
  -3   5  -9    9.36   17.76
  -3   5  -9  -13.12    9.58
  -3   5  -9    8.42   15.92
  -3   5  -9   -9.99   10.05
   3  -5   9  -16.40   13.08
   8  -4   2   58.00   11.71
   8  -4   2   55.84   22.33
  -8   4  -2   39.20   13.26
  -8   4  -2   64.94    9.42
   1  -3 -11   36.22   11.74
   1  -3 -11   21.27   17.11
  -1   3  11   35.02   12.61
   3   3  11   61.91   14.43
  -3  -3 -11   72.13   12.60
  -3  -3 -11   61.52   12.25
   3   3  11   55.84   11.74
   3   3  11   81.05   19.15
  -3  -3 -11   70.99   17.43
   3   3  11   71.16   15.11
  -8  -3  -7  165.77   15.26
   8   3   7  141.70   16.29
   8   3   7  220.86   15.98
  -8  -3  -7  150.34   12.45
   8   3   7  201.08   15.49
   8   3   7  152.12   14.87
  -6  -4  -9   19.28   15.00
   6   4   9  -12.36   11.71
  -6  -4  -9  -18.24   11.53
   6   4   9   -7.58   15.00
   6   4   9    1.99   12.40
  -2   9   2  148.70   19.88
  -2   9   2  108.70    8.50
  -2   9   2  145.10   20.77
   2  -9  -2  139.82   25.38
   4  -8   2   70.36    8.60
   4  -8   2   77.66   13.35
  -4   8  -2   74.75   18.48
   4  -8   2   92.02   24.28
  -4   8  -2   64.15   14.05
   6   4  -8   67.00   14.26
  -6  -4   8   57.56   12.24
  -6  -4   8   35.11    4.90
   6   4  -8   40.87   14.80
  -6  -4   8   60.34   15.27
  -1  -3  11  417.48   16.73
   1   3 -11  379.02   26.06
   1   3 -11  452.40   21.86
  -1  -3  11  411.08   22.08
  -1   3 -11  -11.99   12.26
   1  -3  11   -1.14   13.93
   1  -3  11  -10.02   13.97
  -1   3 -11    2.77   13.82
  -1   3 -11  -28.83   11.67
  -8  -6   3   93.67   10.65
   8   6  -3  127.16   17.20
  -8  -6   3  120.33   13.74
  -8  -6   3  127.95   11.31
  -8  -6   3  143.49   11.41
  -9   2  -2  247.53   14.98
  -9   2  -2  239.46   18.31
  -9  -5   1  153.75   13.79
  -9  -5   1  191.72   13.57
   9   5  -1  169.03   18.70
  -7  -4  -8   20.69   13.83
   7   4   8   13.16    9.25
   7   4   8   18.15   12.38
   1   7  -8  388.79   18.73
  -1  -7   8  359.43   20.06
   1   7  -8  394.03   28.21
   1   7  -8  373.05   17.24
  -1  -7   8  375.77   16.79
   1   7  -8  381.50   25.23
  -7   3   6  291.58   22.74
   7  -3  -6  334.20   23.27
  -1  -9  -5  122.54   24.43
   1   9   5  129.40   12.64
   1   9   5  149.49   19.59
   1   9   5  165.14   23.93
   1   9   5  145.09   13.20
  -1  -9  -5  121.33    7.39
   1   9   5  142.92    9.77
   1   9   5  122.34   20.18
  -9   2   1   18.66   14.28
  -9   2   1    0.56   13.70
  -9   2   1    4.53   10.15
  -4   8   2   37.91   18.56
  -4   8   2   -2.81   18.22
  -4   8   2   -4.08   12.95
   4  -8  -2   17.54    7.80
   2  -9   2  688.56   33.17
  -2   9  -2  669.96   27.92
  -2   9  -2  658.90   37.06
   2  -9   2  616.31   21.35
  -2   9  -2  679.06   34.48
  -6   5  -6   -2.45   11.80
   6  -5   6  -26.62   11.01
   6  -5   6    7.17   18.82
  -6   5  -6   -6.62   15.81
   6  -5   6  -11.66   12.45
   3   9  -4   98.83    5.45
  -3  -9   4  131.94   16.97
  -3  -9   4  144.41   11.04
  -3  -9   4  106.97    7.97
   3   9  -4   78.28    4.15
   4   1  11   30.86   14.24
   4   1  11   35.23   11.45
   4   1  11   29.51   16.94
  -4  -1 -11   39.51   11.68
  -4  -1 -11   27.77   17.28
   4   3 -10   16.73   17.21
  -4  -3  10   16.46   13.98
   4   3 -10   20.47   11.68
  -4  -3  10   13.45    5.55
  -4  -3  10    0.23   16.89
   4   3 -10   18.51   13.56
   8   0  -6   -5.96   13.21
  -8   0   6    3.26   11.16
  -8   0   6   -5.61   15.08
  -8   0   6  -14.78   11.55
   8   0  -6    8.30   14.46
  -9   1  -4    9.23   14.57
  -9   1  -4  -12.56   11.44
   9  -1   4   -1.98    9.94
  -9   1  -4  -11.57   12.77
   9  -1   4   -8.89   11.73
   9  -1   4  -10.61   10.85
  -4  -6  -9   27.27   10.28
   4   6   9   25.82   11.65
  -4  -6  -9   15.34   18.38
   4   6   9   11.58   12.62
  -4  -6  -9   22.42   10.13
  -4  -6  -9   24.22   15.08
   4   6   9   21.16   13.79
   4   6   9   32.90   16.31
  -3   6  -8  236.12   14.44
   3  -6   8  201.49   10.24
  -3   6  -8  238.05   22.37
   4  -2 -10   13.02   13.94
  -4   2  10   17.47    9.26
  -4   2  10    4.60   11.96
  -4   2  10   30.45   18.38
   4  -2 -10   28.96   16.62
  -7   5   3  222.33   21.24
  -7   5   3  190.40   12.62
  -7   5   3  236.95   17.72
   7  -5  -3  217.97   27.33
   6  -6   4  157.52   23.52
   6  -6   4  206.22   15.39
   6  -6   4  216.95   13.48
  -6   6  -4  226.03   19.15
   5  -5  -7  134.35   21.44
   5  -5  -7  130.71   18.21
  -5   5   7  131.09   20.70
   5  -5  -7  129.00   24.52
   5  -5  -7  101.39   15.57
  -5   5   7  138.89   14.38
   0   7  -8   35.11   18.31
   0  -7   8   16.95   12.44
   0  -7   8   53.88   15.36
   0   7  -8   50.38    8.96
   0  -7   8   52.81   11.34
   0  -7   8   46.33    8.46
   0   7  -8   41.69   20.96
   7   8   1  205.71   15.03
  -7  -8  -1  171.48   15.95
   7   8   1  240.35   19.46
   7   8   1  173.32   10.50
   7   8   1  192.83   24.08
   7   8   1  138.08   18.40
   7   8   1  104.45    8.45
   7   8   1  179.84   12.00
   4   5  -9  368.29   21.48
   4   5  -9  427.94   24.83
  -4  -5   9  393.16   22.89
   4   5  -9  451.56   20.32
   5  -4  -8  836.98   38.13
  -5   4   8  869.36   39.10
  -5   4   8  860.74   34.71
   5  -4  -8  905.36   35.82
   5  -4  -8  859.30   40.13
   3   8   7  438.80   27.31
  -3  -8  -7  404.38   17.91
   3   8   7  429.40   19.05
  -3  -8  -7  456.14   23.77
   3   8   7  412.88   19.96
   3   8   7  405.58   22.07
   3   8   7  461.02   21.28
   3   8   7  465.29   25.51
   3   8   7  439.14   22.66
  -4  -7  -8  128.86   20.51
  -4  -7  -8  117.24   10.82
   4   7   8  102.96   12.29
   4   7   8  100.88   19.28
   4   7   8  129.04   14.96
   4   7   8  117.87   13.89
   4   7   8  121.21   17.94
  -4  -7  -8  128.94   11.38
   4   7   8  108.50   13.37
  -4  -7  -8  127.57   17.07
   5  -6   6  -21.69   12.39
   5  -6   6    5.26   20.32
  -5   6  -6   -4.84   15.65
  -5   6  -6  -11.12   11.00
   2   6  -9  127.08   13.41
   2   6  -9  117.80   23.87
   2   6  -9  155.29   19.81
  -2  -6   9   99.69   14.55
  -2  -6   9  123.72   17.16
   9   3   5   93.26   12.81
   9   3   5  109.79   12.87
   9   3   5   98.18   13.71
  -9  -3  -5   74.34   15.03
  -9  -3  -5   78.62   14.51
  -9  -3  -5  123.24   14.25
   7   8   0  370.96   29.24
   7   8   0  292.08   14.87
   7   8   0  366.25   17.81
   7   8   0  321.42   21.69
  -7  -8   0  342.60   19.45
   7   8   0  335.27   14.05
   7   8   0  375.87   22.58
  -8  -7  -1  274.24   15.25
   8   7   1  274.94   16.97
  -8  -7  -1  241.87   16.66
   8   7   1  221.58   14.14
   9   1  -4   62.32   12.88
   9   1  -4  101.63   13.71
  -9  -1   4   97.54   13.36
  -9  -1   4  124.71   13.89
  -9  -1   4  102.99   13.32
  -3   0  11  351.44   19.70
  -3   0  11  423.67   25.83
  -3   0  11  355.76   18.10
  -9  -2   4  158.39   13.19
  -9  -2   4  163.27   13.36
  -9  -2   4  153.48   14.55
  -9  -2   4  175.77   14.83
   9   2  -4  157.54   16.13
   7   7   5    0.88    9.92
   7   7   5   12.40   19.49
   7   7   5   -5.15   12.72
   7   7   5   -3.92   16.50
   7   7   5  -18.10   11.63
   4   0  11    2.31   10.26
   4   0  11    2.81   14.37
  -4   0 -11  -12.19   17.20
   4   0  11   -1.12   13.61
   0   5 -10  270.41   23.03
   0  -5  10  287.77   19.38
   0   5 -10  317.74   17.64
   0  -5  10  282.71   18.18
   0   5 -10  256.51   16.21
   0   5 -10  296.28   23.69
   5   9   3  160.95   18.38
   5   9   3  182.54   13.29
   5   9   3  156.91   12.96
   5   9   3  166.49   21.21
   5   9   3  160.67   16.66
  -4   3 -10  108.60   19.67
   4  -3  10  103.25   15.25
  -4   3 -10   93.10   12.22
   4  -3  10   95.25   11.65
  -4   3 -10  101.97   12.99
   1  -7  -8  114.69   21.61
  -1   7   8   99.82   19.79
  -1   7   8   62.38    6.83
  -1   7   8   88.17   11.48
   1  -7  -8  122.46   18.18
  -8   2   5   45.15   11.48
   8  -2  -5   55.27   15.99
  -8   2   5   41.52   16.34
  -8  -7   0  226.66   16.83
   8   7   0  279.89   21.11
  -8  -7   0  249.59   15.21
   8   7   0  249.37   16.83
  -8  -7   0  233.77   11.72
  -7   4   5  307.25   18.67
   7  -4  -5  238.62   21.64
   9  -1  -3   18.10   11.84
  -9   1   3   -7.35   13.73
   9  -1  -3    9.77   11.65
  -9   1   3   10.51   11.02
  -9   1   3   22.61   13.07
   4  -6  -7  433.43   30.78
   4  -6  -7  505.72   23.56
   4  -6  -7  462.69   29.88
  -4   6   7  480.14   22.72
   3   9   5  361.55   23.73
   3   9   5  327.08   16.83
   3   9   5  379.86   18.50
   3   9   5  356.19   16.66
   3   9   5  351.71   23.59
  -1   9   4   -1.89    8.59
  -1   9   4   -0.88    9.42
  -1   9   4    0.71   18.54
   1  -9  -4  -11.40   21.77
  -1   9   4   16.91   17.37
  -1   9   4    2.31    9.43
   1   5 -10   13.75   17.50
   1   5 -10  -27.19   20.62
  -1  -5  10  -18.43   13.85
  -1  -5  10   21.77   14.91
   1   5 -10   -1.54   11.86
   8  -2   6   22.14   13.00
   8  -2   6    0.68   10.87
  -8   2  -6   17.45   15.58
   8  -2   6   26.20    9.43
  -8   2  -6   12.87   13.28
  -8   2  -6   17.87   15.67
   3   1 -11  227.09   21.53
  -3  -1  11  242.18   22.15
  -3  -1  11  230.52   13.58
   3   1 -11  272.20   16.86
   3   1 -11  235.72   18.82
  -3  -1  11  221.41   17.12
   4  -4  -9   94.05   20.83
   4  -4  -9   61.93   14.87
  -4   4   9   63.43   19.60
   4  -4  -9   82.62   18.01
  -4   4   9   70.76   12.96
   9   4  -3   20.92   15.34
  -9  -4   3   -0.13   10.81
  -9  -4   3   -3.33    9.88
  -9  -4   3   -9.85   10.65
   7   4  -7   85.07   14.43
  -7  -4   7   63.47    7.82
  -7  -4   7   71.61   11.82
  -7  -4   7   69.15   12.29
  -7  -4   7   83.89   16.31
   1  -5 -10  -10.06   17.90
   1  -5 -10   10.43   16.31
  -1   5  10   -9.20   19.63
   5   4  -9   17.16   15.61
  -5  -4   9   30.99   14.81
   5   4  -9   40.23   13.82
   2   7  -8  828.13   40.99
  -2  -7   8  763.63   31.02
  -2  -7   8  744.63   28.74
   2   7  -8  783.62   30.88
   2   7  -8  811.27   36.58
  -1   6  -9  332.27   24.65
  -1   6  -9  344.84   23.99
   1  -6   9  303.04   19.34
  -1   6  -9  345.50   16.36
  -1   6  -9  286.93   13.44
   1  -6   9  337.31   18.86
  -9  -5  -3  -21.60   12.78
  -9  -5  -3   -5.23   11.70
   9   5   3  -15.81   12.57
   9   5   3    4.96   16.49
   9   5   3   -5.61   10.39
  -5  -9   2   52.97   16.49
   5   9  -2   37.90   15.43
   5   9  -2   24.91    4.89
  -5  -9   2   17.51   10.68
   5   9  -2   25.53    5.99
   5   9  -2   40.51    7.83
  -9   0  -5   12.84   12.07
  -9   0  -5    6.88   14.58
  -9   0  -5   33.11   13.54
   9   0   5   15.99   10.75
   9   0   5   21.93   12.37
   4   2  11  157.20   16.16
   4   2  11  150.76   13.82
   4   2  11  126.22   16.51
  -4  -2 -11  154.68   13.75
   4   2  11  168.71   15.84
  -4  -2 -11  140.09   19.14
   4   2  11  110.79   20.07
   3  -2  11   -7.08   13.52
  -3   2 -11   -4.92   11.28
   3  -2  11   17.62   13.98
  -3   2 -11   32.37   17.91
   0  -8  -7   52.45   20.66
   0  -8  -7   34.33   21.06
   0   8   7   31.96    9.28
  -3   5   9  483.04   22.73
   3  -5  -9  522.98   28.84
   3  -5  -9  517.30   24.83
   3  -5  -9  477.45   30.49
  -3   5   9  491.32   28.90
   3  -5  -9  507.15   31.04
   8   3  -6  247.87   17.21
   8   3  -6  341.84   19.16
  -8  -3   6  329.64   18.26
  -8  -3   6  335.54   18.84
  -8  -3   6  309.43   15.55
  -3   6   8  468.87   28.83
   3  -6  -8  511.86   23.93
   3  -6  -8  508.57   30.85
   3  -6  -8  461.70   30.45
  -3   6   8  495.01   22.66
  -6   2  -9   19.57   12.71
   6  -2   9    8.70   10.05
  -6   2  -9   38.70   17.35
   7  -3   7   30.77   11.59
  -7   3  -7   35.50   13.28
  -7   3  -7   22.33   17.40
   7  -3   7   35.37   16.37
   7  -3   7   38.12    8.94
   7   8   2   18.54   15.32
   7   8   2   -8.53    8.25
   7   8   2   24.45    6.94
   7   8   2   31.69   19.85
   7   8   2   41.26   16.56
   7   8   2   -0.33   12.57
  -7  -8  -2    9.10   13.22
   7   8   2    2.57    9.61
  -8  -5  -6   33.32    9.74
  -8  -5  -6   42.17   13.79
   8   5   6   43.56   12.07
   8   5   6   59.23   13.15
   8   5   6   54.08   18.54
   8   5   6   38.18   11.71
   8   5   6   39.15   10.91
   7  -5   4  301.33   25.92
   7  -5   4  350.76   19.16
  -7   5  -4  373.99   22.75
   7  -5   4  319.79   17.27
  -7   5  -4  339.78   22.33
   8  -3  -4   35.25   15.25
  -8   3   4   29.73   10.59
   8  -3  -4   26.06    6.32
   1   4  11  198.18   17.06
   1   4  11  167.31   15.31
   1   4  11  185.05   21.49
  -1  -4 -11  172.26   22.21
  -1  -4 -11  164.00   16.79
  -1  -4 -11  172.94   20.06
  -1  -4 -11  224.22   15.60
  -8  -7  -2  380.64   19.86
   8   7   2  404.84   20.34
  -8  -7  -2  357.90   21.28
   8   7   2  260.60   20.68
   8   7   2  361.10   27.09
   8   7   2  310.22   16.95
   8   7   2  403.33   17.64
  -8   4   2  176.81   19.57
  -8   4   2  125.03   11.90
  -8   4   2  155.70   16.36
   8  -4  -2  135.43   11.39
   5   8   6   51.84   13.00
   5   8   6  100.10   20.22
   5   8   6   22.03   14.66
   5   8   6   71.36   12.58
   5   8   6   93.05   14.91
   3  -4  10  131.98   15.22
  -3   4 -10  154.50   20.66
  -3   4 -10  120.42   12.38
  -3   4 -10  125.84   15.74
   3  -4  10  119.52   15.23
  -3   4 -10  139.18   12.85
   7  -2  -7  393.69   22.23
   7  -2  -7  338.36   24.54
  -7   2   7  401.94   25.37
   7  -2  -7  409.94   23.40
  -6  -1   9  273.71   16.78
  -6  -1   9  222.06   16.80
  -6  -1   9  266.93   21.64
   6   1  -9  250.18   19.15
   6   1  -9  241.20   20.00
   8  -3   5    6.50    8.49
  -8   3  -5   -1.24   12.56
   8  -3   5   -5.97   10.87
   8  -3   5   18.81   17.77
  -8   3  -5  -14.31   11.64
   5  -7   4  404.32   30.21
   5  -7   4  410.39   19.02
  -5   7  -4  479.33   25.34
   5  -7   4  458.78   21.24
   7   8  -1  669.17   35.57
   7   8  -1  457.80   18.66
  -7  -8   1  671.12   28.59
   7   8  -1  735.26   24.07
  -8   4  -3  125.62   10.76
   8  -4   3   95.67   22.12
   8  -4   3  125.32   12.87
  -8   4  -3   99.31   14.70
  -9   2  -3   96.10   12.38
   9  -2   3   99.03   12.85
  -5  -8   5  348.54   18.05
   5   8  -5  317.39   16.08
   5   8  -5  299.60   20.31
   5   8  -5  335.11   30.29
  -2  -4 -11   33.63   12.10
  -2  -4 -11    7.99   12.58
   2   4  11    4.58   11.77
   2   4  11   39.59   18.65
  -2  -4 -11    5.39   11.58
  -2  -4 -11   30.44   18.84
  -2  -4 -11   18.82   16.71
   2   4  11   -6.61   14.54
   3  -1 -11  285.69   19.54
  -3   1  11  239.28   16.24
  -3   1  11  295.66   23.73
   0  -9  -5    8.74   22.55
   0   9   5   23.93    8.81
   0  -9  -5    9.51    6.34
   0   9   5   24.45   18.20
   0   9   5    5.38   10.62
   0   9   5    8.30    8.16
  -7  -7   4   -2.10   11.86
   7   7  -4   26.58   15.70
  -7  -7   4   28.96   16.24
   7   7  -4    9.73   10.87
  -8  -7   1   47.67   10.66
  -8  -7   1   36.07    7.63
   8   7  -1   56.66   16.56
  -8  -7   1   31.68   12.68
  -1   5 -10  496.84   22.20
   1  -5  10  508.90   24.69
  -1   5 -10  533.07   29.78
   1  -5  10  500.10   25.31
  -1   5 -10  482.97   27.05
   9   0  -4   76.05   12.66
  -9   0   4   59.12   14.42
  -9   0   4   86.11   13.93
   9   0  -4   57.89   13.26
  -9   0   4   87.17   12.60
  -1   9  -4  -18.64   22.01
   1  -9   4    4.22    9.55
   1  -9   4   11.88   13.81
  -2  -3  11  196.22   10.12
  -2  -3  11  213.78   18.08
   2   3 -11  231.88   16.46
   2   3 -11  186.97   21.07
  -2   3 -11   35.00   18.62
  -2   3 -11   44.61   11.72
  -2   3 -11   38.03   11.73
   2  -3  11   41.09   14.32
   2  -3  11   55.94   14.47
  -9  -5   2  124.76   12.83
  -9  -5   2  147.16   12.22
   9   5  -2  151.25   18.39
  -9  -5   2  136.37   12.30
  -9   2   2   11.58   10.93
  -9   2   2   55.43   13.97
   9  -2  -2   30.93   11.77
  -9   2   2   40.16   15.22
   7  -4   6  -17.50   12.85
   7  -4   6  -12.92   11.22
  -7   4  -6  -12.01   12.73
   7  -4   6   -1.67    7.04
  -7   4  -6  -14.01   15.84
   7  -4   6   18.34   18.01
  -9  -3   4  239.48   15.54
  -9  -3   4  203.45   16.33
  -9  -3   4  260.95   16.04
   9   3  -4  254.66   18.95
  -9  -3   4  221.20   14.38
  -2   9   3    2.03   11.00
   2  -9  -3  -10.71   22.74
  -2   9   3   -1.37    8.26
  -2   9   3    0.28   18.38
  -2   9   3  -28.70   18.85
   6   0  -9  146.61   18.20
  -6   0   9  135.40   13.91
  -6   0   9  116.05   13.38
  -6   0   9  129.02   19.96
   4  -8   3  363.29   29.45
   4  -8   3  299.29   19.02
  -4   8  -3  386.50   21.96
   5   4  10  124.77   15.56
   5   4  10   89.64   13.63
   5   4  10  142.32   18.47
   5   4  10  104.38   14.53
  -5  -4 -10  103.94   18.88
  -5  -4 -10  112.31   12.69
  -1   7  -8   28.25    6.77
   1  -7   8   44.61   15.31
  -1   7  -8   33.03   20.06
   1  -7   8   20.28   11.53
   1  -7   8   35.49    7.15
  -1   7  -8   14.80   18.91
  -1   7  -8   33.35    8.72
   2  10   0  -15.87   16.62
   2  10   0   13.05   23.68
   2  10   0   10.84   19.69
   2  10   0   24.00    8.74
  -2 -10   0   34.89   15.43
   2  10   0   18.21   10.30
   0  -4 -11  325.20   17.03
   0   4  11  268.56   17.61
   0   4  11  262.09   18.95
   0  -4 -11  270.05   22.66
   0  -4 -11  260.33   24.16
   0  -4 -11  237.82   20.38
   8   6   5   77.81   12.64
   8   6   5   98.05   10.34
  -8  -6  -5   65.15   14.45
   8   6   5   60.60   18.27
   8   6   5   84.71   12.01
   8   6   5  109.75   21.12
  -5   2 -10  111.84   19.27
  -5   2 -10   89.70   13.99
  -5   2 -10  102.53   12.97
   5  -2  10   82.24   12.50
  -6   4   7  546.27   30.05
   6  -4  -7  534.75   31.08
   6  -4  -7  570.59   26.83
   6  -4  -7  577.75   29.03
  -6   4   7  546.40   25.17
  -6   6   4  427.92   26.88
  -6   6   4  417.32   22.15
   6   8   5  386.87   22.84
   6   8   5  409.14   20.48
   6   8   5  381.64   19.48
   6   8   5  294.20   18.84
   6   8   5  337.90   26.41
   2  10   1  145.43   19.28
   2  10   1  168.85   26.11
   2  10   1  167.52   13.59
   2  10   1  178.43   22.14
   2  10   1  168.85   11.77
   2   5 -10   45.10   18.04
   2   5 -10   30.18   21.62
   2   5 -10   29.49   12.56
  -2  -5  10   44.49   15.70
  -8   1  -7   73.30   16.81
   8  -1   7   68.90   11.03
   8  -1   7   64.39   13.98
  -8   1  -7   75.88   16.96
  -8   1  -7   78.12   14.46
   8  -1   7   42.90   14.72
   8  -1   7   56.07   12.67
  -4  -5 -10   10.90   10.77
  -4  -5 -10    1.01   15.95
  -4  -5 -10   -7.91   18.71
   4   5  10   -0.19   11.32
   4   5  10    9.25   12.63
   4   5  10    8.25   17.40
  -4  -5 -10    5.84   10.86
   4   5  10  -14.59   13.62
  -6  -2   9  303.27   19.88
  -6  -2   9  359.08   23.04
   6   2  -9  359.67   21.97
  -6  -2   9  352.69   18.85
   3   2 -11   72.97   18.35
  -3  -2  11   99.50   19.98
  -3  -2  11   87.24   15.25
  -3  -2  11   85.80    9.15
   3   2 -11  108.97   13.52
   1  10   0  114.98   18.52
   1  10   0  133.95    8.74
   1  10   0  112.92   21.89
  -1 -10   0  144.57   17.04
   2  -8  -6  691.27   36.60
  -2   8   6  746.51   29.33
  -2   8   6  747.60   36.05
  -4   1 -11   -6.04   11.52
  -4   1 -11   17.67   17.73
  -4   1 -11    3.16   12.21
   4  -1  11   20.34   10.61
   4  -8  -3  267.24   15.33
  -4   8   3  266.01   17.49
  -4   8   3  322.45   24.03
  -4   8   3  304.30   23.90
  -2   9  -3  462.99   31.87
  -2   9  -3  473.51   22.52
   2  -9   3  525.74   32.13
   2  -9   3  445.91   21.30
   8   4   7  105.44   14.22
   8   4   7   82.09   16.49
   8   4   7   72.66   13.00
   8   4   7   78.48   13.05
  -8  -4  -7  105.39   15.05
   8   4   7   96.29   12.91
  -7  -1   8  302.36   21.26
  -7  -1   8  272.10   17.69
   7   1  -8  247.19   18.94
   7   1  -8  220.76   18.53
   8  -1  -6   11.16   15.42
   8  -1  -6   -1.80   13.40
  -8   1   6   -0.88   11.51
  -8   1   6  -31.06   16.84
  -8   1   6    4.16   11.29
   4   8  -6  242.02   28.78
   4   8  -6  234.89   19.61
  -4  -8   6  213.25   14.39
  -4  -8   6  234.56   14.11
   7   1   9   34.74   12.15
  -7  -1  -9   27.13   13.99
  -7  -1  -9   37.91   15.87
   7  -2   8   86.18   11.18
   7  -2   8   56.48   12.79
  -7   2  -8   85.04   18.40
  -7   2  -8   98.54   14.31
   1  10   1  105.99   18.68
   1  10   1  140.33   24.55
   1  10   1  138.63    9.57
  -1 -10  -1  115.77   25.15
   1  10   1  123.75   21.67
   5  -6  -6   81.14   23.30
   5  -6  -6   74.64   13.98
   5  -6  -6   58.11   20.67
  -5   6   6   69.71   12.42
  -1  -9   5  484.28   20.99
   1   9  -5  530.84   33.33
  -1  -9   5  537.63   26.52
  -1  -9   5  496.29   19.30
  -5  -1  10  363.29   20.45
   5   1 -10  412.58   23.48
  -5  -1  10  442.73   26.09
  -7  -2  -9   39.40   15.72
   7   2   9   58.72   11.90
  -7  -2  -9   53.54   14.23
  -7  -2  -9   59.23   14.52
   7   2   9   50.38   12.73
  -6  -1 -10   16.09   11.96
   6   1  10   14.42   12.30
  -6  -1 -10    2.18   16.49
  -6  -1 -10   22.40   13.59
   6   1  10   23.20   11.16
  -6  -6  -8   99.63   18.30
   6   6   8   78.73   14.00
  -6  -6  -8  107.74   15.50
   6   6   8   95.72   15.98
  -8  -5   5  260.88   16.59
   8   5  -5  204.01   13.38
   8   5  -5  272.91   19.60
  -8  -5   5  260.30   15.16
  -8  -5   5  210.40   12.48
   5  -3  -9  463.33   26.36
   5  -3  -9  475.83   24.50
   5  -3  -9  400.65   27.93
  -5   3   9  416.41   21.99
  -5   3   9  457.49   27.62
   1   8  -7   -3.46   22.49
   1   8  -7   -2.98   10.18
   1   8  -7   -3.95    7.81
  -1  -8   7   10.01    8.14
  -1  -8   7   11.10   15.28
   1   8  -7   -4.45   17.93
   5  -7  -4  272.32   16.89
  -5   7   4  275.02   18.18
   5  -7  -4  227.57   27.12
  -5   7   4  296.45   23.69
   7   8   3    5.20   14.86
   7   8   3   -2.70    8.01
   7   8   3    4.71   16.35
   7   8   3   12.89    7.66
  -7  -8  -3  -15.56   12.99
   7   8   3    9.95   20.77
   7   8   3  -22.41   12.52
   7   8   3  -29.26   10.92
   1   0  12   58.97   11.29
   1   0  12   46.67   15.01
   1   0  12   24.43   19.71
  -1   0 -12   32.24   18.15
  -1   0 -12   72.14   13.20
   3  -8   5    8.53   13.80
  -3   8  -5    0.31   22.03
   3  -8   5  -15.14   11.36
   3  -8   5  -10.66   23.79
   8   7   3  240.81   15.02
   8   7   3  242.89   26.37
   8   7   3  194.57   17.63
   8   7   3  270.68   22.35
   8   7   3  277.36   17.96
  -8  -7  -3  287.24   17.98
  -8  -7  -3  235.82   18.56
   8   7   3  265.05   15.81
   2   9  -5  193.10   25.53
  -2  -9   5  235.79   19.25
   2   9  -5  132.56    6.70
  -2  -9   5  188.20   11.96
   2   9  -5  179.29   10.53
   0   0  12   23.80   10.13
   0   0 -12   29.02   12.94
   0   0  12    8.90   14.28
  -5   0  10  176.77   14.93
   5   0 -10  178.05   19.54
  -5   0  10  155.71   14.31
  -5   0  10  168.74   20.77
   2  10  -1   63.01   20.86
  -2 -10   1   62.42   16.00
   2  10  -1   20.94   16.21
   2  10  -1   55.47   10.27
   4   8   7   85.58   16.94
   4   8   7   84.97   16.08
   4   8   7   51.13   11.75
   4   8   7   83.84   20.24
   4   8   7   71.33   12.94
  -4  -8  -7   66.00   15.33
   4   8   7   71.87    9.73
   4   8   7   68.85   13.72
  -3   7  -7  273.27   15.13
  -3   7  -7  278.23   25.16
   3  -7   7  299.00   18.15
  -3   8   5  643.50   26.12
   3  -8  -5  602.62   25.18
   3  -8  -5  620.88   35.46
  -3   8   5  600.64   25.58
   6   8  -4  152.99   18.30
  -6  -8   4  168.81   14.30
   6   8  -4  139.79   12.47
   6   8  -4  165.29   15.31
  -9  -4  -5    0.70   13.21
   9   4   5    3.09   12.29
  -9  -4  -5    1.35   13.43
  -9  -4  -5    3.41    3.45
  -9  -4  -5   -0.64   13.84
   9   4   5    7.13   11.62
   9   4   5   17.00   10.94
   2  -8   6  168.85   17.62
  -2   8  -6  189.60   23.81
   2  -8   6  195.16   14.86
   2  -8   6  189.43   12.97
  -7  -2   8  146.44   17.93
  -7  -2   8  109.06   13.57
  -7  -2   8  105.46   15.62
   7   2  -8  114.10   15.97
   7   2  -8  124.28   16.37
  -1  -1 -12   96.59   19.52
   1   1  12   77.24   20.49
  -1  -1 -12  112.92   13.96
   1   1  12  108.09   12.53
  -1  -1 -12   62.78    9.15
   4  -7   6  -10.88   21.97
  -4   7  -6   21.66   10.61
   4  -7   6  -12.48   12.64
   4   9  -4   -9.59   14.41
   4   9  -4   14.23   24.70
  -4  -9   4   -2.40    9.92
  -4  -9   4    0.25   15.68
   3   6  -9   22.54   11.81
   3   6  -9   15.98   17.06
  -3  -6   9   14.13   15.06
   3   6  -9   10.87   22.85
  -1 -10   1  170.42   17.61
   1  10  -1  122.99   18.50
  -6  -2 -10   -5.86   15.99
   6   2  10  -18.95   11.52
  -6  -2 -10  -13.32   11.97
  -6  -2 -10    5.47   13.71
   6   2  10   -4.28   12.50
   2  -3 -11    1.81   18.81
  -2   3  11   17.26   18.95
  -4  -3 -11  187.08   20.07
  -4  -3 -11  188.53   15.09
  -4  -3 -11  186.41   21.56
   4   3  11  185.68   20.87
   4   3  11  146.74   14.64
   4   3  11  160.83   16.87
   4   3  11  168.87   16.96
  -4  -3 -11  176.48   14.72
   4   3  11  171.34   16.37
  10   2   1    3.15   16.44
 -10  -2  -1  -17.67   13.08
 -10  -2  -1  -12.25   12.44
   4   9   5   79.28   16.93
   4   9   5   19.92   11.45
   4   9   5   11.51   14.60
   4   9   5   35.37   10.91
   4   9   5   53.24    8.61
   4   9   5  -18.38   19.35
   3   7  -8  405.50   25.47
  -3  -7   8  397.88   18.65
  -3  -7   8  403.77   24.25
  -3  -7   8  386.60   20.66
   3   7  -8  405.28   31.54
   3   7  -8  424.01   19.74
  -7   0   8  196.10   19.65
  -7   0   8  190.12   15.56
   7   0  -8  176.95   18.31
  -6   5   6  704.44   29.60
   6  -5  -6  730.88   30.28
   6  -5  -6  656.54   38.42
   6  -5  -6  623.15   34.70
   3  10   0   68.82   19.69
   3  10   0   71.06   10.87
   3  10   0   78.91   24.46
   3  10   0   76.60   10.24
   3  10   0   68.10   15.12
   2  10   2  331.73   28.53
   2  10   2  314.73   26.07
   2  10   2  335.07   22.64
   2  10   2  325.71   17.66
   2  10   2  252.03   17.96
   2  10   2  303.88   15.65
   3  10   1   20.45   12.83
   3  10   1   -7.42   10.39
   3  10   1    0.83    9.75
   3  10   1    2.40   23.31
   3  10   1  -22.47   15.29
   3  10   1  -20.01   19.37
   0  -1 -12  204.76   16.40
   0   1  12  162.23   13.74
   5   9   4   50.47   13.82
   5   9   4   26.28   18.68
   5   9   4   44.22   10.38
   5   9   4   25.22   15.76
   5   9   4   61.97   11.43
   3  -4 -10  136.21   22.50
   3  -4 -10  161.73   16.32
   3  -4 -10  148.12   23.28
  -3   4  10  154.20   13.94
   3  -4 -10  152.11   19.50
  -3   4  10  156.65   21.37
 -10  -2   0    4.20   12.48
 -10  -2   0   24.22   12.65
 -10  -2   0   17.01   13.91
  10   2   0   31.36   16.54
  -6  -9  -1   35.73   12.61
   6   9   1   47.40   10.25
   6   9   1   22.18   11.89
   6   9   1   29.65   23.26
   6   9   1   19.22   15.81
   6   9   1   12.66   17.14
   6   9   1   33.37   11.45
   3  -7  -7  170.94   15.11
  -3   7   7  186.17   15.02
   3  -7  -7  171.10   24.63
   3  -7  -7  193.24   24.08
   6   6  -7  123.35   16.15
  -6  -6   7  140.68   13.75
  -6  -6   7  133.95   18.22
   6   6  -7  153.61   15.06
   9   5   4   43.94   13.14
  -9  -5  -4   43.41   12.75
  -9  -5  -4   34.27   13.87
  -9  -5  -4   50.78   14.67
   9   5   4   42.09   11.50
   9   5   4   30.31   17.56
   6  -3  -8  682.18   29.79
  -6   3   8  598.84   32.46
  -6   3   8  672.80   28.72
   6  -3  -8  593.51   33.64
   6  -3  -8  656.18   31.94
  -7  -6  -7   11.08   12.15
   7   6   7   19.46   12.83
   7   6   7    9.04   16.59
   7   6   7   -5.13   10.34
   7   6   7    2.10   12.75
 -10  -1  -1   77.66    9.03
 -10  -1  -1  122.08   14.35
 -10  -1  -1  125.76   14.74
   2   8  -7  164.04   10.81
  -2  -8   7  136.49   13.66
   2   8  -7  168.89   20.84
   2   8  -7  157.06   12.60
  -2  -8   7  178.95   18.16
   2   8  -7  213.51   26.01
  -2  -8   7  166.37   11.56
   6   9   0    2.34   16.82
   6   9   0  -12.94   11.20
   6   9   0    3.43   15.62
   6   9   0   -3.33   24.28
   6   9   0   24.86   10.98
   6   9   0   -3.43    9.30
   6   9   0    4.11    6.14
  -6  -9   0   -4.30   12.02
  -3  -4 -11    8.35   11.65
   3   4  11   10.47   18.46
   3   4  11    5.93   11.64
  -3  -4 -11  -10.77   11.76
  -3  -4 -11   -4.57   18.31
   3   4  11    3.29   14.15
   3   4  11   12.05   13.40
  -3  -4 -11   24.21   16.81
   0   8  -7  163.38   19.70
   0   8  -7  139.83    7.03
   0   8  -7  229.47   24.66
   0  -8   7  208.07   19.04
   0  -8   7  201.53   10.60
   0   8  -7  195.00   10.44
   3  -9   0   26.39   11.65
   3  -9   0   44.26   23.77
  -3   9   0   12.94   18.40
   3  -9   0   14.39    5.26
   6   7   7  214.66   17.00
   6   7   7  168.61   20.75
  -6  -7  -7  204.40   16.58
   6   7   7  198.51   16.07
   6   7   7  235.99   17.29
  -6  -7  -7  187.29   11.77
   7   8  -2  267.29   13.43
  -7  -8   2  349.99   19.53
   7   8  -2  213.31   12.96
   2  -6  -9  493.95   30.64
   2  -6  -9  443.31   29.75
  -2   6   9  448.36   21.53
   7   0   9   15.48   11.57
  -7   0  -9    7.87   13.20
  -7   0  -9   29.95   16.34
   1  10   2  273.31   22.52
   1  10   2  269.72   14.22
  -1 -10  -2  275.73   29.08
   1  10   2  279.72   24.94
   1  10   2  248.16   27.76
  -6   0 -10   91.65   14.94
  -6   0 -10   76.24   18.01
   6   0  10   80.63   13.22
  10   1   0  160.82   18.63
 -10  -1   0  183.52   14.93
 -10  -1   0  182.16   15.08
 -10  -1   0  154.81   16.71
  -8  -6   4  302.53   15.63
   8   6  -4  414.21   21.98
   8   6  -4  217.65   11.30
  -8  -6   4  383.24   19.41
  -8  -6   4  367.33   16.81
   5   9  -3   -3.21   13.45
   5   9  -3    1.83    6.65
  -5  -9   3    2.85   10.53
  -5  -9   3    8.56   16.38
   0   9  -5   53.05   22.92
   0  -9   5   52.12   15.39
   0  -9   5   50.04   10.69
   2  -6   9    6.70   12.20
  -2   6  -9  -13.34    8.87
  -2   6  -9  -24.51   18.44
  -2   6  -9    2.25    9.30
   9   2   6    9.95   12.51
  -9  -2  -6   -7.62   12.18
  -9  -2  -6    8.11   15.06
   9   2   6    0.64   11.73
  -9  -2  -6    9.26   13.60
   9   2   6  -17.94   12.25
   5   2 -10  302.23   20.31
  -5  -2  10  360.33   24.01
   5   2 -10  289.11   22.06
  -5  -2  10  290.17   19.47
  -9   1  -5    2.70   13.71
   9  -1   5    5.49   10.29
   9  -1   5    5.69   11.36
   9  -1   5   12.58   12.90
  -9   1  -5   16.54   15.60
   9  -1   5   27.73   18.48
  -9   1  -5   10.05   14.37
  -7   5   4  595.86   26.04
  -7   5   4  677.90   33.14
  -7   5   4  724.28   29.23
   6  -1  -9   59.65   15.40
  -6   1   9   65.21   19.14
   6  -1  -9   55.80   16.63
  -6   1   9   58.25   12.85
  -9  -6  -1   -0.20   13.19
  -9  -6  -1    0.12   10.70
  -9  -6  -1   11.41   11.94
   9   6   1   18.11   16.73
   9   6   1    0.35   10.52
  -8  -7   2   -2.28   12.06
   8   7  -2    0.93   15.64
  -8  -7   2    1.06    8.49
  -8  -7   2    2.92    9.76
  -8  -7   2   -1.60    7.30
   0  -1  12   27.76   19.33
   0  -1  12   45.78   10.43
   0  -1  12   43.37   14.55
 -10  -2  -2   46.89   13.06
  10   2   2   44.50   13.18
 -10  -2  -2   26.15   13.69
  -9  -1  -6   80.11   14.18
   9   1   6   78.34   12.79
   9   1   6   80.57   13.76
  -9  -1  -6   90.61   16.63
   2   7   9  109.92   13.81
   2   7   9  123.21   15.02
   2   7   9  141.75   20.56
  -2  -7  -9  122.13   21.21
  -2  -7  -9  139.57   22.34
  -2  -7  -9  146.31   18.83
  -2  -7  -9  124.93   12.35
   0  10   0  228.58   10.56
   0 -10   0  271.90   19.28
   0  10   0  213.75   21.20
   6  -7   0  -18.88   23.64
  -6   7   0    4.38   17.03
  -6   7   0    0.80    2.58
  -6   7   0  -21.44   17.82
   3  -9  -1   86.90    7.93
   3  -9  -1   82.51    6.76
  -3   9   1   97.13   20.46
   3  -9  -1   84.92   12.52
  -1   8   7   31.56   10.44
   1  -8  -7   31.64   21.51
   3  -9   1   -3.00   12.24
   3  -9   1    8.77   24.07
  -3   9  -1   20.04   18.35
  -3   9  -1   -7.87   12.54
   1  -1  12  196.36   17.90
   1  -1  12  175.68   13.35
  -1   1 -12  150.72   21.35
  -1   1 -12  121.47   11.78
   1   7   9   57.74   13.19
   1   7   9   70.26   19.38
  -1  -7  -9   82.19   17.87
  -1  -7  -9   83.38   21.54
  -1  -7  -9   91.20   20.49
   1   7   9   55.20   12.89
  -8   4   3  295.44   16.84
   8  -4  -3  208.41    9.93
  -8   4   3  367.55   20.75
  -8   4   3  343.49   23.74
  -8  -4   6    9.03   11.55
  -8  -4   6   12.16   12.18
   8   4  -6   11.49   11.68
   8   4  -6   16.06   14.48
  -8  -4   6   11.67    8.42
   9   6   0   73.49   12.62
  -9  -6   0   79.45   14.05
   9   6   0   90.25   17.65
   9   6   0   86.06   14.63
  -9  -6   0   90.91   12.80
   0   4 -11    5.33   18.22
   0  -4  11  -27.06   14.87
   0  -4  11  -25.19   14.09
   0   4 -11   -5.95   12.69
   0   4 -11  -26.91   18.20
   4   4 -10   33.89   17.51
   4   4 -10   39.97   13.95
  -4  -4  10   28.66   14.97
   4   4 -10   51.09   12.18
   2   1  12   -7.95   11.67
   2   1  12   20.45   19.48
  -2  -1 -12  -17.86   12.38
  -2  -1 -12   -2.41   12.37
  -2  -1 -12  -16.39   17.93
   2   1  12  -10.18   14.64
  -3 -10   1   42.43   16.75
   3  10  -1   41.58   20.04
   3  10  -1   28.66   14.27
   3  10  -1   32.18    9.67
   3  -2 -11  105.56   15.74
  -3   2  11   66.03   11.43
   3  -2 -11   94.95   19.21
  -3   2  11   64.22   19.75
   7  -6   0   99.47   23.10
  -7   6   0  107.69    8.38
  -7   6   0  104.10   19.53
  -7   6   0  118.34   18.23
   6  -6   5  240.23   25.95
  -6   6  -5  272.67   20.99
   6  -6   5  297.04   18.00
   6  -6   5  260.85   15.92
   5   6  -8  383.38   23.35
   5   6  -8  406.64   20.96
  -5  -6   8  377.56   23.31
  -5  -6   8  393.18   19.55
  -7  -5  -8   13.30   14.61
  -7  -5  -8  -25.38   14.13
   7   5   8   -8.44   13.19
   7   5   8  -18.32   13.94
   7   5   8    3.90   12.85
  -7  -5  -8    3.29   13.36
   4  -7  -6  409.89   31.14
   4  -7  -6  484.82   30.24
   4  -7  -6  468.95   22.57
  -4   7   6  434.04   21.23
  -4   7   6  474.65   28.10
   2   0  12   90.22   16.07
   2   0  12   90.30   12.45
   2   0  12   94.41   19.71
  -2   0 -12  119.35   14.69
   2   0  12   97.25   16.19
  -2   0 -12   82.79   19.81
   6   9   2  112.64   17.29
   6   9   2   91.80   22.16
  -6  -9  -2  118.22   14.24
   6   9   2  116.13   13.26
   6   9   2  145.75   12.10
   6   9   2  112.12   18.59
 -10  -1  -2    0.55   13.38
 -10  -1  -2    6.86   12.27
 -10  -1  -2    2.06    8.85
 -10  -1  -2   -6.17    8.45
   0  10   1  127.07   20.27
   0  10   1  151.10    9.59
   0  10   1  132.85    8.40
   0 -10  -1  150.28   16.14
   0 -10  -1  167.32   27.30
   0  10   1  132.07   10.34
  10   3   1   77.00   18.19
 -10  -3  -1   53.37   13.54
 -10  -3  -1   57.50   13.64
   6  -7   1   27.60   22.66
  -6   7  -1   32.69   17.68
  -6   7  -1   33.93   17.50
   6  -7   1   28.93    9.59
  -5   5  -8  177.79   14.85
  -5   5  -8  149.57   21.07
   5  -5   8  189.05   16.05
   5  -5   8  155.96    9.72
   6   5   9   83.84   14.44
  -6  -5  -9   62.03   17.21
  -6  -5  -9   80.23   16.47
   6   5   9   78.54   16.38
   1   6  10  250.90   17.45
   1   6  10  270.14   23.91
  -1  -6 -10  300.82   22.73
  -1  -6 -10  267.31   25.20
   1   6  10  233.15   17.74
  -7  -3  -9   30.19   14.79
  -7  -3  -9   50.70   14.99
   7   3   9   24.44   13.00
  -7  -3  -9   31.76   14.42
   7   3   9   25.81   11.99
  -4   3  10  -10.91   19.80
  -4   3  10   10.78    6.38
  -4   3  10   -0.36   12.53
   4  -3 -10   12.53   17.26
   4  -3 -10    8.54   19.38
   4  -3 -10  -16.65   14.76
   3  10   2   52.22   23.79
   3  10   2   41.34   13.30
   3  10   2   44.06   15.87
   3  10   2   64.45   10.91
   3  10   2   74.97   11.59
   3  10   2   50.33   20.26
  -7   6  -1   53.16   17.02
  -7   6  -1   43.54    5.81
   7  -6   1   70.06   23.36
  -2  -6 -10  140.69   21.86
   2   6  10  118.30   15.12
   2   6  10  125.07   19.98
   2   6  10  118.86   14.52
  -2  -6 -10  123.32   18.57
  -2  -6 -10  158.91   12.68
  -2  -6 -10  124.32   13.17
  -1   0  12  135.29   12.51
  -1   0  12  122.90   16.67
  -1   0  12  157.95   21.97
   1   0 -12  111.03   20.29
   9  -2   4   58.68   13.20
  -9   2  -4   33.22   11.52
   9  -2   4   39.18   11.61
  -9   2  -4   43.99   13.73
  -9   2  -4   62.43   15.98
   9  -2   4   30.21   20.19
   2  -5  10  363.38   21.00
  -2   5 -10  354.51   16.69
  -2   5 -10  351.72   18.42
   2  -5  10  351.13   21.27
  -2   5 -10  374.87   23.42
   8  -4   4   73.30   11.89
  -8   4  -4   72.25   16.93
  -8   4  -4   60.78   14.22
   8  -4   4   43.95   20.94
  -8   4  -4  103.68   14.13
   8  -4   4   68.51   13.10
   1  -4 -11   61.64   18.25
   1  -4 -11   82.02   18.31
   1  -4 -11  106.40   21.81
  -1   4  11   50.96   13.04
  -2  -9  -6  273.82   12.65
   2   9   6  317.86   18.37
   2   9   6  269.05   18.63
  -2  -9  -6  253.40   27.38
   2   9   6  290.38   24.95
   2   9   6  299.43   17.92
   6   7  -6    3.86   11.80
  -6  -7   6   14.65   16.10
  -6  -7   6  -15.63   11.54
   6   7  -6    4.78   13.59
  -5   4  -9   75.19   12.65
   5  -4   9   65.54    9.71
  -5   4  -9  107.66   20.04
 -10  -3   0   35.99   13.41
 -10  -3   0   26.10   12.94
 -10  -3   0   17.59   12.83
  10   3   0   45.62   16.95
  -5  -6  -9   -0.43   10.89
  -5  -6  -9   -2.46   14.76
  -5  -6  -9   -9.23   17.61
   5   6   9   18.27   16.20
  -5  -6  -9   -3.38    9.88
   5   6   9    7.39   11.60
   5   6   9   11.25   13.60
  -9   3  -1    4.00   15.54
  -9   3  -1   17.29   10.11
   9  -1  -4   20.44   13.24
  -9   1   4   37.44   13.34
  -9   1   4   11.12   11.57
   9  -1  -4   22.95   10.84
  -9   1   4   17.15   15.02
  -9   3   0    4.10    9.93
  -9   3   0    4.02   15.34
   5   7   8   13.83   13.46
  -5  -7  -8   -1.76    9.45
   5   7   8   18.14   10.72
   5   7   8   18.96   17.62
   5   7   8   25.17   15.76
   5   7   8   -7.23   12.82
  -5  -7  -8   21.85   18.48
   5   7   8    9.41   12.49
  -5  -7  -8   16.32   14.51
  10   2  -1   90.22   17.47
 -10  -2   1  101.78   13.66
 -10  -2   1  103.90   14.10
 -10  -2   1   90.90   15.26
   6   3  -9  287.88   20.06
  -6  -3   9  267.70   21.43
  -6  -3   9  278.56   19.46
  -6  -9   1    1.38   11.75
   6   9  -1    8.21   16.20
   6   9  -1  -24.88   26.33
   6   9  -1    3.51    6.25
   6   9  -1   -3.99    8.50
   6   9  -1   29.31   11.13
   6   9  -1    4.79   11.59
   5  -1 -10   -8.30   16.54
  -5   1  10    5.03   10.52
  -5   1  10  -11.21   18.57
   5  -1 -10   -3.17   15.06
   1   4 -11  217.51   22.48
   1   4 -11  199.87   22.01
   1   4 -11  209.22   16.27
  -1  -4  11  152.47   15.94
  -9  -6  -2    8.17   12.57
  -9  -6  -2    0.72   11.19
   9   6   2   -6.70   11.26
   9   6   2   20.09   17.18
  -1  -2 -12   47.85   10.40
   1   2  12   55.62   12.25
   1   2  12   73.31   15.72
  -1  -2 -12   52.13   18.80
  -1  -2 -12   81.72   13.56
   1   2  12   80.82   20.84
   5   7  -7   15.31   15.10
  -5  -7   7    1.57   11.17
  -5  -7   7   24.42   15.99
   5   7  -7   28.37   11.60
  -3  -9   5    6.10    9.32
   3   9  -5  -12.76   16.19
  -3  -9   5    3.49   15.65
   3   9  -5    2.87   23.77
   3   9  -5    6.83    7.27
   3   9  -5   15.53    5.10
  -6  -5   8   41.20   11.90
  -6  -5   8   21.21   15.78
   6   5  -8   46.60   14.68
   6   5  -8   50.14   15.40
   0  10  -1  277.86   22.54
   0  10  -1  328.71   28.27
   0 -10   1  343.99   21.18
  -6   7   1    9.19   17.08
  -6   7   1    3.66   18.34
   6  -7  -1   15.99    8.51
  -6   7   1   12.85   14.22
  -6   7   1   17.05    5.70
   6  -7  -1   -5.32   23.86
   2  10  -2    7.92    9.23
  -2 -10   2    4.42   15.38
   2  10  -2   18.03   23.15
   2  -5 -10  195.66   22.45
   2  -5 -10  150.84   23.89
  -9  -4   4   35.83   11.58
  -9  -4   4   37.20   11.50
  -9  -4   4   34.49   10.56
   9   4  -4   55.46   15.81
  -8  -1  -8    4.90   10.75
  -8  -1  -8  -10.31   15.07
   8   1   8  -18.71   12.00
   8   1   8  -10.70   13.30
  -8  -1  -8  -13.55   13.91
   8   1   8   -3.01    5.72
   8   2   8   32.13   12.54
   8   2   8   60.54   13.00
   8   2   8   57.46   13.80
  -8  -2  -8   50.87   14.60
  -8  -2  -8   42.83   11.77
   8   2   8   17.34    6.30
   8   2   8   12.84    6.58
  -8  -2  -8   37.32   14.66
   9  -2  -3   -8.07   10.62
  -9   2   3  -19.92   11.50
  -9   2   3    0.93   13.49
  10   1  -1  129.11   17.31
 -10  -1   1   93.29   10.65
 -10  -1   1  154.63   16.32
 -10  -1   1  142.07   14.54
 -10  -1   1  124.37   14.15
   1  -9  -5   67.09   23.76
  -1   9   5  117.19   20.59
  -1   9   5  112.07   11.40
  -1   9   5   90.85   10.68
  -1   9   5   85.03   11.85
  -1 -10   2   -6.64   15.16
   1  10  -2  -17.84   24.07
   1   9   6   41.60   11.74
  -1  -9  -6   34.40    7.46
   1   9   6   39.50   12.13
  -1  -9  -6   52.77   22.96
   1   9   6   49.11   20.35
  -2   7   8  444.70   28.09
   2  -7  -8  429.82   29.70
   2  -7  -8  413.65   25.82
   2  -7  -8  391.30   29.09
  -2   7   8  400.44   20.35
   6  -4   8   82.90    9.33
  -6   4  -8   74.36   13.68
  -6   4  -8   65.62   19.68
   6  -4   8   86.11   18.14
   6  -4   8   92.00   14.65
  -7  -6   6  214.09   20.80
   7   6  -6  216.44   16.51
   7   6  -6  207.94   16.28
  -7  -6   6  213.36   15.46
  -9  -5   3  110.79   11.32
   9   5  -3   94.76   17.09
  -9  -5   3  106.26   11.72
  -9  -5   3   92.56   14.21
  -9  -5   3   89.67   12.30
   7  -6  -1  255.27   27.41
  -7   6   1  280.80   23.70
  -7   6   1  261.34   21.60
  -7   6   1  278.19   20.69
  -7   6   1  285.03   13.41
  10   3   2   97.46   18.84
 -10  -3  -2   98.25   14.77
  10   3   2  108.07   14.35
 -10  -3  -2  128.32   14.90
   9   3   6   -3.43   12.31
   9   3   6    9.71   12.49
  -9  -3  -6   21.60   15.14
  -9  -3  -6   18.03   13.69
  -9  -3  -6   -2.20   10.56
   9   3   6   20.32   12.62
  -6  -3 -10   -0.23   15.57
  -6  -3 -10  -12.12   12.11
   6   3  10  -15.94   15.32
  -6  -3 -10  -11.94   15.30
   6   3  10   -4.68   13.33
   6   3  10    2.44   11.95
  -6  -3 -10  -13.93   14.33
  -7  -3   8  177.71   15.34
  -7  -3   8  156.65   17.46
   7   3  -8  167.60   17.09
   7   3  -8  160.04   16.84
  -7  -3   8  170.66   18.34
  -7  -3   8  152.53   14.39
   1  -1 -12  437.60   22.17
  -1   1  12  373.47   19.45
  -1   1  12  375.00   26.86
   1  -4  11  117.32   16.33
   1  -4  11  136.03   15.93
  -1   4 -11  118.46   17.05
  -1   4 -11  112.20   13.30
   7  -5   5  204.42   16.42
  -7   5  -5  200.77   16.14
   7  -5   5  188.88   14.67
  -7   5  -5  189.49   19.71
   7  -5   5  181.55   23.26
   7   7   6   42.41   17.06
   7   7   6   52.86   20.02
   7   7   6   28.68    9.06
   7   7   6   37.14   13.82
   7   7   6   48.42   12.22
   7   7   6   11.77   12.46
   1   1 -12   -8.76   18.39
   1   1 -12   -6.38   13.44
  -1  -1  12  -36.18   14.86
  -1  -1  12   13.09    9.33
  -1  -1  12  -13.72   19.57
   0  -2 -12  161.07   17.40
   0   2  12  169.35   17.30
   0   2  12  177.05   15.19
   0  -2 -12  225.60   16.59
  -4   5  -9  102.43   12.16
   4  -5   9   82.57    9.38
  -4   5  -9  115.31   20.73
 -10   0  -1   56.53   13.00
 -10   0  -1   82.70   14.02
  -2   9   4  167.15   12.19
  -2   9   4  152.47   12.42
  -2   9   4  169.46   21.77
  -2   9   4  170.61   13.53
  -2   9   4  171.36   21.44
   2  -9  -4  163.53   25.68
   4  -8   4  282.82   17.00
  -4   8  -4  307.16   20.42
   4  -8   4  278.11   29.05
  -3  -7  -9   69.74   17.16
   3   7   9   35.59   13.33
  -3  -7  -9   61.21   10.22
   3   7   9   44.41   14.13
   3   7   9   70.42   19.03
  -3  -7  -9   32.63   10.57
  -3  -7  -9   62.18   20.31
  -3  -5  10  296.29   21.72
   3   5 -10  320.03   23.68
   3   5 -10  352.02   19.14
   9   6  -1  162.30   19.10
  -9  -6   1  141.68   11.45
  -9  -6   1  103.08   12.26
  -9  -6   1  129.43   13.04
  -9  -6   1  140.92   15.25
   2  10   3  322.24   26.91
   2  10   3  356.97   28.71
   2  10   3  332.12   17.20
   2  10   3  328.54   19.70
   2  10   3  366.38   18.83
   2  10   3  298.69   23.37
  -9  -1   5   17.91   11.58
   9   1  -5   36.06   13.20
  -9  -1   5   26.25   13.67
   9   1  -5   31.54   13.95
  -9  -1   5   35.95   12.44
  10   0   0  127.81   17.28
 -10   0   0  138.52   16.82
 -10   0   0  140.71   14.51
 -10   0   0  131.57   15.15
  -3  -3  11   -2.49    5.90
  -3  -3  11   -9.77   18.01
  -3  -3  11    2.40   15.13
   3   3 -11  -19.46   18.58
   3   3 -11   -6.46   12.47
  -2   7  -8  229.52   12.75
  -2   7  -8  182.61   22.51
  -2   7  -8  228.47   13.61
  -2   7  -8  237.86   23.04
   2  -7   8  242.34   15.11
   2  -7   8  145.17    8.12
   7  -1  -8   72.51   17.14
  -7   1   8   94.80   14.31
  -7   1   8   89.03   19.11
   7  -1  -8   97.25   15.91
   7  -1  -8   56.57   18.70
  -3   3 -11   13.80   11.45
  -3   3 -11   27.74   11.47
   3  -3  11   43.98   14.74
  -3   3 -11   12.23   18.75
   3  -3  11   45.44   14.42
  -9  -2   5  170.54   15.07
  -9  -2   5  172.87   14.54
  -9  -2   5  171.44   15.59
   9   2  -5  197.20   17.09
  -9   3  -2   47.21   10.67
   9  -3   2   58.43   22.96
  -9   3  -2   44.66   15.43
  -5  -1 -11  -12.85   18.14
  -5  -1 -11   -3.55   11.38
  -5  -1 -11   -7.95   13.95
   5   1  11    1.21   11.30
   5   1  11    8.49   13.85
   5   1  11   14.03   12.95
  -3   9   2   58.96    6.50
  -3   9   2   77.44   20.96
   3  -9  -2   84.94    9.11
  -3   9   2   87.97   13.08
   0  10   2  198.87   12.09
   0  10   2  215.45   12.22
   0  10   2  271.02   28.64
   0 -10  -2  205.60   28.52
   0  10   2  240.57   21.92
   0  10   2  225.93   10.96
   7  -6   2   58.83   22.73
  -7   6  -2   40.73   16.74
   7  -6   2   43.28   10.94
   6  -7   2   -2.50   22.84
   6  -7   2    1.07    9.10
  -6   7  -2   -5.48   17.24
  -2  -2 -12   -8.77   12.45
   2   2  12   11.90   19.51
  -2  -2 -12   -1.17   18.04
   2   2  12   10.09   11.20
  -2  -2 -12   -5.09   12.28
   2   2  12  -19.15   15.21
   3   9   6  186.24   20.37
   3   9   6  187.72   22.26
   3   9   6  178.74    9.73
   3   9   6  205.51   21.89
   3   9   6  224.29   14.69
   3   9   6  191.20   17.08
   3   9   6  190.41   12.20
   3   9   6  196.23   15.84
  -3   9  -2   15.27   18.41
   3  -9   2   16.36   24.86
   3  -9   2   13.83   12.87
  -3   9  -2   16.59   13.16
  -3   9  -2   29.59   24.15
   7   8   4    6.29   16.26
   7   8   4   30.54    9.39
   7   8   4    5.65   21.22
   7   8   4   25.06   15.14
   7   8   4  -15.66   11.72
   7   8   4  -14.46   13.07
  -7  -8  -4    4.39    2.12
  -9   3   1   14.59   10.13
  -9   3   1    2.35   15.65
  -7  -5   7    3.28    4.39
   7   5  -7    7.57   13.24
   7   5  -7    1.42   13.66
  -7  -5   7    9.39   16.34
  -7  -5   7   -5.06   11.81
  -9   0  -6   46.96   16.07
   9   0   6   34.92   11.38
   9   0   6   19.18   13.20
   9   0   6   16.69   11.89
  -9   0  -6   36.40   14.73
  -9   0  -6   21.02   14.14
   8   7   4  214.91   16.50
   8   7   4  167.52   13.40
   8   7   4  178.06   25.03
   8   7   4  182.18   14.81
   8   7   4  227.37   21.47
  -8  -7  -4  179.73   17.38
   3   8  -7  537.91   22.37
   3   8  -7  542.95   35.45
   3   8  -7  501.90   28.80
  -3  -8   7  474.20   20.82
  -3  -8   7  482.93   22.09
  10   2   3  128.79   14.23
  10   2   3  109.92   14.19
 -10  -2  -3  150.15   15.30
 -10  -2  -3  119.59   15.08
 -10  -2  -3  132.34   16.34
   0   7   9   -5.62   10.10
   0  -7  -9   -1.76   16.96
   0   7   9   -5.05   18.77
   0  -7  -9    8.15   20.45
   0  -7  -9    9.51   19.83
  -5   7  -5  170.53   18.48
   5  -7   5  189.14   15.68
   5  -7   5  144.56   25.56
   2  -1  12  279.75   20.27
  -2   1 -12  229.75   22.74
  -2   1 -12  249.80   16.95
   2  -1  12  279.45   15.89
   0   6  10  -14.25   19.79
   0  -6 -10   15.35   18.41
   0  -6 -10    3.50   20.11
   0   6  10  -16.48   13.25
   0  -6 -10  -12.23   17.42
  -8  -1   7   84.88   13.70
   8   1  -7   84.45   15.32
  -8  -1   7   94.55   13.85
  -8  -1   7  110.66   16.74
 -10  -3   1    6.17   13.35
 -10  -3   1    8.17   12.55
  10   3  -1   14.27   16.02
 -10  -3   1    6.00   12.27
   4  -2  11   85.43   16.14
  -4   2 -11   92.59   12.71
  -4   2 -11   90.14   13.34
  -4   2 -11   52.24   19.16
  -1   8  -7  350.25   15.70
   1  -8   7  405.11   15.88
   1  -8   7  401.46   22.24
  -1   8  -7  385.63   25.38
   1  10   3  229.00   20.84
   1  10   3  215.80   12.96
   1  10   3  202.50   23.96
  -1 -10  -3  232.20   28.69
   1  10   3  248.78   27.58
  -4   8   4  437.54   27.74
  -4   8   4  434.18   21.75
  -4   8   4  412.53   27.72
   4  -8  -4  417.46   19.70
   4  -8  -4  369.51   30.05
   2  -9   4  142.82   26.46
  -2   9  -4  169.32   25.70
   2  -9   4  103.63    8.10
   2  -9   4  139.41   12.30
   2  -9   4  117.79   16.52
   3   6  10   74.06   13.82
  -3  -6 -10   93.40   12.37
  -3  -6 -10  111.86   21.00
   3   6  10  112.01   15.27
  -3  -6 -10  123.65   12.71
   3   6  10  113.31   19.53
   3   6  10  100.73   15.58
  -3  -6 -10   94.23   18.16
   4  10   1  111.21   15.67
   4  10   1   84.19   11.63
   4  10   1   62.08   11.31
   4  10   1   54.42   13.53
   4  10   1   60.43   19.01
   4  10   1   85.06   25.09
   4  10   0  263.23   15.19
   4  10   0  228.17   17.63
   4  10   0  248.50   23.59
   4  10   0  267.95   28.74
   4  10   0  320.57   19.96
   4  10   0  252.10   14.62
  -6   5  -7   80.47   13.59
  -6   5  -7   64.76   18.21
   6  -5   7   65.52    6.29
   6  -5   7   64.02   14.24
  -6   5  -7   76.63   17.61
   6  -5   7   65.55   20.58
  -8   3   5  179.54   14.42
   8  -3  -5  145.13   18.80
   2   8   8  151.38   14.30
  -2  -8  -8  163.63   12.27
  -2  -8  -8  151.54   23.61
   2   8   8  206.91   21.61
  -2  -8  -8  189.38   19.51
   2   8   8  189.90   16.43
  -2  -8  -8  205.29   23.82
   2   8   8  200.06   15.83
   2   8   8  207.39   15.36
 -10  -1  -3   12.89    9.81
 -10  -1  -3    2.06    9.13
 -10  -1  -3   -0.19   12.37
  10   1   3   -4.38   11.78
 -10   0  -2  182.99   15.21
 -10   0  -2  199.31   16.37
   4  -6   8  119.29    7.00
  -4   6  -8  168.47   13.68
   4  -6   8  189.97   15.80
  -4   6  -8  158.08   21.01
  -6   1 -10   71.09   19.04
  -6   1 -10   86.96   14.91
   6  -1  10   76.06   12.85
   6   9   3  243.87   16.25
   6   9   3  284.14   17.08
   6   9   3  295.57   20.88
   6   9   3  280.03   24.49
   6   9   3  246.04   21.96
   6   9   3  300.44   17.04
   3  10  -2  128.91   10.82
  -3 -10   2  137.82   18.88
  -3 -10   2  138.90   12.09
   8   2  -7  221.96   17.47
  -8  -2   7  245.22   17.16
  -8  -2   7  274.13   19.34
   8   2  -7  239.85   19.28
  -5  -5   9  436.54   24.71
   5   5  -9  438.45   22.64
   5   5  -9  405.83   25.01
  -5  -5   9  421.73   21.41
   5   2  11   15.65   17.03
  -5  -2 -11   26.30   11.90
   5   2  11   15.72   14.25
   5   2  11   41.89   14.10
  -5  -2 -11   25.67   17.31
   5   2  11   36.19   12.18
  -8   0  -8   47.38   14.23
   8   0   8   35.07   12.20
   8   0   8   24.66   12.49
   8   0   8   18.11    7.98
   8   0   8   28.84   13.88
  -8   0  -8   34.82   16.11
   4   1 -11  306.82   20.73
  -4  -1  11  293.53   19.01
  -4  -1  11  306.51   16.08
  -4  -1  11  344.70   24.92
  -4   0  11  175.68   21.69
  -4   0  11  128.12   14.14
  -6   3  -9   99.03   13.95
   6  -3   9   89.12   10.84
  -6   3  -9   87.38   19.88
  -8  -3  -8  129.23   15.67
   8   3   8  130.37   14.69
   8   3   8  154.22   15.14
  -8  -3  -8   98.37   13.75
   5  -8   0    6.37   10.72
   5  -8   0   13.00    8.73
  -5   8   0   24.60   18.12
  -5   8   0    7.73   17.77
  -5   0 -11    3.01   17.98
   5   0  11   24.80   11.36
  -5   0 -11    3.02   13.73
   5   0  11   21.79   14.27
   5   0  11   15.31   13.13
   7  -1   9   -0.85   11.13
  -7   1  -9    0.37   13.23
   7  -1   9    4.82   13.55
  -7   1  -9   16.61   17.21
  -7   4   6  285.83   18.17
   7  -4  -6  259.44   23.30
  -7   4   6  267.31   24.19
   8  -3   6   -0.10    8.54
   8  -3   6   13.22   17.86
  -8   3  -6    5.56   13.55
   8  -3   6  -22.92   11.98
  -8   3  -6  -17.69   16.55
   1  -9   5   12.12   10.54
   1  -9   5   25.78   15.18
  -1   9  -5   26.43   22.48
  -1  -8  -8  136.12   23.84
  -1  -8  -8  150.94   23.17
   1   8   8  125.15   20.44
  -1  -8  -8   80.06   10.95
   1   8   8  101.85   12.87
   1   8   8  109.52   15.22
   1   8   8  117.94   13.53
  -1  -8  -8  110.36   18.21
   0  -2  12  292.21   15.12
   0   2 -12  231.61   23.93
   0   2 -12  271.54   20.08
   0  -2  12  293.82   20.34
  -9  -6  -3   71.55   12.55
   9   6   3  110.56   19.68
  -9  -6  -3   87.59   14.52
   9   6   3   80.09   12.13
   3  10   3  229.22   26.91
   3  10   3  240.02   15.44
   3  10   3  255.51   18.03
   3  10   3  226.48   23.67
   3  10   3  240.35   16.05
   3  10   3  251.72   20.57
  -5  -3  10  178.31    9.83
   5   3 -10  228.44   18.60
   5   3 -10  213.55   20.45
  -5  -3  10  206.66   18.27
  -5  -3  10  222.95   20.45
   8  -2  -6  168.39   19.22
  -8   2   6  204.89   15.51
  -8   2   6  191.09   20.65
  -8   2   6  189.41   16.13
  -5   6  -7   33.38   11.82
   5  -6   7   59.11   21.35
   5  -6   7   42.87   13.70
  -6   7   2  123.47   16.16
   6  -7  -2  101.19   25.32
  -6   7   2  147.07   19.78
  -6   7   2  145.65   21.06
   6  -7  -2   51.68    4.75
  -6   7   2  115.11    9.23
   0  10  -2  140.20   25.63
   0 -10   2  162.97   17.71
   7  -3  -7  465.46   26.67
  -7   3   7  482.25   28.13
   7  -3  -7  486.22   29.07
   7  -3  -7  516.07   25.64
  -7   3   7  459.49   23.55
   8  -2   7    6.91   15.48
   8  -2   7    8.33   11.88
   8  -2   7    6.54   13.41
  -8   2  -7   11.41   16.86
  -8   2  -7  -14.59   14.00
   8  -2   7   22.05    9.90
 -10   0   1   72.12   13.35
 -10   0   1   61.27   13.06
  10   0  -1   60.28   15.52
 -10   0   1   67.70   15.50
  -2  -4  11  476.11   26.44
   2   4 -11  516.60   30.76
   2   4 -11  593.74   26.06
   5  -8   1  -18.01   23.55
  -5   8  -1    5.47   17.45
   5  -8   1   10.51    8.24
  -5   8  -1   -9.34   18.15
   5  -8   1   -4.05   11.66
   7   7  -5   55.47   12.47
  -7  -7   5   53.65   12.52
   7   7  -5   28.98   12.53
   7   7  -5   32.26   16.07
  -7  -7   5   48.27   17.43
   6   9  -2   60.45    9.25
  -6  -9   2   52.14   12.28
   6   9  -2   64.14   17.42
   6   9  -2   59.62   13.53
   6   9  -2   57.76   12.24
   6   9  -2   36.62   26.42
  -7  -8   3  161.12    9.39
  -7  -8   3  180.47   15.03
   7   8  -3  160.53   12.74
  -4   4 -10  -20.60   11.88
  -4   4 -10   13.60   18.78
   4  -4  10    4.26    9.91
  -4   4 -10   -6.09   11.55
  -8  -5  -7   51.38   12.21
  -8  -5  -7   43.13   14.94
   8   5   7   46.04   12.86
   8   5   7   73.92   14.30
   8   5   7   39.43   16.75
   8   5   7   43.68   11.73
 -10  -3  -3  136.62   15.36
  10   3   3  128.52   14.36
  10   3   3  135.81   14.64
 -10  -3  -3  113.09   16.06
 -10  -3  -3  150.26   16.44
   9   0  -5    4.35   14.24
  -9   0   5  -10.43   11.78
  -9   0   5   -5.81   14.97
  -9   0   5   15.82   12.14
   9   0  -5   15.87   11.86
   1  -2  12  165.85   12.36
   1  -2  12  162.64   17.43
   1  -2  12  154.55   17.37
  -1   2 -12  112.90   13.45
  -1   2 -12  118.71   13.96
 -10  -2   2  174.03   16.43
  10   2  -2  150.65   18.06
 -10  -2   2  174.91   15.69
 -10  -2   2  182.88   14.93
   6  -6  -5  344.75   20.14
   6  -6  -5  272.91   29.16
  -6   6   5  319.07   19.59
  -6   6   5  317.75   24.83
   0   9   6    2.47    9.81
   0   9   6   20.48   11.83
   0  -9  -6    1.82   23.06
   8  -5   0   27.74   23.86
  -8   5   0  -13.29   17.72
  -8   5   0   -1.32    8.50
  -8   5   0  -20.70   15.73
   3   1  12   50.36   19.14
   3   1  12   44.38   12.34
   3   1  12   52.09   15.92
  -3  -1 -12   64.91   18.91
  -3  -1 -12   37.12   13.15
  -8  -6  -6   45.33   14.64
   8   6   6   33.31   19.86
   8   6   6   16.10   12.72
   8   6   6   19.64   11.82
   8   6   6   41.14   10.18
   7  -6  -2  212.52    9.47
  -7   6   2  453.28   23.93
  -7   6   2  436.86   27.57
   7  -6  -2  467.65   30.31
  -7   6   2  399.17   18.03
  -8   0   7    3.59   12.13
   8   0  -7   10.94   16.48
   8   0  -7    8.49   14.35
  -8   0   7   -0.78   12.42
  -8   0   7   12.55   16.12
 -10  -4  -1  204.31   15.78
 -10  -4  -1  178.80   16.69
  10   4   1  165.60   20.54
  10   4   1  212.13   17.04
  -8   5  -1  -11.10   17.00
  -8   5  -1   -2.51   14.48
  -8   5  -1   -4.93    8.11
   8  -5   1    9.16   22.68
  -5   8   1  -13.25   13.92
   5  -8  -1   21.89   23.09
  -5   8   1  -10.25   18.99
  -5   8   1    0.99   18.69
  -5   8   1    3.34    2.55
  -5   8   1    5.48    2.62
   5  -8  -1   12.17    9.43
   4  10   2   55.24   10.92
   4  10   2   13.85   11.03
   4  10   2   29.55   23.20
   4  10   2  -12.35   18.15
   4  10   2   19.20   13.41
   4  10   2    9.42   12.82
   6   8   6  199.26   11.08
   6   8   6  270.01   17.16
   6   8   6  287.47   18.04
   6   8   6  249.01   17.35
   6   8   6  249.66   24.14
   6   8   6  269.89   19.98
  -6  -8  -6  194.49    9.62
   4  10  -1  149.69   16.89
   4  10  -1   90.17   14.04
   4  10  -1  111.94   10.79
   4  10  -1  100.47   20.77
  -4 -10   1  115.82   12.94
  -4 -10   1  135.77   18.93
   4   4  11   39.15   14.18
  -4  -4 -11   42.97   19.07
  -4  -4 -11   44.99   12.09
  -4  -4 -11   36.03   12.35
   4   4  11   33.81   14.85
   4   4  11   64.33   19.49
   4   4  11   34.15   12.78
  -5  -5 -10   55.67   11.79
  -5  -5 -10   49.67   11.48
   5   5  10   48.40   13.28
   5   5  10   28.32   14.51
  -5  -5 -10   49.44   16.83
  -5  -5 -10   27.99   18.74
   5   5  10   78.26   18.30
   5   5  10   39.51   13.16
   9   3  -5  286.15   20.44
  -9  -3   5  227.51   15.15
  -9  -3   5  310.92   17.54
  -9  -3   5  269.25   15.15
 -10  -1   2  105.62   13.69
 -10  -1   2   89.48   11.75
 -10  -1   2  100.01   15.14
 -10  -1   2   98.14   13.72
  10   1  -2   87.65   15.90
  -8  -7   3   66.41   13.59
   8   7  -3   97.63   17.88
  -8  -7   3   57.32    9.03
  -8  -7   3   73.64    9.82
  -1  -5 -11  344.99   17.36
   1   5  11  264.93   19.20
  -1  -5 -11  270.85   26.52
  -1  -5 -11  296.82   23.70
  -1  -5 -11  220.22   21.35
   1   5  11  262.91   18.10
   1   5  11  294.56   24.40
   5   8   7   23.99   18.60
   5   8   7  -27.03   12.01
   5   8   7   11.04   15.16
   5   8   7  -23.39   13.34
   5   8   7   -1.78   12.66
   5   8   7  -14.86   15.51
   3   0  12  159.27   13.93
   3   0  12  169.30   17.61
   3   0  12  110.44   20.19
   3   0  12  137.51   17.74
  -3   0 -12  126.25   21.05
 -10  -4   0  130.04   14.56
 -10  -4   0  129.44   15.61
  10   4   0  139.20   19.14
   4   7  -8    2.15   24.73
  -4  -7   8   10.54   10.73
   4   7  -8    4.09   16.98
   4   7  -8    9.54   10.24
  -4  -7   8   16.04   16.35
  -5   3 -10   28.14   19.58
   5  -3  10   33.79   11.10
  -5   3 -10   17.89   12.56
  -5   3 -10   28.62   12.00
  -9  -5  -5  103.25   16.00
  -9  -5  -5  110.28   15.66
   9   5   5  116.69   14.86
   9   5   5  106.69   13.36
   3   8   8  288.76   18.14
  -3  -8  -8  330.99   22.18
   3   8   8  293.35   16.09
   3   8   8  323.58   23.58
   3   8   8  277.64   19.78
  -3  -8  -8  266.18   14.94
   3   8   8  272.98   18.92
  -3  -8  -8  313.27   26.05
   3   8   8  280.35   16.96
  -1  10   0  175.76   22.93
  -1  10   0  165.49   13.14
   1 -10   0  215.03   17.31
  -1  10   0  182.74   21.13
   5   9   5   13.29   10.90
   5   9   5  -11.88    9.13
   5   9   5   -1.39   11.01
   5   9   5  -25.85   16.03
   5   9   5  -34.10   13.54
   5   9   5   -8.72   13.63
  -1   2  12   66.24   13.00
   1  -2 -12  111.26   14.03
   6  -2  -9  182.73   22.36
   6  -2  -9  188.08   18.11
  -6   2   9  195.28   22.50
   6  -2  -9  177.27   20.21
   2   5  11   64.00   14.01
  -2  -5 -11   66.04   12.82
  -2  -5 -11   88.37   13.00
  -2  -5 -11  103.88   21.96
   2   5  11   83.59   19.98
  -2  -5 -11   63.97   16.41
   2   5  11   85.62   15.21
  -2  -5 -11   81.35   18.57
   4   6  -9  242.40   15.67
  -4  -6   9  249.04   20.59
  -4  -6   9  221.99   15.68
   4   6  -9  244.27   21.58
   5  -7  -5  344.01   30.37
  -5   7   5  456.95   28.08
  -5   7   5  422.97   22.00
   5  -7  -5  452.30   21.63
  -5   7   5  418.12   20.91
  -1  -2  12   46.95   15.42
  -1  -2  12   70.42    9.86
  -1  -2  12   58.56   19.20
   1   2 -12   78.20   19.92
  -9   3  -3   99.53   12.32
   9  -3   3   98.27   23.43
   9  -3   3  107.58   13.38
  -2   0  12  365.18   26.45
   2   0 -12  330.71   25.04
  -2   0  12  341.06   18.06
  -7  -4  -9   -0.62   14.99
   7   4   9  -12.06   12.75
   7   4   9  -23.98   13.68
   5   8  -6  139.60   12.58
  -5  -8   6  159.97   13.63
   5   8  -6  174.96   17.77
   5   8  -6  163.24   28.20
   1 -10  -1   82.02   14.65
  -1  10   1   66.12   19.32
  -1  10   1   59.25    6.44
  -1  10   1   90.44   21.14
  -1  10   1   55.79   10.85
  10   4   2  109.81   13.88
  10   4   2  116.65   14.89
 -10  -4  -2  118.47   15.60
  10   4   2  132.20   20.31
 -10  -4  -2   98.45   14.41
   2  -4  11  224.56   18.77
  -2   4 -11  222.75   18.35
   2  -4  11  251.76   18.83
  -2   4 -11  249.54   15.91
  -9  -6   2  262.82   15.69
  -9  -6   2  266.12   18.13
   9   6  -2  275.32   21.69
  -9  -6   2  251.26   15.51
  -9  -6   2  277.78   15.02
   2  10  -3  117.43    9.83
   2  10  -3   84.72    5.70
  -2 -10   3  103.04   10.28
  -2 -10   3  139.53   17.84
   9  -3  -2  136.99   13.17
  -9   3   2  117.08   12.69
  -9   3   2  161.96   18.65
   1  10  -3   40.50   24.09
  -1 -10   3   72.54   16.29
  -7   6  -3  -10.41   16.60
  -7   6  -3    7.47   15.66
   7  -6   3   -7.44   10.44
   7  -6   3    3.69   22.34
   4   2 -11  190.69   17.99
   4   2 -11  188.89   21.08
  -4  -2  11  167.57   16.95
  -4  -2  11  199.56   22.04
  -4  -2  11  168.23   11.25
  -4   1  11    7.41   11.00
  -4   1  11   35.85   19.39
   4  -1 -11   21.71   18.28
  -5  -9   4   15.69   11.13
   5   9  -4   22.07   15.23
  -5  -9   4    9.47   16.74
  -8   5   1   38.89   16.26
  -8   5   1   48.06   18.67
   8  -5  -1   62.56   24.64
  -8   5   1   82.76    9.85
  -9  -4  -6   35.34    8.66
   9   4   6   46.94   12.23
   9   4   6   41.76   12.98
   9   4   6   65.21   13.67
   5  -5  -8  119.06   22.46
   5  -5  -8  121.27   19.00
   5  -5  -8  144.72   25.64
  -5   5   8  141.21   15.05
  -5   5   8  126.70   21.34
   5  -5  -8  111.42   16.41
  -1  -3 -12  169.47   15.48
   1   3  12  150.21   16.92
  -1  -3 -12  117.02   14.30
   1   3  12  129.11   14.60
   1   3  12  154.72   22.44
   0  10   3  313.40   29.93
   0  10   3  243.47   13.83
   0  10   3  235.18   12.00
   0 -10  -3  231.15   28.78
   0  10   3  283.02   23.01
  -6   7  -3    5.43   15.62
  -6   7  -3   11.74   17.72
   6  -7   3   20.55    9.80
   6  -7   3    4.24   22.88
  -5   2  10  138.15   21.14
  -5   2  10   98.27   10.23
   5  -2 -10  145.29   22.48
   5  -2 -10  119.66   19.30
  10   0   3  107.39   13.64
 -10   0  -3   60.56   13.98
 -10   0  -3   57.35   12.35
 -10   0  -3   39.91   13.41
   4  -5  -9  367.86   25.72
  -4   5   9  382.42   20.50
   4  -5  -9  353.68   29.34
   4  -5  -9  420.36   28.91
   4  -5  -9  397.09   22.60
  -1  10  -1  213.65   24.14
  -1  10  -1  195.71   20.61
   1 -10   1  236.93   18.24
  -1  10  -1  189.41   14.11
   1 -10   1  227.57   29.25
   7  -4   7    3.90    7.71
  -7   4  -7  -25.26   13.98
  -7   4  -7    3.66   17.32
   7  -4   7    6.61   11.63
   7  -4   7   21.36   17.74
   7  -4   7  -15.43   13.37
  -8  -3   7  178.25   15.37
   8   3  -7  158.84   17.19
   8   3  -7  131.45   15.36
  -8  -3   7  155.16   16.61
   2   1 -12   25.15   18.89
  -2  -1  12   42.16   20.34
  -2  -1  12   47.88    9.95
  -4  -9   5   68.86   11.25
   4   9  -5   33.61   16.94
  -4  -9   5   53.33   17.21
   4   9  -5   60.79   26.92
  -8   5  -2   15.99   14.82
  -8   5  -2   -1.21   16.53
  -8   5  -2   16.72    8.30
   8  -5   2   13.49   21.51
   8  -5   2   -5.67   11.31
  -5   8  -2   -5.96   14.51
  -5   8  -2   -2.60   18.29
   5  -8   2   -0.94   12.28
   5  -8   2   19.05   23.81
   5  -8   2    9.62    8.50
   3   2  12   51.40   15.67
  -3  -2 -12   51.64   18.62
   3   2  12   43.41   12.58
  -3  -2 -12   51.65   13.32
   3   2  12   48.12   15.82
   3   2  12   61.13   20.03
  -7   3  -8   18.38   18.34
   7  -3   8   26.73   16.21
   7  -3   8   17.24    9.39
  -7   3  -8    5.61   13.53
   3  -9  -3  537.71   21.35
  -3   9   3  541.22   31.54
   3  -9  -3  490.53   34.90
  -3   9   3  499.11   20.73
  -3   9   3  542.22   23.86
 -10  -3   2   62.90   13.83
 -10  -3   2   43.23   12.66
  10   3  -2   55.55   16.47
  10   3  -2   18.70    4.19
 -10  -3   2   49.40   13.74
  -8   4   4  127.95   19.97
  -8   4   4  117.60   12.38
   6   8  -5   62.47   14.34
   6   8  -5   35.14   11.48
  -6  -8   5   48.56   12.07
  -6  -8   5   25.37   17.65
   3  -9   3  116.60   15.93
   3  -9   3  157.02   28.03
  -3   9  -3  160.84   15.91
  -3   9  -3  151.95   26.57
  -4   6   8  367.51   20.12
   4  -6  -8  362.69   28.00
   4  -6  -8  346.61   24.22
   4  -6  -8  360.82   21.04
   4  -6  -8  335.54   28.98
   0   8   8   -4.23   18.91
   0   8   8    4.97    9.39
   0  -8  -8  -13.23   16.25
   0  -8  -8   -9.44   22.38
   4   9   6   56.18   16.72
   4   9   6   71.11   10.59
   4   9   6   51.09   11.63
   4   9   6   62.36   15.77
   4   9   6   44.72   13.19
   4   9   6   57.94   19.80
   4   7   9  263.91   18.76
   4   7   9  249.39   16.42
  -4  -7  -9  246.87   24.08
  -4  -7  -9  224.55   20.74
   4   7   9  268.48   22.17
   4   7   9  215.94   17.36
  -4  -7  -9  229.40   14.65
  -4  -7  -9  246.18   14.34
   3  -8   6   10.87   12.51
  -3   8  -6    7.59   22.33
   1   9  -6  567.70   30.63
  -1  -9   6  521.93   20.51
   1   9  -6  227.13    8.36
  -1  -9   6  556.55   27.96
  -1  -7   9  302.33   15.76
   1   7  -9  295.20   16.05
   1   7  -9  339.79   25.36
   1   7  -9  328.48   27.78
   1   7  -9  303.88   17.86
  -1  -7   9  292.66   19.15
   0  -5 -11   50.40   18.21
   0   5  11   57.00   13.84
   0   5  11   35.14   14.77
   0  -5 -11   50.94   17.96
   3  -3 -11  -19.83   15.27
   3  -3 -11   -3.39   17.63
  -3   3  11    3.73    9.59
   5   3  11  124.07   14.62
   5   3  11  154.07   16.62
   5   3  11  137.02   16.35
   5   3  11  107.81   20.11
  -5  -3 -11  131.91   13.62
  -5  -3 -11  110.27   19.51
  -5  -3 -11  110.07   19.39
   3  -6   9   44.38    8.47
  -3   6  -9   54.98   10.40
  -3   6  -9   40.13   11.26
  -3   6  -9   75.96   19.05
   3  -6   9   41.30   13.19
   9  -2   5   10.82   11.73
  -9   2  -5   11.27    5.92
   9  -2   5   32.07   18.86
   9  -2   5   10.83   12.70
  -9   2  -5   -9.47   14.94
   9  -2   5   13.02    9.83
  -2   1  12  185.79   14.54
  -6  -4 -10   30.04   17.58
   6   4  10   25.17   16.76
   6   4  10   11.39   12.89
  -6  -4 -10   19.98   12.09
 -10  -4   1   41.67   13.32
 -10  -4   1   30.21   12.50
  10   4  -1   48.63   16.99
 -10  -4   1   41.83   13.92
  -6  -4   9    1.08    3.80
   6   4  -9    2.57   14.74
   6   4  -9    0.22   15.74
  -6  -4   9   17.36   15.27
  -6  -4   9   13.53   12.45
   3  -8  -6  505.05   22.92
  -3   8   6  543.23   24.01
   3  -8  -6  524.33   33.87
   2   3  12   25.19   12.30
   2   3  12   15.25   15.69
   2   3  12   50.97   20.22
  -2  -3 -12   29.29   12.99
  -2  -3 -12   15.92   12.73
  -2  -3 -12   11.09    5.99
  10   2   4  133.74   14.71
  10   2   4  159.49   15.29
 -10  -2  -4   90.97    8.74
 -10  -2  -4  145.12   16.62
 -10  -2  -4  131.99   17.44
   2  -4 -11   13.87   19.28
 -10   1  -1  122.20   13.93
 -10   1  -1   98.43   15.28
   2  10   4  238.18   15.41
   2  10   4  238.26   22.10
   2  10   4  243.28   17.99
   2  10   4  253.89   16.31
   2  10   4  281.14   27.50
   2  10   4  244.43   25.03
  -2 -10  -4  228.05   27.87
   5  -1  11   59.64   13.70
  -5   1 -11   81.89   19.79
  -5   1 -11   76.27   14.41
   5  -1  11   79.36   15.88
  -8   4  -5   59.42   13.89
   8  -4   5   57.55   12.10
   8  -4   5   31.80   20.63
   8  -4   5   87.14   14.39
  -8   4  -5   54.57   14.56
  -1  -6  10  139.43   16.65
   1   6 -10  147.76   23.97
  -1  -6  10  127.41   18.68
   1   6 -10  163.35   14.74
   1   6 -10  155.10   22.18
  -5   8   2  148.25   21.16
  -5   8   2  108.02    7.82
   5  -8  -2   73.98    6.98
  -5   8   2  139.13   15.93
   0  -3 -12   71.93   16.51
   0   3  12   94.26   16.59
   0   3  12   77.65   13.48
   0  -3 -12  117.45   13.95
   0  -3 -12   99.14   19.56
   0   6 -10  270.68   17.34
   0   6 -10  322.50   24.75
   0  -6  10  253.17   19.02
   0  -6  10  273.74   18.12
   0   6 -10  252.06   16.06
   0   6 -10  279.80   24.79
 -10   1   0  -33.70   14.15
 -10   1   0    2.00   12.96
 -10   1   0   -7.30   12.12
  -7  -4   8  194.82   15.54
  -7  -4   8  219.37   16.06
  -7  -4   8  211.09   19.39
   7   4  -8  227.49   18.28
  -7   5   5  155.89   21.97
   7  -5  -5  145.23   21.64
   7  -5  -5  145.83   27.40
  -7   5   5  184.25   16.95
   1  -6 -10  107.55   21.20
   1  -6 -10   99.20   19.05
   2   9  -6   57.33    9.90
  -2  -9   6   66.61    9.66
  -2  -9   6   76.14   17.32
   2   9  -6   67.49   25.13
   2   9  -6   51.11    6.82
   2   9  -6   55.48   18.13
   0  -7   9  104.64   10.53
   0  -7   9  109.04   18.35
   0  -7   9  103.43   14.99
   0   7  -9  110.88   22.63
   0   7  -9  105.80   21.56
   0  -7   9  110.07   13.58
   0   7  -9  111.83   11.08
   2  -2  12   47.93   10.64
  -2   2 -12   32.87   12.75
   2  -2  12   47.17   15.85
  -2   2 -12   63.89   20.02
   2  -2  12   48.16   15.61
   9  -1   6   17.02   10.81
   9  -1   6   19.17   13.50
   9  -1   6   14.30   17.09
  -9   1  -6   22.68   15.67
   9  -1   6  -16.49   12.03
   2  -8  -7  423.26   30.68
  -2   8   7  454.88   21.07
 -10   0   2   47.53   12.77
 -10   0   2   42.72   14.56
  10   0  -2   42.92   14.54
 -10   0   2   57.32   13.14
  -3   5 -10   35.60   16.74
  -3   5 -10   65.12   11.48
   3  -5  10   66.83   14.97
  -3   5 -10   90.42   21.51
  -3   5 -10   82.70   11.84
   1  -7  -9  319.49   24.08
  -1   7   9  166.89    9.21
   1  -7  -9  276.15   26.28
  -8  -5   6   -1.91   12.80
  -8  -5   6    0.37    7.72
   8   5  -6    5.55   11.64
   8   5  -6   -0.75   13.87
  -8  -5   6   -3.74   10.78
  10   1   4    9.68   11.97
 -10  -1  -4   10.17   15.22
 -10  -1  -4   10.51   11.23
 -10  -1  -4    6.12   13.66
   8   6  -5  268.44   21.15
  -8  -6   5  240.41   14.92
  -8  -6   5  288.48   17.46
   5  -4  -9  544.40   32.98
  -5   4   9  572.96   31.86
  -5   4   9  569.98   26.35
   5  -4  -9  561.28   30.59
   5  -4  -9  589.05   27.94
  -9   2   4   24.38   11.79
   9  -2  -4   15.07   14.48
  -9   2   4   11.81   16.23
   9  -2  -4   25.38    9.69
  -1  10   2    8.62    7.56
  -1  10   2    4.34   18.63
  -1  10   2   -3.43   19.80
   1 -10  -2  -54.11   26.92
  -1  10   2    5.34    8.16
   3  -1  12   23.63   10.89
   3  -1  12    8.09   15.45
  -3   1 -12   12.73   19.33
   4  10   3   37.31   13.26
   4  10   3   25.17   11.70
   4  10   3   35.93   13.55
   4  10   3   24.60   22.18
   4  10   3   13.48   18.28
   4  10   3   28.96   11.64
  -4 -10   2  138.41   19.87
   4  10  -2  143.04   10.63
  -4 -10   2  157.08   13.54
   4   6  10   88.87   14.20
   4   6  10   80.33   14.98
   4   6  10   83.68   19.51
  -4  -6 -10   87.52   12.51
  -4  -6 -10   91.82   12.41
   4   6  10   92.74   14.19
  -4  -6 -10   96.55   18.32
  -4  -6 -10  103.19   20.92
   6   9   4  203.76   21.59
   6   9   4  268.91   17.38
   6   9   4  294.57   20.77
   6   9   4  317.96   17.43
   6   9   4  275.85   16.37
   6   9   4  264.89   25.23
   1  10   4   48.47   21.61
  -1 -10  -4   56.20   25.00
   1  10   4   72.14   18.88
   1  10   4   36.45   10.92
   1  10   4   68.98   25.16
  -3 -10   3  182.20   19.65
   3  10  -3  186.46   10.76
  -3 -10   3  196.57   13.50
  -3  -5 -11   20.47   12.15
  -3  -5 -11   14.29   11.87
  -3  -5 -11   11.89   19.91
  -3  -5 -11    5.69   17.37
   3   5  11   35.27   19.48
   3   5  11    0.20   13.62
   3   5  11   18.84   14.71
   3   5  11   23.77   12.52
   9   6   4  262.83   16.80
  -9  -6  -4  280.95   18.98
   5  -6  -7  188.93   27.02
   5  -6  -7  195.34   24.19
  -5   6   7  193.02   16.14
   5  -6  -7  176.92   17.24
   8  -1   8   27.37   12.71
   8  -1   8   48.38   11.55
  -8   1  -8   47.28   17.41
   8  -1   8   32.39   14.57
   8  -1   8   21.95   11.15
  -8   1  -8   45.14   14.23
   8   8   1  249.84   26.24
   8   8   1  279.38   17.72
  -8  -8  -1  264.19   19.14
   8   8   1  206.45   13.55
   8   8   1  226.10   14.11
   8   8   1  244.26   19.78
   7  -2  -8  453.94   28.35
  -7   2   8  484.55   28.72
   7  -2  -8  478.53   26.90
   8   4   8   65.11   14.29
   8   4   8   25.15   11.46
   8   4   8   63.46   13.62
  -8  -4  -8   41.12   13.68
  -6   7   3  238.32   18.06
  -6   7   3  178.77   12.34
  -6   7   3  235.98   23.00
  -9  -5   4    7.71   12.78
  -9  -5   4   17.71    9.85
  -9  -5   4   14.25   11.27
  -9  -5   4   37.16   11.57
   9   5  -4    5.18   16.24
   0 -10   3   31.42   15.94
 -10  -4  -3   66.95   14.33
 -10  -4  -3   48.56   14.75
  10   4   3   70.37   13.24
 -10  -4  -3   73.61   14.74
  10   4   3   65.14   19.45
 -10   1  -2  166.09   14.93
 -10   1  -2  160.28   16.54
   4   8  -7  362.59   24.21
   4   8  -7  380.20   32.46
  -4  -8   7  380.66   19.34
  -4  -8   7  361.79   18.54
  -4   7  -7   61.61   11.68
   4  -7   7   65.25   13.96
   0   9  -6  189.52   26.26
   0  -9   6  173.95   18.83
   0   9  -6  146.14    8.81
   0  -9   6  197.66   13.66
   8  -1  -7  186.35   18.40
   8  -1  -7  170.54   20.13
  -8   1   7  210.28   16.54
  -8   1   7  203.28   21.05
   8   7   5   58.93   11.70
   8   7   5   54.36   22.88
   8   7   5   55.88   12.85
   3  -6  -9  387.02   29.42
  -3   6   9  436.06   21.99
   3  -6  -9  425.56   22.35
  -2  -7   9  492.03   21.62
  -2  -7   9  520.33   24.75
   2   7  -9  525.90   23.44
   2   7  -9  529.63   34.17
  -2  -7   9  455.23   27.44
   2   7  -9  492.01   30.02
   7   8   5   85.35   14.33
   7   8   5   88.61   17.79
   7   8   5   61.97   22.10
   7   8   5   42.67   10.94
   7   8   5   44.60   12.69
   8   8   0  253.42   15.20
   8   8   0  319.29   18.77
  -8  -8   0  321.88   20.10
   8   8   0  245.66   21.20
   6  -6   6   33.86   13.51
  -6   6  -6   28.39   12.53
   6  -6   6   22.14   22.10
  -6   6  -6    9.98   16.80
   3  10   4  125.39   13.19
   3  10   4  184.56   16.39
   3  10   4  152.91   19.30
   3  10   4  149.54   14.09
   3  10   4  144.18   24.30
   3  10   4  133.37   22.59
 -10  -3  -4   74.80   15.44
  10   3   4   76.21   13.06
  10   3   4   98.86   14.18
 -10  -3  -4   83.56   15.91
   2  -8   7  357.18   17.93
   2  -8   7  325.94   22.60
  -2   8  -7  357.88   27.46
   2  -8   7  339.69   19.48
  -2   8  -7  317.82   15.83
  -1  10  -2  487.00   31.15
   1 -10   2  518.04   25.91
   1 -10   2  468.62   35.98
  -9  -2  -7   -3.08   13.26
   9   2   7  -11.04   13.23
  -9  -2  -7   -7.71   15.88
   9   2   7  -27.84   13.44
   9   2   7    6.76   12.50
   9  -1  -5  133.97   16.81
   9  -1  -5  133.41   12.72
  -9   1   5  134.71   14.23
  -9   1   5  149.87   18.39
  -8   5   2  131.10   12.08
  -8   5   2  188.72   21.22
   8  -5  -2  163.84   27.41
  -2   9   5  283.73   15.75
  -2   9   5  309.01   25.51
  -2   9   5  253.42   15.81
   2  -9  -5  239.72   28.44
  -2   9   5  272.07   16.27
   7  -6  -3  480.09   34.88
  -7   6   3  506.94   25.27
  -7   6   3  452.57   19.95
  -7   6   3  485.04   29.23
   4  -8   5   80.77   13.27
   4  -8   5  103.28   25.81
  -4   8  -5  103.18   16.58
 -10   1   1  -11.53   12.23
  10  -1  -1    7.10   14.45
 -10   1   1  -20.69   14.20
  -9  -1  -7   46.67   16.70
  -9  -1  -7   38.85   14.68
   9   1   7   66.42   12.80
   9   1   7   39.94   13.82
   6   9  -3  174.18   12.09
   6   9  -3  170.40   16.20
  -6  -9   3  186.24   20.43
  -6  -9   3  167.65   14.80
   6  -4  -8  415.43   26.09
   6  -4  -8  419.99   23.67
   6  -4  -8  407.95   28.70
  -6   4   8  435.85   22.91
  -6   4   8  441.27   28.52
   4   8   8   91.53   11.55
   4   8   8  119.01   17.34
   4   8   8   88.87   14.68
   4   8   8  100.15   19.43
   4   8   8   70.19   20.98
  -4  -8  -8  111.41   17.75
  -4  -8  -8   97.19   11.51
   4   8   8   88.84   14.99
   4   8   8   92.76   13.59
   6  -5  -7  312.94   30.00
   6  -5  -7  309.25   26.12
  -6   5   7  344.41   26.04
   6  -5  -7  307.41   20.32
  -6   5   7  321.07   19.61
  -2  -2  12   -1.06   14.79
  -2  -2  12    8.34    8.76
   2   2 -12   -9.81   18.92
  -8  -8  -2   63.73   15.38
   8   8   2   27.30   10.22
   8   8   2   73.20   10.86
   8   8   2   69.43   16.60
   8   8   2   79.59   21.74
  -2  -6  10   -1.86   14.17
   2   6 -10    3.13   12.09
  -2  -6  10   15.23   16.61
   2   6 -10   -6.24   23.72
   2   6 -10   18.60   19.38
  -4  -5  10  351.21   22.88
   4   5 -10  383.72   25.78
   4   5 -10  409.53   20.34
  -9  -4   5   93.19   13.51
   9   4  -5   60.26    9.38
  -9  -4   5   77.16   10.99
   9   4  -5   93.85   17.14
 -10  -2   3  169.29   14.42
 -10  -2   3  154.15   16.48
 -10  -2   3  171.25   15.69
  10   2  -3  161.41   17.45
  10   2  -3   78.39    9.74
  -6   2 -10   -4.35   13.12
  -6   2 -10   38.89   18.85
   6  -2  10    3.03   11.02
   3   4 -11  273.62   17.58
   3   4 -11  240.46   23.64
  -3  -4  11  204.38   19.65
  -8   5  -3   -3.11   14.19
   8  -5   3  -20.16   11.38
   8  -5   3    9.86   22.47
   5  10   1  348.94   21.69
   5  10   1  298.13   16.91
   5  10   1  375.35   30.58
   5  10   1  318.25   16.46
   5  10   1  265.62   22.78
   5  10   1  238.66   19.66
   5  10   0  423.86   20.89
   5  10   0  480.96   20.41
   5  10   0  414.88   23.60
   5  10   0  439.51   27.52
  -5 -10   0  486.36   23.41
  -1   6 -10  260.45   22.50
  -1   6 -10  238.85   24.47
  -1   6 -10  211.06   14.74
   1  -6  10  249.71   18.92
   1  -6  10  248.72   17.99
  -1   9   6  220.18   15.46
  -1   9   6  217.18   13.80
   1  -9  -6  176.53   26.50
   4  -4 -10  127.41   25.49
  -4   4  10  168.33   15.73
   4  -4 -10  132.45   17.08
   4  -4 -10  160.12   20.82
 -10  -1   3   22.33   12.72
 -10  -1   3   39.81   12.32
 -10  -1   3   35.35   14.12
  10   1  -3   39.11   14.39
   7  -5   6  142.15   22.37
   7  -5   6  138.18   14.48
   7  -5   6  165.44   16.39
  -7   5  -6  148.44   15.56
   0   3 -12  248.17   24.38
   0   3 -12  263.49   21.23
   0  -3  12  267.99   19.95
   0  -3  12  284.32   20.79
   7   6   8   49.15   15.04
   7   6   8   52.08   11.61
  -7  -6  -8   43.81   14.25
   7   6   8   42.86   16.19
   7   6   8   22.76   13.77
  -5   8  -3   93.56   16.25
  -5   8  -3   72.79   20.01
   5  -8   3  101.22   26.12
   5  -8   3   97.60   10.46
  -3   7  -8  296.24   25.13
   3  -7   8  318.63   18.44
   3  -7   8  310.93   19.15
  -3   7  -8  255.66   15.26
   3  -5 -10  544.62   32.80
   3  -5 -10  555.06   26.87
   3  -5 -10  528.77   30.36
  -3   5  10  525.24   24.57
   9  -3   4  104.59   13.25
   9  -3   4   99.53   22.32
  -9   3  -4   65.76   10.46
  -4   8   5  494.79   22.89
  -4   8   5  449.63   21.48
   4  -8  -5  468.74   22.18
   4  -8  -5  450.49   33.30
  -2   9  -5    4.96   24.23
   2  -9   5    1.13   11.45
   2  -9   5   15.76    8.27
   2  -9   5   24.46   15.48
  -6  -7  -8  133.68   11.39
  -6  -7  -8  153.57   17.05
   6   7   8  119.79   19.24
   6   7   8  197.69   18.05
   7  -2   9   28.04   10.69
  -7   2  -9   28.77   18.83
  -7   2  -9   45.62   14.27
  -1  -8   8  116.78   10.52
   1   8  -8   96.04    9.99
   1   8  -8   78.64   12.13
  -1  -8   8  135.81   18.16
  -1  -8   8  104.09   14.31
   1   8  -8  114.18   21.24
   1   8  -8  106.35   24.95
   5   4 -10    1.17   14.34
  -5  -4  10   -2.26   15.05
   5   4 -10   -6.13   18.06
  -1   7  -9    2.93   20.33
   1  -7   9  -12.01   15.86
  -1   7  -9   -4.47    9.44
  -1   7  -9   -6.73   20.31
   1  -7   9   -8.49   12.56
   3   9  -6   25.71    8.95
   3   9  -6   55.22   26.31
   3   9  -6   42.07   18.68
  -3  -9   6   28.89   10.16
  -3  -9   6   41.32   17.30
   3   3  12   -9.14   14.63
   3   3  12   17.09   20.08
  -3  -3 -12    1.18   12.37
   3   3  12    6.86   12.22
   3   3  12  -10.92   15.78
  -6  -6  -9  129.90   12.54
   6   6   9  162.36   18.41
  -6  -6  -9  116.61   20.05
  -6  -6  -9  138.15   17.56
   4   3 -11  141.96   17.51
  -4  -3  11  113.21    7.67
  -4  -3  11  110.02   19.95
   4   3 -11  136.81   20.26
  -4  -3  11  140.60   17.17
   4   3 -11  144.79   14.80
  -2  -9  -7   98.52    9.44
  -2  -9  -7  125.39   25.03
   2   9   7  113.26   13.92
   2   9   7  115.95   20.59
   2   9   7  119.51   15.70
   2   9   7  112.55   14.44
   4  -2 -11   25.13   17.82
  -4   2  11   32.53   10.56
  -8  -8   1  309.01   19.30
  -9   3   3   92.92   12.68
  -9   3   3  108.75   18.70
 -10  -4   2  -11.13   13.50
 -10  -4   2   -5.28   12.53
  10   4  -2    1.61   16.46
 -10  -4   2  -19.87   12.46
   4  -3  11  118.24   16.57
   4  -3  11  112.66   13.27
  -4   3 -11  114.05   13.88
   4  -3  11  123.06   16.62
  -4   3 -11  110.35   21.03
  -4   3 -11  114.44   13.21
  10   0   4   12.37   11.96
 -10   0  -4   10.69   15.71
 -10   0  -4  -21.21   13.47
 -10   0  -4   18.96   13.49
   7   9   1   22.63   10.08
   7   9   1  -15.41    7.93
  -7  -9  -1    5.93   13.49
   7   9   1  -12.84   24.92
   7   9   1   17.41   12.34
   7   9   1   -6.64   17.52
   2  -2 -12   57.60   19.48
  -2   2  12   41.46   12.87
   4  -7  -7  174.33   24.65
   4  -7  -7  150.45   15.98
  -4   7   7  164.63   15.20
   4  -7  -7  164.04   25.53
   9   3   7   -1.25   12.64
  -9  -3  -7   -6.55   12.41
   9   3   7   -9.96   13.13
   9   3   7  -23.18   13.33
  -9  -6   3  270.26   15.63
  -9  -6   3  288.65   16.51
  -9  -6   3  289.12   18.95
   9   6  -3  285.57   22.33
  -9  -6   3  304.87   16.26
   7  -6   4    2.30   22.77
   7  -6   4    1.79   10.92
   7  -6   4   18.56   12.60
  -7   6  -4    0.78   16.47
   1  -3 -12   25.31   17.64
  -1   3  12    1.15   12.61
   7   8  -4   65.40   12.50
   7   8  -4   55.14   12.20
  -7  -8   4   73.57   13.46
  -7  -8   4   63.47   18.66
  -3   7   8  317.37   18.76
   3  -7  -8  320.17   19.26
   3  -7  -8  324.15   28.95
   7   9   0   90.22    8.88
   7   9   0  115.96   27.51
   7   9   0   52.31   10.04
  -7  -9   0  102.94   14.63
   7   9   0  137.86   13.89
   7   9   0  103.31   10.93
   7   9   0   91.91   18.81
 -10  -5  -1  253.77   17.32
   0   5 -11    9.70   11.99
   0   5 -11   38.23   19.13
   0   5 -11   36.69   20.53
   0   5 -11   39.72   13.17
   0  -5  11   33.89   14.91
   0  -5  11   21.87   14.22
   1  -3  12   15.05   15.25
   1  -3  12   -5.28   15.42
  -1   3 -12   18.69   12.49
   4   1  12   72.67   16.47
   4   1  12   51.27   19.02
  -4  -1 -12   45.12   19.14
   4   1  12   67.01   12.90
   4  -9   0   18.62   25.30
   4  -9   0    6.49    7.28
   4  -9   0   14.08   11.57
  -4   9   0    1.43   19.40
   5  10   2  136.93   18.71
   5  10   2  152.61   13.17
   5  10   2  142.75   17.15
   5  10   2  154.25   25.58
   5  10   2  133.00   12.68
   7   7   7  117.65   20.28
   7   7   7  115.19   11.71
   7   7   7   98.42   15.09
   7   7   7  137.48   15.40
  -7  -7  -7  107.06   14.28
   0 -10  -4  -36.42   26.72
   0  10   4   -6.02    7.83
   0  10   4   -3.38   10.06
   0  10   4    9.36   18.43
   0  10   4   10.57    9.13
  -5   7  -6   34.41   12.31
   5  -7   6   25.48   23.65
   5  -7   6   40.92   13.65
  -5   7  -6   56.40   17.03
  -1   5  11   13.79   13.36
   1  -5 -11   34.20   18.04
   1  -5 -11   21.78   19.14
   6  -7   4  129.87   12.54
   6  -7   4  168.38   25.98
   6  -7   4  140.04   14.79
  -6   7  -4  160.16   20.86
  -6   7  -4  166.74   19.01
  -9  -7  -1   29.59   12.90
  -9  -7  -1    5.80   13.80
   9   7   1  -15.95   13.84
   9   7   1   -3.18   11.18
  -1  -3  12  499.28   25.31
   1   3 -12  474.74   29.70
  -1  -3  12  460.25   18.59
   1   9   7  -23.59   19.36
   1   9   7    7.98   12.78
  -1  -9  -7  -10.57   24.34
   1   9   7   11.05   11.35
  -1  -9  -7  -18.21    8.78
  10  -1   3  131.84   15.12
 -10   1  -3  137.61   14.74
 -10   1  -3  106.93   15.80
   1   5 -11   13.75   19.40
  -1  -5  11   -0.23   14.65
  -1  -5  11  -23.86   15.01
  -1  -5  11   25.55   16.00
   1   5 -11   12.68   21.32
   1   5 -11   15.30   12.97
   0   8  -8   24.71    8.83
   0  -8   8   55.96   17.42
   0  -8   8   33.32    7.89
   0   8  -8   32.53   23.01
   0   8  -8   17.39   20.00
  -5   8   3  281.67   24.78
   5  -8  -3  285.27   17.07
  -5   8   3  307.18   19.53
  -6  -1  10  180.44   15.29
  -6  -1  10  151.89   15.89
  -6  -1  10  197.83   21.84
   6   1 -10  153.25   20.02
  -1  10   3    5.49   20.17
  -1  10   3    8.22    8.91
  -1  10   3    2.29    8.67
   1 -10  -3  -48.95   27.35
 -10  -5   0  268.14   17.47
  10   5   0  271.72   22.72
  -8  -4   7  192.65   15.93
   8   4  -7  178.21   17.43
   8   4  -7  153.91   15.56
  -8  -4   7  155.79   14.45
   5  10  -1  114.57   16.16
  -5 -10   1  172.68   15.33
   5  10  -1  138.23   19.89
   5  10  -1  155.51   11.47
  10   3  -3  111.21   17.76
 -10  -3   3  107.84   14.92
 -10  -3   3   94.56   13.20
 -10  -3   3  108.14   14.79
  -2  -8   8  268.19   15.12
   2   8  -8  256.70   28.97
  -2  -8   8  279.18   17.94
   2   8  -8  267.92   24.16
   2   8  -8  295.01   16.46
  -8  -7   4  163.83   12.22
  -8  -7   4  175.10   16.12
   7   1  -9   53.25   17.20
  -7  -1   9  106.95   19.57
  -7  -1   9   84.53   13.87
   9   7   0  -17.84   13.92
  -9  -7   0    0.92   11.88
  -9  -7   0    9.47    7.61
  -9  -7   0  -12.50   13.98
   7   1  10   19.02   12.87
  -7  -1 -10   28.34   17.91
   1  -8  -8   10.64   22.89
  -6  -6   8  197.19   15.54
   6   6  -8  172.96   18.46
   6   6  -8  189.51   16.73
  -6  -6   8  184.86   20.17
   4  -9   1   18.18   24.93
   4  -9   1    0.30   12.07
  -4   9  -1  -16.46   19.49
   4  -9   1   -5.04    7.38
  -4   9  -1  -13.59   14.14
  -1 -10   4  192.58   19.02
  -1 -10   4  165.01   10.77
  -3   9   4  660.56   25.97
  -3   9   4  583.46   24.88
   3  -9  -4  668.76   25.71
   3  -9  -4  589.23   37.92
  -3   9   4  669.35   34.60
  -3   9   4  633.30   26.93
   9   0   7   28.14   12.04
   9   0   7   27.78   13.42
  -9   0  -7   49.97   15.61
   9   0   7   29.74   15.84
   9   0   7   58.32   14.61
  -2 -10   4  191.02   10.34
  -2 -10   4  252.85   20.29
   2  10  -4  199.95   10.73
  -2 -10   4  224.09   12.87
  -9  -1   6   18.94   14.67
  -9  -1   6    2.89   12.55
   9   1  -6   -0.66   12.71
  -9  -1   6    6.64   12.00
   4   0  12   25.68   15.67
  -4   0 -12   -2.41   19.64
   4   0  12   30.30   11.87
   7   9   2  -14.76    7.57
   7   9   2  -11.37   12.70
   7   9   2   -0.76   10.32
  -7  -9  -2  -11.24   14.08
   7   9   2   -7.88   20.92
   7   9   2    5.17   16.80
   4  -9  -1   92.27    8.99
   4  -9  -1   86.28   11.94
  -4   9   1  103.55   21.24
   4  -9  -1   96.96   26.11
  -6  -7   7   61.96   12.91
  -6  -7   7   74.64   18.55
   6   7  -7   59.82   15.90
   6   7  -7   86.93   13.76
  -3   4 -11  135.63   22.47
   3  -4  11  154.48   17.05
   3  -4  11  167.03   17.68
  -3   4 -11  150.75   13.93
  -3   4 -11  128.57   13.25
  -3   9  -4  146.74   16.27
   3  -9   4  123.89   13.12
  -3   9  -4  142.41   26.86
   3  -9   4   99.09   27.35
   3  -9   4   88.50   16.51
  -9  -2   6  104.68   14.67
   9   2  -6  104.07   14.19
   9   2  -6  144.62   15.55
  -9  -2   6  113.65   14.84
  -9  -2   6  134.28   15.70
  -7  -2 -10   17.08   16.73
  -7  -2 -10   22.38   15.38
   7   2  10   18.44   12.57
   7   2  10   -8.70   13.10
 -10  -5  -2  135.50   14.95
  10   5   2  121.05   14.09
 -10  -5  -2  156.60   15.67
 -10  -5  -2  123.60   16.87
   3   9   7  228.61   17.56
   3   9   7  150.04   22.90
   3   9   7  195.28   13.96
   3   9   7  243.03   15.55
   3   9   7  212.20   17.85
   3   9   7  213.38   13.00
  -3  -9  -7  202.51   12.31
   3   9   7  219.58   21.89
   8   8   3   13.49   15.16
  -8  -8  -3   27.23   14.34
   8   8   3   28.40   10.87
   8   8   3    7.13    9.98
  -6   0  10    6.00   12.14
  -6   0  10   14.60   12.36
  -6   0  10   18.59   19.52
   6   0 -10   -9.54   16.99
  -9  -7  -2  111.83   14.87
  -9  -7  -2  116.91   16.44
   9   7   2   71.66   13.69
   9   7   2   81.73   11.97
  -4  -2 -12   79.95   13.89
   4   2  12   72.85   16.32
  -4  -2 -12   75.64   19.68
   4   2  12   55.77   13.41
   4   2  12   67.04   16.20
   4   2  12   86.75   20.30
  -9   4  -1    0.96   17.27
  -9   4  -1    4.46    9.68
   9  -4   1   26.86   23.79
   4  10   4  121.14   13.67
   4  10   4   78.72   23.63
   4  10   4  118.61   21.00
   4  10   4  109.24   13.01
  -9   4   0  -39.51   18.48
  -9   4   0   -7.43    9.84
   9  -4   0   -4.99   23.99
  10   0  -3   -0.33   13.18
 -10   0   3  -19.33   12.39
 -10   0   3   21.12   13.44
  10  -1  -2   10.99   13.22
 -10   1   2   -3.77   12.08
   5   4  11   55.97   13.98
  -5  -4 -11   73.01   12.87
  -5  -4 -11   74.04   19.53
   5   4  11   74.47   14.94
  -5  -4 -11   64.17   12.41
   5   4  11   60.38   16.09
   5   4  11   70.84   19.58
  -8   3   6  234.86   22.79
   8  -3  -6  218.19   21.38
   9   5   6   79.50   12.35
   9   5   6   70.82   20.94
   9   5   6   79.69   13.50
   9   5   6   74.62   13.92
  -2  10   0   24.92   20.27
   2 -10   0   10.24   27.24
  -2  10   0   23.49   11.81
   2 -10   0   28.12   13.51
   1  -9   6  209.21   15.28
  -1   9  -6  210.95   26.80
   1  -9   6  190.94   11.77
   1  -9   6  198.68   19.82
   4  10  -3   82.63    7.97
  -4 -10   3  104.64   12.26
  -4 -10   3  115.26   19.36
  -3   0  12  178.08   13.86
  -3   0  12  167.29   16.09
  -7  -2   9  311.12   22.76
  -7  -2   9  261.08   19.96
   7   2  -9  265.60   20.54
  -7  -2   9  290.35   18.35
  -3  -7   9   99.23   14.66
   3   7  -9  104.70   20.51
   3   7  -9   91.65   26.66
   3   7  -9  115.50   13.55
  -3  -7   9   96.83   18.24
  -3  -7   9   90.55   11.90
 -10  -4  -4   45.13   14.72
 -10  -4  -4   10.95   14.81
  10   4   4   33.91   12.62
   7   6  -7   46.84   14.24
   7   6  -7   53.66   14.49
  -7  -6   7   36.49   12.75
  -7  -6   7   44.83   17.87
  -7  -5  -9    6.05   14.90
   7   5   9  -20.51   14.99
  -7  -5  -9   21.39   16.16
  -7  -9   1  181.98   16.14
   7   9  -1  168.28   10.42
   7   9  -1  132.03   12.63
   3  -2  12  -14.23   15.16
  -3   2 -12    8.38   19.73
  -7   0   9    0.20   12.68
  -7   0   9  -15.34   18.64
   7   0  -9    2.26   16.84
  -6  -2  10  320.87   20.80
  -6  -2  10  377.63   24.94
   5   9   6   13.43   14.52
   5   9   6  -19.70   12.50
   5   9   6   -4.13   10.20
   5   9   6   -0.39   11.65
   5   9   6   11.29   15.01
   1  -5  11  178.90   18.26
  -1   5 -11  195.79   23.36
   1  -5  11  183.51   17.53
  -1   5 -11  201.94   20.26
  -1   5 -11  179.89   14.90
   5  -2  11  134.88   14.57
  -5   2 -11  114.45   21.04
  -5   2 -11  138.05   15.59
 -10  -2  -5  150.09   18.41
 -10  -2  -5   94.38   11.71
  10   2   5  140.02   14.91
  10   2   5  150.84   15.83
  10   2   5  127.41   15.14
 -10  -2  -5  135.94   16.52
   1 -10   3  439.36   24.52
   6  -3  -9  588.58   30.88
   6  -3  -9  542.64   32.76
  -6   3   9  572.55   27.05
  -6   3   9  575.17   32.43
  -3  -1  12  163.96   17.53
  -3  -1  12  203.03   13.38
   3   1 -12  204.75   22.75
  -4  -5 -11    7.06   19.61
  -4  -5 -11    7.07   11.93
   4   5  11   10.07   14.01
  -4  -5 -11    9.34   11.85
  -4  -5 -11   22.44   17.88
   4   5  11    9.77   14.45
   4   5  11   15.36   13.02
   4   5  11   28.39   19.48
  -1  -4 -12   57.04   19.46
   1   4  12   81.99   16.05
   1   4  12   66.25   13.80
  -1  -4 -12   74.44   13.44
  -1  -4 -12   42.74   15.76
  -8   3  -7  -18.99   14.74
   8  -3   7    1.65    9.03
   8  -3   7    2.67   17.53
  -8   3  -7  -19.67   18.53
   8  -3   7  -35.10   12.93
   2 -10  -1   -1.55   12.55
  -2  10   1  -22.28   20.18
   5  -3 -10  201.12   24.57
   5  -3 -10  194.97   21.93
  -5   3  10  178.25   16.45
 -10  -5   1  213.31   15.66
  10   5  -1  217.59   20.48
 -10  -5   1  196.02   16.11
  10   5  -1   93.00    8.74
  -5   5  -9  136.98   22.25
   5  -5   9  124.71   15.97
  -5   5  -9  122.91   14.02
   5   7   9   -7.39   13.99
   5   7   9   33.50   17.25
  -5  -7  -9   27.75   19.62
  -5  -7  -9  -11.07   10.30
   5   7   9   -9.26   11.54
   5   7   9    2.73   13.36
  -5  -7  -9  -14.15   11.98
  -5  -7  -9   -8.82   16.56
   6  -6  -6   48.80   20.83
  -6   6   6   49.77   13.03
   6  -6  -6   53.83   24.81
   6  -6  -6   39.03   14.24
  -2  10  -1   36.14   12.44
   2 -10   1   35.82   14.18
   2 -10   1   33.58   26.80
  -2  10  -1   18.59   20.68
   8  -5  -3  277.96   31.33
  -8   5   3  303.16   24.12
  -8   5   3  258.31   15.67
   2  10   5   72.87   12.92
   2  10   5   63.30   12.98
  -2 -10  -5   67.81   25.42
   2  10   5   81.39   21.55
   2  10   5  100.32   24.63
   2  10   5  108.58   19.71
   2  10   5   71.38   14.13
   8   6   7   -7.79   10.79
   8   6   7  -14.63   13.27
  -8  -6  -7    1.90   11.73
   8   6   7    3.80   18.02
 -10  -1  -5   20.65   13.91
 -10  -1  -5   28.93   16.47
  10   1   5   40.06   13.31
  10   1   5   34.76   12.81
 -10  -1  -5   41.95   13.07
   5   7  -8   27.83   16.85
  -5  -7   8   15.65   16.93
  -5  -7   8   42.51   12.03
   5   7  -8   21.35   12.54
  -9  -7   1   10.45   11.20
  -9  -7   1   19.47    8.85
   9   7  -1   11.12   14.38
  -9  -7   1    3.34   13.77
   7   0  10   29.97   12.71
  -7   0 -10   48.07   18.26
  -7   0 -10   31.68   15.09
  -6  -1 -11   -3.15   14.74
  -6  -1 -11   -5.67   18.19
   6   1  11   13.72   13.64
   6   1  11   17.40   12.16
  -8  -2  -9   43.36   16.41
   8   2   9   64.38   14.69
   8   2   9   66.54   14.22
  -8  -1  -9   12.08   16.28
   8   1   9    3.22   13.99
   8   1   9   19.59   12.95
  -2  -4 -12   36.90   13.41
  -2  -4 -12   37.12   18.80
   2   4  12   24.28   12.87
   2   4  12   33.86   15.60
   5   9  -5   61.99   16.74
  -5  -9   5   75.44   12.48
  -5  -9   5   54.77    8.55
  -5  -9   5   51.49   18.90
   7   7  -6   44.76   14.17
  -7  -7   6   56.55   12.95
  -7  -7   6   72.01   19.47
   7   7  -6   87.14   13.86
  -9  -6  -5  199.71   17.89
   9   6   5  158.89   24.72
   9   6   5  171.08   15.58
   9   6   5  165.75   15.04
   6   8   7   71.61   20.94
   6   8   7  120.66   15.97
   6   8   7   74.45   14.24
   6   8   7   77.40   16.31
   6   8   7   61.49    9.84
   3   6 -10   61.00   13.36
   3   6 -10   37.75   24.80
   3   6 -10   43.00   19.28
  -3  -6  10   53.88   17.16
   6   9   5  206.53   14.81
   6   9   5  118.80   19.30
   6   9   5  178.95   15.60
   6   9   5  184.90   17.92
   6   9   5  191.74   24.59
   6   9   5   92.52   14.76
   9   0  -6   83.69   16.91
  -9   0   6  106.18   13.77
  -9   0   6   98.74   14.16
  -9   0   6   93.24   16.87
  -8  -8   2   81.76   14.19
  -9   4  -2   15.66    9.94
   9  -4   2   48.16   23.76
   9  -4   2   -1.98   12.22
  -9   4  -2   16.81   16.85
  -4   9  -2    8.69   14.47
   4  -9   2   72.21   26.08
  -4   9  -2  -13.39   20.25
   4  -9   2   15.52   13.21
  -9   4   1   73.59   18.84
  -9   4   1   86.91   11.49
   9  -4  -1   80.04   25.91
  -2  -5  11  131.12   19.09
   2   5 -11  165.04   22.07
   2   5 -11  168.14   24.79
   2   5 -11  183.16   16.45
   5  10   3   46.88   11.60
   5  10   3   14.35   14.64
   5  10   3   52.10   16.70
   5  10   3   27.52   11.16
  -6   7   4  219.69   18.24
   0 -10   4   -1.81    9.07
   0 -10   4   13.09   15.69
  -8   4   5   99.08   12.98
   8  -4  -5  112.54   19.75
  -3 -10   4  129.21   19.08
   3  10  -4   93.08    6.26
  -3 -10   4  127.44   11.81
   2  -6 -10  349.63   28.20
  -5   7   6  164.18   15.07
   5  -7  -6  156.84   26.64
   5  -7  -6  150.88   15.87
  -5   7   6  181.74   15.97
   0   9   7   59.45   13.68
   0  -9  -7   56.14   24.17
   6  -4   9   92.25   15.54
  -6   4  -9  121.26   21.89
   6  -4   9   66.71   10.16
  -6   4  -9  101.68   14.90
  -4   9   2   84.78   21.30
  -4   9   2   81.59   14.56
   6   2  11   -1.17   13.63
   6   2  11   -3.81   14.43
   6   2  11   -0.95   12.24
  -6  -2 -11   13.35   17.51
   8  -5   4   47.84   23.33
  -8   5  -4   27.63   15.20
   8  -5   4   38.94   12.14
  -2  -7 -10   99.44   12.94
   2   7  10   85.04   14.89
  -2  -7 -10  103.20   19.60
  -2  -7 -10  102.46   21.28
   2   7  10  114.15   21.49
   2   7  10   85.08   14.95
  -2   3 -12    1.59   19.38
   2  -3  12   -7.42   15.58
   2  -3  12   -5.02   15.32
   9   3  -6  262.24   19.60
  -9  -3   6  263.51   15.10
   9   3  -6  232.79   16.62
  -9  -3   6  264.81   17.89
   5   6  -9  399.61   25.68
   5   6  -9  443.91   22.52
  -5  -6   9  452.24   22.28
  -5  -6   9  466.06   26.47
   6  -5   8   97.50   15.93
  -6   5  -8   82.30   20.30
  -6   5  -8   93.36   14.43
   6  -5   8   69.02   20.50
  -3   1  12   54.19   13.10
  -3   1  12   58.72   12.91
   3  -1 -12   47.84   19.71
 -10   2  -1  -16.46   15.15
 -10   2  -1   -8.13   11.57
   7  -4  -7  266.02   24.52
   7  -4  -7  267.66   20.29
  -7   4   7  283.35   25.04
   1  10   5  -10.18   11.30
   1  10   5   15.39   12.24
   1  10   5   41.65   25.13
  -1 -10  -5  -18.13   25.33
   1  10   5    2.83   19.00
   1  10   5   11.88   20.93
  -6  -5 -10   55.11   19.06
  -6  -5 -10   64.63   17.82
  -6  -5 -10   71.66   13.39
   6   5  10   48.15   13.99
   6   5  10   70.85   18.14
   2  -6  10   33.05   14.67
   2  -6  10   33.47   14.17
  -2   6 -10   51.87   11.13
  -2   6 -10   39.40   18.31
  10   3   5   49.50   13.32
 -10  -3  -5   42.95   15.69
 -10  -3  -5   44.68   15.24
  -7  -3 -10   13.25   15.81
  -7  -3 -10    2.04   16.07
   7   3  10   11.03   12.60
   9  -2   6   -4.08   13.69
   9  -2   6    0.12    9.84
  -9   2  -6   -8.58   16.92
   9  -2   6   13.37   17.69
   9  -2   6   -6.57   12.13
 -10   2   0    8.41   14.91
 -10   2   0   17.18   11.92
   5  10  -2   54.23   14.33
  -5 -10   2   67.00   12.85
  -5 -10   2   69.04   18.19
   5  10  -2   79.06    9.47
  -1  -7 -10   -2.46   18.47
   1   7  10   -3.41   13.92
  -1  -7 -10   19.95   20.63
  10   5   3   20.39   12.16
 -10  -5  -3   13.84   13.38
 -10  -5  -3   -2.12   15.26
 -10  -5  -3   38.10   14.43
   7   9   3   74.97   18.19
   7   9   3   71.59   13.79
   7   9   3   81.82   21.12
   7   9   3   65.56   11.52
  -2   7   9  415.51   20.95
   2  -7  -9  389.57   26.43
   2  -7  -9  410.74   30.51
   1  -8   8  271.16   21.63
  -1   8  -8  242.46   14.03
  -1   8  -8  259.18   24.70
  -1   8  -8  297.51   27.30
   1  -8   8  266.05   16.08
   0  -4 -12   70.33   13.37
   0   4  12   38.23   15.40
   0  -4 -12   55.44   18.92
   0   4  12   47.58   13.56
   0  -4 -12   61.82   17.51
  -2  -3  12  130.44    9.13
  -2  -3  12  174.76   18.00
   2   3 -12  130.37   21.77
  -8   2   7  257.61   23.18
  -8   2   7  231.56   17.75
   8  -2  -7  244.89   22.23
  -5  -1  11  117.89   21.72
  -5  -1  11   97.29   14.95
  -7   6   4  345.75   17.69
  -7   6   4  381.24   26.93
   3  10   5  192.12   16.18
   3  10   5  261.74   18.42
   3  10   5  248.22   16.65
   3  10   5  223.79   23.92
   3  10   5  244.15   26.17
  -5  -6 -10   16.05   19.17
  -5  -6 -10    9.70   16.92
   5   6  10    4.71   12.99
  -5  -6 -10    3.67   11.72
  -5  -6 -10  -11.06   11.06
   5   6  10  -22.43   14.94
   5   6  10   31.41   18.65
   9   4   7   83.81   13.89
   9   4   7   89.39   14.41
  -9  -4  -7   73.10   12.56
   9   4   7   77.58   18.21
  -8   2  -8   34.87   18.57
   8  -2   8   14.55   10.34
   8  -2   8   14.33   14.89
   8  -2   8   14.89   14.71
   8  -2   8   13.36   12.86
  -3  -8   8  441.88   20.47
   3   8  -8  463.14   35.79
   3   8  -8  424.47   28.26
  -3  -8   8  441.59   22.25
   3   8  -8  496.29   21.51
  -9  -7  -3  140.22   17.33
   9   7   3  135.48   13.83
   9   7   3  173.19   26.47
  -9  -7  -3  143.35   16.05
  -4   1 -12    8.56   19.67
   4  -1  12   18.47   15.80
   4  -1  12   38.11   11.70
   8  -4   6   33.92   20.02
   8  -4   6   32.23   12.58
   8  -4   6   45.31   14.29
   8   5   8   -3.07   12.63
   8   5   8   -5.41   13.50
  -8  -5  -8   33.48   13.55
   7   5  -8    2.13   14.75
   7   5  -8   20.21   15.07
  -7  -5   8   13.66   12.33
  -7  -5   8    4.73   16.63
   5  -8   4  122.67   27.33
  -5   8  -4  163.85   18.40
   5  -8   4  173.12   15.18
   5   0 -11   17.08   18.28
  -5   0  11    5.62   12.33
  -5   0  11   29.36   20.58
   6   5  -9    4.23   14.55
   6   5  -9   -4.12   16.50
  -6  -5   9    3.18   12.24
  -6  -5   9    1.71   16.08
  -6   1  10  128.81   14.87
  -6   1  10  109.00   12.69
   6  -1 -10  144.43   20.13
  -6   0 -11   32.21   15.14
  -6   0 -11   31.08   19.24
   6   0  11   37.99   13.48
  -5   6  -8   86.63   13.39
   5  -6   8  100.52   15.55
  -5   6  -8   46.29   20.09
  -2  10   2   63.66   20.89
   2 -10  -2   51.94   26.78
  -5   4 -10  -10.23   12.57
   5  -4  10   17.96    9.66
  -5   4 -10   21.36   20.35
   8   1  -8    0.22   15.17
  -8  -1   8    8.81   12.72
  -8  -1   8   13.83   13.21
  -8  -1   8   15.55   17.17
  -3   4  11   47.27    7.50
   3  -4 -11  102.48   24.01
   3  -4 -11   73.73   19.71
 -10  -4   3   11.46   11.14
 -10  -4   3   14.23   12.76
 -10  -4   3    2.95   11.87
  10   4  -3   26.62   16.72
  -9   2   5   81.79   18.33
  -9   2   5   91.04   13.30
   9  -2  -5   99.92   17.60
  -6  -9   4  191.09   15.58
   6   9  -4  190.15   17.36
   6   9  -4  180.06   12.96
  -2   7  -9   66.72   20.80
  -2   7  -9   64.72   10.96
   2  -7   9   72.74   14.15
  -2   7  -9   69.69   22.07
  -4  -9   6  201.16   13.72
  -4  -9   6  231.79   21.68
  -4  -9   6  260.81   15.17
   4   9  -6  257.99   22.45
  -3  -2  12   72.36   16.69
   3   2 -12  105.47   21.04
  -3  -2  12   92.71    9.81
 -10   1  -4   36.59   13.42
  10  -1   4   62.96   13.35
  10  -1   4   96.89   13.00
 -10   1  -4   57.71   15.57
 -10   2  -2   -1.54   14.71
 -10   2  -2    7.56   11.71
  -5  -8  -8    0.22   15.20
   5   8   8    5.08   13.48
   5   8   8   29.58   16.54
   5   8   8   12.42   19.95
   5   8   8    3.36   16.78
   5   8   8  -18.20   12.69
  -6  -8   6    3.66   17.87
   6   8  -6    4.94   11.76
  -6  -8   6   -3.27   11.92
   6   8  -6    7.43   14.90
  -7  -3   9  155.51   15.12
  -7  -3   9  151.91   15.85
  -7  -3   9  186.33   19.56
   7   3  -9  175.44   18.63
  -7  -3   9  143.98   18.38
   4   9   7  105.15   18.89
   4   9   7   74.58   14.70
   4   9   7   82.73   11.94
   4   9   7   68.25   12.84
   4   9   7   85.30   16.84
   4   9   7   98.97   22.01
   8   3   9  118.58   15.48
   8   3   9   89.23   14.28
  -8  -3  -9   66.60   16.50
  -2  10  -2  141.43   22.91
  -2  10  -2  137.24   14.95
   2 -10   2  127.70   16.64
   2 -10   2  148.82   28.90
   8   7   6    5.23   13.23
   8   7   6   11.81   20.55
   8   7   6   11.83    9.18
   8   2  -8   60.26   15.21
  -8  -2   8   87.16   17.48
  -8  -2   8   64.40   13.43
   8   0   9    3.81   14.56
  -8   0  -9   22.35   17.07
   8   0   9    5.31   12.31
   2   8   9  -18.54   20.01
   2   8   9    7.61   13.09
   2   8   9   -6.98   12.29
  -2  -8  -9   11.14   21.64
  -2  -8  -9    3.21   10.19
  -2  -8  -9   -7.69   17.57
   2   8   9   18.63   13.97
 -10  -2   4  129.88   13.56
 -10  -2   4  130.15   15.88
 -10  -2   4  125.12   15.27
  10   2  -4   95.64   16.32
   7   8   6   79.86   14.48
   7   8   6   89.85    8.44
   7   8   6  137.35   13.47
   7   8   6  128.33   22.72
  -4  -3 -12   30.25   13.22
   4   3  12   34.19   20.12
  -4  -3 -12   -2.32   18.67
   4   3  12   22.47   15.16
   4   3  12   11.59   15.68
   4   3  12    8.51   12.58
  -4  -3 -12   33.42   20.17
   7   9  -2  219.37   15.04
  -7  -9   2  252.65   17.65
   9  -3   5   33.58   12.43
   9  -3   5   29.78   20.24
  -7   1   9  102.00   14.63
   7  -1  -9  100.89   20.96
  -7   1   9  118.98   20.98
   7  -1  -9   94.12   18.99
  -7   3   8  318.78   20.44
   7  -3  -8  287.96   22.86
   7  -3  -8  318.23   26.01
  -7   3   8  321.20   25.89
 -10  -1   4  -15.12   12.77
  10   1  -4   16.83   13.48
 -10   2   1   96.90   13.85
  10  -2  -1  101.61   15.12
 -10   2   1   92.45   16.81
   9   5  -5   15.63   16.57
  -9  -5   5   32.54   11.78
  -9  -5   5    6.67   13.14
  -3  -7 -10   89.48   12.83
  -3  -7 -10   93.78   23.00
  -3  -7 -10   99.87   19.66
   3   7  10   92.39   15.33
   3   7  10   94.55   20.58
  -3  -7 -10   92.21   11.83
  -4   6  -9  118.33   12.87
  -4   6  -9   95.17   21.90
   8   8   4   -1.95   23.91
   8   8   4   -6.16   11.69
   8   8   4    2.53   10.01
   7  -5  -6  156.06   27.79
   7  -5  -6  124.80   22.11
  -7   5   6  151.35   15.63
  10   0   5   26.39   13.43
  10   0   5    0.30   11.72
 -10   0  -5    4.25   14.00
  10   0   5   -3.11   12.41
 -10   0  -5   -3.97   13.61
   5   8  -7  112.68   18.58
  -5  -8   7  108.34   12.97
  -5  -8   7   97.12   18.82
   1 -10  -4  100.41   28.04
  -1  10   4  125.82   11.10
  -1  10   4  122.60   12.27
  -1  10   4  125.15   23.22
  -1  10   4  102.03   11.31
  -4   5 -10  -15.11   12.23
  -4   5 -10    8.46   20.11
  -4   5 -10   -2.77   11.45
  -6  -3  10  252.62   22.37
  -6  -3  10  218.28   19.53
  -1  -8  -9    6.37   10.52
   1   8   9  -11.31   12.39
   1   8   9    7.47   11.84
  -1  -8  -9   30.18   18.10
  -1  -8  -9   32.02   23.09
  -2  -6 -11  190.09   21.41
  -2  -6 -11  204.95   14.47
  -2  -6 -11  149.88   14.91
  -2  -6 -11  132.27   20.02
   2   6  11  154.19   16.61
   2   6  11  175.45   17.45
  -1  -6 -11   65.82   19.46
  -1  -6 -11   57.12   19.31
   1   6  11   37.82   13.96
   1   6  11   22.41   14.69
   9  -1   7   -2.08   16.38
   9  -1   7   14.87   14.09
   9  -1   7   -7.40   13.04
  -9   1  -7   43.13   17.40
   9  -1   7   11.51   11.05
  -5  -2  11  244.61   19.15
  -5  -2  11  231.71   13.67
  -5  -2  11  286.30   24.28
   2  -3 -12    3.99   20.09
  -2   3  12  -10.71   13.21
   3   4  12   -6.69   14.68
   3   4  12  -22.38   15.58
   3   4  12   17.35   20.52
  -3  -4 -12    3.64   18.43
  -3  -4 -12    8.62   12.67
   3   4  12    5.88   12.80
  -3  -4 -12   -8.67   20.53
  -9   3   4   85.11   13.11
  -3   8  -7  109.49   24.65
   3  -8   7   63.14   12.32
  -3   8  -7   97.40   11.65
   3  -8   7  103.42   14.67
 -10  -5   2  115.43   14.26
  10   5  -2   93.73   19.03
 -10  -5   2  118.56   12.58
 -10  -5   2   99.80   13.06
   5  -8  -4  191.38   14.90
  -5   8   4  168.56   16.62
   5  -8  -4  139.76   27.50
  -9   4  -3    9.70    9.88
   9  -4   3   14.82   22.52
   9  -4   3    3.56   11.59
  -9   4  -3    5.76   12.16
   8   0  -8   63.43   16.88
  -8   0   8   65.73   18.66
  -8   0   8   78.37   14.45
  -9  -7   2   57.31   14.53
  -9  -7   2   56.95    9.48
  -9  -7   2   35.56   11.11
   3  -8  -7  355.95   30.47
  -3   8   7  335.63   18.73
   3  -8  -7  327.92   18.62
  -9   4   2  175.97   21.00
  -9   4   2  156.40   13.46
   2  -5  11  179.94   18.00
  -2   5 -11  165.45   14.51
   2  -5  11  179.20   18.23
   0   7  10    2.32   14.18
   0  -7 -10   47.70   21.34
   0  -7 -10   33.33   18.69
   4   4 -11   26.99   12.97
   4   4 -11    4.00   18.49
  -4  -4  11   17.61   15.73
   4  -3 -11  176.81   21.88
  -4   3  11   93.40    9.13
   8   6  -6   73.26   14.84
  -8  -6   6   80.27   13.82
   6   3  11    7.14   17.15
   6   3  11   28.18   14.69
  -6  -3 -11   22.90   17.89
  -6  -3 -11   25.91   18.07
   6   3  11   23.07   13.26
   7  -6   5   65.55   24.08
   7  -6   5   71.00   12.56
  -7   6  -5   80.97   14.76
   7  -6   5   92.10   14.88
  -7   4  -8   68.02   20.72
   7  -4   8   70.05   15.83
   7  -4   8   59.80   19.53
  -7   4  -8   62.57   14.78
 -10   1   3   18.04   14.84
  10  -1  -3    4.36   12.54
 -10   1   3    5.48   12.33
  -2   9   6  352.58   18.14
  -2   9   6  305.35   17.28
   2  -9  -6  311.90   30.31
  -1  -9   7  284.45   14.27
   1   9  -7  285.71   15.83
   1   9  -7  281.24   24.17
   1   9  -7  292.53   29.48
  -1  -9   7  336.96   22.95
   4  -8   6    8.34   12.81
   4  -8   6    3.99   25.03
  -9  -6   4  506.58   22.79
  -9  -6   4  536.50   25.44
  -9  -6   4  517.60   22.87
   1   0  13   20.84   16.33
  -1   0 -13    2.61   20.02
   1   0  13    3.08   11.80
   2  -5 -11  217.86   24.22
   0 -10  -5  -41.25   27.28
   0  10   5    7.28   11.14
   6  -7   5  121.92   12.74
  -6   7  -5  134.27   19.32
   6  -7   5  152.47   15.60
   6  -7   5  121.51   26.04
  -3  -8  -9  175.77   13.17
   3   8   9  167.33   14.56
   3   8   9  158.94   22.23
   3   8   9  174.90   15.53
   3   8   9  160.38   17.94
  -3  -8  -9  170.97   20.63
   3   8   9  172.32   17.67
  -4   9  -3  145.14   16.96
  -4   9  -3  118.65   21.79
   4  -9   3  132.23   28.81
   4  -9   3  109.23   16.26
   0   0  13  -20.66   16.15
   0   0  13    2.97   10.90
  -7   1 -10    5.07   14.73
   7  -1  10   22.09   12.20
  -7   1 -10   31.27   18.82
   1   1  13   50.28   12.21
  -1  -1 -13  -12.90   20.04
   5  -1 -11   10.32   18.57
  -5   1  11   42.57   11.95
  -6   3 -10   30.91   19.99
   6  -3  10   11.73   10.36
  -6   3 -10    2.65   13.22
  -7   7   0   66.23   19.86
   7  -7   0   90.80   26.78
  10   3  -4  147.16   18.31
 -10  -3   4  190.70   16.43
 -10  -3   4  171.98   16.38
 -10  -3   4  158.41   14.25
 -10  -3   4  156.67   14.80
  -2  -9   7   -3.22   16.84
   2   9  -7   -5.67   10.23
   2   9  -7   -8.57   20.02
  -2  -9   7    5.77    9.28
   7  -7   1  125.96   27.08
  -7   7  -1   97.58   20.60
   7  -7   1  109.56   13.05
  -4   9   3  259.18   25.49
  -4   9   3  241.33   18.13
   6  -6   7  -20.00   13.78
  -6   6  -7    2.33   12.76
   6  -6   7  -24.14   22.93
   0  -4  12   14.57   14.79
   0   4 -12   63.76   21.02
   0  -4  12   30.80   16.42
   9  -1  -6  246.37   20.76
  -9   1   6  274.85   22.62
  -9   1   6  300.30   18.49
  -9   1   6  302.73   18.99
   6  10   1  258.35   15.14
  -6 -10  -1  232.53   17.83
   6  10   1  193.62   22.14
   6  10   1  225.51   15.67
   0   1  13  138.47   14.33
 -10  -4  -5   25.14   15.19
  10   4   5   30.32   12.92
 -10  -4  -5   20.07   14.97
   3  -2 -12   20.85   19.35
  -3   2  12   14.94   11.72
   5  10   4    2.50   10.64
   5  10   4    2.69   11.24
   5  10   4   10.54   16.44
   5  10   4  -17.20   14.24
   5  10   4    9.08   20.24
   6  10   0  197.79   14.51
   6  10   0  179.28   13.40
   6  10   0  186.01   21.71
  -6 -10   0  187.84   16.73
   4  10   5  170.68   22.01
   4  10   5  180.51   15.40
   4  10   5  125.38   22.55
   4  10   5  236.82   18.19
   4  10   5  198.10   15.48
   1 -10   4  137.57   12.11
   1 -10   4  136.72   18.11
 -10   2  -3   52.28   15.28
 -10   2  -3   33.06   12.83
  10  -2   3   50.41   13.65
   1  -4 -12   23.75   19.34
  -1   4  12   15.73   13.65
   1  -4 -12   24.42   18.40
  -3   9   5  478.11   22.05
  -3   9   5  472.70   31.13
   3  -9  -5  432.91   33.67
  -3   9   5  474.47   22.98
  -4 -10   4   68.21   18.42
  -4 -10   4   57.62   11.46
   8   5  -7   43.54   15.27
  -8  -5   7   27.93   16.89
  -8  -5   7   19.07   13.09
  -8  -5   7   44.53   12.00
  -4   8   6  171.60   15.51
  -4   8   6  154.73   14.83
   4  -8  -6  180.87   27.11
   4  -8  -6  140.96   14.74
 -10  -5  -4   21.97   15.57
 -10  -5  -4    2.39   13.50
  10   5   4   11.61   12.14
   2  -9   6   30.40   10.12
  -2   9  -6   43.59   23.91
   2  -9   6   27.68   16.10
   2  -9   6   19.77   12.19
   7   8  -5    9.21   13.01
   7   8  -5   11.13   11.95
  -7  -8   5  -21.17   13.17
  -7  -8   5    6.09   18.10
  -8  -3   8  229.32   19.19
   8   3  -8  228.97   18.72
  -8  -3   8  239.31   17.35
  -8  -3   8  245.89   17.56
  -4  -7   9    4.10   11.24
   4   7  -9   12.80   11.10
  -4  -7   9   20.12   17.85
   4   7  -9   11.83   18.34
   4   7  -9    8.95   26.25
  -3  -6 -11   51.26   12.64
   3   6  11   57.70   14.45
   3   6  11   79.08   20.79
   3   6  11   37.42   15.85
  -3  -6 -11   65.87   19.31
  -3  -6 -11   75.21   12.90
   3   6  11   41.98   14.26
   7  -3   9  124.59   12.22
  -7   3  -9  142.49   21.95
  -7   3  -9  176.69   16.85
   0  -6 -11   -3.56   18.93
   0   6  11    2.07   14.19
   0  -6 -11    7.03   19.35
 -10   0   4    0.56   12.93
  10   0  -4   28.32   13.14
   3  -9   5   41.20    9.94
   3  -9   5   49.50   13.04
   3  -9   5   53.73   26.56
   3  -9   5   30.87   16.47
   0  -9   7  132.20   19.43
   0   9  -7  112.09   20.86
   5   5 -10  288.08   19.43
  -5  -5  10  291.44   21.87
   5   5 -10  216.61   22.57
  -8  -8   3   11.91   13.23
   2 -10  -3   63.27   26.94
  -2  10   3   43.16   10.20
  -2  10   3   47.99   11.82
  -2  10   3   47.21   22.29
   3   5 -11  319.52   25.64
   3   5 -11  342.30   19.59
  -3  -5  11  282.78   22.44
   7   9   4   86.02   18.26
   7   9   4   66.88   13.08
   2  -8  -8  167.97   26.23
  -2   8   8  150.55   14.24
  -9  -4   6   92.10   14.78
   9   4  -6   95.75   16.96
   9   4  -6   67.26   12.46
  -9  -4   6   82.79   13.70
   6  -1  11   26.07   13.12
  -6   1 -11   14.34   14.57
  -6   1 -11   43.38   19.90
  -7   7   1  174.32   20.98
   7  -7  -1  159.32   28.33
   1   4 -12  238.69   24.94
   1   4 -12  305.75   24.97
  -1  -4  12  315.51   21.04
   9   7   4   97.17   13.00
   9   7   4  116.17   25.92
  -9  -7  -4  113.43   17.10
  -9  -7  -4  126.93   16.31
   9   7   4  134.40   14.10
  -1 -10   5  477.05   25.64
  -1 -10   5  391.03   18.20
  -2 -10   5  329.60   22.91
  -2 -10   5  248.90   13.79
  -2 -10   5  299.80   14.57
   0  -1  13  -27.85   16.14
   0  -1  13  -14.23   10.70
  -5 -10   3   22.32   11.67
  -5 -10   3   11.51   18.54
   5  10  -3    5.41   15.21
  -7  -4 -10    2.78   16.17
   7   4  10   -5.57   12.96
  -7   5  -7  -24.18   18.96
   7  -5   7   29.92   20.90
   7  -5   7   -9.60   14.29
  -7   5  -7   -4.72   13.74
   9   2   8  -24.92   14.36
   9   2   8  -17.21   14.38
   9   2   8   14.79   13.52
  -9  -2  -8  -16.27   15.01
   0  -8  -9  116.09   19.93
   0  -8  -9   63.58   24.00
  10   6   1   45.17   12.74
 -10  -6  -1   56.89   13.82
 -10  -6  -1   41.24   12.39
   5  -5  -9   66.57   16.84
  -5   5   9   64.40   14.44
   5  -5  -9   92.86   19.95
   5  -5  -9   76.24   26.02
   6  -8   0   81.91   11.04
   6  -8   0   97.52   26.61
  -6   8   0  113.30   20.57
   6  -8   0   63.47   11.98
  -8  -7   5  208.63   16.76
   8   7  -5  194.30   16.91
   2   1  13  -19.27   12.49
  -2  -1 -13  -27.25   20.44
   2   1  13  -15.75   16.46
  -8   5   4  179.41   14.17
  -8   5   4  253.20   23.83
   1  -1  13   66.70   17.15
  -1   1 -13   58.75   21.40
   1  -1  13   93.24   12.32
  -1   9   7  158.20   15.45
   1  -9  -7  136.14   26.75
  -1   9   7  137.89   12.67
 -10   2   2  155.44   14.38
   2   0  13   49.67   17.31
   2   0  13   74.16   17.36
  -2   0 -13   71.01   21.44
   2   0  13   77.06   13.13
   6  10   2  229.27   14.81
   6  10   2  180.14   21.03
   6  10   2  170.57   15.12
   5   1  12    4.04   11.93
  -5  -1 -12  -13.23   19.69
   5   1  12  -13.90   15.08
   1  -4  12   -1.26   15.62
  -1   4 -12  -13.11   12.94
   1  -4  12  -23.24   15.17
   9   1   8    5.95   14.14
  -9  -1  -8   20.55   15.73
   9   1   8   27.91   12.83
  -4   6   9  226.53   17.19
   4  -6  -9  245.16   19.02
   4  -6  -9  210.99   27.25
   4  -6  -9  231.73   23.07
  -6   8  -1   27.03   19.12
   6  -8   1   20.02    9.77
   6  -8   1   37.19   12.24
   6  -8   1   32.52   25.64
 -10  -6   0  115.53   14.49
   2 -10   3  186.36   18.44
   2 -10   3  195.29   30.05
  -4   7  -8  113.94   13.01
  -4   7  -8   81.63   20.93
   4  -7   8  132.59   16.03
   3  -3  12   45.30   16.34
  -3   3 -12   69.47   21.55
   3  -3  12   50.55   16.26
   7  -7   2   62.97   11.78
  -7   7  -2   62.28   19.43
   7  -7   2   97.01   26.18
   5  -6  -8   31.32   15.41
  -5   6   8   49.22   14.36
   5  -6  -8   66.74   25.62
   2  11   0  243.21   23.36
  -2 -11   0  304.03   22.45
   2  11   0  296.06   28.16
   2  11   0  289.70   16.96
  -8   6   0   42.53   16.86
  -8   6   0   25.68   19.96
   8  -6   0   50.50   25.11
  -8   6   0    9.02    8.22
   2  11   1  273.44   27.67
   2  11   1  312.14   18.15
   2  11   1  298.25   15.60
   2  11   1  286.71   24.11
   8  -6   1   21.81   24.18
  -8   6  -1   -6.10   19.29
  -8   6  -1    3.74   16.31
  -1   0  13  134.82   13.28
  -1   0  13  142.81   18.56
   1   0 -13  129.05   22.51
  10   2   6  130.29   15.62
  10   2   6  144.31   15.76
 -10  -2  -6  127.38   18.89
  10   2   6  131.74   15.65
   5   5  11  -10.81   13.84
   5   5  11  -18.50   15.30
  -5  -5 -11   -3.08   19.62
   5   5  11   17.69   19.27
  -5  -5 -11   -1.23   11.99
  -5  -5 -11   -9.57   17.93
   5   5  11    1.41   13.80
   1   2  13  136.35   18.29
   1   2  13  144.91   14.83
  -6 -10   1    9.32   13.35
   6  10  -1   36.92    9.67
   6  10  -1   -3.40   17.81
  -4   2 -12   55.45   21.36
   4  -2  12   47.07   16.57
  -4   2 -12   58.50   14.11
  -4   4 -11   59.30   21.97
   4  -4  11   44.22   11.44
   4  -4  11   44.50   15.70
  -4   4 -11   60.80   12.80
   8   4   9   25.23   13.47
  -2   8  -8  181.23   23.29
  -2   8  -8  200.44   25.08
   2  -8   8  187.62   16.32
   2  -8   8  188.32   15.08
   2  -8   8  158.09   19.73
 -10  -6  -2   12.88   13.46
  10   6   2    8.12   11.96
   8  -1   9   20.78   12.33
   8  -1   9   26.36   15.37
  -8   1  -9   37.30   18.35
   6  -2 -10  342.22   25.48
   6  -2 -10  361.14   28.23
   6  -8  -1   77.67   26.53
  -6   8   1   83.35   15.97
  -6   8   1   90.70   20.76
  -3  -3  12    6.36   15.97
   3   3 -12   -6.85   20.17
   8  -5   5  117.60   23.67
   8  -5   5  101.54   15.45
   8  -5   5  113.80   14.03
  -8   5  -5  108.07   17.18
  -4  -7 -10  154.57   13.98
  -4  -7 -10  178.73   14.03
   4   7  10  155.17   21.52
  -4  -7 -10  191.88   24.59
  -4  -7 -10  162.25   20.78
   4   7  10  150.66   16.71
   4   7  10  151.82   15.56
   4   6 -10  369.85   26.13
  -4  -6  10  357.19   19.86
   4   6 -10  386.00   19.97
  -4  -6  10  359.87   24.49
   5   2  12   51.00   15.94
   5   2  12   62.86   13.67
  -5  -2 -12   65.28   20.19
   5   2  12   45.73   18.62
   5   2  12   24.40   17.07
  -4  -8   8  258.39   22.00
  -4  -8   8  233.63   15.86
  -4  -8   8  225.61   16.82
   4   8  -8  244.26   14.71
   4   8  -8  261.23   22.89
  -5  -3  11  243.50   19.72
   5   3 -11  241.02   22.82
  -5  -3  11  230.67   22.59
   1  11   0  229.41   23.19
   1  11   0  211.93   26.50
  -1 -11   0  224.90   20.28
   5  -7   7   -7.46   13.81
  -5   7  -7   -8.13   12.23
   5  -7   7   23.65   23.12
   5  -3  11   48.79   12.48
  -5   3 -11   64.16   21.65
  -5   3 -11   42.41   13.99
   8  -1  -8   46.87   17.39
   8  -1  -8   30.68   19.15
  -8   1   8   26.65   19.28
  -8   1   8   50.33   14.12
  -5   0 -12   -1.21   19.86
   5   0  12   -5.74   15.51
   5   0  12   -3.50   11.93
   5   0  12   13.01   13.97
 -10  -1  -6   52.19   14.21
  10   1   6   72.60   14.74
  10   1   6   87.18   14.18
  -7  -9   3  368.24   20.88
   7   9  -3  359.77   19.20
  -3  -9   7  142.83   19.87
  -3  -9   7  149.70   12.44
   3   9  -7  155.01   21.69
  -3  -9   7  112.80   12.90
   1  11   1  168.81   25.54
   1  11   1  135.91   21.36
   4  -5 -10  330.58   25.66
  -4   5  10  308.60   19.36
   4  -5 -10  276.13   29.07
   4  -5 -10  306.37   21.11
   9   6   6   58.64   11.59
   9   6   6   65.62   22.58
   9   6   6   60.86   13.81
   9   6   6   43.72   13.37
  -1   1  13  196.32   15.82
   0   2  13   90.23   17.77
   0   2  13  116.27   14.20
   9   3   8    9.90   13.66
   9   3   8   11.51   13.45
  -9  -3  -8    7.90   14.02
   6  -7  -5   47.32   25.29
   6  -7  -5   96.67   15.07
   0 -10   5  133.74   12.24
   0 -10   5  160.55   19.09
   9   5   7   64.54   12.86
   9   5   7   44.74   14.12
   9   5   7   43.32   13.69
  -7  -4   9  227.48   20.52
  -7  -4   9  240.56   17.68
   6  -5  -8  128.39   23.31
   6  -5  -8  121.34   27.71
  -6   5   8  140.15   16.13
   6  -5  -8  131.29   17.48
   2  10   6    2.00   13.96
   2  10   6   20.42   21.65
  -2 -10  -6   23.25   25.69
   2  10   6   13.06   13.35
   2  10   6    9.02   12.43
   6   9   6  125.53   14.54
   6   9   6  143.25   17.03
  -2 -11   1  127.50   19.62
   2  11  -1   64.33   23.63
   2  11  -1   43.81   19.05
   2  11  -1   90.05   12.18
  -8   6   1   93.06   21.19
   8  -6  -1   92.44   27.08
  -8   6   1   79.77   10.02
  -1  -1  13  -29.73   16.46
  -1  -1  13   19.52   10.46
   1   1 -13    9.00   19.99
   2   9   8   24.14   13.33
  -2  -9  -8   15.91   24.12
   2   9   8   13.07   14.64
   2   9   8   31.97   19.76
   2   9   8   27.42   12.30
  -3   6 -10    7.65   11.21
   3  -6  10    8.69   14.18
   3  11   0  117.48   18.76
   3  11   0  139.99   13.12
   3  11   0  139.38   12.28
   3  11   0  108.36   23.57
   9  -4   4   23.55   11.99
   9  -4   4    4.90   21.76
  10  -1   5   28.99   14.01
  10  -1   5   17.39   13.35
  10  -1   5   39.62   12.00
 -10   1  -5    6.99   15.71
  10  -1   5   21.02   21.30
   3  11   1  125.23   12.32
   3  11   1  126.75   13.53
   3  11   1   73.55   18.76
   3  11   1  114.04   22.98
   2   2  13   47.64   17.26
   2   2  13   47.61   13.28
  -2  -2 -13   35.57   20.30
   7   7   8  171.95   17.99
   7   7   8  152.37   16.79
  -7  -7  -8  141.87   16.94
   7   7   8  149.36   13.59
   3  10  -5   86.62   19.04
  -3 -10   5  135.39   11.90
  -3 -10   5  135.75   19.64
  -9   4   3  270.25   23.37
  -9   4   3  210.42   15.27
   4   8   9   43.99   19.69
   4   8   9   45.97   12.19
  -4  -8  -9   47.31   17.44
  -4  -8  -9   37.32   10.91
   4   8   9   37.23   14.77
  -4  -8  -9   52.68   22.58
   4   8   9   40.92   16.67
   4   8   9   24.14   13.58
  -4   0  12   66.76   14.20
  -4   0  12   56.66   12.09
 -10  -3  -6   41.07   16.26
  10   3   6   47.11   13.28
  10   3   6   29.77   13.47
  -4  -1  12  158.62   17.22
  -4  -1  12  194.09   13.38
   6  -8   2    5.70    9.89
  -6   8  -2   21.77   16.23
  -6   8  -2   37.04   19.69
   6  -8   2   23.32   25.70
   7  -7  -2  237.15   30.18
  -7   7   2  184.13   11.39
   1   7 -10  155.65   13.89
   1   7 -10  209.80   26.26
   1   7 -10  181.13   23.81
   1   7 -10  197.50   15.46
  -1  -7  10  180.62   17.27
   5  -8   5  160.90   15.77
  -5   8  -5  145.26   19.15
   5  -8   5  113.78   28.23
   2  11   2  266.58   23.58
   2  11   2  281.02   27.15
   2  11   2  230.16   14.90
   2  11   2  287.94   17.51
  -8   6  -2  -14.47   19.08
  -8   6  -2    1.00   16.10
   8  -6   2    6.28   11.37
   8  -6   2   22.59   24.49
 -10  -6   1  149.94   14.69
 -10  -6   1  148.60   12.71
 -10  -6   1  160.63   17.18
   4   4  12   -6.02   13.22
   4   4  12   -7.94   15.85
  -4  -4 -12   -0.65   20.00
  -4  -4 -12   -7.25   12.65
   4   4  12    6.12   14.85
   4   4  12    1.10   20.08
 -10  -5   3    7.69   12.66
 -10  -5   3   17.03   11.13
 -10  -5   3    7.43   11.30
   7  -2  -9  248.29   24.81
   7  -2  -9  254.88   22.73
  -7   2   9  275.50   25.08
  -2   1 -13  166.11   24.13
   2  -1  13  207.42   15.20
   2  -1  13  224.34   20.71
   5   9   7   13.04   13.12
   5   9   7   -1.46   11.53
   5   9   7   10.50   16.12
   5   9   7   25.08   21.32
   5   9   7  -18.57   17.32
   1  -7 -10  206.34   22.73
   1  -7 -10  179.89   25.20
  -3  10   0   55.34   13.73
  -3  10   0   16.48   21.46
   3 -10   0   65.70   28.48
   3 -10   0   66.20   13.96
  -1 -11   1  209.28   20.24
   1  11  -1  188.81   22.02
  -7  -6  -9   75.07   16.27
   7   6   9   89.81   17.13
   7   6   9   63.95   15.62
  -9  -7   3  331.36   16.22
  -9  -7   3  315.20   20.38
  11   2   1   61.22   19.33
 -11  -2  -1   61.23   14.69
 -10  -4   4  139.47   14.80
 -10  -4   4  127.72   13.91
  10   4  -4  118.46   18.18
 -10  -4   4   83.07   12.93
   8   8   5   -9.85   23.10
   8   8   5  -16.45   12.91
   2   4 -12  383.20   28.04
  -2  -4  12  317.52   23.30
   7  -6  -5  110.52   27.78
   1   9   8   11.55   14.82
   1   9   8   12.45   12.98
  -1  -9  -8    3.30   25.05
   0  -7  10   94.38   15.55
   0  -7  10   89.48   14.44
   0   7 -10  100.32   12.22
   0   7 -10   96.62   14.10
   0   7 -10  111.89   23.61
   0   7 -10  125.23   23.15
  -9   0  -8   38.59   17.10
   9   0   8   30.29   13.98
   9   0   8   37.30   12.56
   9   0   8   26.04   14.72
   1   5  12   59.23   16.31
  -1  -5 -12   56.30   18.15
  -1  -5 -12   98.49   13.50
  -1  -5 -12   91.37   20.67
   1   5  12   65.84   14.76
   6   4  11   37.33   14.62
  -6  -4 -11   16.81   18.97
   6   4  11   50.43   18.98
   6   4  11   40.46   13.83
   6   7   9   24.20   14.42
  -6  -7  -9   26.73   16.73
   6   7   9   38.47   17.42
  -6  -7  -9   21.24   19.25
  -1 -10  -6   31.99   26.44
   1  10   6   62.96   22.61
   1  10   6   52.83   13.06
   4  -7  -8   51.73   25.33
  -4   7   8   69.81   13.80
   4  -7  -8   63.01   14.98
   6   4 -10   40.16   17.94
  -6  -4  10   57.50   17.20
   6  10   3  221.07   24.89
   6  10   3  202.35   21.80
   6  10   3  180.68   15.26
   6  10   3  189.41   15.08
 -11  -2   0   57.45   15.82
 -11  -2   0   68.11   15.04
  11   2   0   55.64   18.53
  -2  -5 -12  189.23   15.62
   2   5  12  147.25   16.51
   2   5  12  167.36   17.76
  -2  -5 -12  169.57   22.52
   3  10   6  163.14   22.89
   3  10   6  140.92   16.81
   3  10   6  135.60   15.59
   3  10   6  182.50   23.74
   3  10   6  132.19   14.75
   5  -2 -11  253.38   23.35
  -5   4  10  263.82   18.72
   5  -4 -10  305.28   25.09
  -1   9  -7  196.77   27.25
   1  -9   7  194.18   15.94
   1  -9   7  181.69   20.54
  -9  -1   7   -1.01   13.07
  -9  -1   7   -0.41   13.37
   9   1  -7  -11.01   14.50
  -9  -1   7   17.39   16.10
   3 -10  -1  176.06   15.30
  -3  10   1  183.94   24.49
  -6   4   9  171.24   17.00
   6  -4  -9  160.88   21.23
  -1 -11  -2   89.18   28.65
   1  11   2   56.51   22.94
  -3  10  -1   13.78   21.52
  -3  10  -1   18.20   13.70
   3 -10   1  -17.94   28.44
   3 -10   1   18.40   13.73
   3   9   8  104.74   16.00
   3   9   8   79.93   12.77
   3   9   8  110.02   20.66
   3   9   8   85.36   15.99
   3   9   8   82.20   11.86
  -9  -2   7   12.08   13.59
  -9  -2   7   13.94   13.33
   9   2  -7    3.25   13.91
  11   1   1   78.62   19.24
 -11  -1  -1   55.64   14.22
   4  -9   4  132.39   17.76
   4  -9   4  175.17   30.04
  -4   9  -4  186.60   18.78
  -3 -11   1   37.32   17.90
   3  11  -1   10.66   10.44
   3  11  -1  -15.33   17.29
   3  11  -1    9.63   21.99
  10  -2   4    8.60   23.25
 -10   2  -4   55.70   13.08
  10  -2   4   53.71   13.56
  10   6   3   -2.33   11.80
 -10  -6  -3   -1.78   14.20
   3  -7   9  168.05   16.09
  -3   7  -9  176.91   23.24
  -5  -9   6  240.08   16.24
   5   9  -6  225.93   20.73
  -1  10   5  200.34   14.58
   1 -10  -5  197.86   29.72
  -1  10   5  195.66   13.04
  -6   8   2  104.72   21.11
   6  -8  -2   71.59   27.42
  -6   8   2   98.06   16.61
   0  -2  13  107.44   17.89
   0  -2  13  142.61   11.90
   0   2 -13  139.88   23.49
   8  -3  -7  154.57   21.59
  -8   3   7  167.97   22.72
   3  11   2  108.83   23.58
   3  11   2  136.04   14.10
   3  11   2  114.96   19.50
   3  11   2  146.37   12.96
   3  11   2  112.40   15.40
  -8   4   6   37.83   13.94
  -8   4   6   37.37   20.58
   8  -4  -6   65.17   19.91
 -11  -2  -2   -0.64   14.17
  11   2   2   23.98   18.46
  -3   6  10  326.97   19.38
   3  -6 -10  276.80   28.09
   3  -6 -10  354.16   21.57
   7  -7   3    5.06   11.34
  -7   7  -3   10.80   18.36
   7  -7   3   58.76   25.14
  11   1   0  130.10   19.78
 -11  -1   0  138.98   15.94
   2  -4  12   62.96   16.37
   2  -4  12   50.68   16.10
  -4  -6 -11   42.21   19.02
   4   6  11   47.47   14.57
   4   6  11   22.89   15.52
   4   6  11   46.53   14.19
   4   6  11   39.47   20.18
  -4  -6 -11   40.96   12.73
  -4  -6 -11   47.41   21.38
  -4  -6 -11   47.74   12.77
  -6  -9   5  139.70   14.55
   6   9  -5  137.35   17.54
   1  -6 -11  191.45   23.94
   1  -6 -11  226.78   23.67
  -3  -1 -13   55.54   20.84
   3   1  13   59.48   13.61
   3   1  13   62.19   17.35
 -11  -3  -1   -3.03   13.82
   6  10  -2   -9.79   13.87
   6  10  -2    1.84    8.23
  -6 -10   2  -11.20   12.75
   3  -5  11   84.87   16.49
   3  -5  11   85.60   15.96
  -3   5 -11   78.86   22.44
  -3   5 -11   77.66   12.40
   2   7 -10  162.96   15.04
   2   7 -10  165.02   27.88
  -2  -7  10  149.54   20.45
  -2  -7  10  142.75   13.47
   2   7 -10  143.49   22.53
  -2  -7  10  137.41   17.16
  -4   9   4  145.01   23.26
  -4   9   4  138.14   15.70
   4  -9  -4  142.86   28.48
 -10   1   4   88.19   14.06
  -9   2  -7   10.63   18.00
   9  -2   7   -4.74   14.66
   9  -2   7    7.23   10.44
   9  -2   7   10.53   17.45
   9  -2   7  -12.17   13.44
   1   8  -9  173.95   27.03
  -1  -8   9  158.36   12.17
  -1  -8   9  141.91   16.38
  -1  -8   9  167.97   20.72
   1   8  -9  171.71   23.87
   1   8  -9  173.87   14.83
   1   8  -9  154.90   12.29
   1   6 -11    7.90   12.87
  -1  -6  11   20.35   17.81
   1   6 -11   41.53   22.50
   1   6 -11    8.10   20.94
  -1  -6  11    9.57   15.57
   1  -2  13  154.31   19.33
   1  -2  13  203.94   19.68
   1  -2  13  210.01   13.50
   0   6 -11   92.07   22.42
   0   6 -11   97.03   21.20
   0  -6  11   95.31   18.92
   0  -6  11  102.69   16.49
   0   6 -11   55.19   12.56
   0  -6  11   64.03   15.31
   6  -6  -7    0.58   14.92
   6  -6  -7   -1.75   21.73
  -6   6   7    0.97   13.24
   6  -6  -7   52.41   26.11
  -9   3  -6   27.94   17.82
   9  -3   6   44.10   13.42
   9  -3   6   36.54   20.68
 -10   0  -6   -4.15   15.16
  10   0   6    9.11   12.42
  10   0   6  -26.72   14.03
  10   0   6    1.79   13.68
   0 -11   0   84.93   17.42
 -10   3  -1   -5.84   11.26
 -10   3  -1  -49.86   17.80
  -8  -4   8  229.38   17.54
  -8  -4   8  227.32   21.23
   8   4  -8  211.91   18.29
  -8  -4   8  223.28   16.66
  -8   3  -8   26.18   19.62
   8  -3   8    4.00   17.63
 -11  -3   0  -15.31   13.96
 -11  -3   0   13.77   14.27
   5   3  12   64.59   16.16
  -5  -3 -12   35.00   19.33
  -5  -3 -12   55.61   19.84
   5   3  12   42.82   16.83
   5   3  12   49.10   14.23
   5   3  12   75.73   20.43
   3   0  13  111.55   18.47
   3   0  13  115.60   14.09
   3   0  13   96.08   18.64
  -3   0 -13   82.50   22.37
  -3   7   9  180.23   15.71
   3  -7  -9  199.99   17.61
   3  -7  -9  156.42   27.44
  10   2  -5   58.68   15.89
 -10  -2   5   51.23   14.13
 -10  -2   5   66.47   13.50
 -10  -2   5   64.59   12.55
   4  -1 -12   30.74   20.42
  -4   1  12   36.03   12.57
  -8  -6  -8   -7.34   13.80
   8   6   8   -6.80   12.23
   8   6   8  -19.90   13.98
 -10   3   0    3.57   17.02
 -10   3   0    4.78   11.61
   5  -8  -5  141.67   28.02
  -5   8   5   98.89   13.37
  -5   8   5  119.41   15.69
   5  -8  -5  119.47   14.24
 -11  -1  -2   30.36   14.25
  -4  -2  12   92.73   16.63
   4   2 -12  112.62   21.18
  -2  10   4  233.11   26.12
  -2  10   4  194.53   13.94
  -2  10   4  197.96   15.26
   2 -10  -4  152.26   29.00
   7  -2  10   43.29   11.94
  -7   2 -10   43.86   20.50
   6   6  10   78.96   19.14
  -6  -6 -10   42.34   12.07
  -6  -6 -10   33.88   17.25
  -6  -6 -10   22.10   19.38
   0 -11  -1   50.14   28.75
   8   9   1   42.21   10.71
  -8  -9  -1   74.78   16.03
   8   9   1   34.23    8.98
  10   1  -5   67.53   14.52
 -10  -1   5   50.49   14.27
 -10  -1   5   63.91   13.83
   8  -4   7   25.58   19.62
  -8   4  -7  -23.88   19.50
   8  -4   7    4.55   14.70
   8  -4   7   -5.76   12.99
   6   7  -8  140.69   15.68
  -6  -7   8  126.98   15.10
   6   7  -8  120.56   18.48
  -6  -7   8  140.78   20.30
  -2 -11   2   43.31   17.75
   2  11  -2   45.48   10.57
  -8   6   2   91.95   10.71
   8  -6  -2   72.53   27.91
 -10   2   3  164.03   15.36
   0  -5 -12   12.92   19.57
   0   5  12   -5.08   13.58
   0  -5 -12   28.22   18.71
  -5   1 -12   28.91   20.98
   5  -1  12   39.64   14.32
  -5   1 -12   41.97   14.88
   5  -1  12   37.07   16.73
  -9   3   5   39.92   12.83
   9  -3  -5   49.18   17.69
  -9   3   5   72.22   19.92
   5  -7  -7   20.54   24.52
   5  -7  -7  -15.59   14.92
  -5   7   7   -6.93   13.93
  10   5   5    8.88   12.44
 -10  -5  -5    8.78   13.81
 -10  -5  -5   -4.86   15.70
  -6  -8  -8   11.80   15.05
   6   8   8   35.54   15.41
   6   8   8   71.81   16.69
   6   8   8   19.60   13.81
   6   8   8   34.78   19.91
   1  -2 -13   62.05   18.87
  -1   2  13   21.48   13.27
   5  10   5  -25.60   20.99
   5  10   5   -4.70   11.23
   5  10   5    5.37   14.25
   5  10   5    2.53   11.20
   5  10   5  -12.51   16.53
   1  -8  -9   80.81   24.67
   1  -8  -9   47.80   19.33
  11   3   2    9.60   13.60
 -11  -3  -2   30.24   14.97
 -11  -2   1   80.33   16.49
  11   2  -1   64.63   18.21
 -11  -2   1   79.26   15.17
   9   8   1   52.49   15.79
   9   8   1   60.98   11.31
  -9  -8  -1   94.59   15.97
   8   9   0  206.45   21.58
   8   9   0  195.22   12.06
  -8  -9   0  242.50   18.77
   0   8  -9    3.67   21.28
   0   8  -9  -11.58   23.70
   0  -8   9   -2.22   17.44
   0   8  -9  -18.29    9.91
  -3   3  12   18.92   11.01
   3  -3 -12   29.51   20.26
   5  -9   0   78.75    9.64
   5  -9   0   84.05   12.92
  -5   9   0  105.98   22.64
   5  -9   0  109.36   28.49
   7   9   5  172.02   15.88
   7   9   5  237.26   26.84
   8   7   7  -14.63   13.95
   8   7   7    3.71   10.32
   8   7   7    2.51   19.99
   9   0  -7  116.49   18.91
  -9   0   7  121.88   18.63
  -9   0   7  119.08   15.65
  -9   0   7  131.00   15.32
   9   0  -7  101.91   16.63
   7   7  -7  112.88   16.67
  -7  -7   7  115.48   14.79
   7   7  -7  148.54   16.27
  -7  -7   7  122.61   20.63
   9   7   5   78.24   13.81
   9   7   5   67.58   13.00
   9   7   5   62.43   25.04
   2  -4 -12  120.28   22.75
  -2   4  12  131.57   16.13
   9  -2  -6   95.12   18.93
  -9   2   6  102.19   14.89
  -9   2   6  133.70   14.69
  -9   2   6  124.00   20.39
  -1 -11   2  164.65   19.65
  -1  -2  13   22.01    9.42
  -1  -2  13  -18.85   16.91
   1   2 -13   23.53   21.54
   7   8   7  135.13   22.31
   7   8   7   84.13   15.00
   2   0 -13  199.39   24.51
  -2   0  13  213.85   15.13
   2   8  -9  236.07   24.65
  -2  -8   9  180.37   17.27
  -2  -8   9  218.30   14.31
   2   8  -9  233.32   15.92
   2   8  -9  227.97   29.14
   2   8  -9  205.92   14.16
   9   8   0   24.30   11.32
  -9  -8   0   40.96   14.79
   9   8   0   36.56   15.95
  -3  10   2  229.75   26.32
   1   3  13   79.96   17.28
   1   3  13   93.36   14.75
   0 -11   1  134.78   18.53
   2  11   3  181.13   13.72
   2  11   3  153.11   25.22
   2  11   3  194.09   15.77
   2  11   3  169.25   22.12
  -7  -6   8   28.63   17.88
   7   6  -8   -6.61   15.51
  -7  -6   8   35.38   13.28
   7   6  -8   39.34   15.69
   8  -6   3    7.97   23.84
  -8   6  -3    2.71   15.94
   8  -6   3   -0.32   11.17
   6  -2  11   20.03   12.68
  -6   2 -11   20.13   14.93
  -6   2 -11   51.86   20.84
   1  -7  10   27.58   13.45
  -1   7 -10   20.02   20.64
   1  -7  10    7.56   17.53
   1  -7  10   23.16   14.36
  -1   7 -10   28.71   10.83
  -1   7 -10   20.33   22.22
   7  -6   6   42.52   14.75
   7  -6   6   31.03   12.56
   7  -6   6   16.66   23.45
  -7   6  -6   48.65   14.30
  -3  -2 -13  -14.69   19.86
   3   2  13  -14.08   13.33
   3   2  13    1.04   16.07
   3   2  13   -1.76   16.83
   3   5  12   16.32   13.33
  -3  -5 -12    7.81   19.22
  -3  -5 -12   19.82   13.26
   3   5  12   12.95   14.60
   3   5  12   18.38   16.41
  10  -3   2   -2.56   24.67
 -10   3  -2   -3.58   16.39
 -10   3  -2    3.74   11.25
  10  -3   2  -11.70   13.15
  -3  10  -2   15.22   14.19
   3 -10   2   33.67   28.93
   3 -10   2   14.74   14.42
  -3  10  -2   22.33   21.56
   4  11   1    5.17   14.23
   4  11   1   11.51   20.22
   4  11   1   -4.59   11.54
   4  11   1   18.74   11.61
  11   1  -1   94.88   18.04
 -11  -1   1   86.79   15.19
   4  11   0   -8.11   10.68
   4  11   0   -4.74   14.35
   4  11   0   14.80   21.38
   4  11   0  -13.78   11.34
  -6   8  -3    8.97   16.69
  -6   8  -3   13.32   19.43
   6  -8   3  -26.85   26.11
   6  -8   3   -6.44   10.28
   5  -9   1   12.54    9.09
  -5   9  -1   33.45   15.70
   5  -9   1    9.09   26.91
  -5   9  -1   29.19   20.82
   5  -9   1   55.95   13.19
   9   4   8   53.20   13.70
   9   3  -7   92.17   14.93
  -9  -3   7  123.07   15.32
  -8  -8   4    4.13   13.64
   8   8  -4    9.98   12.80
   8   9   2  -19.18   10.68
   8   9   2    2.60   16.98
  -8  -9  -2   -9.61   15.06
  -9  -6   5  119.65   13.12
  -9  -6   5  131.90   15.94
   0   9   8  122.05   15.47
   0  -9  -8  139.74   26.95
   2 -10   4  150.03   18.62
   2 -10   4  190.33   30.51
 -10  -6   2  118.29   12.72
 -10  -6   2  153.93   17.10
  -5 -10   4   19.79   18.67
  -5 -10   4   -6.74   12.01
   5  10  -4   -9.07   16.74
   6   6  -9  140.39   19.81
   6   6  -9  173.08   17.18
  -6  -6   9  177.96   20.18
  -6  -6   9  176.12   16.05
   9   8   2   48.51   11.55
   9   8   2   70.73   22.78
   9   8   2   60.80   15.83
  -9  -8  -2   82.38   16.58
  10   4   6   -8.10   13.21
 -10  -4  -6    7.17   14.93
  10   4   6   -2.52   12.23
   0  10   6   68.68   13.48
   0 -10  -6   41.44   27.30
 -10   3   1  115.67   13.81
 -10   3   1  129.31   19.28
   5  -9  -1  248.20   31.53
  -5   9   1  233.61   25.28
  -6   7  -6   84.02   14.01
   6  -7   6   99.50   15.21
   6  -7   6   42.15   26.35
   1 -10   5   18.54   11.03
   1 -10   5   12.53   16.25
  11   2   3  -25.83   14.38
 -11  -2  -3  -15.69   16.54
 -11  -2  -3  -12.30   14.76
   2   1 -13   44.91   21.47
  -2  -1  13   46.22   15.41
  -2  -1  13   55.75   10.65
   9   5  -6   43.88   17.10
  -9  -5   6   22.09   11.66
  -9  -5   6   16.92   14.18
   2   3  13   36.07   13.39
   2   3  13   48.79   17.41
 -11  -3   1   29.72   13.92
 -11  -3   1    4.62   13.99
  11   3  -1   27.47   17.78
 -11  -3   1   25.82   14.99
 -10  -3   5  241.03   18.26
 -10  -3   5  232.36   17.66
 -10  -3   5  201.99   15.23
 -10  -3   5  212.10   16.74
  10   3  -5  226.92   20.37
   2   6 -11   18.04   24.35
  -2  -6  11   19.49   18.27
   2   6 -11   31.02   13.71
   2   6 -11   29.60   20.84
  -2  -6  11   26.13   15.33
   9  -5   0   62.76   26.74
  -9   5   0   24.91   19.70
  -9   5   0   33.68   10.23
  -9   5  -1   10.91    9.36
  -9   5  -1    5.68   19.09
   9  -5   1   18.93   25.17
   1  -6  11  138.44   16.21
  -1   6 -11  162.27   24.60
  -1   6 -11  140.55   13.73
   1  -6  11  131.00   17.30
   3  11  -2  -14.94   17.24
   3  11  -2    5.63    9.43
  -3 -11   2    7.19   18.18
 -11   0  -1   18.28   13.40
   0 -11  -2   38.81   28.93
  -7   7   3   72.54   10.12
   7  -7  -3   51.34   27.20
  -1 -11  -3   -5.34   27.10
   1  11   3   -5.00   22.43
  -4  -5  11  214.51   21.00
   4   5 -11  213.41   23.70
  -4   4  11   43.50   14.01
   4  -4 -11   54.63   20.93
   4  -4 -11   60.82   25.67
   4  10   6  153.20   20.46
   4  10   6  194.72   15.26
   4  10   6  187.38   18.48
   4  10   6  133.63   15.93
   4  10   6  152.64   22.73
   4  10   6  209.38   23.03
   3  11   3  267.66   16.06
   3  11   3  254.71   26.28
   3  11   3  242.25   16.76
   3  11   3  210.98   18.68
   3  11   3  214.67   22.37
  -4  -9   7  361.81   19.02
   4   9  -7  415.62   27.30
  -4  -9   7  400.56   19.40
   3  -5 -11  343.70   29.78
   3  -5 -11  362.48   27.44
   0   3  13   27.60   13.47
   0   3  13   31.47   16.66
   0  -3 -13   51.33   20.62
  -4 -10   5    2.80   10.92
   4  10  -5   -7.87   18.18
  -4 -10   5   -8.34   18.31
  -2   1  13  159.68   15.25
  -7  -5 -10   31.89   17.37
   7   5  10   14.27   17.00
   7   5  10   40.93   14.75
 -11   0   0   25.13   13.71
  11   0   0    2.89   17.18
  -7   4   8   64.40   15.61
   7  -4  -8   60.45   21.04
  -8  -9   1  226.87   18.48
   8   9  -1  189.56   12.32
   8   9  -1  216.75   22.17
   2  -2  13   89.67   18.17
   2  -2  13   77.93   17.95
   2  -2  13  102.50   11.88
  -2   2 -13   74.19   22.46
   4   9   8   90.99   17.40
   4   9   8   78.51   15.65
   4   9   8   74.02   13.01
   4   9   8   49.69   23.07
   4   9   8   94.68   20.25
   6   8  -7   14.25   12.46
   6   8  -7    9.09   16.57
  -6  -8   7   -8.73   12.71
  -6  -8   7   10.49   18.58
  -3   1 -13   31.75   21.84
   3  -1  13   54.63   12.02
   3  -1  13   54.05   17.26
   4  11   2   38.53   12.05
   4  11   2    2.39   12.18
   4  11   2   -7.23   20.82
   4  11   2   16.01   13.80
   4  11   2   10.67   14.41
 -11  -1  -3   28.44   14.72
 -10   0   5   79.89   14.31
 -10   0   5   58.20   14.45
   6  10   4   94.67   19.51
   6  10   4  132.04   22.32
   6  10   4  103.47   13.04
  -7  -1  10   28.66   20.13
  -7  -1  10   -4.50   13.30
  -7  -1  10    8.97   14.28
   7   1 -10   -0.80   17.22
   4  11  -1   52.49   21.81
   4  11  -1   62.98   14.81
   4  11  -1   50.18   10.43
   7  -5  -7   29.26   26.86
   7  -5  -7    9.93   20.63
  -7   5   7    7.90   13.46
  -6   5  -9  116.04   15.20
   6  -5   9   91.52   16.80
  -6   5  -9  104.13   23.03
  -9  -8   1    0.65   14.54
   9   8  -1   29.88   16.33
  -7  -1 -11   10.37   19.25
  -8   2   8  260.69   24.75
   8  -2  -8  266.98   24.69
   8  -2  -8  270.67   22.46
  -8   5   5    2.84   11.81
   8   5   9  -22.68   13.55
  -8  -5  -9   18.27   14.77
 -11  -4  -1   39.11   15.23
   3  -9  -6  246.04   30.39
  -3   9   6  280.70   17.64
  -3   9   6  258.21   16.95
 -11  -3  -3   36.47   15.40
 -11  -3  -3   21.60   15.85
  11   3   3   34.04   14.01
   5   4 -11  -12.23   19.71
  -5  -4  11   32.00   16.99
  -2   9   7  103.10   13.08
   2  -9  -7  102.80   27.02
  10   6   4    9.17   12.38
  -4   8  -7   -1.36   11.18
   4  -8   7   -1.14   13.68
   9  -1   8   25.21   15.33
   9  -1   8   20.34   14.15
  -9   1  -8   52.70   18.83
   9  -1   8   17.24   11.88
   5   7  10   19.30   18.87
   5   7  10    1.64   12.65
  -5  -7 -10   17.18   20.76
  -5  -7 -10   -1.83   17.42
   5   7  10   -7.66   14.85
  -5  -7 -10  -10.07   12.38
  -8   2  -9   22.78   19.40
   8  -2   9   36.37   11.46
   8  -2   9   18.97   16.19
 -11   0  -2   87.24   14.98
   7   2  11    5.04   12.74
  -7  -2 -11   16.73   17.94
  -6   8   3   65.33   20.64
  -3   9  -6    5.89   25.71
   3  -9   6   12.41   16.62
   3  -9   6   -0.34   12.57
  -8  -2 -10   24.46   17.77
   8   2  10   18.69   14.58
  -5  -7   9  158.63   20.69
   5   7  -9  140.80   20.59
  -5  -7   9  154.21   15.01
   8   1  10    8.05   15.02
   8   1  10   16.14   13.74
  -8  -1 -10    7.88   18.19
   7   9  -4  177.00   15.97
  -7  -9   4  176.23   16.16
   5  -9   2  -10.57    9.37
  -5   9  -2    4.02   15.72
   5  -9   2   31.48   28.00
   5  -9   2   21.29   14.01
  -5   9  -2    1.83   20.21
   9  -5  -1   48.41   27.89
  -9   5   1   33.61   10.42
  -9   5   1   12.65   19.56
  -9   5  -2   10.99   13.78
   9  -5   2    7.20   23.77
   9  -5   2  -25.15   12.85
  -9   5  -2   -6.33   18.24
 -11  -4   0   26.13   13.97
 -11  -4   0   21.53   14.90
  -5   5 -10   69.50   13.69
  -5   5 -10   61.69   22.84
  -3  -4  12   66.77   18.06
   3   4 -12   82.83   21.56
   9  -4   5  109.28   14.31
   9  -4   5  119.18   16.37
   9  -4   5   76.11   23.74
  -3  -7  10    0.63   14.51
   3   7 -10    9.86   26.51
  -3  -7  10   23.66   18.22
   3   7 -10   10.57   12.60
  -3  -7  10    6.70   11.46
   3   7 -10    2.68   20.11
   0 -11   2  199.69   20.29
  -9   4   4   94.42   13.30
  -4   3 -12   71.00   14.12
  -4   3 -12   89.78   22.63
   4  -3  12   69.21   17.25
   4  -3  12   73.94   17.01
   4  -3  12   40.08   13.63
  -7  -2  10   68.14   20.31
  -7  -2  10   59.62   15.95
  -7  -2  10   71.77   14.22
   7   2 -10   60.12   18.33
   1  -8   9   67.13   18.77
  -1   8  -9   79.92   23.11
  -1   8  -9   76.30   24.45
   1  -8   9   80.35   13.30
  -5   6  -9   64.05   13.40
  -5   6  -9   32.50   22.26
   5  -6   9   75.36   15.58
  -5  -8  -9   12.52   16.86
   5   8   9   38.82   17.61
   5   8   9   -7.88   13.85
   5   8   9   -3.82   11.23
   5   8   9    7.99   18.17
   5   8   9   20.42   14.61
  11   2  -2   76.37   18.20
 -11  -2   2  114.96   16.16
 -11  -2   2  108.05   14.92
  -6   3  10  113.76   15.85
   6  -3 -10  150.09   21.76
  -1 -10   6  347.43   18.07
  -1 -10   6  414.61   25.45
  -8  -9  -3   -1.16   15.11
   8   9   3   20.77   22.47
   8   9   3   -4.84   16.63
   8   9   3    0.83    8.74
   8   9   3  -16.25   11.08
  -7   0  10   31.02   14.00
   7   0 -10   31.42   17.98
  -7   0  10   42.46   20.91
  11   4   2   37.98   13.97
 -11  -4  -2   19.76   15.56
  -6  -1  11   60.77   21.49
  -6  -1  11   29.78   14.26
   6   1 -11    2.67   18.98
 -10   3  -3   10.59   16.38
  10  -3   3   -5.51   13.01
 -10   3  -3    1.47   11.75
  10  -3   3    3.46   23.41
   5  -9  -2   86.89   28.96
  -5   9   2  100.05   22.52
  -5   9   2   93.24   16.03
   9   8   3   75.75   25.84
  -9  -8  -3   55.64   16.27
   9   8   3   50.63   11.98
   9   8   3   99.15   12.53
  -8  -6   7   -6.37   18.01
   8   6  -7   -2.30   14.54
  -8  -6   7    7.55   13.37
   7   8  -6    4.86   14.51
   7   8  -6   32.98   13.34
  -7  -8   6   13.23   13.35
  -7  -8   6   27.88   20.28
  -7   7  -4   -7.18   18.51
   7  -7   4   24.40   24.96
   7  -7   4    9.41   11.40
  -2 -10   6  286.36   23.41
   2  10  -6  205.06   22.74
  -3   8  -8  118.33   25.08
   3  -8   8  103.12   15.68
   3  -8   8   93.34   14.00
  -6   4 -10   63.05   22.25
   6  -4  10   42.50   16.13
  -6   4 -10   72.88   14.69
  11   0  -1  -12.59   16.02
 -11   0   1    9.13   13.79
   8  -5   6   88.69   14.34
   8  -5   6  124.30   16.48
   8  -5   6   92.48   23.30
  -6 -10   3   13.32   19.05
   6  10  -3   16.08   15.35
  -6 -10   3    9.57   12.57
   4  -2 -12  100.64   21.66
 -10  -5   4   -4.78   12.09
 -10  -5   4    7.00   12.54
  -3   8   8   34.72   12.24
   3  -8  -8   40.64   25.65
   3   8  -9  267.54   16.98
  -3  -8   9  238.24   23.09
   3   8  -9  222.06   24.56
  -3  -8   9  218.63   17.90
  -3  -8   9  232.78   15.66
  -4  -3  12   79.48   16.99
   4   3 -12   46.28   20.49
  -9  -7   4  328.75   20.38
  -9  -7   4  276.65   15.57
  -1   5  12   14.31   14.48
   1  -5 -12   20.64   20.47
   1  -5 -12    4.42   19.90
   8  -6  -3   78.20   28.85
  -8   6   3   71.04   11.12
  -2 -11   3  -13.38   17.38
   5   8  -8   30.83   18.56
  -5  -8   8   24.54   11.99
  -5  -8   8   25.10   19.09
  -3  10   3  151.05   24.58
  -3  10   3  159.07   15.34
   3 -10  -3  170.18   30.64
   0  -5  12  -11.65   15.47
   0  -5  12    2.55   15.72
   0   5 -12    8.46   21.80
 -11  -1   2   77.88   15.22
  11   1  -2   85.47   17.22
   4  -8  -7   51.70   26.54
  -4   8   7   31.57   13.11
   4  -8  -7   35.81   13.74
   2  -9   7   67.06   18.12
   2  -9   7   71.42   14.08
  -2   9  -7   92.34   25.65
   2   2 -13  -20.57   21.60
  -2  -2  13    4.60   15.98
   6   0 -11  118.92   20.63
  -6   0  11  121.21   15.66
  -6   0  11  102.66   14.83
 -10   3   2  208.69   16.02
 -10   3   2  221.23   22.04
  10  -2   5   21.38   21.40
  10  -2   5   46.33   14.78
  10  -2   5   35.25   13.77
 -10   2  -5   21.06   16.94
  -7   0 -11   47.45   20.04
   7   0  11   46.51   13.81
   8   7  -6  132.90   16.10
  -8  -7   6  153.08   15.96
  10  -1   6    4.39   14.64
  10  -1   6    2.30   11.71
  10  -1   6   35.68   19.66
  10  -1   6  -29.03   13.93
 -10   1  -6    3.36   16.52
  -7  -5   9   55.88   13.74
  -7  -5   9   78.07   18.96
   7   5  -9   37.94   17.04
  10   2   7  107.66   16.07
  10   2   7  119.14   16.41
   9  -1  -7  216.06   21.89
  -9   1   7  271.71   18.98
  -9   1   7  270.30   19.17
  -9   1   7  260.17   23.10
   3 -10   3   26.46   28.70
  -3  10  -3   46.96   15.41
   3 -10   3   32.12   15.51
  -3  10  -3   33.14   22.38
   3   3  13   -5.29   17.25
   3   3  13    6.87   16.30
   3   3  13   16.64   13.75
   2  -7 -10  265.39   24.91
   2  -7 -10  248.06   27.87
  -1  11   0   28.12   22.43
   1 -11   0   16.59   15.59
  -1 -11   3   23.56   17.50
   7  10   1   23.35   19.54
   7  10   1   51.78   11.40
  -7 -10  -1   30.67   15.20
   1   9  -8   74.46   12.49
  -1  -9   8   70.77   19.00
   1   9  -8   76.96   21.76
   0  -3  13  216.32   20.27
   0  -3  13  218.94   20.07
   0   3 -13  197.67   25.41
   8   1  -9    4.42   17.08
  -8  -1   9   27.34   18.83
  -8  -1   9   -0.41   13.47
   1   5 -12  126.42   23.46
  -1  -5  12   83.20   19.22
  -1  -5  12  107.41   17.78
   6  -6   8   12.28   14.78
  -6   6  -8   10.76   13.50
  -6   6  -8  -16.76   20.29
   6  -6   8   11.14   21.68
   3  -4  12   53.40   16.39
  -3   4 -12   31.81   21.73
   3  -4  12   21.93   16.56
  -5  -4 -12   12.37   20.21
   5   4  12   10.71   16.18
   5   4  12   21.97   15.69
   5   4  12   43.52   20.56
   5   4  12   15.27   14.41
   8   8   6   15.91   22.89
   8   8   6   -1.81   13.46
 -11  -3   2   58.00   15.51
 -11  -3   2   65.67   13.97
 -11  -3   2   45.33   15.57
  11   3  -2   64.66   18.33
   8   3  10   34.53   14.90
  -8  -3 -10   20.67   17.07
   8   3  10   37.53   14.19
   0 -11  -3    3.69   28.51
   7  10   0    4.53   19.36
  -7 -10   0   -4.66   14.33
   7  10   0    6.19   10.30
  -6  -2  11  152.91   18.01
  -6  -2  11  195.64   23.26
 -11  -4   1   11.23   15.31
 -11  -4   1   17.94   14.31
 -11  -4   1   10.09   13.29
  -1  11   1   -3.78   22.43
   1 -11  -1    3.48   14.65
   5   6 -10  478.40   24.70
   5   6 -10  430.15   28.16
  -5  -6  10  392.95   21.84
  -5  -6  10  443.21   26.52
   8   0  10   -1.11   15.54
   8   0  10   22.12   13.35
  -8   0 -10   14.15   18.70
  -7   4  -9   94.24   16.09
  -7   4  -9   94.26   22.59
   7  -4   9   87.78   17.31
   4   1  13   77.15   17.94
  -4  -1 -13   72.64   21.51
   4   1  13   82.74   14.22
   4  11   3  118.25   17.07
   4  11   3  133.01   13.86
   4  11   3  117.94   14.03
   4  11   3   93.98   15.60
  -6  -5 -11   28.34   19.69
  -6  -5 -11   47.01   18.74
   6   5  11   19.20   14.78
   6   5  11   64.42   19.93
   6   5  11   61.07   14.94
  -6  -5 -11   40.96   12.85
   5  -3 -11  139.82   22.69
  -5   3  11  161.48   17.07
   4  -9   5  164.60   15.32
   4  -9   5  142.40   30.13
  -4   9  -5  183.10   18.97
   4  -9   5  132.91   17.94
  -7  -3 -11  -27.65   18.08
   7   3  11    4.60   13.57
  10   1   7   62.36   14.24
  10   1   7   76.21   15.52
 -10  -1  -7   46.85   16.15
   2  11   4  158.47   14.89
   2  11   4  130.80   16.29
   2  11   4  130.59   21.76
   2  11   4  138.94   25.14
   2  11   4  146.24   14.21
   8  -6   4   56.87   24.73
  -8   6  -4   15.64   16.51
   8  -6   4   24.41   12.28
   8   2  -9   10.85   16.62
  -8  -2   9    8.67   13.51
  -8  -2   9    7.07   18.25
   7  -3  -9  107.65   22.63
   7  -3  -9  107.54   19.98
  -7   3   9   90.54   16.36
 -11   0  -3   45.42   14.78
 -11  -2  -4    7.32   15.30
  11   2   4   11.28   13.94
   9   6   7   30.10   11.93
   9   6   7   24.16   14.25
   2   7  11   -5.32   14.98
  -2  -7 -11   11.05   19.89
  -2  -7 -11   11.83   19.78
   2   7  11    1.19   14.81
  -2  -7 -11    6.07   12.53
  -1   3  13  -11.23   13.85
   1  -3 -13  -11.01   18.58
  -8  -9   2  154.51   16.60
   4  11  -2   72.70   14.74
  -4 -11   2   72.67   19.79
  -4 -11   2   58.38   12.33
   2  -2 -13   -3.85   21.19
  -2   2  13  -18.47   13.21
  -2  -8 -10    2.52   11.38
  -2  -8 -10   -2.50   19.47
  -2  -8 -10   12.24   22.54
   2   8  10   -7.15   14.00
   9   4  -7  162.11   15.76
  -9  -4   7  193.71   16.29
  -9  -4   7  202.53   17.91
  -4  -5 -12   40.18   13.29
  -4  -5 -12   33.35   19.86
   4   5  12   31.68   15.24
   4   5  12   23.36   13.75
   4   5  12   29.31   16.15
  -2  -9   8   23.43    9.82
  -2  -9   8   33.30   18.48
   2   9  -8    4.06   20.68
  -5   8  -6  141.89   14.81
   5  -8   6  122.32   27.32
   5  -8   6  127.07   15.57
  -6   7   6    5.55   12.95
   6  -7  -6   13.77   25.86
   6  -7  -6   13.73   14.17
  -5   2 -12   84.28   22.42
   5  -2  12   70.07   14.36
  -5   2 -12   76.03   15.50
   0 -10   6  242.24   21.83
   0 -10   6  238.02   15.36
  10   7   1   -5.28   12.00
 -10  -7  -1   -9.42   13.29
 -10  -7  -1  -18.75   15.53
   1  -3  13   85.13   17.47
   1  -3  13   79.81   18.07
 -10  -4   5  102.43   14.53
 -10  -4   5   86.33   14.26
  10   4  -5   69.55   18.17
  -2   7 -10   13.32   10.80
  -2   7 -10   -2.48   22.52
   2  -7  10    1.83   14.18
   1 -11   1  106.12   31.06
  -1  11  -1   88.91   24.09
   1 -11   1  108.54   17.34
  -5  -6 -11    6.74   12.23
  -5  -6 -11   21.81   18.60
   5   6  11   18.72   14.62
   5   6  11   -6.33   15.73
   5   6  11   33.88   19.73
  -5  -6 -11   11.19   20.41
   5   6  11    4.27   14.03
   2  -6 -11  268.63   27.75
   7  -5   8   -5.72   15.21
  -7   5  -8    8.02   14.40
   7  -5   8   12.04   20.86
  -7   5  -8   -7.32   21.20
   1   7  11   -9.26   14.90
  -1  -7 -11  -22.11   13.06
  -1  -7 -11   30.12   21.31
  -1  -7 -11    9.29   19.87
  -6   8  -4    2.71   20.00
   6  -8   4   22.19   26.34
   6  -8   4   17.50   10.82
   6   9   7   16.16   13.78
   6   9   7    9.96   12.47
   6   9   7   42.43   22.84
   7  10   2  112.19   12.68
  -7 -10  -2   99.12   16.23
   7  10   2   91.51   20.73
  -9  -8   2   -3.74   14.55
   3   6 -11  201.92   29.40
   3   6 -11  169.56   23.05
   3   6 -11  187.19   16.43
  -3  -6  11  142.48   20.68
  -9   5   2   54.24   11.19
   9  -5  -2   38.86   28.67
  -9   5   2   83.48   20.99
 -10  -6   3  122.61   13.39
 -10  -6   3  134.39   17.09
  -3 -11   3   23.61   10.63
  -3 -11   3   35.00   18.91
   1   3 -13  144.41   24.56
  -1  -3  13  140.00   18.59
   6   5 -10  -16.15   18.29
  -6  -5  10    8.92   13.74
  -6  -5  10   -4.88   17.19
  -2   6 -11   77.49   12.51
   2  -6  11   76.12   16.20
   2  -6  11   77.87   16.06
   1  -5  12   35.10   16.25
  -1   5 -12   33.22   22.43
   1  -5  12   35.01   15.56
   4   0  13   39.13   17.72
   4   0  13   45.16   17.67
   4   0  13   65.30   13.28
  -4   0 -13   20.05   21.67
  -4   9   5   48.12   12.17
  -4   9   5   50.16   14.32
   4  -9  -5   42.74   27.61
   6   1  12   12.66   12.79
  -6  -1 -12  -24.02   20.34
 -11  -4  -3   59.80   15.99
 -11  -4  -3   74.99   17.35
  11   4   3   79.04   14.70
  10   3   7   12.72   14.35
  10   3   7   11.07   13.48
   9  -5   3   11.06   24.13
   9  -5   3   -2.30   12.20
 -10  -7   0   47.85   13.43
 -10  -7   0   25.57   15.28
  -1  -8 -10   98.47   25.30
  -1  -8 -10   84.44   12.98
  -1  -8 -10  119.10   21.49
 -10   2   4  133.87   15.14
   0   9  -8  128.19   23.61
   0   9  -8  158.60   27.15
   0  -9   8  109.86   20.10
   4  -6  10   17.79   15.01
  -4   6 -10   51.72   22.89
   2  10   7   11.66   13.18
   2  10   7  -18.02   14.93
  -2 -10  -7    7.39   25.44
  -3 -10   6   25.39   10.43
   3  10  -6   12.77   19.26
  -3 -10   6   48.95   18.93
   1  -9  -8  159.13   28.12
   8   0  -9   69.67   18.71
  -8   0   9   95.20   20.89
  -8   0   9   64.88   15.36
  -2  10   5  188.91   14.37
  -2  10   5  185.64   25.43
   2 -10  -5  185.40   30.64
   3  11   4  144.04   24.82
   3  11   4  182.04   15.27
   3  11   4  141.13   21.85
   3  11   4  166.14   14.83
   3  11   4  172.61   18.08
 -11  -1  -4  -20.64   15.53
  -5   4 -11  -14.05   13.79
  -5   4 -11   15.24   21.98
  -1 -11  -4  -56.85   28.90
   1  11   4  -12.21   22.71
   4   2  13   17.84   17.10
   4   2  13   14.74   16.50
  -4  -2 -13   26.45   20.67
   4   2  13   15.32   13.77
  -5   9  -3   20.32   16.45
   5  -9   3   -2.59   27.61
  -5   9  -3   10.05   21.15
   5  -9   3   -4.99   14.66
 -10  -7  -2    1.34   13.95
  10   7   2  -14.08   11.42
 -10  -7  -2   -4.44   15.75
   7  -6  -6   22.75   15.50
  -7   6   6    6.54   13.52
   7  -6  -6   19.18   27.06
  -8  -5   8  152.07   16.69
  -8  -5   8  152.85   20.35
 -11  -3  -4   52.65   16.52
 -11  -3  -4   50.58   16.98
  11   3   4   41.60   14.05
  -7  -3  10   97.72   17.95
   7   3 -10  143.94   20.02
  -7  -3  10  132.82   20.26
   5  11   1  155.68   21.40
   5  11   1  156.14   14.24
   5  11   1  175.42   14.01
  -6  -2 -12    0.87   19.24
   6   2  12    3.44   13.24
   6   2  12    8.50   15.72
  -1  10   6  270.08   17.39
  -1  10   6  242.35   14.83
   1 -10  -6  263.23   31.90
   9   2   9  -10.17   15.77
  -9  -2  -9   11.77   16.35
   5  11   0  125.10   12.34
   5  11   0   76.06   12.95
   5  11   0   88.12   20.13
   7  10  -1    4.00   19.37
   7  10  -1   -3.67    9.49
  -7 -10   1    0.82   14.09
 -11   1  -1   -6.68   13.38
  -7   1  10  237.80   18.47
   7  -1 -10  250.76   23.39
 -10   1   5  169.69   16.46
   3   8  10   65.29   13.76
   3   8  10   62.32   14.66
  -3  -8 -10   75.89   20.20
  -3  -8 -10   58.50   11.85
   3   8  10   54.72   16.85
  -1  11   2   38.59   22.60
   1 -11  -2    0.95   29.13
  10   5   6    5.13   13.10
   3  -2  13   -3.70   16.84
  -3   2 -13    2.05   21.74
   9   5   8   49.66   14.89
   9   5   8   63.27   13.78
 -11   1   0    8.34   13.48
  11  -1   0   13.20   16.49
   9   1   9  -21.68   15.73
  -9  -1  -9   -0.66   17.06
 -11   0   2  -14.69   13.71
   3   7  11   88.43   15.22
  -3  -7 -11  110.80   13.06
   3   7  11  109.10   16.51
  -3  -7 -11   83.28   13.58
  -3  -7 -11   94.79   21.27
   3   7  11   78.70   16.17
  -1 -10  -7   87.54   28.11
   1  10   7  108.58   14.95
   1  10   7   87.05   16.55
   6  -1 -11  205.28   22.77
  -6   1  11  208.02   18.04
  -2   8   9   98.04   13.50
   2  -8  -9   74.49   25.70
   3  10   7   52.43   15.10
   3  10   7   55.67   20.08
   3  10   7   48.32   15.97
   3  10   7   43.28   21.81
   0 -11   3   46.51   17.69
  -7   7   4   13.20    9.95
  -1  -4 -13   63.12   21.64
   1   4  13   63.88   14.95
   1   4  13   56.56   16.84
   2   5 -12  239.98   27.49
  -2  -5  12  198.19   21.91
   2   5 -12  234.96   25.61
  -3   0  13   79.45   16.11
  -3   0  13  103.34   12.95
   5  -7   8   -2.33   14.51
  -5   7  -8    2.04   12.66
  -5   7  -8   -7.47   20.61
   5  10   6   20.36   16.48
   5  10   6   42.48   13.12
   5  10   6   58.47   21.38
   5  10   6   34.93   16.73
   9   7   6   36.88   13.75
   9   7   6   28.84   22.85
   7   9   6  148.98   25.13
   7   9   6  119.67   15.47
  -5   9   3  118.36   16.58
  -5   9   3   88.89   22.52
  -6   0 -12    4.60   20.90
   8   9   4   29.74   17.16
   8   9   4   55.64   25.14
   8   9   4   17.73   11.69
  -4   5 -11   14.28   22.22
   4  -5  11  -11.31   15.73
  -9  -8  -4   19.74   16.19
   9   8   4   23.62   11.81
   9   8   4   59.25   12.84
   9   8   4   21.94   26.25
   3   1 -13  109.51   22.90
  -3  -1  13   99.28   17.33
  -3  -1  13  123.95   12.09
   2 -10   5  141.24   13.58
   2 -10   5  136.62   18.89
   2   4  13   54.22   17.26
  -2  -4 -13   43.68   21.11
   2   4  13   48.15   14.05
  10  -3   4   20.74   23.92
  10  -3   4   27.77   13.30
   5  11   2   70.36   12.62
   5  11   2   66.23   12.68
   5  11   2   40.89   18.80
   5   9   8   35.21   18.80
   5   9   8   54.39   15.07
   5   9   8   33.07   13.06
   5   9   8   53.10   17.77
   5   9   8   47.80   23.10
 -11   1  -2   30.76   13.70
 -10  -7   1   74.65   16.12
  -5   8   6   35.57   12.94
   5  -8  -6   32.99   14.01
   5  -8  -6   56.46   27.85
   6  10   5    5.36   22.29
   6  10   5   62.14   12.38
   6  10   5    6.55   18.45
  -8  -3   9   98.82   14.83
   8   3  -9  104.36   17.55
  -8  -3   9  101.63   17.95
  -8  -3   9   95.57   15.45
  10   0   7    5.98   12.72
  10   0   7   -0.22   14.10
 -10   0  -7   24.16   16.43
  10   0   7   15.70   15.31
  10   6   5   36.58   24.36
  10   6   5   46.20   13.48
 -10  -6  -5   38.58   16.95
   4  -7   9   42.71   14.74
  -4   7  -9   45.54   23.07
   4  -7   9   61.10   15.64
  -7   3 -10  101.42   23.08
   6   9  -6   97.59   17.73
  -6  -9   6  110.61   14.31
  -1  11  -2  156.01   25.50
   1 -11   2  213.85   19.97
   1 -11   2  188.59   33.28
 -11  -5  -1   72.92   16.35
   9  -3   7   15.79   19.15
  -9   3  -7    3.04   19.77
   9  -3   7    0.62   13.93
  -5  -1  12   59.79   15.26
  -5  -1  12   23.50   11.20
   0   7  11   63.58   16.18
   0  -7 -11   73.88   23.14
   0  -7 -11   70.64   21.11
 -11  -2   3   83.05   15.71
 -11  -2   3   65.16   13.97
  11   2  -3   49.77   17.38
  -5 -11   1  218.06   16.86
   5  11  -1  171.52   12.93
   5  11  -1  163.10   22.53
   7  -1  11    1.47   12.70
  -7   1 -11   20.82   19.88
  -3  -9   8  201.02   15.62
   3   9  -8  218.17   24.51
  -3  -9   8  190.19   13.94
   7  10   3  154.29   22.11
   7  10   3  174.59   14.46
 -11  -4   2   44.44   13.60
 -11  -4   2   26.19   14.77
 -11  -4   2   20.38   15.39
   9   3   9   13.48   14.95
  -9  -3  -9   -0.56   15.54
  -6  -3  11  186.73   22.41
  -6  -3  11  184.85   19.30
   3  -4 -12  203.98   26.75
   3  -4 -12  214.65   24.43
  -5   0  12   60.19   14.47
   5   0 -12   46.03   20.71
   5  -6  -9   -0.65   19.51
   5  -6  -9   14.93   25.71
  -5   6   9   19.57   14.22
   5  10  -5   45.31   18.51
  -5 -10   5   41.11   19.73
  -5 -10   5   19.72   12.43
  -8  -8   5   31.00   14.39
   8   8  -5   43.60   14.01
   2  -3  13  -17.69   17.11
   2  -3  13  -18.14   17.40
  -2   3 -13   18.17   21.74
  -6   3 -11    1.74   14.65
  -6   3 -11   13.43   21.57
 -11  -5   0   27.10   15.78
 -11  -5   0   40.98   13.76
   2  -8   9  135.53   15.32
   2  -8   9   94.61   19.84
  -2   8  -9  168.21   25.16
  -2   8  -9  162.09   25.57
 -10  -2   6   -3.82   13.60
 -10  -2   6   -5.24   14.58
  -7  -7  -9  102.50   17.39
   7   7   9   92.13   16.21
   0  -8 -10  152.30   26.31
   0   8  10  150.15   18.44
   0  -8 -10  191.91   23.10
 -11   1   1    6.30   13.66
  -9   3   6   58.23   20.37
   9  -3  -6   62.71   19.62
  -9   3   6   72.12   14.12
  10   7   3    7.49   12.08
 -10  -7  -3    6.60   16.22
 -10   3   3  107.32   14.14
   0  -4 -13   -9.13   20.39
   0   4  13   -0.22   13.99
   0   4  13  -14.30   16.96
   4  -1  13  -19.41   17.04
   4  -1  13   -7.29   17.20
  -4   1 -13  -35.08   22.64
  -2  -6 -12   33.60   12.56
  -2  -6 -12   43.46   20.60
   2   6  12   13.59   14.95
   2   6  12   14.40   16.07
 -10  -1   6   84.13   15.17
 -10  -1   6   95.93   15.88
  11   1  -3   22.82   15.53
 -11  -1   3   13.86   14.36
  -8   4   7   -0.64   13.87
   8  -4  -7   12.46   20.31
   3  -1 -13    8.73   20.80
  -3   1  13   -3.49   12.59
  -3   1  13    4.58   13.73
   5   9  -7  220.29   21.77
  -5  -9   7  192.19   15.37
   1   6  12  -11.83   16.12
  -1  -6 -12    6.73   20.10
   1   6  12  -21.80   14.98
  -4  10   0  191.62   25.83
   4 -10   0  194.73   32.36
  -4  10   0  210.97   18.17
 -11  -5  -2   53.12   16.42
  11   5   2   58.14   14.20
   8   4  10  -11.39   14.10
   8   4  10  -13.09   13.96
  -2  -9  -9  -12.43   25.01
   2   9   9   -9.18   15.35
   4   7 -10  102.90   21.61
   4   7 -10  144.73   14.21
  -4  -7  10  132.95   20.78
  -4  -7  10  139.81   14.44
  -3  10   4  118.73   12.99
   3 -10  -4  158.37   30.64
  -3  10   4  118.27   24.10
   6   3  12    0.25   18.63
  -6  -3 -12    6.26   19.29
   6   3  12   27.48   15.99
   6   3  12   24.79   14.34
  -6  -3 -12   29.73   19.68
  11   0   4   11.83   13.86
 -11   0  -4   29.64   15.07
  11   0   4   52.97   13.72
  -2  -3  13   23.46   17.28
   2   3 -13    7.51   22.10
   8  -1  10   -8.81   15.94
  -8   1 -10   21.79   19.60
   8  -1  10    8.80   12.39
   9  -2   8    0.68   15.40
   9  -2   8  -11.20   14.25
  -9   2  -8   19.77   19.54
   4  11   4  110.80   23.08
   4  11   4  121.16   14.79
   4  11   4  137.96   17.21
   4  11   4  129.15   14.39
   5  -5 -10  -17.90   20.55
   5  -5 -10   15.93   26.93
  -5   5  10   14.08   14.17
  10   4   7   23.37   13.56
  10   4   7   13.13   14.64
   1 -10   6    0.85   11.76
   1 -10   6   -2.36   17.27
   9   0   9    7.37   15.64
   9   0   9   15.94   13.14
  -9   0  -9   10.38   17.66
  -4  -8   9   63.70   19.50
  -4  -8   9   32.98   12.50
   4   8  -9   41.93   11.66
  -4  -8   9   35.90   14.32
   4   8  -9   36.56   20.26
  -1   9  -8  160.53   24.69
  -1   9  -8  152.43   27.53
   1  -9   8  150.03   15.55
   1  -9   8  153.45   21.23
   0 -11  -4    1.39   28.96
   3 -10   4   57.65   16.94
   3 -10   4   66.77   29.67
   7   4  11   16.17   14.26
   4  -6 -10   26.66   25.28
   4  -6 -10   -1.37   20.02
  -4   6  10   31.67   13.77
 -11  -3   3   30.65   13.59
  11   3  -3   19.00   17.47
 -11  -3   3   29.24   14.98
   4 -10   1  166.01   32.38
  -4  10  -1  183.71   25.55
   4 -10   1  156.80   16.20
  -4  10  -1  151.99   17.56
   7  -6   7   -3.45   24.42
   7  -6   7    1.75   15.08
   7  -7   5   26.12   14.27
   7  -7   5   15.61   12.25
  -7   7  -5   31.12   18.83
   7  -7   5   25.25   25.78
  -4 -11   3  143.38   22.19
  -4 -11   3  144.84   13.99
   4   3  13  -12.51   17.16
   4   3  13  -18.55   14.22
   4   3  13  -13.15   16.11
   4 -10  -1  371.08   36.23
  -4  10   1  348.97   29.92
  -8   1   9  148.10   22.43
   8  -1  -9  137.91   22.09
  -8   1   9  146.33   16.88
   8  -1  -9  139.84   20.40
   2  -5  12   77.34   17.14
   2  -5  12   45.77   16.98
 -11  -4  -4   51.12   16.20
  11   4   4   43.92   14.27
 -11  -4  -4   41.78   17.24
  -8   6   4   16.90   10.73
  -2 -11   4  118.16   19.96
   6  10  -4   83.99   17.52
  -6 -10   4   56.89   13.64
  -6 -10   4   70.27   20.70
  -7 -10   2   72.36   14.74
   6  -5  -9    6.35   26.23
  -6   5   9   -0.86   14.45
   6  -5  -9   -3.21   19.79
  -5  -2  12  102.18   17.24
  -1  -9  -9   16.62   25.95
   1   9   9   13.85   15.61
  -9  -6   6   24.99   11.61
  -9  -6   6   -1.94   14.40
  -8  -9   3  132.55   16.57
  -1 -11   4   43.08   18.59
  -8   4  -8    5.24   20.57
   8  -4   8    2.49   15.66
   9  -5  -3   38.46   29.12
  -9   5   3   46.58   11.49
   4  -3 -12  184.46   23.72
  -3  -2  13   68.67   17.84
   3   2 -13   61.80   22.43
  -1  11   3   53.40   24.23
   1 -11  -3   36.60   30.32
  -9  -1   8   26.45   15.01
   9   1  -8   21.86   16.23
  -9  -1   8   10.76   14.15
   8   7   8   16.83   14.87
   8   7   8   26.12   11.66
   2  -5 -12  128.03   23.61
   9  -5   4    8.66   24.42
   9  -5   4   -1.10   12.62
  -3  -9  -9   11.62   18.29
   3   9   9   29.04   13.35
   3   9   9   27.96   15.73
   3   9   9   41.84   12.26
   0 -10  -7  224.67   32.37
   0  10   7  184.72   16.91
  -6   7  -7   16.02   13.63
   6  -7   7   18.30   25.10
   6  -7   7   37.65   15.07
   9  -4   6   68.41   14.61
   9  -4   6   68.62   22.86
   9  -4   6   97.56   16.61
  -9   4  -6   34.49   19.55
  -7  -9   5   68.76   14.51
  -7  -9   5   44.62   20.62
   8  -3  -8   43.67   20.92
  11  -1   3   74.84   15.31
 -11   1  -3   74.82   15.33
   4  10   7  101.30   20.62
   4  10   7   81.51   15.79
   4  10   7   42.27   21.92
   4  10   7   98.86   17.67
   4   4 -12   -7.56   20.54
  -4  -4  12  -11.06   17.26
  -3  -4 -13   13.66   20.85
   3   4  13   36.33   14.17
   3   4  13   30.69   16.75
   3   4  13   33.63   18.00
   7   8   8   75.46   16.18
  -9  -2   8   -0.22   13.91
  -9  -2   8   18.61   13.99
   9   2  -8   -2.89   15.77
  -9   4   5   34.84   12.54
   5  11   3   11.95   12.13
   5  11   3  -29.54   19.48
   5  11   3    4.34   12.12
  10   3  -6   75.40   17.09
 -10  -3   6   82.21   15.62
 -10  -3   6   74.52   15.08
   4   8  10   60.34   18.09
   4   8  10   66.83   15.71
   4   8  10   77.27   14.22
  -4  -8 -10   73.57   12.38
   4   8  10   69.88   21.25
  -4  -8 -10   59.42   20.03
 -11  -5   1   18.20   15.56
 -11  -5   1    8.31   12.90
  -9  -8   3   77.18   16.19
 -10   4  -1   -5.37   18.86
 -10   4  -1   21.20   10.92
  10  -4   1   30.72   27.14
   4  10  -6   -6.70   19.53
  -4 -10   6    2.17   11.46
  -4 -10   6   26.96   19.59
   4  -7  -9   12.63   25.66
   4  -7  -9   34.53   15.02
  -4   7   9    3.76   13.40
 -11  -2  -5   19.20   15.71
  11   2   5   22.26   14.19
   9  -2  -7   92.69   20.22
  -9   2   7   92.24   21.24
  -9   2   7   77.75   15.09
  -9   2   7  116.40   15.75
  -5  -5  11  136.47   19.70
   5   5 -11   88.96   20.90
  -7  -6 -10   69.35   17.98
 -10   4   0   40.36   11.87
  10  -4   0   55.70   28.47
 -10   4   0   50.60   19.73
  -6   6   8  -15.92   14.60
   6  -6  -8  -33.79   27.37
   5  -1 -12  307.74   26.57
   2  -3 -13   45.68   21.56
  -2   3  13   56.39   14.52
  -3  -6 -12  134.72   22.25
   3   6  12  100.51   16.17
   3   6  12  106.75   16.66
   3   6  12  112.50   18.12
  -3  -6 -12  127.27   14.58
   8   6   9    0.67   14.46
   8   6   9    0.31   13.44
   4   7  11  119.68   17.44
  -4  -7 -11  111.11   21.51
   4   7  11  105.39   16.33
  -4  -7 -11  112.19   14.16
   4   7  11   95.59   16.18
  -6  -7 -10   -4.73   18.02
   6   7  10   25.36   19.41
  -6  -7 -10   25.92   20.63
   6   7  10  -11.95   15.74
   8  -5  -6   17.32   28.39
  -8   5   6   26.20   14.23
   8  -5  -6    0.31   20.25
   6  -1  12   29.82   14.22
  -6   1 -12   33.71   21.67
   2  11   5   24.78   23.21
   2  11   5    9.03   12.70
   2  11   5   10.72   12.49
   8  -6   5   90.18   13.83
   8  -6   5   81.75   15.77
   8  -6   5   71.49   25.71
  -8   6  -5   62.39   17.96
  -5   7   8  -10.62   14.44
   5  -7  -8    8.89   15.36
   5  -7  -8   44.05   27.00
  -8   3  -9   79.71   22.71
 -10   0   6  195.98   18.13
 -10   0   6  205.51   17.70
   0  -6 -12   14.33   20.20
   0  -6 -12    8.75   20.46
   0   6  12   14.66   15.04
  -5   9  -4   30.30   17.41
  -5   9  -4   24.25   21.40
   5  -9   4   -0.44   28.62
   5  -9   4   14.82   15.58
 -10  -7   2  150.09   17.50
  -5 -11   2  126.01   14.91
 -11  -5  -3   41.22   17.17
  11   5   3   25.87   13.16
  10  -2   6   28.90   15.01
  10  -2   6   12.45   13.90
  10  -2   6    0.25   19.99
 -10   2  -6   -0.48   18.30
   6   8   9    3.51   14.45
  -6  -8  -9    4.33   16.81
   6   8   9    1.18   14.78
 -10  -5   5   27.55   12.99
 -10  -5   5   19.56   15.01
 -10  -5   5   30.05   12.81
  -3 -11   4  156.41   21.83
 -11  -1  -5    6.81   15.25
  -9  -7   5  243.73   19.13
 -11   0   3   44.13   14.21
  -7  -4  10  196.87   20.86
  -7  -4  10  212.99   18.06
   2 -11   0   81.66   15.88
   2 -11   0   42.39   31.53
  -2  11   0   73.43   23.76
   4 -10   2   -0.95   30.91
   4 -10   2   27.42   14.94
  -4  10  -2   11.36   15.56
  -4  10  -2   25.03   22.46
 -11  -3  -5   41.28   16.98
  11   3   5   42.78   14.67
  -9  -5   7   58.40   15.15
  -9  -5   7   66.50   13.42
   6  -8   5   58.34   14.90
   6  -8   5   75.16   27.72
  10  -4   2    7.67   25.49
 -10   4  -2  -15.02   18.84
 -10   4  -2   -1.08   11.54
  10  -4   2   -4.63   13.58
   1 -11   3  166.30   19.72
  -1  11  -3  165.75   25.95
  -3   9   7   65.33   13.73
   3  -9  -7   73.89   28.20
  -3   9   7   69.46   13.22
  -4  10   2  229.85   27.16
 -11   1   2   59.80   14.21
  -3  -5  12  182.73   21.84
   3   5 -12  218.37   25.19
   3  11   5   -8.22   13.15
   3  11   5   12.87   22.34
   3  11   5    5.70   13.40
   3  11   5   34.42   15.42
   6  -2 -11  130.86   22.25
   7  -2 -10  100.44   21.01
  -5  -5 -12   14.14   21.04
  -5  -5 -12   -7.67   13.01
   5   5  12    6.46   15.14
   5   5  12  -13.67   16.61
   5   5  12  -15.19   14.81
  -5  -5 -12  -11.78   19.84
 -10  -6   4  110.67   16.36
 -10  -6   4   92.06   12.95
   9   0  -8  112.37   20.49
   9   0  -8  110.78   18.40
  -9   0   8  112.16   16.19
  -9   0   8  113.87   16.51
   7   7  -8  143.60   18.25
  -7  -7   8  109.67   21.60
  -7  -7   8  134.10   16.05
   7   7  -8  118.43   16.96
   3  -9   7  -11.19   13.89
   3  -9   7    9.88   17.46
  -3   9  -7    8.62   25.69
   9   4   9   55.44   14.91
   7  -8   0  153.68   14.71
   7  -8   0  204.65   31.30
  -7   8   0  196.94   24.47
  10  -4  -1   82.24   30.02
 -10   4   1   69.20   12.67
 -10   4   1   48.85   20.27
   4   6 -11  423.08   29.12
  -4  -6  11  417.14   27.40
  -2  11   1   92.81   24.57
   4  -5 -11   75.47   21.81
  -4   5  11   62.03   14.93
   4  -5 -11   76.06   26.07
   1  11   5   70.67   23.37
  -1 -11  -5   67.62   30.34
   7  10   4  137.94   21.10
   7  10   4  134.78   14.39
  -3   6 -11   -6.26   12.23
   3  -6  11    0.42   14.94
   3  -7  10   49.02   14.96
   0  -4  13  123.28   18.35
   0   4 -13  104.07   24.14
   0  -4  13  114.65   19.57
  -8   7   0   72.64   19.50
   8  -7   0  102.88   30.03
   7  -8   1  180.26   30.97
  -7   8  -1  119.64   22.62
   7  -8   1  122.89   13.70
   4  -4  12   46.18   16.87
  -4   4 -12   59.42   23.25
   8  -5   7   37.74   13.90
  -8   5  -7   -0.89   20.34
   8  -5   7   26.42   22.43
   8  -5   7   29.86   15.91
   0 -11   4   25.31   17.82
  10   7   4   58.88   13.27
  10   7   4   72.96   26.97
   1  -4 -13   46.57   22.12
   1  -4 -13   46.84   20.23
  -1   4  13   29.82   14.90
   5  -9  -4  -17.62   28.66
  -5   9   4   13.89   15.00
  -2  11  -1   -8.58   22.64
   2 -11   1   17.61   15.53
   2 -11   1   10.85   30.79
   6  -4 -10   41.15   20.91
  -6   4  10   30.00   14.81
   3  -2 -13  120.56   23.54
  -3   2  13   93.66   14.80
   8  -7   1  135.35   14.80
  -8   7  -1  106.35   20.47
   8  -7   1  144.67   30.22
  -8  -4   9  223.44   17.94
  -8  -4   9  189.57   21.33
  -8  -4   9  205.25   17.14
   8   4  -9  213.76   20.20
   9   3  -8   50.36   16.01
  -9  -3   8   45.57   14.38
  10  -1   7   15.77   12.17
  10  -1   7  -30.33   14.74
 -10   1  -7   13.55   18.54
  10  -1   7    4.63   15.50
   1  -7 -11  161.66   26.05
   1  -7 -11  178.45   24.16
   8   9   5   44.44   25.20
   8   9   5   43.45   13.83
   9   8   5   15.01   24.61
   9   8   5   10.76   13.00
   9   8   5   15.46   12.16
   5  -3  12   99.16   19.00
  -5   3 -12   94.05   15.38
  -5   3 -12   78.68   23.47
  -1   0 -14   22.09   21.95
   1   0  14   -4.36   17.10
   1   0  14   -5.18   12.54
   0  -9  -9   68.09   26.55
   4  -9   6  176.69   16.23
   4  -9   6  143.71   29.46
   4  -9   6  132.23   19.26
   6   7  -9  175.22   17.17
   6   7  -9  146.72   20.81
  -6  -7   9  157.99   16.24
  -6  -7   9  183.12   22.47
   5   1  13   51.29   17.72
   5   1  13   73.60   14.39
  -5  -1 -13   66.71   22.13
   1   7 -11   92.83   23.70
   1   7 -11   51.94   12.90
  -1  -7  11   78.82   20.53
  -1  -7  11   90.02   16.73
   1   7 -11   89.81   25.02
  -1  -1 -14  -19.06   22.07
   1   1  14   30.14   13.14
   8   8   7   27.87   15.05
 -11  -4   3  151.97   15.22
 -11  -4   3  131.19   15.18
 -11  -4   3  155.60   17.75
 -11  -4   3  148.65   17.08
   0   0  14   30.64   12.20
   0   0  14    5.17   17.51
  -1 -10   7  324.01   18.32
  -1 -10   7  349.91   25.23
   1  10  -7  280.75   26.28
   2  -9  -8    1.63   27.49
  -2   9   8   30.32   11.88
  -1  -4  13  244.94   21.50
   1   4 -13  223.50   26.36
  -1  -4  13  166.10   22.02
  -7   8   1   66.88   20.76
   7  -8  -1   96.33   29.92
  -4  -9   8  280.11   16.95
  -4  -9   8  269.11   17.46
   4   9  -8  269.06   25.03
   4  -8   8   -3.70   14.93
  -4   8  -8   -4.78   21.63
   4  -8   8    6.61   13.54
 -10   2   5  161.22   16.11
  10  -3   5   14.47   22.38
 -10   3  -5   11.73   17.71
  10  -3   5   25.18   14.08
   3  -7 -10   46.15   25.68
  -3   7  10   47.77   13.62
   1   8 -10  154.27   15.34
  -1  -8  10  156.20   17.45
   1   8 -10  175.26   28.07
   1   8 -10  182.57   25.82
   0  -7  11   71.63   16.51
   0   7 -11   95.91   24.19
   0   7 -11   47.18   12.34
   0  -7  11   83.33   15.64
  -2 -10   7  201.88   21.84
   2  10  -7  181.65   24.99
   1  -8 -10   83.17   25.61
   1  -8 -10  107.42   22.14
   1  -4  13   11.53   16.27
   1  -4  13    6.86   16.94
   4   9   9   51.40   21.68
   4   9   9   76.22   18.03
   4   9   9   81.26   16.19
   4   9   9   79.13   14.05
   3  -3  13    0.50   17.13
  -3   3 -13   13.33   22.26
   3  -3  13   -9.33   16.66
   7  -5  -8    7.15   28.22
  -7   5   8   19.32   15.06
   8  -7  -1   93.37   29.52
   5   3 -12  136.33   22.80
  -5  -3  12  149.22   19.43
   0   1  14   72.64   13.28
 -11   2  -1  -29.01   13.47
   7   6  -9   -3.36   17.30
  -7  -6   9  -15.31   18.73
  -7  -6   9   -0.83   14.09
   6   8  -8   21.38   17.85
  -6  -8   8    2.24   13.55
  -6  -8   8   43.80   19.96
  -4   2 -13   34.59   22.95
   4  -2  13   13.96   17.39
  -4   9   6   12.74   14.01
  -4   9   6    3.88   12.80
   4  -9  -6   26.44   27.51
  -5   4  11   28.69   14.39
   5  -4 -11   20.60   21.65
   5  -4 -11   49.75   26.97
   2 -10  -6   75.16   29.94
  -2  10   6   67.37   12.07
 -11  -5   2   -0.76   11.41
 -11  -5   2   11.18   12.88
   7   8  -7   59.42   16.63
  -7  -8   7   65.07   20.99
  -7  -8   7   85.57   14.79
   6   4  12   56.33   16.27
   6   4  12   51.22   18.27
   6   4  12   33.67   15.04
  -6  -4 -12   36.58   20.96
   6   4  12   39.96   20.23
   5   2  13   27.96   17.06
  -5  -2 -13   28.28   21.93
   5   2  13   40.47   14.42
   5   2  13   28.58   17.59
   6   4 -11   36.29   20.07
  -6  -4  11   43.28   17.73
   7  -7  -5    8.74   15.10
   7  -7  -5   22.07   27.72
   9  -1   9   28.26   16.07
  -9   1  -9   43.37   19.88
   9  -1   9   31.93   12.42
 -11   2   0   -1.58   13.38
   6   6  11   40.99   19.98
  -6  -6 -11   36.78   18.90
  -6  -6 -11   21.05   20.66
   6   6  11   24.92   15.08
   6   6  11    5.55   16.66
   6   6  11   10.67   14.16
  -6  -6 -11   27.14   12.73
   3  -6 -11   64.62   24.80
  10   2   8   43.63   15.65
  10   2   8   27.94   15.81
   2 -11  -2  148.40   33.12
  -2  11   2  164.84   26.36
   6  11   1  432.01   22.20
   6  11   1  448.52   29.03
   6  11   1  477.85   21.75
   0   8 -10   53.75   23.74
   0   8 -10   26.65   13.49
   0  -8  10   36.91   19.51
   0   8 -10   35.73   24.80
   7  -8   2  114.38   28.88
   7  -8   2   42.82   12.54
  -7   8  -2   48.61   21.02
   5   0  13   -1.31   17.18
   5   0  13    8.09   16.88
   5   0  13    2.61   12.93
  -5   0 -13  -28.65   22.51
   8  -7   2   50.78   12.70
   8  -7   2  103.83   27.94
  -8   7  -2   51.21   19.66
  -7   2 -11    2.19   21.02
 -11   1  -4   82.48   15.61
  11  -1   4   66.85   14.74
 -11  -2   4    0.78   13.49
  11   2  -4   12.30   16.04
 -11  -2   4   14.97   13.14
 -11  -2   4   12.44   15.05
  -7 -10   3  138.19   16.00
  -6 -11   0  314.51   20.33
   6  11   0  241.58   24.58
   6  11   0  281.35   18.37
  -5   8  -7   56.20   13.52
   5  -8   7   51.37   15.46
   5  -8   7   38.26   26.96
  10   4  -6   86.26   18.41
 -10  -4   6   69.97   14.75
   2   1  14   -1.96   17.60
  -2  -1 -14    6.66   21.98
   2   1  14  -11.29   13.23
  10  -4   3   34.75   25.30
 -10   4  -3  -11.50   18.21
  10  -4   3   -4.92   13.46
  11   0   5   10.99   13.05
 -11   0  -5  -10.77   15.00
  11   0   5    6.43   14.06
  10   6   6   47.18   14.30
 -10   3   4   67.19   13.82
   5  11   4   10.66   18.08
   5  11   4   21.11   11.86
   8   7  -7   80.30   16.19
  -8  -7   7   70.61   21.34
  -8  -7   7   75.65   15.34
   0  -1  14  -26.53   17.68
   0  -1  14  -20.29   11.43
  -2  -8  10  145.85   13.61
   2   8 -10  127.96   24.44
  -2  -8  10  162.44   17.29
   2   8 -10  159.02   15.45
   2   0  14    5.35   12.43
  -2   0 -14   31.59   22.82
   2   0  14   26.27   18.01
   2   0  14    1.44   17.74
  -7   4   9   11.05   14.67
   7  -4  -9  -23.41   19.48
  -3  -3  13   14.36   17.72
   3   3 -13   29.04   22.10
   1  -1  14   24.38   11.81
   1  -1  14   -4.35   16.99
  -1   1 -14   33.92   22.96
  -9  -9  -1  104.78   17.92
   9   9   1   72.82   18.21
   9   9   1   64.29   11.15
   6  10   6  108.19   23.82
   6  10   6   34.12   13.23
  -2  -7  11   34.46   16.22
   2   7 -11   43.75   22.71
   2   7 -11   56.65   27.63
  -2  -7  11   60.36   12.91
  -2  -7  11   35.51   19.22
  -6   8   5   22.96   13.12
   6  -8  -5   29.38   28.03
  10   1   8   35.42   15.91
  -1  11   4   72.82   24.24
   1 -11  -4  105.53   31.84
  11  -2   2  -11.27   13.97
 -11   2  -2  -13.00   13.36
   2 -11   2   22.63   31.29
  -2  11  -2   33.08   23.61
   2 -11   2   34.40   16.46
   9   6   8   17.34   12.93
   9   6   8   22.19   14.14
 -11  -4  -5   28.64   16.81
 -11  -4  -5   49.52   17.14
  11   4   5   47.86   14.83
 -11  -1   4  -28.75   15.30
   4  11   5  175.40   24.38
   4  11   5  149.59   15.55
   4  11   5  185.61   16.48
   4  11   5  216.13   19.08
   6  -7  -7    6.02   26.92
  -6   7   7    8.16   14.35
   6  -7  -7   11.35   15.28
  -4  -6 -12   33.07   13.82
  -4  -6 -12   59.91   20.69
   4   6  12   42.28   15.91
   4   6  12   41.48   15.23
   4   6  12   44.52   17.59
  10   5   7   45.68   13.34
  10   5   7   38.08   14.93
   0 -10   7  232.52   22.58
   0 -10   7  223.63   16.34
   0  10  -7  193.35   24.96
 -11  -5  -4   35.42   16.97
  11   5   4   19.69   13.61
   4  -8  -8    7.59   26.91
  -4   8   8   12.96   13.16
   2  -9   8   56.03   19.37
  -2   9  -8   39.65   22.54
  -2   9  -8  116.06   26.11
   2  -9   8   75.78   15.33
   4   4  13   17.91   17.83
   4   4  13   -4.98   16.77
   4   4  13    7.42   14.54
  10  -4  -2   92.95   30.92
 -10   4   2   92.35   13.30
 -10   4   2   66.07   20.96
   8   5  10   -3.02   13.75
  -8  -5 -10    7.98   16.70
  -9  -9   0  152.46   18.13
   9   9   0  116.30   19.64
   9   9   0  106.22   11.80
  -4  10  -3   -6.03   16.02
   4 -10   3   11.51   15.28
   4 -10   3  -11.46   30.64
  -4  10  -3  -17.20   22.97
   5  -2 -12  216.49   24.90
  -6   9   0  185.15   25.36
   6  -9   0  221.17   32.86
  -8  -6   8   16.99   19.43
  -8  -6   8   12.14   14.33
   6  11   2  276.15   24.93
   6  11   2  346.26   18.70
   8  -2  -9   30.04   21.76
   8  -2  -9   29.42   18.49
   1   2  14   97.97   14.74
   1   2  14  101.76   18.99
   9   7   7   -9.56   14.15
  -4 -11   4  133.68   13.68
  -4 -11   4  116.61   21.37
  -4  10   3   63.09   23.24
  -3  10   5   55.98   12.77
  -3  10   5   60.01   23.88
   3 -10  -5   45.65   28.47
   1  -6 -12  127.86   24.13
   1  -6 -12  131.40   23.31
  -1   6  12  118.47   17.66
   6   9   8   15.87   14.37
   6   9   8  -13.32   13.20
   1 -10  -7  165.83   30.58
  10   3   8  -10.08   14.44
  10   3   8   14.16   15.04
 -10   1   6  162.00   17.17
 -10   1   6  164.13   17.12
   6   6 -10  112.97   20.93
  -6  -6  10  114.80   20.50
  -6  -6  10  106.01   15.45
   0 -11  -5  134.93   31.68
  -1   0  14   92.15   13.09
   1   0 -14   82.28   23.35
  11   6   1   39.67   14.12
   8  -2  10   86.96   17.98
  -8   2 -10   86.22   22.30
  -5 -11   3   72.43   13.81
  -5 -11   3   61.26   20.85
   2 -10   6   11.07   17.77
   2 -10   6   26.90   13.20
   3  -5  12   64.79   16.66
  -3   5 -12   53.77   23.46
   3  -5  12   28.01   16.76
   7   9   7   52.69   15.43
  -6   5 -10   76.36   14.86
  -6   5 -10   67.72   23.92
   6  -5  10   80.93   17.09
   5  10   7   64.51   15.25
   5  10   7   89.97   23.65
  -9  -9  -2   35.76   16.39
   9   9   2   16.92   17.20
   9   9   2    6.72   10.49
 -11   2   1  115.42   15.30
 -11  -3   4   26.76   13.57
  11   3  -4   45.37   17.55
 -11  -3   4   61.67   15.54
 -11  -3   4   46.91   13.58
   9  -5  -4    4.67   29.12
  -9   5   4   -0.75   11.65
  -1  -5 -13    5.61   20.83
   1   5  13   -2.90   17.02
   1   5  13    5.22   15.29
  -6   9  -1   93.48   23.07
   6  -9   1  145.29   31.60
  -7   8   2   38.28   20.97
   7  -8  -2   61.76   29.91
   3  -8   9   44.89   15.12
   3  -8   9   46.61   14.12
   4   0 -13    3.14   21.56
  -4   0  13   -7.35   11.60
  -4   0  13   17.61   14.56
  -1   7 -11   75.27   12.62
   1  -7  11   50.94   16.54
  -1   7 -11   96.44   25.13
   1  -7  11   61.88   15.34
   9  -5   5   16.52   24.20
   9  -5   5   22.97   13.37
  -2  -5 -13   44.70   21.42
   2   5  13   27.68   17.26
   2   5  13   42.58   15.23
 -10  -7   3  322.26   21.86
  -3 -10   7   10.84   18.81
   3  10  -7    1.82   21.01
  -4  -1  13   34.58   15.85
   3 -10   5  175.26   14.91
   3 -10   5  114.18   19.52
  -9   1   8  168.82   18.25
  -9   1   8  176.85   18.19
   9  -1  -8  137.05   19.71
  -8  -9   4   23.19   14.87
  -6 -11   1  254.22   19.14
   6  11  -1  208.37   22.94
   0  -6  12    9.50   15.44
   0  -6  12   11.91   18.76
   0  -6  12    5.90   16.74
   0   6 -12   -5.73   22.85
   7   5  11   60.43   15.52
  -7  -5 -11   64.74   19.33
 -11  -6   0   59.31   14.55
   3  -8  -9   -0.80   26.20
  -3   8   9    2.50   12.60
   1   6 -12   15.00   22.37
  -1  -6  12    2.36   19.14
  -1  -6  12  -17.70   17.01
  -7   6   7   21.41   14.07
   7  -6  -7   17.96   27.77
  -2 -10  -8   -3.11   26.25
   2  10   8  -18.02   15.79
   9  -6   0   37.85   28.14
  -5  -8 -10   22.26   19.06
   5   8  10   28.91   13.03
   5   8  10   28.20   15.29
   5   8  10   32.13   20.46
  -5  -8 -10   21.34   12.68
   5   8  10   37.66   15.14
  -2  -4  13  122.32   20.92
   2   4 -13  141.18   25.12
   9  -6   1   38.92   13.55
   9  -6   1   21.36   27.10
  -6   9   1  142.88   24.24
   6  -9  -1  135.57   31.63
   0   2  14   77.43   14.52
   0   2  14   58.65   18.50
   8  -7  -2   36.02   28.68
  -6   6  -9   18.89   22.87
   6  -6   9   14.50   15.95
  -6   6  -9    4.59   13.84
  11   6   2   38.87   13.86
  -1   1  14   74.86   13.36
 -11   1   3   70.74   14.94
   2   2  14   31.90   17.83
   2   2  14   33.00   14.07
  -2  -2 -14   36.52   22.40
   2   2  14   54.22   17.98
  -9  -8   4  139.90   17.36
  -6   2 -12   62.10   22.83
  -8   6   5   14.00   11.76
  -2 -11   5  232.66   23.17
   1   1 -14   30.41   23.13
   5  -6  10   70.17   16.70
  -5   6 -10   67.17   24.34
  -8 -10  -1   -2.60   16.17
   8  10   1    0.30   18.95
   8  10   1  -21.27   11.36
  -2   1 -14   68.16   23.87
   2  -1  14   92.67   13.29
   2  -1  14  107.01   19.21
   5   3  13   33.93   15.06
   5   3  13   34.61   17.94
   5   3  13   42.45   17.64
  -5  -3 -13   27.51   21.29
  -1 -11   5  111.72   20.67
   2  -4  13    6.65   17.31
   2  -4  13    9.62   17.43
  -8  -2 -11   47.31   19.47
   5   7  11   31.80   14.40
  -5  -7 -11   29.70   19.64
   5   7  11    4.13   15.70
   5   7  11   53.82   21.29
  -9  -4   8  172.85   16.74
  -9  -4   8  186.54   17.97
  -5  -8   9   -3.64   19.03
  -5  -8   9    1.44   12.81
   5   8  -9    5.60   19.54
  -8  -1 -11   45.54   20.84
   6  10  -5  162.50   19.35
  -6 -10   5  205.69   16.78
  -6 -10   5  159.17   23.88
   7  -7   6   21.61   25.97
   7  -7   6   23.40   15.00
   9   9  -1   72.81   19.41
  -9  -9   1   97.47   16.86
   9   9  -1   49.42   11.06
   1 -11   4  233.31   21.99
  -5 -10   6  119.60   21.76
  -5 -10   6  112.57   14.30
   5  10  -6  125.64   20.75
   1  -8  10   -8.21   13.69
  -1   8 -10   18.78   23.40
   1  -8  10    9.42   18.63
   1   9  -9   19.47   23.44
  -1  -9   9   10.36   18.92
  -5  -7  10  311.20   25.05
  -5  -7  10  289.66   19.07
   5   7 -10  283.63   24.90
   3  10   8   12.19   15.53
   7  -5   9   -2.84   16.03
  -7   5  -9    5.45   22.59
  -8   7  -3   14.85   18.28
   8  -7   3   14.57   12.76
   8  -7   3   44.30   27.60
  11   2   6   63.31   15.12
  11   2   6   38.62   14.92
  -8 -10   0   19.27   16.54
   8  10   0   13.37   19.53
  -1 -10  -8   99.44   28.90
   1  10   8   87.28   17.25
  -5   8   7   14.02   13.76
   5  -8  -7    8.42   27.81
  -8  -8   6  107.65   21.41
  -8  -8   6  118.33   15.97
   7  -8   3    0.57   12.07
  -7   8  -3   29.92   20.37
   7  -8   3   51.85   28.71
   5  -9   5   59.28   29.77
   5  -9   5   50.72   16.97
   5  -9   5   72.68   14.60
 -11   2  -3   28.94   13.97
  11  -2   3   23.40   14.35
  11  -2   3   35.39   25.42
   5  -1  13   -6.54   17.47
   5  -1  13    9.36   16.97
  -5   1 -13   10.23   22.15
 -10  -8  -1   47.45   16.41
  10   8   1   20.90   12.11
   2 -11  -3  174.72   33.39
  -2  11   3  170.20   26.21
   9  -6  -1   64.96   29.32
  10   0   8   21.11   15.05
 -10   0  -8   27.54   17.84
  10   0   8   52.19   16.18
  10   0   8   18.11   13.40
   7  10   5   34.56   13.41
   7  10   5   69.72   20.12
   6  -9   2   60.07   30.10
  -6   9  -2   45.48   21.89
 -11   0   4   22.39   15.08
   0  -5 -13   12.57   21.17
   0   5  13    0.47   15.54
  10   7   5   64.49   13.80
   9  -6   2   52.01   28.28
   9  -6   2   49.41   13.62
  -5   5 -11   44.56   23.29
  -4   1  13   75.91   14.06
   4  -1 -13  107.68   23.50
   8  10   2  -21.47   11.53
   8  10   2   16.46   18.94
  -8 -10  -2  -21.96   16.74
   6  11   3   95.41   14.18
   6  11   3   94.79   20.37
   1  -9  -9   54.54   27.24
  -2  -9   9   99.28   20.99
   2   9  -9  105.60   24.67
  -2  -9   9  107.85   15.06
   9   5   9   18.88   13.84
   9  -3   8   -8.29   14.28
  -9   3  -8    6.71   20.41
  10   8   0  -16.99   12.51
 -10  -8   0   21.20   16.17
   7  -4  10   73.58   17.65
  -7   4 -10   78.12   24.01
   6   9  -7   52.11   18.59
  -6  -9   7   46.72   20.60
  -6  -9   7   65.41   13.96
  -9  -9  -3    4.05   16.15
   9   9   3    1.93   10.77
   9   9   3   34.25   11.49
 -11  -6   1   29.90   11.46
  -7  -1  11   40.52   15.02
  -7  -1  11   40.32   15.65
   7   1 -11   50.91   19.80
   3   8 -10   46.69   22.13
  -3  -8  10   62.02   12.79
  -3  -8  10   61.12   19.74
  -3  -8  10   64.56   15.58
   1  -6  12  106.78   17.02
   1  -6  12   93.35   18.39
  -1   6 -12  113.65   25.80
   4   2 -13  140.20   24.11
  -4  -2  13  135.38   18.98
  -3  -1 -14   19.32   22.11
   3   1  14   30.87   14.06
   3   1  14   25.18   17.99
  -7  -1 -12   -3.58   20.77
   3   5  13   41.50   18.04
  -3  -5 -13   45.71   21.49
   3   5  13   65.00   15.36
   3   5  13   47.75   16.78
   0  -2  14   26.49   17.57
   0   2 -14   -4.76   23.68
   0  -2  14    0.77   17.25
  11   1   6   47.83   15.61
  -2 -11  -6   -3.47   28.11
   2  11   6   -6.22   14.98
   2  11   6   12.69   23.25
   2  11   6   13.52   13.43
  -6   4 -11   -3.76   14.44
  -6   4 -11   23.68   22.58
   8  -6   6  135.74   17.25
   8  -6   6  104.92   26.73
  -8   6  -6   99.95   19.42
   8  -6   6  110.11   15.33
   2   6 -12   33.86   23.25
  -2  -6  12   24.33   19.71
  -2  -6  12   16.77   17.00
  11   3   6   24.05   14.49
   2  -4 -13  209.26   25.59
  -2   4  13  265.27   20.40
 -10  -8  -2   36.97   17.09
  10   8   2   20.33   12.09
   0  -9   9    7.73   19.02
   0   9  -9    8.30   23.25
   4  -4 -12   36.90   25.78
   4  -4 -12   41.40   22.22
   7   2  12   15.55   13.88
  -7  -2 -12  -14.80   20.14
   3  -5 -12   56.84   22.60
   3  -5 -12   66.13   24.57
   3  -3 -13  125.79   25.70
  -3   3  13  124.74   16.71
   3  -3 -13  136.75   24.42
  -3 -11   5  186.05   22.14
   3  11  -5  146.87   21.77
   2 -11   3   16.59   30.99
  -2  11  -3   -3.53   23.31
   2 -11   3    2.56   16.83
 -11  -5   3   27.24   12.21
   3   0  14   60.92   19.21
  -3   0 -14   53.41   23.29
   3   0  14   63.65   13.66
   3   0  14   58.11   19.05
   3   7 -11   -7.09   21.96
  -3  -7  11    6.06   15.71
  -3  -7  11   18.67   19.18
  -3  -7  11   18.83   12.81
   1  -2  14   89.89   19.27
   1  -2  14   72.05   18.18
   4   5 -12  112.37   23.62
  -4  -5  12  132.48   20.84
  10  -4   4   26.22   24.31
  10  -4   4   -2.38   13.50
   6  -9  -2   13.55   29.18
  -6   9   2   33.73   21.65
  11   6   3   14.73   13.06
 -11  -6  -3   -2.93   17.24
  -9   3   7   -9.59   14.06
   9  -4   7   40.30   15.29
   9  -4   7   53.34   22.53
   9  -4   7   36.53   16.31
  -9   4  -7   35.90   20.63
 -11   2   2  102.51   15.44
  -7  -5  10   98.94   15.60
  -7  -5  10   97.06   19.89
   7   5 -10   84.07   19.39
 -10  -2   7   26.65   15.03
 -10  -2   7    2.73   14.90
   6  -3 -11   29.54   21.89
  -6   3  11   61.81   15.83
   8   3  11    3.08   14.09
  -8  -3 -11    3.49   18.36
   8   1 -10   70.26   19.26
  -8  -1  10   68.55   15.55
   1 -10   7   17.85   12.81
   1 -10   7   28.75   18.86
  10   4   8   39.67   14.58
  10   4   8   47.98   15.48
  -9   4   6    5.74   14.22
  -9   4   6   -5.51   12.85
   5  -7   9  -18.76   16.60
  -5   7  -9   -5.82   22.98
 -10  -1   7  154.69   17.64
 -10  -1   7   95.32   16.80
   5   9   9   81.78   20.82
   5   9   9   51.01   14.72
   5   9   9   48.62   15.70
  -7  -2  11   12.95   16.01
   7   2 -11   25.29   19.69
   3  11   6  -18.00   14.59
   3  11   6   37.59   22.87
   8  10  -1   45.19   20.39
  -8 -10   1   65.96   16.17
  -7  -9   6   41.52   20.98
  -7  -9   6   21.68   14.03
   5  -9  -5    6.89   27.89
  -5   9   5   21.58   12.63
   7   0 -11  111.69   21.27
  -7   0  11   85.71   15.95
  -6 -11   2   71.52   15.42
  -9  -2 -10   25.85   18.50
   9   2  10  -13.71   16.78
  -8   0 -11   40.65   20.64
   8   0  11   32.76   16.21
 -11  -4   4  146.02   16.06
 -11  -4   4  181.87   18.25
   0 -11   5    0.55   18.64
   2  12   0  148.77   26.12
   2  12   0  170.56   15.39
   6  -8   6   77.75   28.84
   6  -8   6   75.84   16.21
  -7   3  10  -10.12   15.27
   7  -3 -10   -2.28   20.85
   2  12   1  117.89   25.57
   2  12   1  100.71   14.75
  -1   2  14   22.13   13.97
   2  -7 -11   10.22   21.61
   2  -7 -11   27.56   24.59
   9   8   6   -4.39   14.09
 -10   4   3   42.32   12.79
 -10   4   3   63.88   21.07
  -8  -5   9  186.24   17.72
  -8  -5   9  190.35   22.31
   8   9   6   76.52   15.51
   1  11   6  124.02   25.84
  -1 -11  -6  113.13   31.61
   1  11   6  154.41   17.77
 -10  -6   5   29.61   11.80
 -10  -6   5   35.47   15.59
  -8  -2  10   -0.21   14.22
   8   2 -10   22.72   18.63
   5   4 -12   63.17   21.73
  -5  -4  12   65.28   18.44
   9   1  10  -14.27   16.58
  -9  -1 -10   -6.14   19.22
 -10   2  -7    7.12   18.88
  10  -2   7  -12.61   14.76
  10  -2   7    1.15   15.57
  11  -1   5   14.14   24.37
  11  -1   5   20.06   14.27
   1   3  14   91.34   15.36
  -1  -3 -14   97.88   23.57
   1   3  14   88.42   18.99
   3   2  14   -5.97   18.15
   3   2  14   -0.55   17.98
  -3  -2 -14  -30.73   22.57
   3   2  14  -19.17   14.67
   7  -8  -3    4.68   29.39
   7  -6   8   -3.67   15.70
  -7   6  -8  -28.81   22.39
   7  -6   8    7.37   23.56
  -2  -8 -11   10.10   21.18
   2   8  11   -4.59   16.10
   2   8  11    4.49   15.01
  -2  -8 -11   24.37   23.39
 -10  -8   1  -26.09   16.26
   1   2 -14  -10.29   22.79
  -7   0 -12    0.31   21.08
  -2   0  14   80.65   12.80
  -2   0  14   61.87   16.49
   5  11   5   25.17   12.00
   5  11   5   32.44   18.49
  -4  10  -4   -2.15   16.48
  -4  10  -4  -12.07   23.38
   4 -10   4   -0.45   16.32
   4 -10   4   -6.11   30.54
  -8   4   8    0.96   15.51
  11   5   5   11.42   14.61
 -11  -5  -5   12.68   16.93
  10  -3   6   49.92   14.61
  10  -3   6   37.48   22.93
 -10   3  -6   25.59   19.51
  -9  -6   7   -8.25   15.07
   4  10   8   51.92   15.68
   4  10   8   66.07   21.40
   3  12   0  138.98   14.70
   3  12   0  144.63   25.88
   3  12   1  273.26   28.77
   3  12   1  238.13   17.42
  -7 -10   4  165.07   16.81
   8  10   3    1.79   11.43
   8  10   3   17.04   19.03
   1  12   0  109.82   26.59
  -9  -9   2   15.71   15.35
  -5  -9   8   86.53   21.26
  -5  -9   8   87.12   13.72
   5   9  -8   82.81   20.49
   9  -6  -2    0.46   29.13
   8   0 -10  129.13   21.36
  -8   0  10  144.23   17.27
   8  -7  -3    8.95   27.41
 -10  -5   6   95.81   14.67
 -10  -5   6   80.25   16.10
  -4  10   4    5.03   22.97
   4 -10  -4   -1.89   28.68
  -4  10   4   17.53   12.10
   2   3  14   97.48   18.99
   2   3  14   61.90   14.91
  -4 -10   7   49.56   12.67
   4  10  -7   57.86   21.79
  -4 -10   7   46.09   20.36
  -9  -7   6   93.41   15.95
  -2   7 -11    4.91   23.87
   2  -7  11   -3.80   15.12
  -2   7 -11   14.69   12.01
   1   8  11   79.33   16.78
  -1  -8 -11  111.65   22.66
  -1  -8 -11   77.33   25.30
   2  -8 -10   56.56   26.27
   2  -8 -10   25.63   20.50
   6   1 -12   13.02   20.75
  -6  -1  12    8.48   15.27
   0  10   8  120.78   16.52
   0 -10  -8  120.73   30.00
   1  12   1   40.23   25.06
  -2 -12   1  244.91   23.43
   2  12  -1  222.21   28.22
   2  12  -1  234.06   16.09
  -6   7  -8    1.36   21.38
  -6   7  -8   11.22   14.22
   6  -7   8   16.43   15.75
   6  -7   8    4.19   25.17
   9  -2   9  -17.94   16.46
  -9   2  -9   20.01   20.65
  -5  -6  11  306.94   20.70
  -5  -6  11  344.92   25.72
   5   6 -11  306.69   26.57
   9  -6   3    8.60   12.95
   9  -6   3   23.57   26.88
 -10  -8  -3   39.30   17.21
  10   8   3   48.97   12.89
   7   3  12   -1.54   14.10
  -7  -3 -12  -16.07   19.77
   6   5  12   41.39   15.72
  -6  -5 -12   28.10   20.05
   6   5  12   13.21   15.05
   6   5  12   18.49   17.68
  -4   6 -11   19.84   23.64
   4  -6  11   -3.04   15.91
 -10  -3   7   31.66   14.83
 -10  -3   7    9.98   15.36
  -8   5   7   28.37   14.73
   8  -5  -7   21.23   29.77
  -4   3 -13   43.18   23.29
   4  -3  13   29.32   17.78
   4  -3  13   23.76   17.56
   2   1 -14  105.76   24.78
  -2  -1  14  117.82   18.54
  -3  11   0  154.11   26.55
   3 -11   0  147.86   34.53
   9   3  10    5.72   15.49
   2  12   2   16.54   13.76
   2  12   2   26.48   23.94
   6  -9   3    5.82   29.77
   6  -9   3    8.20   14.91
  -6   9  -3   20.93   21.94
   3   9  -9  232.51   25.69
  -3  -9   9  200.77   17.09
  -3  -9   9  171.26   14.66
   1 -11  -5  111.87   31.85
  -1  11   5  110.24   25.58
   0  -3 -14   30.18   22.75
   0   3  14   18.80   14.32
   0   3  14    2.10   18.10
   2  -2  14   65.77   18.92
  -2   2 -14   52.42   24.08
   2  -2  14   70.95   18.96
  -3   1 -14   25.79   23.30
   3  -1  14   52.90   12.64
   3  -1  14   50.14   18.58
   2   7  12  -17.38   15.69
  -2  -7 -12    5.52   20.81
   2   7  12  -16.88   16.26
   6   0 -12  135.55   23.32
   3   8  11    8.43   14.94
  -3  -8 -11   14.00   20.65
   3   8  11   21.11   14.47
  -5  -6 -12   22.13   20.05
   5   6  12   25.71   15.48
   5   6  12   21.89   15.41
   5   6  12    8.88   17.29
   8   7   9   26.62   15.06
   4  -7  10   35.68   16.58
   4  -7  10   41.39   15.53
  -4   7 -10   39.15   24.16
   7   7  10   22.37   15.94
  -7  -7 -10    1.17   17.87
  11   0   6    6.35   14.75
  11   0   6    3.62   14.81
  -2   1  14   42.19   13.37
 -10   0   7  150.55   17.61
 -10   0   7  166.29   17.87
   3   4 -13   -2.77   22.73
  -3  -4  13   31.80   19.31
  -5 -11   4   26.54   21.12
  -5 -11   4   25.29   12.84
   5  11  -4   14.44   18.54
 -11   2  -4   39.37   14.33
  11  -2   4   41.25   14.49
  11  -2   4   56.29   25.79
 -11  -6   2    5.31   11.24
  -3  11   1  184.88   27.55
   8  -4   9   11.71   16.25
  -8   4  -9   35.30   22.65
   7   8   9   25.20   15.69
  11   4   6   15.03   14.41
  -6  -5  11    2.62   14.54
  -6  -5  11   19.50   18.88
   6   5 -11  -14.96   20.56
   1  12  -1  255.01   30.03
  -1 -12   1  303.97   24.84
 -12  -2  -1   35.18   16.29
  -3  11  -1   56.65   23.75
   3 -11   1   76.53   33.74
  -1  -7 -12   65.11   22.53
   1   7  12   30.16   16.23
   8  -7   4   19.31   26.79
   8  -7   4    4.21   12.62
  -8   7  -4    9.59   18.16
   3  12  -1  115.78   26.03
  -1   9  -9   28.23   23.80
   1  -9   9   20.61   19.59
   3  12   2  101.71   25.52
   3  12   2  136.03   15.32
   1  -5 -13  143.97   24.50
  -1   5  13   97.12   17.13
 -11  -2   5   11.56   14.22
 -11  -2   5  -28.67   15.71
 -10   3   5    8.80   13.61
   5  -3 -12   56.42   22.80
   9   9   4   34.16   12.22
   7  -8   4    0.15   12.15
   7  -8   4   59.33   28.39
  -7   8  -4   26.73   20.49
   2  -6 -12   58.92   24.52
  -6  -2  12   26.56   16.18
   6  11   4    5.27   12.24
   6  11   4   31.45   18.63
   5   4  13    3.16   17.80
   5   4  13  -11.14   15.21
   5   4  13   10.25   16.68
 -10   2   6   73.26   15.12
 -10   2   6   57.61   15.14
  -2  -9 -10   31.11   20.84
  -2  -9 -10    7.84   25.36
   4  -2 -13  201.49   25.57
   5 -10   0   93.27   32.57
  -5  10   0  115.64   25.55
   4  11   6   35.39   14.57
   4  11   6   97.85   17.52
   4  11   6  119.70   23.68
   4  11   6   50.32   20.20
   4  -9   7   52.12   15.22
   4  -9   7   55.12   18.49
  -9   2   8   11.41   15.85
  -9   2   8   -8.62   15.47
 -12  -2   0   62.63   16.67
   9   0  10    3.82   16.57
  -9   0 -10    4.17   19.75
 -10  -7   4  269.29   20.91
   0   5 -13   16.50   23.80
   0  -5  13  -11.08   17.71
   0  -5  13   -3.05   16.53
   2  -8  10   23.33   14.07
   2  -8  10   25.12   18.84
  -2   8 -10   13.68   24.21
  -7  -3  11   29.11   17.62
   7   3 -11   58.47   19.91
   1  12   2   12.18   24.09
   5  -6 -10    2.47   20.50
   5  -6 -10    6.67   27.48
  -5   6  10    7.65   14.56
   7  -7  -6   13.26   28.29
  -7   7   6   35.17   14.58
   2  -6  12   59.72   17.25
   2  -6  12   62.75   17.80
   5  -4  12   25.07   17.92
  -5   4 -12   19.85   23.50
  -8  -3  10   39.48   14.83
  -8  -3  10   41.50   17.63
   8   3 -10   34.12   18.37
  -8  -3  10   10.76   15.19
   7  -1 -11  126.76   22.46
  -7   1  11  149.43   17.14
  -7   3 -11   39.06   23.53
  -2  11   4   67.73   24.64
   2 -11  -4   91.96   31.47
  -4  -3  13   59.99   18.35
   4   3 -13   77.19   23.41
  -8 -10   2  156.38   17.86
  -3   4 -13    1.10   23.03
   3  -4  13    5.31   17.43
   3  -4  13   -5.30   17.06
 -11  -1   5   74.23   15.46
 -11  -1   5   44.13   16.25
  11   6   4    0.20   13.67
 -11  -6  -4   11.07   17.15
 -11   1   4   92.32   15.88
  10  -1   8   -7.62   14.87
 -10   1  -8   -0.73   18.73
  10  -1   8  -14.45   16.08
   3  -9  -8   -3.04   27.91
  -3   9   8   16.97   12.66
 -12  -3  -1   49.85   16.86
 -12  -2  -2   53.55   16.81
  12   2   2   18.35   15.37
   8  -5   8  -12.28   15.78
  -8   5  -8  -28.21   23.14
  -6   9   3    1.16   22.34
  -4 -11   5   72.03   20.80
   4  11  -5   60.05   20.29
  -5  10  -1   85.49   24.08
   5 -10   1   53.22   31.12
  -5  10  -1   74.62   17.78
   4   5  13   11.90   18.17
   4   5  13  -12.21   16.16
  -4  -5 -13   14.79   21.81
   4   5  13   24.81   15.34
  10   6   7   12.32   12.25
  10   6   7    9.06   14.41
  -3  -6  12   47.34   19.82
   3   6 -12   57.52   23.65
   8   8   8   83.33   16.08
   1   5 -13   30.95   23.57
  -1  -5  13   51.49   18.43
  -1  -5  13   39.41   19.57
 -12  -1  -1   12.80   15.28
  -5   2 -13   66.26   23.38
   5  -2  13   29.00   18.22
   3  -9   8    1.12   18.68
   3  -9   8    4.16   14.97
  -9   5   5   44.87   12.97
   5 -10  -1   96.69   31.73
  -5  10   1  107.79   25.79
 -11   3  -1   19.23   12.82
  11  -3   1    4.23   28.54
   3   7  12   12.89   14.99
   3   7  12    7.65   15.48
  -3  -7 -12   -4.03   20.97
   3   7  12    8.17   16.17
   2 -10  -7   34.80   29.38
  -2  10   7   48.01   12.29
  -6   8   6   59.20   14.48
   6  -8  -6   41.87   28.99
  -1  -9 -10  109.84   28.25
  -1  -9 -10  119.15   22.18
   0 -11  -6  195.62   33.05
   8   4  11   -7.24   14.51
 -12  -3   0  115.06   18.11
   9  -5   6   37.76   25.07
   9  -5   6   71.55   16.28
   9  -5   6   55.83   15.22
   8  -3  -9   -1.79   18.91
   6  -6  -9   26.10   28.17
  -6   6   9    9.32   14.95
  -6  -1 -13   -3.58   22.28
   6   1  13   -0.54   16.69
   6   1  13    1.23   14.13
   6  10   7   27.44   14.34
 -11   3   0   73.81   14.20
   4  -9  -7   34.26   28.44
  -4   9   7   20.64   13.48
   3   9  10    3.90   16.16
   3   9  10    2.24   13.88
  -3  -9 -10  -15.50   20.23
  -9  -1   9  113.95   16.97
  -9  -1   9  126.06   17.34
   9   1  -9   99.15   19.14
 -12  -1   0    8.91   15.79
  -3  10   6   -0.31   12.23
   3 -10  -6    7.87   28.83
 -11  -3   5   20.87   14.18
 -11  -3   5   11.87   15.16
 -10  -8   2    6.27   15.88
   2  12  -2   48.39   24.75
  -2 -12   2   72.66   21.09
  12   3   2    9.95   15.02
 -12  -3  -2   18.21   16.87
   0   8  11  142.62   18.93
   0  -8 -11  185.63   24.66
   0  -8 -11  127.79   27.04
 -11   2   3  116.18   15.64
   3   3  14   30.40   15.41
   3   3  14   28.82   18.91
   3   3  14   13.93   17.67
   9   2  -9    2.54   17.26
  -9  -2   9   12.08   14.62
  -5   7   9   34.67   15.33
   5  -7  -9   32.35   27.15
   4  12   1   94.91   13.77
   4  12   1   87.86   24.52
   8   6  10   32.66   14.30
  10  -5   1   85.84   30.54
  -8   1 -11   20.32   21.16
   8  -1  11   -3.90   16.64
  -9  -5   8  153.53   15.99
  -9  -5   8  170.70   17.97
  -8  -9   5    2.19   15.17
   4  12   0   31.86   23.76
  10  -5   0   69.73   30.70
  -3  11   2  199.61   27.65
   0 -12   0   34.05   17.46
  -4  -8  10   15.71   14.81
   4   8 -10   19.12   21.40
  -4  -8  10    0.93   19.81
  -4  -8  10   -1.38   12.75
  -6  -2 -13   -2.86   21.15
   6   2  13   27.36   18.82
   6   2  13   21.78   16.74
   6   2  13   33.90   14.63
  -6 -11   3   12.95   13.75
  -4   5 -12   41.88   24.53
   4  -5  12    4.03   16.77
 -12  -1  -2   22.47   15.78
   6  -5 -10   -8.77   28.20
  -6   5  10   12.96   14.90
   6  -5 -10   -4.85   20.72
   1  -5  13   24.45   17.51
   1  -5  13   33.26   16.84
  -1   5 -13   48.74   24.05
   2   2 -14   30.50   23.45
  -2  -2  14   24.20   17.74
   1 -11   5  121.77   20.58
   2 -11   4  170.46   20.69
   0 -12  -1   56.93   32.34
   4   1  14   95.65   19.25
  -4  -1 -14   86.79   23.90
   4   1  14   65.59   15.18
   2  12   3   37.04   24.28
   2  12   3    4.69   13.93
   3 -10   6  106.91   14.64
   3 -10   6   77.81   19.71
  -3  11  -2  -19.40   24.41
   3 -11   2   25.94   32.39
   3 -11   2   16.49   16.10
   0  -3  14   75.06   18.38
   0   3 -14   60.70   24.49
   0  -3  14   75.70   19.09
   8  -1 -10   21.57   19.82
  -8   1  10   49.07   15.70
  -8   3 -10   46.46   23.11
   7  11   1  140.18   13.94
  -7 -11  -1   96.87   16.71
   7  11   1  152.33   22.78
  -7   1 -12   26.59   22.44
   6  -1 -12  243.59   25.85
 -12  -2   1   36.30   16.26
 -11   3  -2    0.81   13.10
  11  -3   2   -4.62   14.37
  11  -3   2   32.15   27.88
  -6  -8 -10    1.80   18.02
   6   8  10   18.99   15.66
   6   8  10   -2.02   15.23
  -9  -8   5  237.92   19.62
   4  -7 -10   15.94   21.07
  -4   7  10   16.24   14.47
   4  -7 -10   -1.63   26.85
   8  10   4   45.52   19.30
   8  10   4   21.04   12.05
  -1 -12   2  137.57   21.35
   0  -7 -12   40.84   23.42
   0   7  12   75.10   16.80
   0  -7 -12   59.84   23.02
  10  -4   5    8.79   14.34
  10  -4   5   -8.22   24.59
  -7 -11   0   41.41   15.87
   7  11   0   53.06   21.66
  -1 -10   8   61.24   20.02
   1  10  -8   51.36   24.23
  10   7   6   14.07   13.87
  -6   3 -12   19.18   22.76
   7  10   6    3.90   14.77
   7  10   6  156.54   26.52
 -10  -8  -4   79.02   18.28
  10   8   4   64.83   13.67
  -1   3  14   29.23   15.15
  10   5   8   23.01   13.94
  -3 -12   2    3.61   20.10
   3  12  -2    7.23   24.05
  -5   5  11    7.06   14.58
   5  -5 -11    6.15   27.07
   5  -5 -11   10.23   21.64
   5 -10   2   51.35   31.67
  -5  10  -2   19.56   23.76
   9  -6  -3   12.82   30.00
  -6   0 -13  -30.03   23.49
   9   4  10   22.87   15.69
   9   4  10   35.43   15.06
   3  12   3   59.98   24.98
   3  12   3   97.97   14.96
  -4  -7  11  125.25   15.16
   4   7 -11  152.65   24.05
  -4  -7  11  145.53   22.14
  -7  -6 -11   49.99   19.17
   0 -12   1   35.70   18.38
  -2   2  14   14.55   14.16
   2  -2 -14    1.53   22.86
   4  -6 -11   55.20   26.77
  -4   6  11   44.33   14.84
   4  -6 -11   13.98   22.29
   1  -3  14  100.07   19.62
   1  -3  14   94.23   18.71
  -2 -10   8   13.34   19.82
   2  10  -8   -0.68   22.83
   4   0  14   96.75   19.27
  -4   0 -14   88.10   24.17
   4   0  14   96.46   19.63
   4   0  14   91.30   14.65
   4  12   2   81.29   24.56
   4  12   2  102.08   14.86
 -10  -4   7   69.42   14.95
  -4  -8 -11   65.22   21.53
   4   8  11   59.13   16.38
   4   8  11   41.29   14.95
 -11   3   1  120.58   15.14
  10  -5   2   68.84   28.21
  10  -5   2   38.18   14.95
  12   2   3    1.13   14.50
 -12  -2  -3   -6.09   16.83
 -11  -5   4   69.02   14.23
  -5   8  -8    9.92   22.21
   5  -8   8   -1.51   15.73
   9   7   8   16.96   14.69
   9  -6   4   11.10   13.54
   9  -6   4   44.11   26.89
 -12  -3   1  147.86   18.54
   2 -10   7    3.68   18.87
   2 -10   7   -6.45   13.09
   4  12  -1    8.77   23.92
  -9   0   9   97.64   16.74
   9   0  -9  109.41   19.80
  -9   0   9  104.47   17.08
  10  -5  -1   47.42   30.47
   7  11   2  102.61   21.74
   7  11   2  104.40   13.55
   5  -9   6  167.07   31.70
   5  -9   6  149.31   16.93
  -8   6   6   27.69   12.84
   8  -6  -6   73.05   30.63
  -8   6   6   39.79   14.63
   2  11  -6  258.08   25.86
  -2 -11   6  299.89   25.33
  -6  -7 -11  -19.26   19.21
   6   7  11  -18.59   16.62
  -4  -2 -14   -9.41   23.03
   4   2  14    3.35   17.65
   4   2  14   18.33   18.70
   4   2  14    8.14   14.85
  -9  -9   3    3.70   15.55
 -11   0   5   53.21   15.66
 -11   0   5   84.48   16.34
  -7  -7   9  114.35   16.65
   7   7  -9  104.27   19.68
  -7  -7   9  117.96   22.28
 -12  -1   1    6.79   16.06
   7   4  12   35.47   15.67
 -11  -7  -1    3.37   16.35
  11   7   1   -7.40   13.05
   5 -10  -2   -6.37   31.16
  -5  10   2   17.01   23.46
  10   2   9   10.08   16.26
   2  -9  -9   -7.49   28.02
  -1 -11   6  219.31   23.41
   1  12   3   17.05   25.11
  -4   8  -9    1.14   23.70
   4  -8   9   20.40   14.23
   4  -8   9   -4.00   16.18
   1   3 -14   20.95   24.13
 -10   4   4   11.28   12.78
   7   9   8    7.23   15.04
  -2  -5  13   54.55   18.19
  -2  -5  13   41.31   20.31
   2   5 -13   27.90   23.66
  11   2   7   41.30   16.00
  11   2   7   59.87   16.22
  -6  -3  12  127.02   19.69
 -12  -4  -1    2.50   16.46
  -7  -8   8  110.44   16.33
  -7  -8   8  114.65   22.84
   5  10   8   83.80   15.93
   0 -12  -2   91.91   33.19
   6  -9   4  -36.56   30.70
   6  -9   4   14.82   15.56
  -6   9  -4    1.53   21.69
 -12  -3  -3   -7.13   17.12
  12   3   3  -13.37   14.98
 -10   1   7  140.30   17.56
 -10   1   7  131.80   17.13
  -9  -3   9   13.16   14.86
 -11  -7   0    9.64   16.13
  -6 -10   6  241.15   17.98
   7  -7   7   31.54   15.98
   7  -7   7   43.10   27.99
  -3   2 -14   30.26   24.25
   3  -2  14   31.49   18.52
   9   6   9   20.86   14.95
   9   6   9    7.80   13.36
  10   1   9   17.03   16.26
   1 -10  -8   44.51   29.43
  11   7   2   10.87   12.75
 -12   0  -1   -6.12   14.91
   6  -7  -8   75.45   28.73
  -6   7   8   24.54   15.49
   0  10  -8   26.98   23.46
   0 -10   8   38.93   13.40
   0 -10   8   60.58   19.75
  -4  -9   9  160.60   15.08
   4   9  -9  159.31   24.26
  -4  -9   9  175.61   23.32
   7  11  -1   16.81   21.07
  -7 -11   1   13.55   15.39
   0  -9 -10   75.53   27.32
 -12  -4   0    5.18   16.35
 -12  -1  -3   61.83   17.12
   1   4  14    2.11   18.00
  -1  -4 -14   14.33   22.26
   1   4  14    8.71   15.12
  -2  -6 -13    0.71   21.35
   2   6  13   14.15   15.42
   2   6  13    5.05   17.28
  -7   5   9   13.05   15.66
   7  -5  -9   26.89   29.26
  -6  -3 -13    4.39   20.96
   6   3  13   31.14   15.09
   6   3  13   13.77   18.61
   6   3  13   28.74   17.72
 -11  -6   3    4.95   11.94
 -11  -6   3   12.48   16.25
  -8  -7   8   65.29   15.60
  -8  -7   8   37.83   21.86
 -12  -4  -2    1.54   16.39
  12   4   2  -12.69   14.91
  -3   4  13   89.02   17.23
   3  -4 -13  124.77   26.58
   3  -4 -13  122.51   24.22
   5   1 -13   39.25   22.63
  -5  -1  13   31.11   15.97
  -1  -6 -13  -31.55   22.32
   1   6  13  -17.81   16.21
   1   6  13  -23.38   17.53
  11   1   7   29.86   16.16
   4   9  10   23.90   14.30
   4   9  10   15.62   15.98
  -4  -9 -10    8.58   19.66
 -12   0   0  -15.82   15.48
  11   3   7   28.00   14.72
  11   3   7   23.46   15.83
  11  -1   6   22.78   15.19
  11  -1   6   16.17   15.13
   4 -10   5   48.05   18.84
   4 -10   5   80.18   31.78
  10   3   9   26.47   15.54
   2   4  14   61.15   18.46
  -2  -4 -14   75.83   23.43
   2   4  14   68.78   16.30
  11  -3   3   -0.22   14.37
  11  -3   3   26.53   26.61
   5   0 -13   59.86   23.20
  -9   1 -10   36.41   20.88
   9  -1  10   30.74   17.17
   4   7  12  104.47   17.09
  -4  -7 -12  100.56   22.81
   4   7  12  120.08   16.98
   4   7  12  110.75   18.58
   6   9   9   12.77   14.82
   6   9   9   14.76   14.51
  -3   0  14    4.77   16.13
  -6  -8   9  133.85   16.13
  -6  -8   9  155.77   23.53
   6   8  -9  120.14   21.22
  11   5   6   24.34   15.16
 -11  -4   5  187.03   18.08
 -11  -4   5  201.78   19.28
  11  -2   5   45.12   15.31
  11  -2   5   53.44   25.02
  -4  10   5    2.79   12.40
   4 -10  -5   12.92   29.46
   2  11   7   13.22   15.69
  -2 -11  -7    4.77   28.94
 -12   0  -2   45.60   15.72
   8  -6   7   72.27   26.58
  -8   6  -7   66.23   22.97
   8  -6   7   91.79   17.47
  -8 -10   3  149.30   17.62
   3 -11  -3   89.49   32.54
  -3  11   3   79.13   24.97
  -3 -11   6  192.55   23.23
   3  11  -6  160.31   23.98
   8   4 -10   90.75   19.44
  -8  -4  10  101.51   16.30
  -8  -4  10   77.23   20.06
   5  11   6   95.35   14.81
   9   9   5    9.39   13.85
  -5   9   6   32.95   13.91
   5  -9  -6   12.65   29.12
  -5 -10   7  139.67   15.14
   5  10  -7  153.95   22.74
  -3  -1  14  124.94   18.95
   3   1 -14  118.53   24.62
   0  12  -2   21.52   25.34
   0 -12   2    9.05   18.81
   3  -7  11   19.52   15.89
   3  10  -8   46.17   22.80
  -3 -10   8   36.55   20.64
  -4   8   9   31.64   13.95
   4  -8  -9   28.12   28.60
   6   7 -10  229.98   24.13
  -6  -7  10  235.88   18.97
  -6  -7  10  255.63   24.99
   2  -9   9    2.01   14.85
   2  -9   9   11.69   19.23
  -2   9  -9    8.22   24.78
   7  -6  -8   77.59   30.25
  -7   6   8   81.58   16.84
  -7  -4  11  165.72   21.03
  -7  -4  11  164.50   18.35
 -12  -2   2    1.91   16.14
   6  11   5  -22.33   18.53
   6  11   5   11.52   12.12
   2  -5  13   50.38   18.12
   2  -5  13   36.65   17.61
   0 -11   6   76.34   20.35
  -2 -12   3   35.01   20.45
   7  -2 -11   18.74   21.50
   4  12   3  158.98   16.27
   4  12   3  133.00   25.87
   3 -11   3   31.90   32.43
   3 -11   3   16.19   17.04
  -3  11  -3   -8.49   24.17
   7  11   3   56.07   12.77
   7  11   3   11.72   20.41
  10  -5   3   41.41   14.24
  10  -5   3   32.98   27.32
   9   8   7   -1.77   14.63
  11   6   5    9.92   13.92
 -11  -6  -5   18.69   17.28
   8  -7   5   18.87   27.12
   8  -7   5  -10.23   13.44
   2  -3  14   40.44   18.70
  -2   3 -14   16.78   24.41
   2  -3  14   26.07   18.22
   5   5 -12   10.79   22.09
  -5  -5  12   34.11   19.36
  -8  -8   7  171.00   17.80
  -8  -8   7  153.85   23.93
   4  -1  14   12.69   18.14
  -4   1 -14    7.40   23.89
   4  -1  14   10.79   18.12
   8   9   7   50.48   15.70
   3  11   7   -4.90   15.29
 -11  -7   1    2.75   15.93
  -2 -10  -9   61.24   28.02
   2  10   9   58.41   16.73
  -7 -10   5  193.03   17.71
   0   4  14  -12.97   15.98
   0  -4 -14    0.38   21.92
 -11   3   2   87.63   15.20
  -7   8  -5    9.01   20.68
   7  -8   5   16.89   28.28
  -4 -12   2   26.22   20.60
   4  12  -2    1.34   23.93
  10  -5  -2   67.13   31.88
   6  -4 -11   13.65   21.77
  -6   4  11   -3.50   15.27
   2  -5 -13   50.92   23.76
  -2   5  13   58.37   17.19
   5 -10   3   12.84   15.88
  -5  10  -3    4.95   23.34
   5 -10   3  -18.78   32.51
 -12  -4   1   39.84   16.85
 -10  -8   3   54.34   16.74
  -3  -6 -13   35.36   22.60
   3   6  13   47.99   17.25
   3   6  13   32.03   17.89
   3   6  13   35.00   15.35
   7   6 -10  -24.05   19.19
  -7  -6  10   18.88   15.06
  -7  -6  10    2.65   20.31
   4  -3 -13   83.90   23.36
  -5  -2  13   67.13   17.93
  -5   8   8    9.16   14.71
   5  -8  -8    5.47   28.69
  -6   1 -13   13.80   23.14
  11   7   3    3.34   13.13
   6  -8   7   97.10   17.08
   6  -8   7   98.64   28.97
   2  12   4    7.52   13.13
   2  12   4   23.13   23.77
  -1 -12   3  104.89   21.07
   3  -7 -11   -4.65   26.50
 -12   0   1   11.98   15.37
   1  -8 -11   13.81   21.64
   1  -8 -11    2.53   25.37
   3  -1 -14    5.70   23.02
  -3   1  14   -7.12   13.08
   1  11   7  198.58   19.64
  -1 -11  -7  204.46   33.73
 -12  -3   2  135.57   18.67
   4   3  14   17.38   18.78
   4   3  14   -3.40   15.43
   4   3  14    6.61   17.89
  -8  -6   9   51.51   21.13
  -8  -6   9   26.81   15.24
 -12  -1   2    3.48   15.84
   1 -11  -6  122.46   32.78
   2 -11  -5   58.17   31.68
  -2  11   5   22.97   23.89
  -3   6 -12   48.20   25.38
   3  -6  12   17.85   16.77
 -10  -6   6   24.68   15.58
 -10  -6   6   15.67   12.48
 -12  -2  -4   -8.73   17.17
  12   2   4  -11.11   14.72
  12   4   3   -1.74   14.35
 -12  -4  -3   -6.21   17.49
   5  12   1    7.95   21.73
   5  12   1   43.90   12.78
   3  10   9  -10.91   16.42
  10  -3   7   28.67   15.42
 -10   3  -7   62.57   21.75
  -4  -4  13   34.56   19.04
   4   4 -13   34.16   24.07
   1   8 -11  162.19   26.48
  -1  -8  11   99.79   17.67
  -5 -11   5    7.97   20.94
   5  11  -5   13.33   19.83
  -5 -11   5  -15.99   12.87
   0   6  13   54.05   16.77
   0  -6 -13   41.56   22.32
   0 -12  -3  134.51   33.94
   2   3 -14  -20.51   23.21
  -2  -3  14    5.45   18.95
  -9   4  -8    2.87   22.03
   9  -4   8    1.95   16.34
   7  -4 -10    0.34   20.93
  -7   4  10   18.18   15.87
  10   0   9   16.84   16.53
   4  -5 -12   39.32   26.84
   4  -5 -12   19.03   22.93
   5  12   0  113.83   23.37
  -3 -12   3    6.20   21.06
   6  -2 -12   84.25   23.16
  -5  10   3  -19.16   23.73
  -1  12   0   -4.64   23.99
   3  12   4   48.78   25.04
   3  12   4   63.02   13.76
  -9   1   9   40.03   16.24
   9  -1  -9   25.08   18.59
  -9   1   9   27.51   16.18
   1  -7 -12   40.30   25.05
  -1   7  12   26.92   16.61
   1  -7 -12   63.83   23.19
   1  10   9  120.68   18.54
  -1 -10  -9  138.86   30.45
  -9   4   7   18.98   15.20
  -9   4   7   13.71   13.88
   5  -1 -13  174.39   25.04
   3   4  14   19.20   18.87
   3   4  14   37.86   18.79
  -3  -4 -14   53.41   22.99
   3   4  14   64.58   16.44
  -5  -5 -13   13.90   21.54
   5   5  13    7.62   18.14
   5   5  13   13.41   16.64
   5   5  13  -18.61   15.84
  -4  -6  12   72.91   20.72
   4   6 -12   63.82   24.12
   8   5  11   11.57   15.08
  -7 -11   2   -3.39   14.81
   7  11  -2  -14.95   20.61
  -1  12   1   58.66   24.80
  -9   3  -9   28.14   22.65
  -7  -9   7   14.05   14.36
  -7  -9   7   16.62   21.72
 -11   2   4   61.03   14.79
   3  -8  10   18.68   15.08
   3  -8  10   16.46   16.06
   0  -8  11   20.67   16.14
   0   8 -11   56.97   25.01
 -12   0  -3   56.10   16.99
 -12  -3  -4  -13.84   17.57
  12   3   4  -12.14   14.40
 -10   2  -8   31.50   20.63
  10  -2   8   12.50   16.48
  10  -2   8   -8.67   15.39
  11   0   7    7.56   15.45
  11   0   7   12.94   15.57
   8  10   5   18.44   13.74
   6  -6  10   10.98   17.17
  -6   6 -10   19.11   24.49
   8  -2 -10   -9.35   20.22
  -6 -11   4   -4.43   13.74
  -6 -11   4  -13.00   20.80
  11   4   7    8.43   13.86
  11   4   7    4.62   15.47
  10   8   5   26.25   13.43
  -6  -9   8  -11.52   20.55
  -6  -9   8    2.31   13.75
   6   9  -8    7.07   19.44
   6   6  12    7.44   15.48
   6   6  12   -3.20   17.38
   6   6  12    9.44   15.52
  -6  -6 -12    7.04   20.30
  -3   8  10   -9.07   13.87
   3  -8 -10    8.63   27.15
  -3  -2  14   63.41   19.38
   3   2 -14   99.76   24.46
 -10  -7   5  141.40   18.33
  -1 -12  -4   22.77   31.31
   1  12   4   24.89   24.49
  -1  -7  12   10.27   17.25
  -1  -7  12   15.75   20.81
   1   7 -12   10.31   24.16
   8  -2  11   13.48   17.40
  -8   2 -11   26.87   22.68
   5  12   2   -9.56   22.06
   5  12   2   19.76   13.10
 -12  -1  -4   41.09   17.10
  -1  10  -8  -13.26   23.62
   1 -10   8    9.30   19.20
   1 -10   8    0.35   13.83
 -11   1   5  112.38   16.51
  -1  12  -1  -18.19   24.39
   1 -12   1   -6.82   31.97
   1 -12   1    5.13   17.36
  10   4   9   38.80   15.47
  -7   2 -12   -3.35   22.97
   0  -7  12   77.10   18.12
   0   7 -12   74.23   25.42
   0  -7  12   53.82   21.00
   0  -7  12   61.78   16.25
   4  -4  13   17.32   18.25
  -4   4 -13   41.90   23.94
  -2  -8  11   63.04   21.01
  -2  -8  11   70.15   17.29
   2   8 -11  116.36   25.54
   2  -3 -14  124.14   25.77
  -2   3  14  126.44   17.36
  -9  -4   9   77.25   16.53
  -9  -4   9   74.53   15.54
  -3  -5  13   -0.88   19.65
   3   5 -13  -29.40   24.39
  -6   5 -11   63.66   25.28
   6  -5  11   37.00   17.12
  -9   3   8   -6.61   15.27
  -5   3 -13   39.37   24.03
   5  -3  13   23.70   18.13
  -7   5 -10   28.55   24.20
   7  -5  10   18.18   17.31
   9  -6  -4   23.38   31.09
   2 -11   5  126.18   20.83
   5  12  -1   95.34   23.35
  -5  -8 -11   52.22   21.05
   5   8  11   44.65   16.83
   9   5  10    0.96   14.98
   5  -4 -12   54.16   28.57
   5  -4 -12    8.26   22.57
  -5   4  12   27.92   15.09
   4  11   7   51.19   15.84
   3  -6 -12   57.20   26.27
 -10   3   6    2.36   14.12
  12   5   1  -12.91   14.87
 -12  -5  -1   -9.95   16.47
 -10  -2   8   24.83   15.98
 -10  -2   8   21.58   15.55
  11  -3   4    6.38   25.85
  11  -3   4    0.86   14.05
   9  -6   5   40.17   26.29
   9  -6   5    9.14   14.12
 -10  -1   8   67.48   16.66
 -10  -1   8   73.79   16.82
 -11  -2   6   17.64   15.07
 -11  -2   6  -10.53   15.86
 -10  -5   7  123.14   15.58
 -10  -5   7  123.69   17.68
  -9  -7   7   29.06   15.52
  -8   8   0   54.49   20.37
   8  -8   0   14.84   13.09
   8  -8   0   75.52   30.86
   6   4  13   10.06   15.60
   6   4  13   10.50   18.43
   6   4  13   19.23   17.25
  -6  -4  12   57.88   19.26
   6   4 -12   50.03   21.90
  -1  -9  10   17.41   19.95
   1   9 -10   34.88   24.91
   1 -12  -2  208.75   36.89
  -1  12   2  130.44   27.04
  -8   8  -1  106.19   21.81
   8  -8   1  101.55   14.17
   8  -8   1  159.32   31.84
   4  11  -6   54.73   22.21
  -4 -11   6   59.66   21.22
 -11  -7   2    9.40   16.38
 -12  -5   0  -15.58   16.97
   0 -12   3   98.52   20.39
   0  12  -3  129.56   27.23
  -6  -6  11   91.90   16.11
   6   6 -11   94.50   21.87
  -6  -6  11   82.78   21.32
  -9  -9   4  -20.51   16.10
  -9 -10  -1   43.23   17.84
   1  -9 -10   10.87   27.59
  10  -4   6   27.75   15.21
 -10   4  -6   17.01   20.71
   5   8 -10    7.89   21.14
  -5  -8  10   21.37   14.05
  -5  -8  10   12.13   20.26
 -12   1  -1   -9.26   14.83
 -11  -1   6   87.96   16.25
 -11  -1   6   60.75   16.96
  -9   5   6   30.45   15.22
  -9   5   6   33.06   13.13
   5  -6  11   19.99   16.70
  -5   6 -11   49.79   25.19
   5  -6  11   19.55   17.30
 -12  -5  -2   19.48   17.19
  12   5   2    1.96   14.93
   7  -6   9   -6.97   16.62
  -7   6  -9   -9.26   23.82
   7  11   4   10.15   19.85
   7  11   4  -10.64   12.45
 -12  -4   2   77.41   17.70
   2   7 -12   -1.07   23.63
  -2  -7  12   -1.54   17.29
  -2  -7  12   16.40   20.07
 -10  -9  -1   52.72   18.04
 -12   0   2   29.17   15.99
   9  -5   7   62.79   17.09
  -9   5  -7   11.90   21.82
   9  -5   7   31.75   15.36
   7   5  12   41.19   16.20
  -7  -5 -12   68.09   21.25
   4  10   9   15.14   16.38
  -1   4  14  109.72   17.66
   1  -4 -14  131.38   25.31
   0  -4  14   38.64   18.44
   0   4 -14   40.73   25.01
   0  -4  14   20.57   19.09
   4  12   4   59.74   24.79
   4  12   4   83.08   14.48
   5   1  14   59.95   15.20
   5   1  14   52.66   18.81
  -5  -1 -14   46.38   24.55
 -12   1   0   10.63   14.79
  10  -5   4    5.11   14.21
  10  -5   4   25.61   26.86
  -9 -10   0   70.69   17.99
  -6   9  -5  -13.61   23.10
   6  -9   5   -9.12   30.96
  -5  -9 -10   39.13   19.30
   5   9  10   49.81   16.11
   5   9  10   53.03   16.46
   0 -11  -7  154.18   33.47
   1 -11   6   45.19   19.47
   4  10  -8  179.88   24.88
  -3  11   4   -3.13   23.66
   3 -11  -4    8.57   31.14
   7  -8  -5   32.98   31.23
  11   7   4   19.81   13.67
  -7   7   7   53.30   15.44
   7  -7  -7   44.64   29.89
   2   9 -10  115.45   25.48
  -2  -9  10  109.33   16.04
  -9  -6   8   45.58   16.41
  -3   2  14   70.20   15.19
   3  -2 -14   92.99   24.83
   5   3 -13  153.10   24.51
  -5  -3  13  138.17   20.13
  -8   8   1   -0.67   20.20
   8  -8  -1  -10.07   29.65
  -8   5   8   18.11   15.96
   8  -5  -8   27.26   31.32
 -10   2   7    9.91   14.80
 -10   2   7    5.05   14.67
 -10  -9   0   34.96   17.25
 -12  -2   3  -12.59   16.61
  -4  -6 -13   42.78   22.64
   4   6  13   58.27   19.21
   4   6  13   50.09   16.10
   4   6  13   41.83   17.23
  -9 -10  -2   15.33   17.27
   9  10   2  -10.67   11.76
  -4  11   0  150.23   27.20
   4 -11   0  147.72   35.30
   0   9 -10   26.81   24.91
   0  -9  10   -9.51   19.60
  -1   8 -11   19.99   24.71
   1  -8  11   14.19   19.53
 -11  -3   6    3.27   15.29
 -11  -3   6   -9.87   16.45
  -4 -12   3   65.67   22.06
  10  -5  -3   14.78   31.33
 -12  -4  -4    3.81   17.70
  12   4   4   23.48   14.97
   0 -10  -9   71.68   30.59
   0  10   9   71.23   18.08
  -7   9   0   -1.13   21.92
   7  -9   0   13.59   30.83
 -12   1  -2    0.61   14.66
  12  -1   2    1.42   15.09
  -1  12  -2   26.90   25.21
   1 -12   2    8.87   17.97
   5  -7  10   -3.65   16.89
   5  -7  10    7.58   15.91
  -5   7 -10   22.91   24.70
  -6   7  -9  -11.36   24.18
   6  -7   9   -6.59   16.20
 -11   3   3   33.53   14.09
   1  -7  12   65.18   18.13
   1  -7  12   85.21   16.66
  -1   7 -12  107.52   26.79
  10   7   7   13.04   14.90
  -8  -9   6   38.26   15.96
   3 -10  -7   -8.45   29.11
  -3  10   7   14.90   12.98
   7  -4  11   17.95   17.38
  -7   4 -11   62.07   25.51
 -10  -9  -2   47.56   18.15
 -11  -5   5   76.29   15.06
  -8  -2 -12   21.87   21.35
  -6   8   7  123.01   17.04
   6  -8  -7   89.84   30.90
 -10   4   5    5.10   13.48
 -10  -3   8   16.22   15.01
 -11  -6   4    3.06   16.26
   5  12   3    2.11   20.81
   5  12   3   10.05   13.48
   5   2  14   30.80   19.21
   5   2  14   62.51   15.94
  -5  -2 -14   37.19   23.08
   5   2  14   55.74   18.98
  -8  -1 -12   24.46   21.85
   5   7  12   34.26   16.10
  -5  -7 -12   30.28   21.32
   5   7  12   35.17   15.97
   5   7  12   -5.76   17.59
   3 -11   4   65.54   32.99
   3 -11   4   31.32   18.09
  -3  11  -4   59.15   25.48
   3  -3  14  -12.14   17.96
  -3   3 -14   16.45   24.47
   3  -3  14    4.39   18.57
   4  -9   8    7.06   15.59
   4  -9   8    9.24   18.83
  -7   9  -1   59.01   23.28
   7  -9   1   43.09   31.46
   7  10   7   -6.92   15.28
  -1  -4  14   22.57   18.31
   1   4 -14   32.16   24.78
  -1  -4  14    4.66   19.08
   4  -2  14   -9.72   18.81
  -4   2 -14  -23.40   24.62
  -8   8  -2   70.26   21.74
   8  -8   2   88.20   14.29
   8  -8   2   97.02   32.16
   5   7 -11  115.17   23.50
  -5  -7  11  115.91   16.08
  -5  -7  11  134.16   22.71
   1  -4  14   15.79   18.39
   1  -4  14   14.30   17.94
  -5  10  -4    5.89   23.54
   5 -10   4    0.49   32.12
   5 -10   4   12.78   16.94
   6  10   8   21.58   15.20
  -8   4   9   43.29   16.62
   4 -11   1  170.87   36.44
  -4  11  -1  177.74   28.34
   4 -11  -1  156.19   34.79
  -4  11   1  148.11   27.02
   5   0  14   19.76   14.37
  -5   0 -14    0.36   23.76
   5   0  14   17.86   19.05
   5   0  14   28.78   18.52
   9  -7   0  -16.30   30.83
 -10   0   8  128.43   18.33
 -10   0   8  108.12   17.29
   9  -7   1   47.90   14.29
   9  -7   1   47.23   31.03
  -2 -12   4    5.79   19.89
  -8 -10   4   80.53   16.35
  -9  -8   6  214.84   19.54
  -1   6  13   25.60   16.45
   1  -6 -13   40.28   23.34
 -12  -1   3   -1.17   16.09
   3 -10   7   37.45   14.69
   3 -10   7   26.83   19.92
 -12  -3   3   91.18   18.23
 -12  -5   1   -2.84   16.91
 -12   0  -4   34.58   16.83
  12   0   4   53.42   15.61
   9   2  11   29.47   17.73
   5   9  -9   37.74   21.50
  -5  -9   9   26.90   21.11
  -5  -9   9   18.48   13.52
   3  -5  13   53.50   18.56
  -3   5 -13   58.59   25.51
   3  -5  13   57.66   18.38
   0 -12  -4   98.50   33.28
  -9   2 -10   76.05   23.59
   9  -2  10   55.63   17.83
   1   0  15   -1.95   18.56
   1   0  15   12.14   19.00
  -1   0 -15   45.11   24.62
   1   0  15    5.08   12.94
   7  -9  -1    1.96   31.12
  -7   9   1  -12.28   21.82
   5  12  -2  189.89   26.36
   2 -10  -8   11.41   29.59
  -2  10   8    6.43   12.33
   5  -2 -13   88.53   24.31
  -1  -1 -15   32.98   23.89
   1   1  15   17.59   14.08
 -12   1   1   28.86   15.44
  -3  -8  11    4.09   12.46
   3   8 -11   28.56   23.56
  -3  -8  11   28.77   16.29
  -3  -8  11   10.91   20.49
  12   5   3    5.67   14.40
 -12  -5  -3   16.49   18.24
  10  -1   9   25.81   16.90
 -10   1  -9   24.09   20.18
   9   1  11   23.76   17.54
  -9  -1 -11    8.42   20.29
   9  10  -1  105.00   21.84
  -9 -10   1  123.38   18.51
  11  -2   6   53.99   15.89
   8   8   9   58.81   16.80
   0   0  15   37.52   18.94
   9   9   6    9.61   14.36
  -1 -12   4   38.81   20.33
  12   2   5  -11.41   15.16
 -12  -2  -5    0.50   16.88
   8   7  10   42.04   15.85
   4   4  14    7.31   19.17
   4   4  14   18.27   15.98
   4   4  14   18.42   18.02
  -4  -4 -14    9.67   22.60
   5  -5  12   -4.72   17.39
  -5   5 -12   28.47   24.72
  -7 -11   3    8.81   14.79
  -4   9   8   41.14   14.50
   4  -9  -8   41.38   29.27
   6  -2  13   61.13   19.50
  -6   2 -13   17.43   24.20
  -8  -5  10  146.87   23.08
  -8  -5  10  147.16   17.84
  -5  10   4  -22.39   23.98
  -5  10   4   11.67   12.82
   5 -10  -4   29.99   30.80
 -11   0   6   95.08   16.85
 -11   0   6   78.48   16.46
  -8   5  -9   -6.37   23.64
   8  -5   9  -17.23   16.46
   0  -6  13   12.81   19.62
   0  -6  13   -2.79   18.10
   0  -6  13   -6.48   16.81
   0   6 -13   23.36   24.28
   2  12   5   64.42   25.54
   2  12   5   52.38   14.38
  11  -4   1   78.50   30.80
   7   8  10  -16.62   16.31
   7   8  10  -13.53   16.51
 -10  -9   1    5.34   16.65
   5  -9   7   71.34   16.50
  11   6   6   14.03   14.76
  -6   4 -12    6.30   23.92
   1   6 -13   29.74   24.60
  -1  -6  13   23.70   18.42
  -1  -6  13    8.87   20.27
   4 -10   6   21.38   19.42
   4 -10   6   43.10   14.69
   0   1  15   60.32   14.10
   9  -7  -1  -12.77   30.14
   6  11   6   36.16   13.20
  11  -4   0   34.03   31.88
 -10  -8   4   55.45   17.03
  -3  -3  14   25.26   18.87
   3   3 -14   27.89   23.85
   1 -12  -3  103.93   34.55
  -1  12   3  100.88   26.47
   8  -4  10   43.76   17.59
  -8   4 -10   40.12   24.56
  -8  -3 -12  -15.17   20.50
   8   3  12   11.37   15.17
   7  -9   2   55.50   32.15
  -7   9  -2   41.07   22.77
  -6   9   5   40.90   14.52
   6  -9  -5   41.11   31.07
  -3 -12   4   53.10   21.57
   9  10   3   -8.99   11.46
  12   3   5   12.29   15.24
 -12  -3  -5   -0.26   17.78
   9  -7   2   56.36   30.79
   9  -7   2   52.14   13.80
   3  -9  -9   10.19   29.13
  -3   9   9    6.15   13.08
  -7  -5  11   65.76   20.77
  -7  -5  11   86.31   16.42
   3  12   5    9.31   13.45
   3  12   5   23.03   24.21
  -8  -1  11   76.37   16.56
   8   1 -11   77.10   21.28
  11  -1   7   27.05   16.11
  11  -1   7  -13.36   15.60
  -1  -5 -14   33.42   22.98
   1   5  14   -3.42   18.37
   1   5  14   -9.46   16.13
   8  -8  -2  -19.65   30.71
 -10  -9  -3   35.90   18.36
   2   5  14   17.03   18.21
   2   5  14    3.37   15.40
  -2  -5 -14   -1.12   22.58
  12  -1   3   19.14   15.38
 -12   1  -3   32.98   15.92
  -4  10   6   50.56   14.22
   4 -10  -6   46.25   30.78
  -8   0 -12   10.63   22.48
  11   5   7   16.03   15.61
   7  -3 -11    8.41   21.84
  -7   3  11    1.70   15.63
   9   3  11   -1.81   16.61
   8  -6  -7   38.51   31.04
  -8   6   7   47.55   15.69
   8  -7   6   33.45   15.89
   8  -7   6   29.05   27.58
   8  -7   6   -3.74   13.94
  -2 -11   7   78.23   21.54
   2  11  -7   70.64   24.34
  -3   9  -9    1.19   25.80
   3  -9   9   -3.43   16.26
   3  -9   9   17.54   19.38
  11   2   8   50.68   16.69
  11   2   8   24.58   16.05
   2   1  15  -11.91   14.49
  -2  -1 -15   -9.93   23.85
   2   1  15   -1.85   19.24
  -1 -11   7   45.48   20.42
   1  11  -7   18.65   23.85
  -9   2   9   -7.57   15.76
  -9   2   9   -2.51   15.94
  -4  11  -2   96.29   26.69
   4 -11   2   55.79   34.77
   3   9 -10  139.07   25.81
  -4  11   2   22.58   24.40
 -12  -1  -5   -8.82   17.11
   2   0  15   -0.31   19.23
   2   0  15    5.69   18.83
   2   0  15   12.96   13.03
  -2   0 -15   -3.86   23.56
   7   1 -12   58.25   21.83
  -7  -1 -13   -2.28   22.39
  -1   1 -15   -5.50   24.30
   1  -1  15  -13.02   18.65
  11  -4   2   30.70   15.79
  11  -4   2   65.62   29.76
   0  -1  15  -10.86   18.79
   7   7  11   18.76   17.90
  -8  -2  11   -2.50   15.16
   8   2 -11   37.34   20.23
   7  -8   6   -0.65   15.65
   7  -8   6   27.82   29.58
  -7   8  -6   -5.69   21.04
   2  -8 -11   32.41   27.25
   2  -8 -11   10.50   22.00
  -7  -2 -13  -25.33   22.10
   7   2  13   26.10   14.91
   4   0 -14   56.17   24.19
  10   5   9   26.91   15.06
   5  11   7   67.20   15.76
  -1   9 -10   59.71   25.81
   1  -9  10   56.53   21.77
   5   3  14   -3.04   15.71
   5   3  14   11.03   18.28
   5   3  14    3.14   19.22
  -3  -7  12   60.81   21.32
  -3  -7  12   36.14   18.41
  -3  -7  12   61.04   14.64
   3   7 -12   39.21   24.22
  -4  -1  14   29.28   16.92
   1  12   5   49.21   24.90
   1  12   5   12.19   13.97
  -1 -12  -5   56.66   31.93
  -2  -8 -12   69.49   24.00
   2   8  12   35.11   17.29
   6  -3 -12   19.92   22.82
  -6   3  12   19.35   15.59
   2  -7 -12   60.51   23.67
   2  -7 -12   34.48   25.90
  -2  -4  14   13.56   19.99
   2   4 -14   -8.00   24.54
   1   2  15   46.55   15.23
   1   2  15   38.78   19.55
  -8   8  -3   29.01   20.64
   8  -8   3   68.55   30.41
   8  -8   3   23.55   13.33
   2 -10   8    9.09   19.92
   2 -10   8   15.23   13.91
  -2  10  -8  -11.18   23.83
 -11  -4   6   75.99   16.54
   8  11   1   31.60   21.23
  -8 -11  -1   27.62   16.75
  -7   9   2   17.28   22.75
   7  -9  -2   15.41   31.81
   6  12   1   21.74   18.99
  11  -4  -1   56.44   32.05
  -6 -10   7  141.17   16.34
   9   7   9    3.83   15.74
  11   3   8   19.80   15.51
  11   3   8   22.92   16.46
  11   1   8   39.61   17.05
   1  -6  13   20.45   17.03
  -1   6 -13   37.64   25.25
   1  -6  13   21.24   18.53
 -11  -7   3    9.49   16.51
  -4   7 -11   19.56   24.94
   4  -7  11   22.18   16.25
   2  -4  14   20.37   18.41
   2  -4  14   10.78   18.58
  -8   0  11  117.71   17.46
   8   0 -11  116.41   22.33
  -7   7  -8   45.28   23.38
   7  -7   8   59.97   17.42
  11  -3   5   12.43   24.53
  11  -3   5   11.09   15.23
   7   0 -12  134.35   23.25
   2 -11  -6   17.35   31.06
   9   0  11   -3.31   17.22
  -9   0 -11  -15.17   20.78
   7   2 -12   10.80   21.38
   6  12   0   93.18   20.86
  10   8   6   45.29   15.13
  -5   1 -14    5.59   24.19
   5  -1  14   12.73   18.39
   5  -1  14  -18.02   18.97
   1 -12   3  113.95   20.45
  -1  12  -3  101.33   26.91
   8  10   6   17.98   14.82
   1   0 -15   92.67   25.90
   8  11   0   10.14   21.50
  -8 -11   0   12.39   16.61
 -12   0   3   67.59   16.50
   2 -12   0  121.13   36.15
  -2  12   0  123.44   27.41
   3  -5 -13   59.61   25.85
   3  -5 -13   37.38   24.14
 -12  -4   3   55.16   17.81
 -12  -4   3   37.50   14.58
   7   9   9    1.53   15.05
   7   9   9   -2.97   16.00
   4  -4 -13   40.72   24.05
   4  -4 -13   68.74   27.51
  -2  -9 -11   92.80   22.89
  -1  -8 -12   76.48   24.12
   1   8  12   75.48   18.03
   2   6 -13   64.51   25.33
  -2  -6  13   60.16   21.86
  -2  -6  13   75.52   19.51
 -10  -4   8   16.39   14.72
   5  -9  -7   57.37   30.44
  -5   9   7   53.50   15.36
   0 -12   4   73.68   20.55
  -7 -10   6  104.36   16.53
  -9  -5   9  119.81   17.96
   5  12   4   12.50   13.46
   5  12   4   38.18   21.41
 -12  -5   2   35.78   13.05
 -12  -5   2   26.75   17.53
 -11   2   5   29.92   14.86
   0  -5 -14   85.37   24.65
   0   5  14   56.60   17.58
  -5   8  -9    1.16   24.12
   5  -8   9    2.77   16.54
   5  10   9   46.91   16.54
  -2  12   1  142.82   27.57
 -11  -8  -1    5.18   17.40
  11   8   1    8.44   12.94
 -12   1   2   30.06   16.22
   7  11   5  -36.17   14.33
   7  11   5  -23.64   21.17
   2   2  15   -5.10   15.44
   2   2  15   23.26   18.89
   2   2  15   39.82   19.47
  -1 -10   9   47.24   21.16
   1  10  -9   38.87   25.11
   8  11   2   32.16   12.41
   8  11   2   32.33   21.45
   0   2  15   43.03   14.82
   0   2  15   64.49   20.02
  -2   7 -12   78.94   26.53
   2  -7  12   28.58   16.26
   4  -6  12  -14.08   17.34
  -4   6 -12    3.97   24.70
  -6 -11   5   15.02   21.85
   3   5  14   31.40   18.40
   3   5  14   40.96   15.83
  -3  -5 -14   27.05   23.60
   3   5  14   17.45   18.51
  -6   6  10   95.34   16.84
   6  -6 -10  126.74   32.30
   3  11  -7   17.13   23.78
  -3 -11   7   17.95   20.92
  -9 -10   2   91.02   17.77
   9  10  -2   98.13   22.17
  -4  -5  13   37.21   19.95
   4   5 -13    4.21   23.09
  11   7   5   41.88   14.87
   3   8  12   -2.13   16.29
   3   8  12   -7.92   15.53
   3   8  12   -8.48   16.41
  -3  -8 -12    6.66   22.12
  -2 -11  -8   76.18   30.71
   2  11   8   81.62   17.92
   9  -7  -2   -1.43   29.77
   6  12   2   45.55   13.48
   6  12   2   27.20   19.48
   8  -6   8   64.28   17.62
  -8   6  -8   26.13   23.83
   9   8   8   31.58   15.70
   0  11  -7  -11.82   23.21
   0 -11   7   15.67   20.28
  -1   1  15   22.57   13.17
  -7   0 -13   10.54   23.33
   5  -7 -10   28.97   28.87
  -5   7  10   31.20   15.43
  -2   8 -11   38.07   26.00
   2  -8  11   38.74   20.49
   6 -10   0   19.76   32.68
  -6  10   0   15.45   23.97
  -2  12  -1   43.90   25.79
   2 -12   1   39.68   34.79
   8  -3 -10    6.50   20.88
   8   9   8   13.06   15.92
 -12  -5  -4   22.59   18.66
  12   5   4   39.52   15.42
 -10   1   8   13.09   16.52
 -10   1   8    0.68   15.55
   4  12   5   62.95   13.96
   4  12   5   83.04   24.55
  -2 -10   9   14.41   20.73
   2  10  -9   17.59   24.55
  10  -5   5   13.93   26.21
  10  -5   5    0.42   14.71
  -5 -11   6   11.97   21.71
   5  11  -6   23.69   21.00
   2  -1  15   29.75   19.34
  -2   1 -15   58.39   25.33
   8   6  11   48.49   15.36
 -12  -4  -5    8.79   17.93
  12   4   5   23.46   15.52
   5  -6 -11   76.42   29.61
   5  -6 -11   68.14   23.37
  -5   6  11   74.23   16.35
 -11  -8   0   25.85   17.43
  11   8   0   34.09   13.88
   1   1 -15   22.40   24.74
   4  -1 -14   95.84   25.04
   9  -7   3   33.75   14.14
   9  -7   3   51.15   29.76
   1 -11  -7   42.91   33.06
   3   9  11   13.64   15.28
  -3  -9 -11   15.98   21.34
  -1  -9 -11  138.43   24.67
 -10  -9   2   -0.25   16.25
  -9  -1  10  150.05   19.07
   9   1 -10  112.28   21.23
  -9  -1  10  145.67   18.01
 -11  -8  -2    4.25   17.98
  11   8   2    7.71   12.89
  -7   9  -3   61.30   23.27
   7  -9   3   42.38   32.13
  -2   4  14  109.66   17.73
   3  11   8   19.33   16.66
  10   2  10  -10.00   16.51
   5   6 -12   17.80   22.91
  -5  -6  12   33.27   20.93
  -5  -6  12   -8.44   15.51
   6 -10   1   84.58   33.57
  -6  10  -1   64.88   24.74
 -12  -6  -1   30.74   17.80
  12   6   1   -0.64   14.38
  -7  -3 -13    7.12   21.82
   7   3  13   18.13   15.35
  -4  -2  14   69.01   18.42
   4   2 -14   78.62   24.91
  -6  -5 -13   14.55   21.80
   6   5  13    5.35   16.94
   6   5  13    5.00   16.20
   6   5  13    1.08   18.66
   1 -10  -9   38.86   29.91
  -3   3  14   49.54   16.42
   3  -3 -14   79.81   24.72
  -9  -2  10   70.04   16.82
  -5 -12   3  287.69   27.11
   9  -6   6   12.38   14.72
   9  -6   6   26.67   26.72
   9  -6   6   18.17   16.40
   6  12  -1   70.39   20.77
  11  -4   3   19.20   28.06
  11  -4   3    5.01   14.90
   5   4 -13   43.15   23.03
  -5  -4  13   43.69   19.47
  10  -5  -4   26.41   32.75
  -4 -12   4  127.49   24.11
  -8  -3  11   10.53   16.25
   8   3 -11    8.91   19.52
  -8  -3  11    1.21   18.35
  -7   3 -12   17.84   24.05
  -8 -11   1   20.05   16.64
   8  11  -1   10.14   21.81
  -6  10   1   14.98   23.58
   6 -10  -1   12.73   32.12
   6   8  11   16.51   17.09
  -6  -8 -11   37.66   20.20
  -8   3 -11   81.20   25.20
   3 -11  -5   12.73   31.70
  -3  11   5   -0.92   24.72
 -11   3   4  -12.42   14.52
   9  10   4   37.10   12.98
 -12  -2   4   28.54   15.25
 -12  -2   4   26.87   16.35
   5   6  13    4.22   18.71
   5   6  13   18.50   16.69
  -5  -6 -13   16.54   22.05
   5   6  13   17.62   16.52
   9   6  10    1.06   14.70
   9   6  10   11.35   16.08
   2 -11   6   85.06   20.59
  -6   7   9   46.67   16.07
   6  -7  -9   56.24   29.96
  10  -3   8    2.14   15.96
 -10   3  -8   29.36   22.24
  10  -3   8   -8.70   17.61
   3   1  15   10.39   19.17
   3   1  15   -0.81   14.44
  -3  -1 -15  -21.00   23.96
  10   1  10   -1.41   16.69
  12   0   5   20.88   15.66
   0  10  -9  109.25   27.00
   0 -10   9   83.60   21.91
   8   4  12   11.45   15.67
  10  -6   1   20.84   29.90
  10  -6   1   16.41   14.72
 -12  -6  -2   14.48   17.90
  12   6   2   14.46   14.57
  10  -6   0   31.46   30.45
  -1 -11  -8  165.75   32.81
   1  11   8  150.31   19.77
  -7  -8   9  168.78   17.76
  -7  -8   9  160.93   24.45
   9   4  11   -1.96   16.48
   9   4  11   12.47   15.33
   4 -11   3   28.80   33.94
  -4  11  -3   22.57   25.52
  -2  -7 -13   25.74   23.02
   2   7  13   19.27   16.76
   2   7  13   13.17   17.15
   2  -9 -10   55.99   28.99
   6  -8   8   67.79   17.25
  -6   8  -8   61.23   24.63
  -4  11   3   22.11   24.75
  12  -1   4   29.44   15.31
 -12   1  -4   51.42   16.25
   5  10  -8  141.64   23.57
   4  -8  10  -16.88   17.09
  -4   8 -10    1.21   25.52
  -6  -5  12   11.10   19.49
  -6  -5  12   32.14   16.17
   6   5 -12   -4.96   21.90
  -2  12   2  211.22   29.95
   2 -12  -2  216.99   37.52
 -11   1   6   70.86   16.49
 -11   1   6   39.84   15.81
 -10  -7   6   32.94   16.45
 -12   2  -1   14.10   14.61
   8  -8  -3   25.52   31.53
  -9  -9   5   29.67   16.87
   0  -2  15    0.31   18.63
   0  -2  15  -14.50   18.83
   0   2 -15   -8.78   25.03
   6   1 -13  116.27   24.78
 -10  -6   7   72.71   13.97
 -10  -6   7   60.43   17.09
   3   0  15   30.75   20.13
  -3   0 -15   36.83   25.00
   3   0  15   21.78   13.68
   3   0  15   11.15   19.49
  11  -4  -2   32.75   32.02
  -1  12   4   90.82   26.20
   1 -12  -4   99.90   34.86
  10   3  10   18.96   16.44
  11   4   8    3.84   15.00
  11   4   8  -13.56   16.27
   6  -5 -11   80.34   31.05
  -6   5  11   69.92   16.64
   6  -5 -11   20.69   23.00
   8  -1  12   12.07   17.55
  -8   1 -12   18.19   22.58
   3 -11   5   46.30   18.97
  -5  10  -5   78.15   25.24
   5 -10   5   45.15   18.86
   5 -10   5   74.60   32.84
 -12   2   0   26.06   15.04
  11   0   8   19.98   16.53
  11   0   8    9.68   16.86
   1   7  13   33.52   17.45
  -1  -7 -13   66.49   24.03
  -4  -8  11    6.59   15.90
  -4  -8  11   23.85   13.61
   4   8 -11    2.30   23.07
  -4  -8  11   22.24   21.74
   8  11   3   28.06   20.85
   8  11   3    4.68   12.21
  -4   7  11   57.45   15.51
   4  -7 -11   42.83   23.03
   4  -7 -11   38.62   28.53
   1  -2  15   -7.35   19.53
   1  -2  15    6.94   18.78
   7  -1 -12   64.78   23.17
  -7   1  12   55.63   16.17
   0 -12  -5  114.42   34.29
   7   3 -12   21.77   21.11
  -7  -3  12   54.49   18.84
   6   9  10   32.11   16.57
   6   9  10   12.25   15.71
   6  -9   6   48.48   15.83
   6  -9   6   28.70   31.11
  -8  -8   8  135.93   17.69
  -8  -8   8  120.08   24.32
 -12  -1   4   31.05   16.52
   9   0 -10   93.54   21.40
  -9   0  10   84.10   16.98
  -9   0  10  135.51   18.85
  -8  -7   9    4.96   22.29
  -8  -7   9   29.25   15.90
 -12  -3   4    9.08   16.70
 -12  -3   4   21.96   14.61
   0  -8 -12   49.91   23.47
   0   8  12   25.29   17.39
 -11  -8   1   40.28   17.36
  -7  -7  10   71.17   16.69
  -7  -7  10   96.22   22.78
   6   0 -13  149.09   25.12
  -2  12  -2   -5.73   25.24
   2 -12   2  -12.40   33.89
  -8   1  11   63.58   16.73
   8  -1 -11   33.06   21.58
  -6  10  -2   77.98   24.88
   6 -10   2  114.43   34.59
   6  12   3   -0.41   19.17
   6  12   3   23.04   14.25
  10  -4   7   60.40   16.81
 -10   4  -7   38.57   23.65
  -2   6  13   28.76   17.14
   2  -6 -13   16.81   24.58
  -5   4 -13   43.77   24.93
   5  -4  13   35.51   18.39
  -4   3 -14   29.53   25.77
   4  -3  14   -3.90   18.26
   4  -3  14    6.12   18.74
  12  -2   2  -19.10   16.05
 -12   2  -2    6.59   14.65
   7  -9  -3   29.83   31.63
 -11  -8  -3   12.89   18.48
  11   8   3   -5.47   13.62
  10  -6   2   29.24   30.19
  10  -6   2   53.33   14.76
  -7 -11   4   63.37   15.93
   7  -6  -9   68.17   30.89
  -7   6   9   40.28   16.72
  -3 -10   9   94.35   23.01
   3  10  -9   98.34   25.15
  10  -6  -1   22.33   30.99
   3   2  15   -7.03   15.41
   3   2  15  -34.18   20.33
  -3  -2 -15  -31.57   24.84
   3   2  15  -16.46   19.50
   5  -3 -13   57.61   24.29
   2  -6  13   32.99   18.88
   2  -6  13   57.33   17.94
  -2 -12   5   63.07   21.62
  -1   2  15    3.07   14.06
   9  -4   9   -0.76   17.12
  -9   4  -9   15.52   23.66
   1   3  15   54.71   15.90
   1   3  15   80.77   20.32
  -1  -3 -15   69.46   24.89
   7  -8  -6   78.22   32.25
  -7   8   6   41.63   15.27
   7   6  12   47.76   16.84
   7   6  12   34.22   19.00
  -3  -7 -13    8.36   22.89
   3   7  13    2.83   16.69
   3   7  13   -0.48   17.26
   3   7  13    0.26   16.01
 -11  -6   5   37.33   17.00
  -9  -3  10    4.90   15.06
  -9  -3  10  -26.59   16.52
  -4  -9  10   80.25   22.51
   4   9 -10   61.55   23.94
  -7   5  10   88.96   17.42
   7  -5 -10   69.84   32.03
   8  -8   4   51.60   30.67
  12   2   6    5.76   16.05
  -9   4   8    5.83   16.30
  -9   4   8   25.11   15.08
   6   2 -13  -10.00   22.47
   4  11   8    5.65   16.26
  -4  -8 -12   11.84   22.18
   4   8  12   25.53   16.52
   4   8  12   19.85   16.97
  -5   8   9   28.16   15.26
   5  -8  -9   17.29   30.58
   5 -10  -5   58.14   32.42
  -5  10   5   23.93   13.89
  -6  10   2    3.32   23.29
   6 -10  -2   51.59   33.02
   5   4  14  -14.99   16.15
   5   4  14   10.25   18.14
   5   4  14    5.12   18.99
  -8 -10   5   75.52   16.51
  10  -2   9  -12.12   17.65
   6   7  12    3.70   17.51
   6   7  12  -16.53   16.80
  -6  -7 -12   -3.32   20.91
 -10   3   7    8.07   14.48
   4   9  11   -5.56   17.18
   4   9  11   -1.37   15.47
  -4  -9 -11    0.64   20.61
  -1 -12   5    0.31   20.19
   0  -9 -11   81.68   23.13
   0   9  11   52.05   18.69
  12   6   3   19.56   14.43
 -12  -6  -3   16.17   18.55
   2  10  10   44.50   18.10
   1   2 -15   14.81   25.32
  -9   1 -11   20.84   22.32
   9  -1  11    6.26   17.97
   2   3  15   49.05   15.96
   2   3  15   33.55   19.48
   2   3  15   36.39   19.50
   4  -8 -10   49.61   29.94
  -4   8  10   35.43   15.08
  -2   0  15   79.60   18.27
 -12   2   1   69.23   16.33
  -2   9 -10   99.67   27.57
   2  -9  10   84.10   22.12
   2  -9  10   74.29   17.40
  -1   5  14   52.04   17.50
  -3  -6  13   63.06   18.94
   3   6 -13   43.92   25.81
  -3  -6  13   25.25   20.94
  -7  -9   8   29.30   23.18
  -7  -9   8   26.84   15.03
  -3  -4  14   78.53   20.99
   3   4 -14   73.35   25.85
   6  12  -2   64.81   20.53
   6   8 -10   73.40   22.35
  -6  -8  10   91.82   16.16
  -6  -8  10   66.94   22.56
  12   3   6    9.26   15.92
  -7   1 -13   48.21   24.45
 -11  -2   7   19.48   17.39
 -11  -2   7   32.13   16.68
 -10   4   6   -5.76   14.39
  -4 -11   7   14.88   21.70
   4  11  -7   -2.79   22.76
  -8   7   6  174.69   18.48
   8  -7  -6  141.89   34.01
   4  -5  13   31.10   18.51
  -4   5 -13   53.29   25.96
   9  -7  -3   17.37   30.96
   4  -6 -12   29.48   27.02
  -5   5  12   13.52   15.44
   5  -5 -12   38.20   29.20
   5  -5 -12   14.46   23.53
   4   5  14   26.30   20.19
  -4  -5 -14   36.54   23.94
   4   5  14   44.59   16.76
   4   5  14   32.97   18.37
   2  12   6  157.29   27.97
   2  12   6  131.41   17.39
  10   0  10   -5.63   16.80
   9  -5  -7  105.96   34.13
  -9   5   7   92.96   15.90
  -9   5   7  114.45   17.65
   1 -11   7   52.45   20.81
  -8 -11   2   28.81   16.36
   8  11  -2    6.37   22.61
   3  -4  14   14.62   18.99
   3  -4  14    5.10   18.20
 -12   1   3   35.47   15.88
   1 -12   4  102.85   20.97
  -1  12  -4  126.23   28.30
   3  10  10    2.21   17.53
  -4   2  14   89.39   16.28
   4  -2 -14  101.87   25.21
 -11  -5   6   89.93   15.96
   0   5 -14   50.23   26.04
   0  -5  14   31.60   20.69
   0  -5  14   51.19   18.61
   0  -5  14   39.87   19.49
 -12  -5   3   80.96   14.55
   9  -5   8    9.98   16.88
  -9   5  -8   10.54   23.95
   0   3  15    7.12   15.33
   5  -2  14   -7.70   19.22
  -5   2 -14   22.14   25.41
   3  -1  15   41.70   20.49
  -3   1 -15   23.96   25.13
  -3 -12   5  174.62   24.43
   3  12  -5   97.49   23.51
  -4  -7  12  103.04   22.86
  -4  -7  12   99.13   15.92
  -4  -7  12  104.18   19.31
   4   7 -12  109.11   25.34
 -11  -1   7  109.15   18.53
 -11  -1   7  117.34   18.33
   6   1  14   25.23   18.76
  -6  -1 -14    1.42   23.66
   6   1  14   26.11   15.24
  -6   3 -13   32.36   25.08
   6  -3  13    5.98   19.23
   2   1 -15   54.79   25.84
  -2  -1  15   91.83   19.65
   2  -2  15   65.09   19.92
   3  12   6   22.17   25.02
   3  12   6  -29.94   14.97
  -9 -10   3   61.63   17.27
   0  -7 -13   40.61   24.32
   0   7  13   23.86   17.40
   9   9   7   19.28   15.28
   9  -7   4   20.56   29.48
   9  -7   4    3.01   14.03
  10   7   8   19.84   15.58
 -10  -8   5   36.61   16.92
  11  -2   7   63.33   17.61
  11  -2   7   48.08   16.91
  11  -4   4   22.71   26.53
  11  -4   4    9.49   15.48
   4   3 -14   42.04   25.36
  -4  -3  14   48.76   19.70
  -1 -10 -10   65.15   29.85
  -2  12   3  119.98   28.28
  -9   3 -10   57.93   23.96
   7   4  13   32.57   20.26
   7   4  13   32.91   16.29
  11   6   7   27.07   15.95
   5  12   5   52.66   13.63
   5  12   5  112.08   22.09
   0 -11  -8  101.84   33.37
  -1  -5  14  142.41   21.60
  -1  -5  14  104.21   22.73
   1   5 -14  102.01   27.53
  -6  -2 -14   23.55   23.61
   6   2  14   17.52   18.18
   6   2  14   32.88   15.73
   1 -10   9   34.78   21.34
  -1  10  -9   34.92   26.71
   7  -9   4   28.86   31.53
  -7   9  -4    3.02   22.53
  12  -2   3    2.11   15.65
  12  -2   3   21.14   28.54
   6  -1 -13   86.18   24.12
   7  10   8  -31.05   16.67
 -12  -5  -5    8.85   18.49
  12   5   5   26.93   15.88
 -10  -9   3    8.09   16.73
  10   4  10   10.74   15.90
 -12   0   4  105.80   17.72
  -6   9   6   18.12   14.79
   6  11   7   49.07   15.60
  -6  -9   9  -15.31   14.91
 -12  -4   4   49.40   15.32
  -9  -7   8   -5.50   15.92
 -10  -5   8  129.11   16.91
  10  -6   3   35.15   29.94
  10  -6   3   36.22   14.65
 -11  -3   7    5.72   15.72
  -8  -9   7   96.79   24.26
  -8  -9   7  108.35   17.33
  10  -6  -2   16.86   31.72
  -8  -6  10   66.75   16.78
  -8  -6  10   70.99   22.15
  -8  -4  11   40.37   20.36
   6 -10   3   37.90   33.97
  -6  10  -3   60.90   24.80
  -1 -12  -6   87.43   33.90
   1  12   6   66.10   17.00
  11  -3   6   33.75   16.05
   6   7 -11   23.66   21.69
  -6  -7  11   36.39   21.60
  -6  -7  11   26.72   15.65
   1  -5  14  -12.63   18.98
   1  -5  14    8.15   17.89
   7  -7  -8   35.83   31.67
  -7   7   8   41.71   16.79
   3 -10  -8   20.05   31.05
  -3  10   8    3.30   13.47
   8  11   4   31.83   21.08
   8  11   4    8.80   13.01
  -6   0 -14   -8.35   24.30
   9  -1 -10   -8.31   20.52
   2 -12   3   42.97   19.01
  -2  12  -3    8.73   26.50
   0 -12   5   30.80   20.53
  -6   8   8   83.55   16.87
   6  -8  -8   57.32   31.91
   4 -10   7   51.37   16.13
   4 -10   7   62.63   20.60
  11   8   4   12.46   14.26
  -9  -8   7  187.95   19.42
   9  10   5   61.22   14.57
   3  -7  12    8.05   17.06
   4 -11   4   -3.63   34.58
  -4  11  -4    2.29   25.68
  11   7   6   48.29   15.73
  10   9   5   40.23   14.54
   8  -7   7   38.95   16.97
   7  11   6  -14.14   15.19
  -4  11   4  -24.83   25.13
   3   3  15   10.46   16.07
   3   3  15    6.38   19.76
   6  12   4   44.00   14.55
   6  12   4   55.64   20.44
 -10   2   8   -2.45   15.53
 -10  -2   9   70.87   17.29
  -5 -12   4  236.61   26.95
 -10  -1   9  110.68   18.15
   4   7  13   47.00   18.45
  -4  -7 -13   37.43   22.97
   4   7  13   55.40   17.72
  -6  -3  13   99.83   20.18
   3 -10   8   47.55   21.06
   3 -10   8   32.84   15.97
  12   4   6   21.71   16.14
  -7  -6  11   -1.84   20.73
  -7  -6  11   26.53   16.14
   6  10   9   27.40   16.42
   4   1  15   18.96   19.68
   4   1  15   37.61   15.40
  -4  -1 -15   24.41   24.56
  -4  10   7   65.19   14.99
   4 -10  -7   66.03   31.88
  -6   6 -11   29.90   26.26
   6  -6  11    6.84   18.06
 -12   2   2   69.46   16.48
   7  -8   7   54.73   17.24
   7  -8   7   22.80   29.81
  10   8   7   18.95   15.23
   7  -4 -11   31.31   22.78
  11   5   8   22.89   14.56
 -11   0   7   47.75   17.13
 -11   0   7   26.89   16.55
  12   6   4    9.77   14.91
  11  -1   8    1.71   17.04
  -6  10   3   17.53   24.41
   4  12   6   13.22   13.99
   4  12   6   53.80   24.58
   9   5  11    0.41   16.45
   8  10   7   23.83   16.14
  10  -5   6   -5.31   15.40
   7  -2 -12   24.54   23.11
  -7   6 -10    5.04   25.47
   7  -6  10  -13.29   17.75
  -7  -4  12   82.23   20.71
  -7  -4  12  102.64   18.23
   3  -8 -11   25.63   28.60
   5  -9   8   49.58   16.98
  -2  -2  15   38.21   19.41
   0  -3  15   19.76   18.75
  -7   5 -11    4.22   25.63
   4  -9   9   15.29   20.27
   4  -9   9   10.19   16.45
   4  10  -9  141.51   25.78
   3  -7 -12   37.02   28.31
   6  -4 -12   18.08   23.23
   6  -4 -12   10.78   29.89
   8  -5  -9   65.01   33.17
   6   3  14    7.13   16.05
   6   3  14   14.67   17.94
  -2  -5  14   45.05   21.95
  -2  -5  14   40.12   19.56
   2   5 -14   22.92   26.08
   4   0  15   46.52   14.96
  -4   0 -15   48.26   25.53
  -2  -6 -14   15.65   23.56
   2   6  14   -1.32   18.40
   2   6  14   -2.08   16.24
   1 -12  -5   58.28   35.11
  -1   3  15   59.43   16.60
  -9  -6   9   72.17   17.65
   8  -2 -11   14.92   21.84
   2 -11  -7   44.95   32.32
   4  12  -5  132.53   24.39
  -4 -12   5  175.40   25.31
   3  13   1  122.55   28.47
   4   2  15   21.94   19.27
   4   2  15   -4.69   15.62
  -4  -2 -15   23.46   24.89
   3  13   0  169.53   29.13
   1   6  14   17.08   17.19
   5  11   8   53.96   16.54
   1  -3  15   22.22   18.80
   7  12   1   87.02   22.82
   2 -10  -9    8.33   29.95
  -1  -8  12  122.64   19.48
   1   8 -12  131.50   27.81
  -2   2  15   24.07   15.57
  -8   2 -12   24.25   24.01
   0 -10 -10   18.77   30.43
   6  -7  10    2.02   17.63
 -11   2   6    5.06   15.38
  -5  11   0   28.08   26.05
 -11   3   5   21.15   15.05
 -10  -3   9    9.12   15.46
  -3   4  14  112.95   19.06
   7  12   0  121.64   23.87
  -3  12   0   55.73   26.55
  11   2   9   33.73   17.23
  -5  -9 -11   29.68   20.56
 -12  -2   5   50.65   16.25
   1  -9 -11   54.30   29.26
   0  -8  12   61.19   18.26
  -5  -8 -12   40.55   22.26
   5   8  12   44.38   18.35
  -4   9   9   73.92   15.78
   4  -9  -9  110.38   31.82
   5   5 -13   51.84   24.25
  -5  -5  13   67.65   21.07
   1  11  -8  110.88   27.36
  -1  -3  15   46.53   20.54
  -8   6   8   75.72   18.39
   5   1 -14    3.78   24.15
  -6   5 -12   39.24   26.58
  -8 -11   3   75.68   17.19
   2  11  -8   55.82   25.89
  12  -2   4   25.75   27.94
   2  13   2    8.19   14.67
   1  13   1    5.19   14.84
   8  -8   5   -0.43   30.26
   3  -6  13   34.45   18.52
  -5  11  -1   88.78   26.82
 -11  -4   7   30.90   15.67
   5   0 -14  219.20   28.14
   1   9 -11   64.67   27.40
   7  12   2   83.35   22.74
  -5  11   1   10.49   24.83
  -9   6  -7    1.35   23.12
   9  -6   7   31.04   15.42
   1   4  15  -21.37   19.93
   1   4  15   -2.14   15.61
  -1   7  13    3.11   17.67
   2  -5  14  -12.64   18.82
   2  -5  14    9.66   18.25
   6   6  13   -0.81   18.59
   6   6  13    7.02   16.81
  -6  -6 -13  -10.24   21.65
   3  13   2   79.90   16.02
   0 -12  -6   72.22   34.63
   4  -5 -13    5.39   27.55
   5 -10   6   34.98   15.56
   5 -10   6   49.81   32.68
   5 -10   6   40.04   19.42
   3   6  14    6.79   16.42
   3   6  14    3.17   18.41
   3   6  14   19.19   18.47
  -3  -6 -14    4.50   23.48
  -7 -10   7   22.82   15.89
  10  -6   4    6.93   28.94
  10  -6   4   18.33   15.02
   2   4  15   42.08   16.21
   2   4  15   12.26   19.27
  -2  -8  12   41.44   18.26
   2   8 -12   51.92   26.38
  -6   1 -14   -0.38   24.86
  11   3   9   23.29   16.64
 -12  -1   5   87.74   17.75
 -12  -1   5   59.47   17.13
  -8   5 -10   28.41   25.50
  12   7   1   68.08   15.85
  11   1   9   44.71   17.87
   5   8 -11   53.96   23.78
  -5  -8  11   41.49   15.45
   3 -11   6   53.78   20.32
   5  -7  11   14.91   16.94
   5  -7  11    2.81   18.02
 -12  -3   5   15.26   15.18
   6  -2 -13  -14.37   23.91
  -7   2 -13   21.70   24.86
  -2   5  14   67.09   18.02
  -1 -13   1  -10.33   20.29
 -13  -2  -1   55.26   17.96
  -7 -11   5  170.34   18.03
   5  -9  -8  156.58   33.84
  -5   9   8   92.72   16.63
  11  -5   1   14.41   15.70
  11  -5   1   29.58   31.19
   2   9 -11  112.12   26.73
   5  -6  12   32.03   17.79
  -9   2 -11   38.29   24.02
  11  -4   5    5.52   15.89
   4   6 -13   21.29   25.02
  -4  -6  13   26.55   21.72
  -7 -12   1   37.99   16.68
   7  12  -1   83.40   22.46
  -6 -10   8   80.16   15.81
   5   9 -10   -1.84   22.36
  -5  -9  10    7.52   14.22
  11  -5   0   30.62   32.50
 -12   1   4   10.50   15.61
   9  -7   5   12.64   14.44
   9  -7   5  -12.24   29.08
  12   7   0   35.27   15.60
  -4   3  14   14.85   16.50
  -6  10  -4   49.27   24.70
   6 -10   4    6.63   34.36
  -5  -5 -14   37.98   23.62
   5   5  14   21.76   18.46
   5   5  14    9.76   19.99
  12   7   2   42.41   14.96
   0   6  14   16.96   17.51
   7  -7   9    8.01   17.65
 -10 -10  -1   87.44   19.98
   1  13   2   86.45   16.75
   2 -11   7  119.03   22.39
  -9  -9   6   89.60   17.99
 -12  -5   4   63.76   16.16
  -1  -7  13    1.40   18.25
 -13  -3  -1   30.54   18.42
   1 -11  -8   48.27   33.14
  10   5  10    6.82   15.80
 -13  -2   0   47.12   18.11
  -9 -10   4   15.03   16.70
   4  13   1   36.03   26.25
   0  -7  13   23.43   18.60
  -3   9  10   22.02   14.65
   3  -9 -10   39.22   30.25
   2 -10   9   15.91   21.28
   2 -10   9    3.88   16.09
   7   8  11   13.89   17.39
   4  13   0   75.05   26.86
 -13  -2  -2   49.42   18.39
  -3  -1  15   51.12   18.87
   2  -3  15   40.25   19.62
   0  11  -8   25.27   26.01
   1 -12   5   82.03   21.44
  12  -3   1   29.81   31.89
  -7   4 -12   54.34   26.77
  -7   9  -5   13.10   23.43
   7  -9   5    6.10   31.99
  -5  11  -2   86.64   26.69
   3  11  -8   15.97   24.55
   6  -9   7   28.68   16.60
   6  -9   7   30.33   31.32
   8  11   5    3.29   13.82
   0   4  15    9.04   16.24
   4   4 -14  120.52   26.50
  -4  -4  14  133.75   21.92
 -10 -10   0   92.56   20.26
  -6  -6  12   13.94   15.89
   6   6 -12    3.17   22.80
  -6  -6  12   17.01   20.60
   3  -9  10   44.67   17.82
  -5  10   6  134.90   17.64
 -13  -3   0   30.47   17.86
   2  12  -6   -2.02   23.33
  -2 -12   6   -2.63   21.67
   7   5  13   11.00   19.98
  -7  -5 -13   19.73   22.31
   4   3  15   -7.20   16.58
   4   3  15    0.30   19.38
   2 -12   4   54.58   19.60
  11   8   5   27.76   15.01
  -2 -11  -9   61.47   30.65
 -10  -9   4    8.96   17.21
  -8   6  -9   24.46   25.98
 -13  -3  -2   45.50   18.85
   9   2  12   10.15   17.82
  11  -5   2   31.43   15.95
  11  -5   2   13.99   29.34
   5  -4 -13   16.27   29.35
   5  -1 -14   75.94   25.28
  -5  11   2   12.26   25.40
  -2 -13   2  117.14   23.29
  -8   4 -11   67.42   25.94
 -12   2   3    7.64   15.49
 -13  -1  -1   15.99   16.83
  12   5   6   23.93   16.50
   7  12   3   21.33   21.89
   7  12   3   40.15   13.94
   4  -4  14   34.19   19.56
 -11   1   7    7.54   16.65
  -1 -12   6   26.67   21.54
   6  12   5   79.30   14.43
   6  12   5   79.43   21.24
   5  12   6   13.80   13.35
   2  13   3   32.66   15.77
   9   1  12   28.94   18.86
  11  -5  -1   25.68   32.63
   9  -2 -10  -26.95   21.00
   4  13   2   50.10   26.46
  12  -3   2    6.56   30.15
   3   4  15   78.26   20.96
  12   6   5    6.90   15.48
 -13  -1   0  -17.13   16.80
  -8  -2 -13   20.34   22.61
   6   4  14   -1.35   17.79
   3  13   3    9.15   15.19
  -6  -4  13   60.12   20.58
  -8 -10   6    5.05   16.22
 -10   4  -8    8.87   23.37
  10  -4   8    2.64   16.55
  -8  -1 -13   16.25   23.11
  -3 -13   2  108.46   23.13
  -2  -3  15   32.37   20.85
 -13  -1  -2    4.68   17.12
   5   7  13   31.95   19.20
  -5  -7 -13   -2.37   22.39
 -10   3  -9    0.63   23.23
 -10  -4   9   14.60   15.33
  -7   8   7   57.48   16.71
  -3  -5  14    5.88   20.57
   3   5 -14  -18.14   26.36
   2   7 -13   36.96   26.65
  -2  -7  13   23.23   18.79
  -8  -5  11  107.63   22.83
   5   7 -12  101.15   25.14
  -5  -7  12   87.86   16.21
  12   7   3    8.45   15.14
  -9 -11  -1    6.39   18.11
 -13  -2   1   14.33   18.14
   2  12   7  189.37   20.21
  -4  11  -5   55.17   26.75
   4 -11   5    5.21   18.34
   4 -11   5   11.73   33.47
  -1 -13   2  101.64   22.56
  11   4   9    2.05   15.88
 -12   0   5  141.61   18.84
   5  -8  10   -9.01   17.82
   3  12  -6   64.43   24.70
   9  10   6   62.15   16.10
  10   9   6   27.05   15.35
  -1 -11  -9   45.23   31.68
   9   3  12   -2.61   17.54
 -12  -4   5   19.29   16.14
   3  12   7    3.16   16.86
   1  -7  13   63.69   18.28
   1  -7  13   43.55   19.13
 -13  -2  -3   61.77   19.20
  -9 -11   0   34.12   18.26
   3   8 -12    4.01   25.09
  -3  -8  12   12.94   17.97
   3   9 -11  148.87   27.14
  -3  -2  15   75.30   20.20
  -7 -12   2    4.23   16.50
   7  12  -2   11.84   20.24
   7   7  12   -6.62   18.18
   1  10 -10   19.82   26.70
   4   6  14   31.76   18.30
   4   6  14   43.83   19.46
  -4  -6 -14   34.92   24.27
   1  13   3  188.62   19.00
  -2   3  15  149.78   18.83
 -13  -3  -3    2.80   19.13
   1 -10 -10   16.04   30.44
 -10   4   7   11.36   14.90
   5  -5  13   15.96   18.51
  11  -5   3   67.90   30.32
  11  -5   3   36.61   15.83
 -13  -1   1    5.19   16.98
   2  10 -10   47.28   26.21
   6  -4  13   23.48   19.66
   5  10  -9   96.99   24.33
  10   2  11    9.30   17.70
   0 -12   6   27.77   21.21
  -1 -12  -7  103.04   34.47
  -9   0 -12   16.91   23.58
   2  -8 -12   21.74   28.47
  -5  11  -3   41.33   26.36
   7  -3 -12   44.69   23.80
   7  11   7   13.80   16.22
  -8   0 -13    8.88   24.46
  -7  -5  12   54.75   21.23
  12  -3   3   20.51   29.61
   5   1  15   45.48   15.83
  -5  -1 -15   14.19   25.12
  -5  -3  14   68.30   20.29
   8   1 -12  113.55   23.36
   9  -8   1   15.71   33.05
  -7   9   5  138.28   17.28
 -13  -1  -3   56.93   18.91
 -11  -5   7   68.79   16.08
   4  13   3   48.23   15.55
  -6   9   7   39.60   16.42
 -10   3   8    7.02   15.38
  -8 -11   4  134.05   18.32
  -1   6  14    4.08   17.97
   6  -6 -11   57.50   31.99
  -1   4  15   75.06   18.05
   6  -7 -10   28.71   30.74
  -6   7  10    9.64   16.30
   4  -7  12   53.13   17.81
  -2  -9 -12   68.73   24.14
  -5   7  11   49.33   16.47
   5  -7 -11   75.63   31.18
  -5  11   3   21.46   25.70
   3  -5  14   16.35   19.26
  -9 -11   1   97.30   19.64
 -13   0  -1   19.44   16.61
   0  -4  15   62.61   20.33
  -8  -8   9  182.21   19.10
  10  -6   5    2.57   15.12
  10  -6   5   29.91   28.86
   8   2 -12  117.97   23.35
  -8   9   1   30.37   23.77
   4  11  -8   34.78   24.74
   5   2  15   22.85   16.41
  -5  -2 -15   42.63   25.18
  -9   5   8  105.42   17.10
   7  12   4  -31.38   22.16
   7  12   4   22.12   13.65
   4  12   7   -9.80   16.10
   5  13   1   -8.73   24.55
 -10   5  -7    5.58   22.94
  10  -5   7   15.82   16.51
   8  -3 -11    8.38   22.59
  10   3  11    2.35   17.67
  -9   4 -10   36.07   24.74
  -2 -13   3   69.46   22.70
 -11  -2   8   82.25   17.79
 -13   0   0   15.51   16.67
  -9   5  -9   28.46   25.78
  -7  -8  10   93.96   17.44
   5  13   0   28.77   24.04
   9  11   3  -14.36   13.17
   8   0 -12   35.99   22.90
  -3  -9 -12   24.71   23.36
 -13   0  -2   15.08   16.99
   0 -13   2   73.31   21.39
   8  -9   2   47.69   33.42
   9  -8   2   -2.40   31.83
   2  -9 -11   -1.72   29.15
   2  13   4   28.82   14.88
  12   7   4    4.42   15.18
   0  -6  14   -1.51   19.42
   4  -8  11   72.80   18.91
   8  -8   6   40.70   32.21
   7   1 -13  140.49   25.17
   6   8  12   35.97   18.44
   3  13   4   30.56   15.30
  -7  -1 -14   23.39   24.35
   6 -10   5    8.95   33.46
  -6  10  -5    9.46   25.24
   0 -11  -9   40.53   32.29
  -3  -7  13   40.99   19.71
   3   7 -13   64.16   26.25
  -3  -7  13   67.69   15.85
   4  12  -6   35.52   24.13
  -3 -13   3   42.42   23.24
   4   4  15    2.28   17.26
   4   4  15   53.43   20.04
  -8   3 -12   45.16   25.39
  -8  -7  10    4.40   22.49
   9   4  12   -5.05   17.24
  -7  -2 -14   16.51   23.83
 -13  -2  -4   41.21   19.19
   5  13   2   11.01   23.87
  -1 -13   3   99.58   22.86
  -7  -9   9   48.94   16.11
   5  -6 -12   33.49   29.88
   3  10 -10  153.28   27.65
   4 -10   8   63.55   17.25
   4 -10   8   48.51   21.76
   5  -8 -10   44.02   32.38
  -5   8  10   33.39   15.98
  -3  -8 -13  -15.78   23.71
   3   8  13   17.46   18.05
 -11   3   6    3.01   15.47
  -8  -9   8  211.14   19.90
 -11  -3   8   20.58   16.74
   4  -6  13   11.12   18.38
  10  10   4   56.87   14.36
  -7  10   0   -1.24   24.17
   7   0 -13   29.88   22.85
   7   2 -13   33.92   23.28
   2  -7  13   42.15   17.85
  -4  10   8   86.30   15.95
 -13  -1   2   17.07   17.43
   9  -7   6   15.05   15.25
 -12   2   4    3.03   15.79
 -13   0   1   -2.38   16.69
  -7  10  -1   -9.16   24.58
 -12  -2   6   63.63   17.59
   8  11   6  -31.89   15.46
   3 -10  -9   81.01   32.67
 -12   1   5   21.89   16.28
   2 -12   5   65.51   21.15
   9   0 -11   53.60   22.75
   1  13   4  165.15   17.69
   1  -6  14   33.57   18.51
  -3  -3  15   72.04   21.63
  -7  -7  11  -12.43   16.34
   7  12  -3    7.40   19.74
  11  -5   4   23.68   16.01
  11  -5   4   58.48   30.14
  -9 -10   5   10.60   16.85
  10  -7   1   18.47   32.87
  10  -7   1   11.47   14.62
  10  -7   0  -18.96   15.21
  -7  10   1   24.26   24.09
 -13   0  -3    3.88   17.54
 -13  -1  -4   19.21   18.56
  -3   5  14   -1.89   17.62
  -7   0 -14    9.50   25.26
  -7   9  -6   -4.71   23.77
   7  -9   6   38.54   32.77
  -9 -11   2  124.85   19.57
   4  -7 -12   15.06   29.81
 -11   2   7   -0.69   16.09
  12   6   6   11.73   16.16
   6  -5 -12   28.65   31.45
  -6   8   9   58.37   16.69
   4   9 -11   41.64   25.12
  -4   4  14  -27.61   17.80
   6  12   6  133.02   15.91
   5 -10   7   42.31   16.74
   5 -10   7   20.01   19.96
  -4   8  11   67.27   16.41
   4  -8 -11   78.89   31.54
   3 -10   9    6.31   16.44
  -2  -6  14   83.26   21.53
  -8   1 -13    4.58   25.21
   5   6 -13   -0.35   24.31
  -5  -6  13   19.76   16.68
   4  13   4   40.00   15.80
 -12  -3   6   15.19   16.63
  -6  10   5   19.99   15.11
   6   5  14   -3.95   18.08
  -6  -5 -14   18.98   23.47
  10   4  11   17.73   17.18
   4   8 -12   30.62   24.93
  -9   3 -11   38.84   25.26
  -9   1 -12   32.15   24.00
  -4  -9 -12   -0.34   22.50
   3 -11   7   55.83   21.88
   1 -12   6  148.65   23.77
   9  -8   3   33.48   32.54
   8  -9   3  102.42   34.91
  -9   6  -8   18.33   25.84
   5  -9   9   96.45   18.87
  -5  11  -4   -0.46   25.91
   8  -1 -12   -4.55   23.46
  -2  -4  15    8.57   21.46
  -7  10  -2   92.73   26.11
  -4  -5  14   65.25   21.81
   9  11   4   24.18   13.35
  -5  -6 -14    8.60   23.72
   5   6  14   32.60   18.52
  -6  -8  11   73.88   16.96
   8  12   1   64.47   24.15
  10  -7   2   -0.94   31.76
  10  -7   2   24.05   14.43
  -6  -9  10    8.72   15.36
   3   5  15   16.80   19.84
   6   5 -13  106.80   25.15
  -6  -5  13  130.02   23.10
   0   5  15   27.06   17.77
   0 -13   3  106.59   22.04
   2   7  14   28.43   18.70
  -8 -12   0   25.37   17.83
   8  12   0   44.03   23.92
   4   8  13   18.84   17.97
  -4  -8 -13   18.16   23.34
   6   7  13    0.54   18.73
   1   2  16   50.97   16.82
   7  -1 -13   15.30   23.73
   4 -11   6    1.13   19.82
  -5  -4  14  174.47   23.60
   5   4 -14  144.59   27.45
  -5  10   7   82.31   16.97
  12   2   8   23.10   16.73
   7   3 -13   13.59   22.96
  -7  10   2    8.88   24.63
 -13   1  -1   28.94   16.62
   4  -9  10   -0.96   17.84
   7  12   5  -10.55   14.60
   7  12   5  -32.10   22.72
 -11  -4   8    5.79   15.64
  12   8   1   29.02   14.84
 -13   0   2   33.92   17.22
  -2   4  15   68.69   18.17
   2  12  -7   51.75   26.24
  12   7   5  -12.18   15.70
  12   3   8   41.47   16.40
  -7 -10   8    4.18   15.78
 -13   1   0   76.96   17.43
   2   2  16   28.26   16.63
  -3   3  15   58.28   17.50
   6  -9   8   48.69   18.06
   2 -10 -10   36.27   32.32
   2  11  -9   41.04   26.66
  -8  -6  11   23.44   22.80
   3   7  14    0.26   18.75
   3   7  14   -6.28   18.52
 -13  -3   3    9.17   15.37
   4  10 -10  116.93   26.28
  12   8   2   20.71   15.11
  12   8   0   52.90   15.83
   9  -1 -11   18.68   21.99
 -13  -2  -5    4.06   19.01
   4  -6 -13   27.33   28.65
   2  13   5   85.42   15.95
  11   3  10    0.92   17.30
   2  -6  14   62.28   19.23
   8  12  -1   -2.40   23.40
  -8 -12   1  -12.87   18.11
   5  -5 -13   36.16   30.34
 -13   0  -4   10.16   17.89
 -12  -4   6   14.06   16.37
   3  13   5  -15.71   14.59
  -1 -13   4   71.40   22.77
  10  -6   6   -4.07   15.95
  -4   9  10  106.67   16.95
  10  10   5   55.46   15.42
  -5   9   9   69.98   16.83
   1 -11  -9   21.06   33.70
   9   5  12   17.33   17.14
   6  13   1  -12.94   21.53
  -8 -11   5  124.30   18.20
  12  -4   1   73.95   32.82
  10  -7   3   23.12   14.95
  10  -7   3   16.00   31.89
  -8 -10   7    7.55   16.72
  -7  10  -3   38.01   25.05
   4   7 -13   64.98   26.49
  -4  -7  13   67.47   16.41
  -4  -7  13  105.28   20.54
   3  12  -7   73.78   26.31
   6  13   0   -8.63   20.75
   6  -6  12   18.15   19.25
   8   8  11   15.40   18.63
  -7   9   6   62.96   16.57
   6  -7  11    7.18   18.29
   3   1  16    5.53   15.70
  -6  -7  12   -0.45   16.02
   6   2 -14   18.72   24.85
 -13   1   1  100.15   18.31
  -9 -11   3  178.78   20.66
  -3  -6  14   55.06   20.67
   5  13   4  103.16   16.80
   9  -8   4   25.32   32.44
 -10   4  -9   47.34   25.29
   6  13   2   33.69   21.43
  12  -4   2   55.23   32.61
   8  -9   4   41.17   33.66
   3  -8 -12   94.28   31.09
   3  11  -9   15.38   25.77
  12   8   3   -5.68   15.10
  -7  -6  12   91.04   23.01
  -6  11   0  -15.14   26.72
   4   5  15   48.72   20.25
  -6  10  -6    9.20   25.60
   6 -10   6   20.93   33.45
   3   2  16    0.23   16.35
   6   1  15   35.04   16.32
 -13  -4   3   24.02   15.62
  -6  11  -1   35.55   26.55
   4  13   5   -8.25   14.39
  -1 -12  -8   69.00   34.41
   1   3  16   24.22   16.56
   9  11   5   36.18   14.61
  -3  -4  15   67.67   22.21
   8  -2 -12    4.37   23.26
  11   4  10   -2.19   16.86
 -12   2   5    0.22   16.49
   4   7  14   38.45   19.55
  -8   2 -13   22.35   25.45
   2   3  16   27.28   17.01
  -8 -12   2   14.76   17.50
   8  12  -2   20.66   23.77
 -10   4   8   62.11   16.81
   0 -13   4  120.47   23.30
 -10   5  -8   24.35   25.29
  11  -6   1   13.19   16.27
  -1  -2  16   50.53   21.25
   3  -9 -11  107.76   32.73
   6  -4 -13    6.90   31.88
  -6   9   8   50.17   17.61
  -9   2 -12   16.57   24.88
  -5  -8 -13   19.26   23.35
   5   8  13   23.13   18.67
   8   7  12    2.76   19.60
  -4  -3  15   63.74   21.17
   2 -12   6  113.39   23.15
   5   9 -11   -3.65   24.23
   3  -9  11   61.86   19.17
   6  13   3   18.90   21.81
  12  -4   3   55.44   31.75
   7   8  12   21.52   18.74
   0   3  16    2.81   16.31
  -1  -8  13   -2.21   18.75
 -13   1   2  119.33   19.02
  11  -6   2   53.07   33.57
   0  -8  13   -5.32   18.98
  10  -7   4   38.51   15.53
  10  -7   4   39.13   31.86
  -5  -8  12   41.69   16.04
   5   8 -12   52.40   25.57
  -6  10   6   90.62   17.28
  -7  10  -4   27.82   25.30
 -11   3   7    0.23   16.65
  12   8   4    5.22   15.67
   7  12   6  -29.17   16.51
   5  -6  13   44.23   19.74
   9  -2 -11   16.36   21.96
  -6  -6 -14    6.25   23.26
   6   6  14   22.60   18.35
  -2  -8  13   43.09   19.71
 -13  -3   4   20.19   16.00
   3  -6  14   14.84   19.32
   4  11  -9   63.54   26.29
   4   1  16   23.14   16.12
   4 -10   9   22.08   17.66
   5  13   5   43.94   15.35
   5 -10   8   99.82   18.98
  -3   4  15   12.90   17.74
   9  -8   5   28.96   32.41
   3  13  -5  -22.32   24.33
  11  -6   3   41.24   32.47
  13  -2   2   -9.14   32.25
   4   2  16   28.45   16.87
   8  -9   5   32.87   34.22
   6   6 -13   28.70   24.56
  -2  -2  16   94.08   22.36
   3   6  15  -11.31   20.22
   4 -11   7   36.33   22.20
   0 -11 -10    4.82   33.24
  -8  -5  12   44.06   22.17
   8  12  -3   27.22   23.81
  -8  -1 -14   15.85   24.96
 -13  -4   4   17.81   16.29
   5   7 -13   33.85   26.12
  -7  -9  10   64.13   17.33
  -8 -11   6   61.81   17.74
   7  13   1   59.16   22.54
   8  12   5  -18.05   15.01
  12   8   5   27.69   16.61
   7  13   2   22.35   22.30
 -12  -4   7   13.50   16.64
   8   1 -13   78.94   24.80
  -7  -5  13   99.12   23.53
   6   8  13   44.32   20.34
   4   6  15   17.79   19.79
   6  13   5   31.22   15.55
   3   8  14   20.68   19.50
;
_shelx_hkl_checksum              33589
_olex2_submission_special_instructions 'No special instructions were received'
loop_
_space_group_symop_operation_xyz
'x, y, z'
'-x, -y, -z'
loop_
_atom_site_label
_atom_site_type_symbol
_atom_site_fract_x
_atom_site_fract_y
_atom_site_fract_z
_atom_site_U_iso_or_equiv
_atom_site_adp_type
_atom_site_occupancy
_atom_site_site_symmetry_order
_atom_site_calc_flag
_atom_site_refinement_flags_posn
_atom_site_refinement_flags_adp
_atom_site_refinement_flags_occupancy
_atom_site_disorder_assembly
_atom_site_disorder_group
Zn1 Zn 0.39528(5) 0.10109(4) 0.56309(4) 0.0351(2) Uani 1 1 d . . . . .
O3 O 0.5767(4) 0.1703(4) 0.5741(4) 0.0583(10) Uani 1 1 d . . . . .
O4 O 0.2598(4) -0.0207(3) 0.5183(3) 0.0535(9) Uani 1 1 d . . . . .
O2 O 0.3867(4) 0.2019(3) 0.4104(3) 0.0536(9) Uani 1 1 d . . . . .
O5 O 0.4549(4) -0.0502(4) 0.6803(3) 0.0599(10) Uani 1 1 d . . . . .
C13 C 0.6961(5) 0.1355(5) 0.5264(4) 0.0469(11) Uani 1 1 d . . . . .
C17 C 0.9565(5) 0.4456(5) 0.5032(5) 0.0549(13) Uani 1 1 d . . . . .
C6 C 0.4666(5) 0.1627(5) 0.3266(4) 0.0462(11) Uani 1 1 d . . . . .
C18 C 1.0065(6) 0.3132(6) 0.4706(7) 0.074(2) Uani 1 1 d . . . . .
H18 H 1.0997 0.2906 0.4411 0.088 Uiso 1 1 calc R . . . .
C10 C 0.4949(6) 0.4504(5) 0.0483(4) 0.0574(14) Uani 1 1 d . . . . .
C7 C 0.4767(6) 0.2620(5) 0.2290(4) 0.0511(12) Uani 1 1 d . . . . .
C19 C 0.9243(6) 0.2119(5) 0.4798(7) 0.0689(18) Uani 1 1 d . . . . .
H19 H 0.9625 0.1211 0.4574 0.083 Uiso 1 1 calc R . . . .
C16 C 0.8202(7) 0.4734(6) 0.5419(9) 0.094(3) Uani 1 1 d . . . . .
H16 H 0.7808 0.5642 0.5632 0.113 Uiso 1 1 calc R . . . .
C11 C 0.4319(11) 0.4877(6) 0.1481(5) 0.106(3) Uani 1 1 d . . . . .
H11 H 0.3918 0.5813 0.1588 0.127 Uiso 1 1 calc R . . . .
C8 C 0.5426(13) 0.2244(8) 0.1307(7) 0.155(6) Uani 1 1 d . . . . .
H8 H 0.5844 0.1311 0.1213 0.185 Uiso 1 1 calc R . . . .
C12 C 0.4232(12) 0.3947(6) 0.2363(6) 0.113(4) Uani 1 1 d . . . . .
H12 H 0.3768 0.4268 0.3058 0.136 Uiso 1 1 calc R . . . .
C15 C 0.7392(7) 0.3717(7) 0.5506(9) 0.100(3) Uani 1 1 d . . . . .
H15 H 0.6455 0.3944 0.5787 0.119 Uiso 1 1 calc R . . . .
C9 C 0.5524(14) 0.3176(9) 0.0407(7) 0.163(6) Uani 1 1 d . . . . .
H9 H 0.6013 0.2860 -0.0281 0.196 Uiso 1 1 calc R . . . .
C14 C 0.7892(5) 0.2404(5) 0.5204(5) 0.0484(11) Uani 1 1 d . . . . .
C39 C 0.0929(10) 0.3863(13) 0.8251(10) 0.109(5) Uani 0.647(10) 1 d D U P A 1
C36 C 0.0649(10) 0.2595(14) 0.7945(10) 0.134(7) Uani 0.647(10) 1 d G U P A 1
H36 H -0.0160 0.2280 0.8254 0.161 Uiso 0.647(10) 1 calc R . P A 1
C35 C 0.1553(10) 0.1788(10) 0.7186(9) 0.097(5) Uani 0.647(10) 1 d G U P A 1
H35 H 0.1362 0.0921 0.6976 0.116 Uiso 0.647(10) 1 calc R . P A 1
N34 N 0.2738(8) 0.2248(9) 0.6733(7) 0.040(2) Uani 0.647(10) 1 d G U P A 1
C37 C 0.3017(9) 0.3516(11) 0.7039(9) 0.071(3) Uani 0.647(10) 1 d G U P A 1
H37 H 0.3827 0.3831 0.6729 0.085 Uiso 0.647(10) 1 calc R . P A 1
C38 C 0.2113(12) 0.4324(10) 0.7798(9) 0.095(4) Uani 0.647(10) 1 d G U P A 1
H38 H 0.2305 0.5190 0.8007 0.114 Uiso 0.647(10) 1 calc R . P A 1
C41 C 0.0530(18) 0.5851(19) 0.9666(14) 0.206(10) Uani 0.647(10) 1 d D U P A 1
H41 H 0.1565 0.5665 0.9567 0.247 Uiso 0.647(10) 1 calc R . P A 1
C40 C -0.0072(19) 0.4663(19) 0.9124(13) 0.175(9) Uani 0.647(10) 1 d D U P A 1
H40 H -0.0926 0.5081 0.8735 0.210 Uiso 0.647(10) 1 calc R . P A 1
C42 C 0.003(3) 0.7226(19) 0.9306(12) 0.214(11) Uani 0.647(10) 1 d D U P A 1
C43 C 0.095(2) 0.812(3) 0.901(2) 0.325(16) Uani 0.647(10) 1 d G U P A 1
H43 H 0.1898 0.7878 0.9165 0.391 Uiso 0.647(10) 1 calc R . P A 1
C44 C 0.047(3) 0.938(3) 0.850(2) 0.392(19) Uani 0.647(10) 1 d G U P A 1
H44 H 0.1096 0.9999 0.8295 0.470 Uiso 0.647(10) 1 calc R . P A 1
C45 C -0.092(4) 0.975(2) 0.827(2) 0.362(18) Uani 0.647(10) 1 d G U P A 1
H45 H -0.1249 1.0608 0.7919 0.434 Uiso 0.647(10) 1 calc R . P A 1
C46 C -0.184(3) 0.885(3) 0.857(2) 0.320(16) Uani 0.647(10) 1 d G U P A 1
H46 H -0.2791 0.9095 0.8413 0.384 Uiso 0.647(10) 1 calc R . P A 1
C47 C -0.136(2) 0.759(2) 0.9082(18) 0.258(14) Uani 0.647(10) 1 d G U P A 1
H47 H -0.1989 0.6973 0.9283 0.310 Uiso 0.647(10) 1 calc R . P A 1
C55 C 0.014(3) 0.557(3) 0.837(3) 0.106(8) Uani 0.353(10) 1 d . U P A 2
H55 H -0.0485 0.5296 0.8937 0.127 Uiso 0.353(10) 1 calc R . P A 2
C51 C 0.0636(16) 0.3276(13) 0.7796(19) 0.082(7) Uani 0.353(10) 1 d . U P A 2
H51 H -0.0207 0.3142 0.8188 0.099 Uiso 0.353(10) 1 calc R . P A 2
C50 C 0.1392(19) 0.2236(12) 0.7137(19) 0.080(7) Uani 0.353(10) 1 d G U P A 2
H50 H 0.1065 0.1390 0.7078 0.096 Uiso 0.353(10) 1 calc R . P A 2
N35 N 0.263(2) 0.2432(18) 0.6564(17) 0.076(8) Uani 0.353(10) 1 d G U P A 2
C63 C 0.3103(19) 0.367(2) 0.665(2) 0.104(10) Uani 0.353(10) 1 d G U P A 2
H63 H 0.3947 0.3802 0.6259 0.124 Uiso 0.353(10) 1 calc R . P A 2
C53 C 0.235(2) 0.4709(17) 0.731(2) 0.099(8) Uani 0.353(10) 1 d G U P A 2
H53 H 0.2674 0.5554 0.7369 0.119 Uiso 0.353(10) 1 calc R . P A 2
C52 C 0.1114(18) 0.4513(12) 0.7883(18) 0.089(7) Uani 0.353(10) 1 d G U P A 2
C56 C -0.003(3) 0.699(2) 0.813(2) 0.102(7) Uani 0.353(10) 1 d . U P A 2
H56 H 0.0657 0.7312 0.7645 0.123 Uiso 0.353(10) 1 calc R . P A 2
C57 C -0.1109(19) 0.7942(16) 0.8538(14) 0.113(9) Uani 0.353(10) 1 d . U P A 2
C58 C -0.1408(18) 0.9116(17) 0.7859(12) 0.093(7) Uani 0.353(10) 1 d G U P A 2
H58 H -0.0885 0.9199 0.7164 0.111 Uiso 0.353(10) 1 calc R . P A 2
C59 C -0.2472(19) 1.0167(14) 0.8196(12) 0.071(5) Uani 0.353(10) 1 d G U P A 2
H59 H -0.2676 1.0969 0.7731 0.085 Uiso 0.353(10) 1 calc R . P A 2
C60 C -0.3237(19) 1.0045(17) 0.9213(15) 0.171(13) Uani 0.353(10) 1 d G U P A 2
H60 H -0.3964 1.0764 0.9443 0.205 Uiso 0.353(10) 1 calc R . P A 2
C61 C -0.294(2) 0.8871(19) 0.9893(13) 0.159(12) Uani 0.353(10) 1 d G U P A 2
H61 H -0.3461 0.8788 1.0588 0.191 Uiso 0.353(10) 1 calc R . P A 2
C62 C -0.187(2) 0.7820(15) 0.9555(13) 0.103(9) Uani 0.353(10) 1 d G U P A 2
H62 H -0.1670 0.7017 1.0020 0.124 Uiso 0.353(10) 1 calc R . P A 2
loop_
_atom_site_aniso_label
_atom_site_aniso_U_11
_atom_site_aniso_U_22
_atom_site_aniso_U_33
_atom_site_aniso_U_23
_atom_site_aniso_U_13
_atom_site_aniso_U_12
Zn1 0.0467(3) 0.0220(3) 0.0344(3) 0.00004(17) 0.01626(19) -0.00593(19)
O3 0.053(2) 0.051(2) 0.074(3) -0.0180(18) 0.0226(18) -0.0256(17)
O4 0.056(2) 0.0293(16) 0.077(2) -0.0064(16) 0.0125(18) -0.0152(15)
O2 0.082(3) 0.0333(16) 0.0408(17) 0.0065(13) 0.0187(17) -0.0067(16)
O5 0.065(2) 0.052(2) 0.052(2) 0.0207(17) 0.0193(17) 0.0097(18)
C13 0.056(3) 0.033(2) 0.053(3) -0.0012(19) 0.008(2) -0.015(2)
C17 0.048(3) 0.026(2) 0.090(4) -0.008(2) 0.013(3) -0.009(2)
C6 0.054(3) 0.038(2) 0.043(2) 0.0113(19) 0.010(2) -0.003(2)
C18 0.042(3) 0.034(3) 0.142(6) -0.017(3) 0.024(3) -0.005(2)
C10 0.077(4) 0.042(3) 0.044(3) 0.017(2) 0.017(2) 0.005(2)
C7 0.064(3) 0.041(3) 0.042(2) 0.013(2) 0.012(2) 0.000(2)
C19 0.050(3) 0.026(2) 0.130(6) -0.015(3) 0.015(3) -0.008(2)
C16 0.058(4) 0.037(3) 0.186(9) -0.039(4) 0.050(4) -0.016(3)
C11 0.225(11) 0.032(3) 0.049(3) 0.008(2) 0.049(5) -0.010(4)
C8 0.249(13) 0.069(5) 0.091(6) 0.052(4) 0.107(7) 0.081(7)
C12 0.242(11) 0.037(3) 0.049(3) 0.005(3) 0.063(5) -0.015(5)
C15 0.062(4) 0.048(3) 0.188(9) -0.051(5) 0.060(5) -0.024(3)
C9 0.275(14) 0.076(5) 0.081(5) 0.046(4) 0.108(7) 0.086(7)
C14 0.051(3) 0.026(2) 0.068(3) -0.005(2) 0.009(2) -0.0109(19)
C39 0.089(7) 0.143(10) 0.095(8) -0.085(8) 0.041(6) -0.017(7)
C36 0.100(8) 0.151(11) 0.149(12) -0.107(10) 0.085(9) -0.030(8)
C35 0.077(6) 0.119(9) 0.091(8) -0.060(7) 0.063(7) -0.018(6)
N34 0.038(3) 0.048(4) 0.024(3) -0.007(3) 0.011(3) 0.025(3)
C37 0.081(6) 0.063(6) 0.061(6) -0.025(4) 0.024(5) 0.007(5)
C38 0.076(7) 0.111(8) 0.088(8) -0.056(7) 0.024(6) 0.010(6)
C41 0.159(14) 0.32(2) 0.173(15) -0.173(16) 0.134(11) -0.149(15)
C40 0.146(13) 0.25(2) 0.125(12) -0.123(13) 0.087(11) -0.021(14)
C42 0.34(2) 0.28(2) 0.083(10) -0.102(13) 0.080(13) -0.24(2)
C43 0.44(3) 0.34(3) 0.26(3) 0.03(3) 0.04(3) -0.25(3)
C44 0.50(4) 0.36(3) 0.36(3) 0.09(3) -0.02(3) -0.23(3)
C45 0.47(4) 0.35(3) 0.34(3) 0.09(3) 0.01(3) -0.31(3)
C46 0.50(4) 0.28(3) 0.26(3) 0.02(2) -0.04(3) -0.28(3)
C47 0.44(3) 0.28(3) 0.13(2) -0.029(18) -0.03(2) -0.26(3)
C55 0.110(17) 0.085(14) 0.117(18) -0.053(13) 0.013(14) 0.002(13)
C51 0.055(10) 0.028(8) 0.161(19) -0.033(10) 0.004(11) 0.003(7)
C50 0.088(15) 0.034(8) 0.122(18) -0.015(9) -0.009(13) -0.019(9)
N35 0.125(17) 0.053(10) 0.062(12) 0.008(8) -0.043(10) -0.035(11)
C63 0.114(19) 0.072(14) 0.12(2) -0.051(14) -0.011(15) 0.020(13)
C53 0.075(14) 0.080(14) 0.14(2) -0.029(15) 0.020(14) -0.003(11)
C52 0.073(13) 0.041(9) 0.154(18) -0.022(11) -0.011(13) -0.008(9)
C56 0.136(18) 0.070(13) 0.100(16) -0.020(12) 0.023(14) -0.027(13)
C57 0.111(16) 0.081(14) 0.134(18) -0.034(14) 0.033(15) 0.014(13)
C58 0.120(16) 0.104(16) 0.054(10) -0.003(10) 0.024(11) -0.026(14)
C59 0.101(14) 0.058(10) 0.047(8) -0.004(7) -0.001(9) 0.002(9)
C60 0.21(3) 0.16(2) 0.13(2) -0.01(2) -0.04(2) 0.04(2)
C61 0.19(3) 0.108(19) 0.14(2) -0.020(17) 0.00(2) 0.070(19)
C62 0.15(2) 0.089(15) 0.051(11) -0.017(10) 0.020(12) 0.017(15)
loop_
_atom_type_symbol
_atom_type_description
_atom_type_scat_dispersion_real
_atom_type_scat_dispersion_imag
_atom_type_scat_source
C C 0.0033 0.0016 'International Tables Vol C Tables 4.2.6.8 and 6.1.1.4'
H H 0.0000 0.0000 'International Tables Vol C Tables 4.2.6.8 and 6.1.1.4'
O O 0.0106 0.0060 'International Tables Vol C Tables 4.2.6.8 and 6.1.1.4'
N N 0.0061 0.0033 'International Tables Vol C Tables 4.2.6.8 and 6.1.1.4'
Zn Zn 0.2839 1.4301 'International Tables Vol C Tables 4.2.6.8 and 6.1.1.4'
loop_
_geom_angle_atom_site_label_1
_geom_angle_atom_site_label_2
_geom_angle_atom_site_label_3
_geom_angle
_geom_angle_site_symmetry_1
_geom_angle_site_symmetry_3
O3 Zn1 Zn1 75.10(11) . 2_656
O3 Zn1 O4 159.07(16) . .
O3 Zn1 O2 84.89(17) . .
O3 Zn1 O5 90.21(18) . .
O3 Zn1 N35 101.2(6) . .
O4 Zn1 Zn1 83.99(11) . 2_656
O4 Zn1 O5 85.08(17) . .
O4 Zn1 N35 99.7(6) . .
O2 Zn1 Zn1 82.91(10) . 2_656
O2 Zn1 O4 92.06(16) . .
O2 Zn1 O5 158.50(16) . .
O2 Zn1 N35 98.7(7) . .
O5 Zn1 Zn1 75.60(11) . 2_656
O5 Zn1 N35 102.8(7) . .
N34 Zn1 Zn1 169.4(3) . 2_656
N34 Zn1 O3 100.3(3) . .
N34 Zn1 O4 100.4(3) . .
N34 Zn1 O2 106.4(3) . .
N34 Zn1 O5 95.1(3) . .
N35 Zn1 Zn1 175.9(6) . 2_656
C13 O3 Zn1 132.9(3) . .
C13 O4 Zn1 120.4(3) 2_656 .
C6 O2 Zn1 122.8(3) . .
C6 O5 Zn1 132.5(3) 2_656 .
O3 C13 C14 116.8(4) . .
O4 C13 O3 124.9(4) 2_656 .
O4 C13 C14 118.2(4) 2_656 .
C18 C17 C17 122.4(6) . 2_766
C16 C17 C17 120.9(6) . 2_766
C16 C17 C18 116.7(5) . .
O2 C6 C7 118.1(4) . .
O5 C6 O2 125.3(4) 2_656 .
O5 C6 C7 116.4(4) 2_656 .
C17 C18 H18 119.2 . .
C17 C18 C19 121.6(5) . .
C19 C18 H18 119.2 . .
C11 C10 C10 122.6(6) . 2_665
C11 C10 C9 115.6(5) . .
C9 C10 C10 121.8(6) . 2_665
C8 C7 C6 122.4(5) . .
C8 C7 C12 115.4(5) . .
C12 C7 C6 122.2(5) . .
C18 C19 H19 119.4 . .
C14 C19 C18 121.1(5) . .
C14 C19 H19 119.4 . .
C17 C16 H16 119.4 . .
C17 C16 C15 121.2(5) . .
C15 C16 H16 119.4 . .
C10 C11 H11 119.1 . .
C10 C11 C12 121.9(6) . .
C12 C11 H11 119.1 . .
C7 C8 H8 119.0 . .
C7 C8 C9 122.0(6) . .
C9 C8 H8 119.0 . .
C7 C12 C11 123.2(6) . .
C7 C12 H12 118.4 . .
C11 C12 H12 118.4 . .
C16 C15 H15 118.9 . .
C14 C15 C16 122.1(6) . .
C14 C15 H15 118.9 . .
C10 C9 C8 121.9(7) . .
C10 C9 H9 119.0 . .
C8 C9 H9 119.0 . .
C19 C14 C13 122.5(4) . .
C15 C14 C13 120.2(5) . .
C15 C14 C19 117.2(5) . .
C36 C39 C38 120.0 . .
C36 C39 C40 117.1(9) . .
C38 C39 C40 122.8(9) . .
C39 C36 H36 120.0 . .
C39 C36 C35 120.0 . .
C35 C36 H36 120.0 . .
C36 C35 H35 120.0 . .
N34 C35 C36 120.0 . .
N34 C35 H35 120.0 . .
C35 N34 Zn1 116.6(5) . .
C35 N34 C37 120.0 . .
C37 N34 Zn1 123.4(5) . .
N34 C37 H37 120.0 . .
C38 C37 N34 120.0 . .
C38 C37 H37 120.0 . .
C39 C38 H38 120.0 . .
C37 C38 C39 120.0 . .
C37 C38 H38 120.0 . .
C40 C41 H41 109.4 . .
C40 C41 H41 109.4 2_567 .
C40 C41 C40 89.6(14) 2_567 .
C42 C41 H41 109.4 . .
C42 C41 C40 118(2) . .
C42 C41 C40 119.6(14) . 2_567
C39 C40 C41 113.2(12) . .
C39 C40 C41 127.2(15) . 2_567
C39 C40 H40 108.0 . .
C41 C40 C41 90.4(14) 2_567 .
C41 C40 H40 108.0 2_567 .
C41 C40 H40 108.0 . .
C43 C42 C41 120.6(16) . .
C43 C42 C47 120.0 . .
C47 C42 C41 118.6(16) . .
C42 C43 H43 120.0 . .
C42 C43 C44 120.0 . .
C44 C43 H43 120.0 . .
C43 C44 H44 120.0 . .
C45 C44 C43 120.0 . .
C45 C44 H44 120.0 . .
C44 C45 H45 120.0 . .
C46 C45 C44 120.0 . .
C46 C45 H45 120.0 . .
C45 C46 H46 120.0 . .
C45 C46 C47 120.0 . .
C47 C46 H46 120.0 . .
C42 C47 H47 120.0 . .
C46 C47 C42 120.0 . .
C46 C47 H47 120.0 . .
C52 C55 H55 115.5 . .
C56 C55 H55 115.5 . .
C56 C55 C52 129(3) . .
C50 C51 H51 120.0 . .
C50 C51 C52 120.0 . .
C52 C51 H51 120.0 . .
C51 C50 H50 120.0 . .
C51 C50 N35 120.0 . .
N35 C50 H50 120.0 . .
C50 N35 Zn1 126.5(11) . .
C63 N35 Zn1 113.4(11) . .
C63 N35 C50 120.0 . .
N35 C63 H63 120.0 . .
N35 C63 C53 120.0 . .
C53 C63 H63 120.0 . .
C63 C53 H53 120.0 . .
C52 C53 C63 120.0 . .
C52 C53 H53 120.0 . .
C51 C52 C55 114.7(17) . .
C53 C52 C55 124.0(17) . .
C53 C52 C51 120.0 . .
C55 C56 H56 117.3 . .
C57 C56 C55 125(3) . .
C57 C56 H56 117.3 . .
C56 C57 C58 114.8(17) . .
C56 C57 C62 125.2(17) . .
C58 C57 C62 120.0 . .
C57 C58 H58 120.0 . .
C57 C58 C59 120.0 . .
C59 C58 H58 120.0 . .
C58 C59 H59 120.0 . .
C60 C59 C58 120.0 . .
C60 C59 H59 120.0 . .
C59 C60 H60 120.0 . .
C61 C60 C59 120.0 . .
C61 C60 H60 120.0 . .
C60 C61 H61 120.0 . .
C62 C61 C60 120.0 . .
C62 C61 H61 120.0 . .
C57 C62 H62 120.0 . .
C61 C62 C57 120.0 . .
C61 C62 H62 120.0 . .
loop_
_geom_bond_atom_site_label_1
_geom_bond_atom_site_label_2
_geom_bond_distance
_geom_bond_site_symmetry_2
Zn1 Zn1 2.9735(9) 2_656
Zn1 O3 2.024(3) .
Zn1 O4 2.039(3) .
Zn1 O2 2.033(3) .
Zn1 O5 2.041(3) .
Zn1 N34 2.005(5) .
Zn1 N35 2.044(12) .
O3 C13 1.265(6) .
O4 C13 1.262(6) 2_656
O2 C6 1.252(6) .
O5 C6 1.242(6) 2_656
C13 O4 1.262(6) 2_656
C13 C14 1.491(6) .
C17 C17 1.480(9) 2_766
C17 C18 1.375(7) .
C17 C16 1.370(8) .
C6 O5 1.242(6) 2_656
C6 C7 1.500(6) .
C18 H18 0.9500 .
C18 C19 1.386(7) .
C10 C10 1.491(9) 2_665
C10 C11 1.329(8) .
C10 C9 1.341(9) .
C7 C8 1.325(9) .
C7 C12 1.330(9) .
C19 H19 0.9500 .
C19 C14 1.367(8) .
C16 H16 0.9500 .
C16 C15 1.381(8) .
C11 H11 0.9500 .
C11 C12 1.378(8) .
C8 H8 0.9500 .
C8 C9 1.396(9) .
C12 H12 0.9500 .
C15 H15 0.9500 .
C15 C14 1.357(8) .
C9 H9 0.9500 .
C39 C36 1.3900 .
C39 C38 1.3900 .
C39 C40 1.521(11) .
C36 H36 0.9500 .
C36 C35 1.3900 .
C35 H35 0.9500 .
C35 N34 1.3900 .
N34 C37 1.3900 .
C37 H37 0.9500 .
C37 C38 1.3900 .
C38 H38 0.9500 .
C41 H41 1.0000 .
C41 C40 1.567(10) 2_567
C41 C40 1.569(10) .
C41 C42 1.426(18) .
C40 C41 1.567(10) 2_567
C40 H40 1.0000 .
C42 C43 1.3900 .
C42 C47 1.3900 .
C43 H43 0.9500 .
C43 C44 1.3900 .
C44 H44 0.9500 .
C44 C45 1.3900 .
C45 H45 0.9500 .
C45 C46 1.3900 .
C46 H46 0.9500 .
C46 C47 1.3900 .
C47 H47 0.9500 .
C55 H55 0.9500 .
C55 C52 1.40(3) .
C55 C56 1.40(4) .
C51 H51 0.9500 .
C51 C50 1.3900 .
C51 C52 1.3900 .
C50 H50 0.9500 .
C50 N35 1.3900 .
N35 C63 1.3900 .
C63 H63 0.9500 .
C63 C53 1.3900 .
C53 H53 0.9500 .
C53 C52 1.3900 .
C56 H56 0.9500 .
C56 C57 1.36(3) .
C57 C58 1.3900 .
C57 C62 1.3900 .
C58 H58 0.9500 .
C58 C59 1.3900 .
C59 H59 0.9500 .
C59 C60 1.3900 .
C60 H60 0.9500 .
C60 C61 1.3900 .
C61 H61 0.9500 .
C61 C62 1.3900 .
C62 H62 0.9500 .
loop_
_geom_torsion_atom_site_label_1
_geom_torsion_atom_site_label_2
_geom_torsion_atom_site_label_3
_geom_torsion_atom_site_label_4
_geom_torsion
_geom_torsion_site_symmetry_1
_geom_torsion_site_symmetry_4
Zn1 O3 C13 O4 -21.1(9) . 2_656
Zn1 O3 C13 C14 157.2(4) . .
Zn1 O2 C6 O5 11.2(8) . 2_656
Zn1 O2 C6 C7 -164.5(4) . .
Zn1 N34 C37 C38 179.1(8) . .
Zn1 N35 C63 C53 -176.6(14) . .
O3 C13 C14 C19 174.4(6) . .
O3 C13 C14 C15 -9.0(9) . .
O4 C13 C14 C19 -7.2(9) 2_656 .
O4 C13 C14 C15 169.4(7) 2_656 .
O2 C6 C7 C8 -170.2(9) . .
O2 C6 C7 C12 11.7(10) . .
O5 C6 C7 C8 13.7(11) 2_656 .
O5 C6 C7 C12 -164.4(8) 2_656 .
C17 C17 C18 C19 178.4(8) 2_766 .
C17 C17 C16 C15 -178.5(9) 2_766 .
C17 C18 C19 C14 0.8(12) . .
C17 C16 C15 C14 -0.7(16) . .
C6 C7 C8 C9 -179.5(12) . .
C6 C7 C12 C11 179.6(9) . .
C18 C17 C16 C15 1.8(14) . .
C18 C19 C14 C13 177.1(7) . .
C18 C19 C14 C15 0.4(12) . .
C10 C10 C11 C12 179.9(10) 2_665 .
C10 C10 C9 C8 -179.8(13) 2_665 .
C10 C11 C12 C7 0.2(18) . .
C7 C8 C9 C10 0(2) . .
C16 C17 C18 C19 -1.9(12) . .
C16 C15 C14 C13 -177.3(8) . .
C16 C15 C14 C19 -0.4(14) . .
C11 C10 C9 C8 2(2) . .
C8 C7 C12 C11 1.4(16) . .
C12 C7 C8 C9 -1.2(19) . .
C9 C10 C11 C12 -1.9(16) . .
C39 C36 C35 N34 0.0 . .
C36 C39 C38 C37 0.0 . .
C36 C39 C40 C41 163.8(17) . .
C36 C39 C40 C41 54(2) . 2_567
C36 C35 N34 Zn1 -179.2(7) . .
C36 C35 N34 C37 0.0 . .
C35 N34 C37 C38 0.0 . .
N34 C37 C38 C39 0.0 . .
C38 C39 C36 C35 0.0 . .
C38 C39 C40 C41 -123.1(19) . 2_567
C38 C39 C40 C41 -14(3) . .
C41 C42 C43 C44 169.9(15) . .
C41 C42 C47 C46 -170.1(15) . .
C40 C39 C36 C35 -177.4(14) . .
C40 C39 C38 C37 177.3(15) . .
C40 C41 C40 C39 -131(2) 2_567 .
C40 C41 C40 C41 0.000(1) 2_567 2_567
C40 C41 C42 C43 120.1(18) 2_567 .
C40 C41 C42 C43 -132.8(13) . .
C40 C41 C42 C47 37(2) . .
C40 C41 C42 C47 -70(2) 2_567 .
C42 C41 C40 C39 104.8(17) . .
C42 C41 C40 C41 -123.8(18) . 2_567
C42 C43 C44 C45 0.0 . .
C43 C42 C47 C46 0.0 . .
C43 C44 C45 C46 0.0 . .
C44 C45 C46 C47 0.0 . .
C45 C46 C47 C42 0.0 . .
C47 C42 C43 C44 0.0 . .
C55 C56 C57 C58 -154(2) . .
C55 C56 C57 C62 27(4) . .
C51 C50 N35 Zn1 176.1(16) . .
C51 C50 N35 C63 0.0 . .
C50 C51 C52 C55 167(2) . .
C50 C51 C52 C53 0.0 . .
C50 N35 C63 C53 0.0 . .
N35 C63 C53 C52 0.0 . .
C63 C53 C52 C55 -166(2) . .
C63 C53 C52 C51 0.0 . .
C52 C55 C56 C57 171(3) . .
C52 C51 C50 N35 0.0 . .
C56 C55 C52 C51 -147(3) . .
C56 C55 C52 C53 20(4) . .
C56 C57 C58 C59 -179(2) . .
C56 C57 C62 C61 179(3) . .
C57 C58 C59 C60 0.0 . .
C58 C57 C62 C61 0.0 . .
C58 C59 C60 C61 0.0 . .
C59 C60 C61 C62 0.0 . .
C60 C61 C62 C57 0.0 . .
C62 C57 C58 C59 0.0 . .
