#------------------------------------------------------------------------------
#$Date: 2019-11-03 15:45:21 +0200 (Sun, 03 Nov 2019) $
#$Revision: 221786 $
#$URL: file:///home/coder/svn-repositories/cod/cif/4/12/87/4128711.cif $
#------------------------------------------------------------------------------
#
# This file is available in the Crystallography Open Database (COD),
# http://www.crystallography.net/
#
# All data on this site have been placed in the public domain by the
# contributors.
#
data_4128711
loop_
_publ_author_name
'Li, Liangying'
'Guo, Lidong'
'Zhang, Zhiguo'
'Yang, Qiwei'
'Yang, Yiwen'
'Bao, Zongbi'
'Ren, Qilong'
'Li, Jing'
_publ_section_title
;
 A Robust Squarate-Based Metal-Organic Framework Demonstrates Record-High
 Affinity and Selectivity for Xenon over Krypton.
;
_journal_issue                   23
_journal_name_full               'Journal of the American Chemical Society'
_journal_page_first              9358
_journal_page_last               9364
_journal_paper_doi               10.1021/jacs.9b03422
_journal_volume                  141
_journal_year                    2019
_chemical_formula_sum            'C8 H2 Co3 O10'
_chemical_formula_weight         434.89
_space_group_crystal_system      monoclinic
_space_group_IT_number           12
_space_group_name_Hall           '-C 2y'
_space_group_name_H-M_alt        'C 1 2/m 1'
_atom_sites_solution_hydrogens   difmap
_audit_creation_method           SHELXL-2018/3
_cell_angle_alpha                90
_cell_angle_beta                 90.015(7)
_cell_angle_gamma                90
_cell_formula_units_Z            2
_cell_length_a                   9.2727(17)
_cell_length_b                   12.891(2)
_cell_length_c                   5.4962(12)
_cell_measurement_reflns_used    2463
_cell_measurement_temperature    173(2)
_cell_measurement_theta_max      28.37
_cell_measurement_theta_min      3.16
_cell_volume                     657.0(2)
_computing_structure_refinement  'SHELXL-2018/3 (Sheldrick, 2018)'
_computing_structure_solution    'SHELXT 2014/5 (Sheldrick, 2014)'
_diffrn_ambient_temperature      173(2)
_diffrn_measured_fraction_theta_full 0.995
_diffrn_measured_fraction_theta_max 0.995
_diffrn_measurement_device_type  'Bruker APEX-II CCD'
_diffrn_measurement_method       '\f and \w scans'
_diffrn_radiation_type           MoK\a
_diffrn_radiation_wavelength     0.71073
_diffrn_reflns_av_R_equivalents  0.0283
_diffrn_reflns_av_unetI/netI     0.0238
_diffrn_reflns_Laue_measured_fraction_full 0.995
_diffrn_reflns_Laue_measured_fraction_max 0.995
_diffrn_reflns_limit_h_max       10
_diffrn_reflns_limit_h_min       -11
_diffrn_reflns_limit_k_max       14
_diffrn_reflns_limit_k_min       -15
_diffrn_reflns_limit_l_max       6
_diffrn_reflns_limit_l_min       -6
_diffrn_reflns_number            2310
_diffrn_reflns_point_group_measured_fraction_full 0.995
_diffrn_reflns_point_group_measured_fraction_max 0.995
_diffrn_reflns_theta_full        24.992
_diffrn_reflns_theta_max         24.992
_diffrn_reflns_theta_min         3.161
_exptl_absorpt_coefficient_mu    3.790
_exptl_crystal_density_diffrn    2.198
_exptl_crystal_description       block
_exptl_crystal_F_000             422
_exptl_crystal_size_max          0.190
_exptl_crystal_size_mid          0.160
_exptl_crystal_size_min          0.150
_refine_diff_density_max         0.439
_refine_diff_density_min         -0.385
_refine_diff_density_rms         0.076
_refine_ls_extinction_method     none
_refine_ls_goodness_of_fit_ref   1.009
_refine_ls_hydrogen_treatment    constr
_refine_ls_matrix_type           full
_refine_ls_number_parameters     52
_refine_ls_number_reflns         613
_refine_ls_number_restraints     0
_refine_ls_restrained_S_all      1.009
_refine_ls_R_factor_all          0.0202
_refine_ls_R_factor_gt           0.0194
_refine_ls_shift/su_max          0.000
_refine_ls_shift/su_mean         0.000
_refine_ls_structure_factor_coef Fsqd
_refine_ls_weighting_details
'w=1/[\s^2^(Fo^2^)+(0.0267P)^2^+1.6973P] where P=(Fo^2^+2Fc^2^)/3'
_refine_ls_weighting_scheme      calc
_refine_ls_wR_factor_gt          0.0523
_refine_ls_wR_factor_ref         0.0527
_reflns_Friedel_coverage         0.000
_reflns_number_gt                595
_reflns_number_total             613
_reflns_threshold_expression     'I > 2\s(I)'
_cod_data_source_file            ja9b03422_si_002.cif
_cod_data_source_block           20181019zh_znz6502_0m_a_sq
_cod_original_sg_symbol_H-M      'C 2/m'
_cod_database_code               4128711
_shelx_shelxl_version_number     2018/3
_shelx_space_group_comment
;
The symmetry employed for this shelxl refinement is uniquely defined
by the following loop, which should always be used as a source of
symmetry information in preference to the above space-group names.
They are only intended as comments.
;
_shelx_estimated_absorpt_t_min   0.533
_shelx_estimated_absorpt_t_max   0.600
_shelx_res_file
;
TITL 20181019ZH_ZNZ6502_0m_a.res in P New: C2/m
    20181019zh_znz6502_0m_a_sq.res
    created by SHELXL-2018/3 at 17:29:16 on 12-Jan-2019
CELL  0.71073    9.2727   12.8910    5.4962    90.000    90.015    90.000
ZERR        2    0.0017    0.0020    0.0012     0.000     0.007     0.000
LATT 7
SYMM             - X ,              Y ,            - Z
SFAC C  H  Cl Co O
UNIT 16 4 0 6 20
L.S. 50
omit -3 50.02
omit 0 4 0
ACTA
BOND $H
FMAP 2
PLAN -20
CONF
abin
size .19 .16 .15
WGHT    0.026700    1.697300
FVAR       0.48707
RESI 0
TEMP  -100
CO1   4    0.500000    0.120167    0.500000    10.50000    0.01027    0.00364 =
         0.00533    0.00000   -0.00142    0.00000
CO2   4    0.500000    0.000000    0.000000    10.25000    0.00835    0.00314 =
         0.00494    0.00000   -0.00042    0.00000
O1    5    0.380622    0.236978    0.350706    11.00000    0.01574    0.00945 =
         0.00905   -0.00096   -0.00456    0.00410
O2    5    0.368456    0.111842   -0.171379    11.00000    0.01212    0.00703 =
         0.00799    0.00027    0.00039    0.00354
O3    5    0.396659    0.000000    0.325700    10.50000    0.00743    0.00735 =
         0.00672    0.00000   -0.00042    0.00000
AFIX   3
H3A   2    0.304585    0.000000    0.325009    10.50000   -1.20000
AFIX   0
C1    1    0.303816    0.187673   -0.075549    11.00000    0.00905    0.00596 =
         0.00885    0.00221    0.00103   -0.00030
C2    1    0.309504    0.242170    0.158872    11.00000    0.01136    0.00594 =
         0.00952    0.00174    0.00120    0.00077
HKLF 4 1 -1.0000 0.0000 -1.0000 -1.0000 0.0000 1.0000 0.0000 1.0000 0.0000




REM  20181019ZH_ZNZ6502_0m_a.res in P New: C2/m
REM wR2 = 0.0527, GooF = S = 1.009, Restrained GooF = 1.009 for all data
REM R1 = 0.0194 for 595 Fo > 4sig(Fo) and 0.0202 for all 613 data
REM 52 parameters refined using 0 restraints

END

WGHT      0.0108      2.0150

REM Highest difference peak  0.439,  deepest hole -0.385,  1-sigma level  0.076
Q1    1   0.6106  0.0000 -0.0300  10.50000  0.05    0.44
Q2    1   0.3086  0.1981  0.0590  11.00000  0.05    0.34
Q3    1   0.2240  0.2674  0.1655  11.00000  0.05    0.30
Q4    1   0.3917  0.1180  0.5155  11.00000  0.05    0.29
Q5    1   0.5529 -0.0388  0.6077  11.00000  0.05    0.22
Q6    1   0.4558  0.0899  0.8726  11.00000  0.05    0.22
Q7    1   0.3798  0.1026  0.2753  11.00000  0.05    0.21
Q8    1   0.5000  0.2721  0.5000  10.50000  0.05    0.21
Q9    1   0.4680  0.2010  0.1664  11.00000  0.05    0.20
Q10   1   0.4632  0.2145  0.3742  11.00000  0.05    0.19
Q11   1   0.5000 -0.1408  0.0000  10.50000  0.05    0.19
Q12   1   0.5036  0.0000  0.7669  10.50000  0.05    0.18
Q13   1   0.3009  0.1500  0.3973  11.00000  0.05    0.18
Q14   1   0.5025  0.1305  0.8866  11.00000  0.05    0.18
Q15   1   0.3555  0.2083  0.7280  11.00000  0.05    0.17
Q16   1   0.2524  0.1024 -0.1846  11.00000  0.05    0.16
Q17   1   0.1104  0.0497  0.3646  11.00000  0.05    0.16
Q18   1   0.7207 -0.0369  0.1897  11.00000  0.05    0.16
Q19   1   0.3486  0.1682  0.3830  11.00000  0.05    0.15
Q20   1   0.2847  0.0810  0.3158  11.00000  0.05    0.14
;
_shelx_res_checksum              96011
_shelx_hkl_file
;
  -2   0   0 2740.23   88.09
   3   0   0  221.78    7.90
   4   0   0  569.14   19.30
   5   0   0   26.30    2.20
   6   0   0   28.80    2.70
   7   0   0  634.74   21.50
   7   0   0  612.24   22.10
   8   0   0 1612.94   55.79
   8   0   0 1725.63   55.19
   9   0   0 1151.58   38.30
   9   0   0 1109.29   39.20
  10   0   0  115.29    8.00
  10   0   0  126.09    7.10
   9  -1   0  261.67   10.50
   9  -1   0  250.17   11.40
   8  -1   0  251.87   10.80
   7  -1   0   24.60    3.10
   6  -1   0   83.99    4.50
   5  -1   0 2124.69   69.49
   4  -1   0 4355.56  140.39
   3  -1   0 4485.05  144.39
   3  -1   0 4510.55  144.69
   2  -1   0  117.19    4.10
   2  -1   0  111.29    4.20
   2  -1   0  114.29    4.30
  -2   1   0  106.19    4.00
  -2   1   0  112.79    4.30
  -2   1   0  110.69    4.20
   1  -1   0   24.80    1.20
   1  -1   0   24.40    1.20
   1  -1   0   25.40    1.20
  -1   1   0   28.40    1.10
   0  -1   0  238.08    7.30
   0  -1   0  228.68    7.50
   0   1   0  219.48    7.30
   0   1   0  217.78    7.50
  -1  -1   0    2.10    0.30
   1   1   0    2.70    0.30
  -2  -1   0 2855.31   89.49
  -2  -1   0 2763.22   89.19
   2   1   0 2774.92   89.49
   2   1   0 2728.23   89.19
  -3  -1   0 2073.39   66.89
   3   1   0 2060.59   66.99
   3   1   0 2076.69   66.79
   4   1   0 5119.69  167.48
   4   1   0 5303.67  167.48
   5   1   0 4529.35  147.99
   5   1   0 4658.23  148.09
   6   1   0  545.55   18.80
   6   1   0  531.95   18.70
   7   1   0   12.30    2.00
   7   1   0   14.40    2.20
   8   1   0    1.90    1.80
   8   1   0    0.30    2.00
   9   1   0   13.80    3.10
   9   1   0    9.00    2.50
   9  -2   0  117.49    7.20
   8  -2   0  841.12   29.80
   7  -2   0  528.25   19.40
   6  -2   0    5.50    1.70
   5  -2   0   70.29    3.90
   4  -2   0  923.51   30.30
  -4   2   0  879.01   30.30
   3  -2   0   59.29    2.90
  -3   2   0   56.29    2.60
  -3   2   0   65.09    3.00
   2  -2   0  972.60   32.40
   2  -2   0 1010.50   32.50
  -2   2   0  967.30   32.50
  -2   2   0 1011.20   32.40
  -2   2   0 1002.50   32.60
   1  -2   0  211.48    7.30
   1  -2   0  216.68    7.60
   1  -2   0  213.58    7.40
  -1   2   0  206.18    7.40
  -1   2   0  216.18    7.50
  -1   2   0  208.78    7.30
   0  -2   0 1533.15   49.20
   0   2   0 1573.44   49.20
   0   2   0 1492.55   49.70
  -2  -2   0  165.38    5.80
   2   2   0  180.28    5.90
   2   2   0  173.58    6.50
  -3  -2   0    5.00    0.70
   3   2   0    3.60    0.90
   3   2   0    4.60    0.70
   4   2   0    4.00    0.80
   4   2   0    2.90    0.90
   5   2   0    3.50    1.00
   5   2   0    1.20    1.00
   6   2   0  666.43   23.70
   6   2   0  703.93   23.50
   7   2   0  593.84   21.10
   7   2   0  598.04   20.90
   8   2   0  609.64   21.80
   8   2   0  613.44   21.90
   9   2   0  740.43   26.50
   9   2   0  751.82   26.70
   9  -3   0   10.70    3.60
   8  -3   0   21.40    3.40
   7  -3   0    3.20    2.10
   6  -3   0  323.57   12.70
   5  -3   0  432.56   15.60
  -5   3   0  425.26   15.80
   4  -3   0  279.47   10.30
  -4   3   0  268.07    9.70
   3  -3   0  611.54   20.80
  -3   3   0  615.34   20.80
  -3   3   0  606.34   20.40
   2  -3   0   42.80    2.40
  -2   3   0   61.49    2.80
  -2   3   0   53.19    2.50
   1  -3   0  167.58    6.00
  -1   3   0  165.38    6.30
  -1   3   0  173.58    6.40
  -1   3   0  168.58    6.00
   0  -3   0  240.78    8.10
   0   3   0  250.97    8.90
   1   3   0   77.59    3.60
   2   3   0  191.28    7.50
   3   3   0 1286.77   42.80
  -4  -3   0  266.67   10.10
   4   3   0  287.87   11.10
   4   3   0  322.17   10.20
   5   3   0  351.76   13.70
   5   3   0  386.26   12.90
   6   3   0  462.25   16.80
   6   3   0  450.85   15.90
   7   3   0   63.49    4.00
   7   3   0   61.29    4.70
   8   3   0    1.00    2.30
   8   3   0    2.90    2.30
   9   3   0    6.20    3.00
   9   3   0    6.10    2.90
   8  -4   0  297.87   13.00
   7  -4   0  372.66   14.80
   6  -4   0  128.99    6.60
  -6   4   0  122.59    6.90
   5  -4   0    7.60    2.00
  -5   4   0    6.50    1.60
  -5   4   0    6.90    2.20
   4  -4   0    1.40    1.30
  -4   4   0    2.00    1.60
  -4   4   0    0.70    1.20
   3  -4   0  139.39    5.80
  -3   4   0  144.29    5.80
  -3   4   0  133.89    6.00
   2  -4   0  341.97   12.30
  -2   4   0  353.46   12.60
  -2   4   0  369.56   12.80
   1  -4   0 1478.15   50.39
  -1   4   0 1586.34   51.09
  -1   4   0 1613.84   51.29
   0   4   0  358.56   12.70
   0   4   0  342.97   12.70
   1   4   0  513.95   18.10
   2   4   0   15.40    2.20
   3   4   0   23.30    2.80
   4   4   0  265.17   10.80
   5   4   0  136.29    6.90
   5   4   0  138.49    5.40
   6   4   0   20.60    2.40
   6   4   0   17.80    3.00
   7   4   0  335.27   14.00
   7   4   0  349.77   12.90
   8   4   0  554.04   21.20
   7  -5   0   -3.10    2.90
   6  -5   0  132.39    7.10
  -6   5   0  129.59    7.70
   5  -5   0 1057.89   35.70
  -5   5   0 1054.89   35.10
  -5   5   0 1028.80   35.90
   4  -5   0 1625.04   54.29
  -4   5   0 1684.33   54.19
  -4   5   0 1627.84   54.69
   3  -5   0  408.96   14.40
  -3   5   0  414.96   14.60
  -3   5   0  383.86   14.70
   2  -5   0  406.56   14.50
  -2   5   0  421.76   15.30
  -2   5   0  436.26   15.20
   1  -5   0   41.50    2.20
   1  -5   0   33.50    2.50
  -1   5   0   46.50    3.30
  -1   5   0   43.40    3.30
   0   5   0  145.49    6.50
   0   5   0  140.49    6.50
   1   5   0   26.00    3.10
   2   5   0   12.10    2.40
   3   5   0  941.01   32.70
   4   5   0 1046.60   36.30
   5   5   0  354.46   14.50
   6   5   0   94.59    6.70
   7   5   0    4.70    3.60
   5  -6   0  112.49    6.50
  -5   6   0  113.19    6.70
  -5   6   0  109.09    6.30
   4  -6   0   65.69    4.60
  -4   6   0   60.79    5.10
  -4   6   0   76.89    4.90
   3  -6   0   30.00    3.30
  -3   6   0   33.50    3.70
  -3   6   0   32.60    3.80
   2  -6   0   66.59    3.60
  -2   6   0   79.69    4.70
  -2   6   0   63.59    4.70
  -1   6   0  905.91   31.00
  -1   6   0  894.21   31.10
   0   6   0 2022.10   67.99
   0   6   0 2085.09   67.99
   1   6   0 1031.50   35.40
   1   6   0 1026.20   35.60
   2   6   0  243.38   10.80
   3   6   0    8.10    2.90
   4   6   0   90.79    6.70
   5   6   0   52.99    6.10
  -3   7   0  379.86   15.50
  -3   7   0  410.76   15.30
  -2   7   0   35.50    4.50
  -2   7   0   32.90    4.50
  -1   7   0   28.40    4.30
  -1   7   0   29.20    3.90
   0   7   0  175.48    8.90
   0   7   0  174.88    8.80
   1   7   0    8.10    3.00
   1   7   0   13.20    3.30
   2   7   0   81.69    6.60
   2   7   0   79.99    6.20
   3   7   0  107.09    7.90
   3   7  -1  101.59    7.70
   3   7  -1  101.69    7.30
   2   7  -1  308.77   13.60
   2   7  -1  318.87   13.40
   1   7  -1  137.39    7.80
   1   7  -1  138.59    7.80
   0   7  -1   27.90    4.00
   0   7  -1   25.50    3.70
  -1   7  -1   40.50    4.80
  -1   7  -1   36.30    4.70
  -2   7  -1    8.90    2.90
  -2   7  -1    8.70    2.70
   6   6  -1  190.18   10.30
   5   6  -1   85.79    6.80
   4   6  -1    2.20    2.70
   3   6  -1  170.98    8.80
   2   6  -1    4.00    2.30
   2   6  -1    4.40    2.60
   1   6  -1   88.49    5.50
   1   6  -1   77.99    5.40
   0   6  -1  866.51   30.40
   0   6  -1  879.21   30.10
  -1   6  -1  967.70   32.80
  -1   6  -1  954.60   33.20
  -2   6  -1  363.26   14.10
  -2   6  -1  384.46   13.60
   2  -6   1  344.67   12.80
  -3   6  -1   83.89    4.80
  -3   6  -1   70.39    5.20
   3  -6   1   65.59    4.30
  -4   6  -1    6.40    2.20
  -4   6  -1    3.90    2.40
   4  -6   1    3.80    2.40
  -5   6  -1  159.68    8.50
   5  -6   1  177.38    8.30
   7   5  -1   21.50    3.70
   6   5  -1   21.00    3.30
   5   5  -1  352.36   14.40
   4   5  -1 1615.54   54.39
   3   5  -1 2513.45   82.79
   2   5  -1  514.15   18.70
   1   5  -1   96.19    5.30
   1   5  -1  102.59    5.20
   0   5  -1   44.40    3.60
   0   5  -1   42.10    3.20
  -1   5  -1  455.55   16.70
  -1   5  -1  459.45   16.30
   1  -5   1  463.35   15.50
  -2   5  -1   25.80    3.10
  -2   5  -1   26.20    2.60
   2  -5   1   33.30    2.40
  -3   5  -1   17.30    2.40
  -3   5  -1   21.20    2.80
   3  -5   1   14.90    2.10
  -4   5  -1  916.11   32.50
  -4   5  -1  973.00   31.70
   4  -5   1  950.70   32.20
  -5   5  -1 1372.86   47.50
   5  -5   1 1435.16   47.20
  -6   5  -1  548.95   21.30
   6  -5   1  584.64   21.00
   8   4  -1  693.23   25.50
   7   4  -1 1165.38   37.70
   7   4  -1 1094.09   39.10
   6   4  -1  564.84   21.50
   6   4  -1  605.54   19.80
   5   4  -1   -0.70    1.40
   4   4  -1   70.19    4.50
   3   4  -1   74.89    4.40
   2   4  -1   31.10    2.60
   1   4  -1  815.52   27.60
   0   4  -1 1572.44   50.89
   0   4  -1 1530.35   51.09
  -1   4  -1 3841.32  123.59
  -1   4  -1 3830.52  122.79
  -1   4  -1 3828.92  123.19
   1  -4   1 3783.12  122.79
  -2   4  -1 2415.66   76.79
  -2   4  -1 2349.67   76.19
   2  -4   1 2290.67   76.19
  -3   4  -1   10.20    1.90
  -3   4  -1   15.10    1.70
   3  -4   1   13.50    2.00
  -4   4  -1    1.50    1.10
  -4   4  -1    3.10    1.70
   4  -4   1    4.50    1.60
  -5   4  -1  166.28    7.70
   5  -4   1  164.58    7.50
  -6   4  -1   76.59    5.80
   6  -4   1   83.19    5.40
   7  -4   1   46.30    4.90
   8  -4   1  151.58    8.80
   9   3  -1   62.79    5.60
   9   3  -1   62.79    5.10
   8   3  -1  104.19    6.50
   8   3  -1  106.79    5.70
   7   3  -1  395.46   14.00
   7   3  -1  372.66   14.80
   6   3  -1    1.10    1.60
   6   3  -1    5.50    1.30
   5   3  -1  174.38    7.60
   5   3  -1  174.28    6.50
   4   3  -1  475.25   17.00
   4   3  -1  472.85   15.80
   3   3  -1 2524.65   82.19
   2   3  -1 1682.93   55.09
   1   3  -1  277.67    9.90
   0   3  -1  163.78    5.80
   0   3  -1  167.78    6.30
   0   3  -1  171.58    6.60
   0  -3   1  178.18    5.90
  -1   3  -1   59.69    2.70
  -1   3  -1   59.49    3.00
  -1   3  -1   59.49    2.70
   1  -3   1   59.29    2.60
  -2   3  -1    2.40    0.70
  -2   3  -1    2.00    0.90
   2  -3   1    0.10    0.70
  -3   3  -1  274.97    9.40
  -3   3  -1  273.47   10.10
   3  -3   1  262.17    9.90
  -4   3  -1  611.84   21.40
   4  -3   1  615.64   21.20
  -5   3  -1  814.92   28.80
   5  -3   1  850.01   28.60
   6  -3   1 1060.89   36.30
   7  -3   1   71.89    5.40
   8  -3   1    6.50    2.80
   9   2  -1   42.60    4.70
   9   2  -1   42.60    4.60
   8   2  -1  226.78    9.70
   8   2  -1  226.28    9.40
   7   2  -1   87.39    4.70
   7   2  -1   86.69    5.00
   6   2  -1  855.91   29.80
   6   2  -1  896.81   29.50
   5   2  -1    3.50    1.20
   4   2  -1  366.56   13.10
   4   2  -1  364.86   12.50
   3   2  -1  216.98    7.40
   3   2  -1  211.78    7.90
  -3  -2   1  210.88    7.40
   2   2  -1  294.37    9.90
   2   2  -1  304.87   10.60
   2   2  -1  305.97    9.90
   1   2  -1  433.26   14.40
  -1  -2   1  417.36   14.30
   0   2  -1  207.28    7.40
   0   2  -1  211.88    7.20
   0   2  -1  210.48    7.60
   0  -2   1  219.98    7.40
   0  -2   1  216.88    7.20
  -1   2  -1  343.07   12.00
  -1   2  -1  360.56   11.90
  -1   2  -1  354.36   11.60
   1  -2   1  346.07   11.80
   1  -2   1  342.37   11.60
  -2   2  -1 1229.68   39.00
  -2   2  -1 1188.48   38.40
   2  -2   1 1143.99   38.80
   2  -2   1 1188.78   38.50
  -3   2  -1  588.44   19.90
   3  -2   1  584.44   19.80
   3  -2   1  575.24   19.30
  -4   2  -1  183.88    7.60
   4  -2   1  186.78    7.40
   5  -2   1    3.80    1.40
   6  -2   1   26.00    3.10
   7  -2   1   93.99    5.70
   8  -2   1  390.66   15.60
   9  -2   1   69.39    4.90
   9  -2   1   54.19    6.00
  10   1  -1  244.68   10.70
  10   1  -1  232.48   11.10
   9   1  -1   87.79    5.80
   9   1  -1   92.59    5.90
   8   1  -1   29.60    3.50
   8   1  -1   28.10    3.40
   7   1  -1  172.78    7.30
   7   1  -1  170.78    7.40
   6   1  -1   57.19    3.40
   6   1  -1   60.69    3.50
   5   1  -1   70.49    3.50
   4   1  -1  954.40   31.50
   3   1  -1   15.40    1.10
  -3  -1   1   12.40    1.10
   2   1  -1  496.05   16.40
  -2  -1   1  503.45   16.40
   1   1  -1   34.30    1.60
   1   1  -1   36.20    1.40
  -1  -1   1   39.00    1.40
   0   1  -1   23.10    1.00
   0   1  -1   23.90    1.20
   0  -1   1   24.40    1.10
   0  -1   1   23.20    1.00
  -1   1  -1 1424.96   47.70
  -1   1  -1 1460.35   48.10
  -1   1  -1 1516.85   48.10
   1  -1   1 1522.55   47.70
   1  -1   1 1555.94   48.20
   1  -1   1 1447.86   48.10
  -2   1  -1  123.99    4.80
  -2   1  -1  128.19    4.90
   2  -1   1  129.69    4.80
   2  -1   1  118.79    4.40
  -3   1  -1  194.78    7.40
   3  -1   1  192.68    7.20
   3  -1   1  195.48    6.80
   4  -1   1  778.02   24.90
   4  -1   1  691.73   24.40
   5  -1   1  924.61   31.20
   6  -1   1  222.78    9.10
   7  -1   1  266.17    9.80
   7  -1   1  262.17   10.90
   8  -1   1    8.10    2.50
   8  -1   1   10.50    2.10
   9  -1   1  221.08    9.20
   9  -1   1  213.18   10.40
  10   0  -1    1.10    2.60
  10   0  -1    3.70    2.90
   9   0  -1  318.37   13.30
   9   0  -1  324.67   12.70
   8   0  -1 1430.26   48.20
   7   0  -1 1342.77   45.10
   6   0  -1  360.96   13.40
   5   0  -1  713.93   24.30
   4   0  -1  370.66   13.00
   3   0  -1  623.84   20.10
  -3   0   1  584.04   20.10
   2   0  -1  476.35   15.80
  -2   0   1  477.35   15.80
   1   0  -1   22.80    1.10
   1   0  -1   23.10    1.10
  -1   0   1   28.20    1.10
  -1   0  -1 2660.93   81.19
  -1   0  -1 2494.35   80.99
   1   0   1 2442.76   81.19
   1   0   1 2513.15   81.19
  -2   0  -1  734.03   25.20
   2   0   1  759.52   25.20
   2   0   1  809.32   25.20
   2   0   1  756.82   24.80
   3   0   1  480.85   16.00
   3   0   1  484.25   16.40
   4   0   1  166.78    6.00
   4   0   1  161.28    6.40
   5   0   1  299.37   11.90
   5   0   1  351.76   11.50
   6   0   1  390.16   13.50
   6   0   1  375.36   14.10
   7   0   1    0.60    1.70
   7   0   1    1.20    1.40
   8   0   1  538.05   19.90
   8   0   1  533.15   18.90
   9   0   1  651.23   24.50
   9   0   1  690.33   23.70
  10  -1  -1  229.38   11.30
   9  -1  -1   20.90    3.40
   8  -1  -1   20.10    2.90
   7  -1  -1   45.20    3.70
   6  -1  -1   29.00    2.80
   5  -1  -1 1002.80   33.70
   4  -1  -1 4474.95  144.19
   3  -1  -1 9999.00  320.17
   2  -1  -1 3248.27  105.69
   2  -1  -1 3415.06  105.89
  -2   1   1 3190.48  105.79
  -2   1   1 3323.47  105.89
   1  -1  -1   34.10    1.40
   1  -1  -1   34.50    1.60
   1  -1  -1   37.80    1.60
   1  -1  -1   34.90    1.50
  -1   1   1   33.70    1.60
  -1   1   1   35.80    1.40
   0  -1  -1    1.00    0.30
   0  -1  -1    2.00    0.30
   0   1   1    1.60    0.40
   0   1   1    1.90    0.30
  -1  -1  -1 2860.21   89.19
  -1  -1  -1 2742.73   89.29
   1   1   1 2734.53   89.29
  -2  -1  -1  745.13   24.20
  -2  -1  -1  743.33   24.20
   2   1   1  721.43   24.20
   2   1   1  732.63   24.20
   3   1   1    7.50    1.00
   3   1   1    7.90    1.00
   4   1   1 1286.67   41.70
   4   1   1 1253.67   41.70
   5   1   1 3817.42  122.29
   5   1   1 3761.82  122.49
   6   1   1 1127.69   38.00
   6   1   1 1141.19   37.80
   7   1   1  249.88    9.80
   7   1   1  249.38   10.10
   8   1   1    3.80    2.40
   8   1   1    2.40    2.00
   9   1   1   73.19    5.70
   9   1   1   74.89    5.70
   9  -2  -1   91.29    6.50
   8  -2  -1 1327.07   45.30
   7  -2  -1 3047.09   99.89
   6  -2  -1  839.72   29.00
   5  -2  -1  247.28    9.60
   4  -2  -1  237.78    9.00
  -4   2   1  229.18    8.90
  -4   2   1  254.07    8.80
   3  -2  -1  395.96   14.50
  -3   2   1  435.26   14.40
  -3   2   1  430.96   14.40
   2  -2  -1    6.20    0.80
   2  -2  -1    8.90    1.20
  -2   2   1    5.40    0.90
   1  -2  -1  469.15   14.30
   1  -2  -1  366.06   14.40
   1  -2  -1  447.66   14.30
  -1   2   1  426.76   14.20
  -1   2   1  430.86   14.50
   0  -2  -1 4140.69  132.59
  -2  -2  -1 4713.73  150.18
   2   2   1 4657.63  150.68
  -3  -2  -1  190.68    7.30
   3   2   1  211.78    7.30
   3   2   1  203.28    7.70
   4   2   1    7.60    1.20
   5   2   1  330.57   11.80
   5   2   1  322.17   12.00
   6   2   1   19.00    2.60
   6   2   1   16.80    2.40
   7   2   1    4.60    1.90
   7   2   1    1.00    1.80
   8   2   1  245.18   10.30
   8   2   1  242.78   10.30
   9   2   1  737.93   26.40
   9   2   1  734.83   26.30
   9  -3  -1   16.50    3.40
   8  -3  -1   55.99    5.00
   7  -3  -1  233.68   10.20
   6  -3  -1    0.60    1.60
   5  -3  -1  640.74   22.00
  -5   3   1  610.64   21.80
   4  -3  -1  743.43   25.80
  -4   3   1  770.82   25.80
  -4   3   1  769.32   25.50
   3  -3  -1 3292.87  108.89
  -3   3   1 3451.15  108.79
  -3   3   1 3367.56  108.79
   2  -3  -1 2740.23   89.99
  -2   3   1 2888.71   90.09
  -2   3   1 2741.23   90.19
   1  -3  -1  290.07   10.00
   1  -3  -1  295.17   10.00
  -1   3   1  291.77   10.20
  -1   3   1  289.07   10.40
   0  -3  -1   76.99    2.90
   0  -3  -1   78.49    2.90
   0   3   1   77.39    3.60
   1   3   1   21.70    1.80
  -2  -3  -1   19.00    1.20
   2   3   1   21.50    1.30
   2   3   1   21.90    2.00
  -3  -3  -1  613.44   21.50
   3   3   1  674.23   21.60
   3   3   1  668.73   22.60
   4   3   1  623.44   20.50
   4   3   1  593.24   21.30
   5   3   1  848.92   30.40
   5   3   1  924.31   29.80
   6   3   1 1387.36   45.20
   6   3   1 1335.37   45.80
   7   3   1   30.60    3.90
   7   3   1   30.40    3.50
   8   3   1    3.10    2.80
   8   3   1    3.50    2.60
   8  -4  -1  166.18    8.90
   7  -4  -1  393.76   15.50
   6  -4  -1  528.85   19.20
  -6   4   1  513.35   19.20
   5  -4  -1    5.70    1.90
  -5   4   1   10.80    2.10
  -5   4   1    6.30    1.60
   4  -4  -1    3.80    1.50
  -4   4   1    1.50    1.20
  -4   4   1    1.10    1.40
   3  -4  -1  170.48    6.60
  -3   4   1  145.39    6.50
  -3   4   1  169.68    6.70
   2  -4  -1   16.50    1.60
  -2   4   1   14.40    1.80
  -2   4   1   17.10    2.10
   1  -4  -1  810.52   27.30
   1  -4  -1  856.41   27.30
  -1   4   1  845.42   27.80
  -1   4   1  809.62   28.00
   0   4   1  611.34   21.10
   1   4   1 1075.09   36.20
   2   4   1  669.73   23.40
   3   4   1  341.77   13.10
   4   4   1   14.30    2.30
   4   4   1   18.30    1.80
   5   4   1   39.60    2.80
   5   4   1   38.50    3.80
   6   4   1    5.10    2.40
   6   4   1    9.60    2.20
   7   4   1   96.99    6.10
   7   4   1   79.69    6.00
   8   4   1  327.87   14.20
   7  -5  -1   -2.30    2.80
   6  -5  -1    9.70    2.80
  -6   5   1    9.50    3.00
  -6   5   1    4.90    2.30
   5  -5  -1  238.58    9.90
  -5   5   1  226.68    9.90
  -5   5   1  244.18    9.70
   4  -5  -1  849.41   29.10
  -4   5   1  873.61   29.20
  -4   5   1  841.22   29.20
   3  -5  -1  158.08    6.60
  -3   5   1  162.48    7.00
  -3   5   1  154.08    6.80
   2  -5  -1  613.44   20.90
  -2   5   1  622.24   21.70
  -2   5   1  629.04   21.50
   1  -5  -1   99.79    4.10
  -1   5   1  107.79    5.30
  -1   5   1  109.69    5.20
   0   5   1   27.80    3.00
   0   5   1   28.50    2.90
   1   5   1    1.80    1.80
   2   5   1   26.10    3.40
   3   5   1  363.26   14.40
   4   5   1  778.12   27.90
   5   5   1  421.86   16.70
   6   5   1  313.37   13.40
   6  -6  -1  275.47   12.00
  -6   6   1  283.37   11.80
  -6   6   1  272.27   12.30
   5  -6  -1   50.89    4.70
  -5   6   1   54.29    5.10
  -5   6   1   56.59    4.90
   4  -6  -1    4.50    2.00
  -4   6   1    2.50    2.30
  -4   6   1    1.40    2.20
   3  -6  -1   69.69    4.20
  -3   6   1   69.89    4.70
  -3   6   1   60.29    4.60
   2  -6  -1    0.60    1.40
  -2   6   1    0.80    1.90
  -2   6   1    1.60    1.80
  -1   6   1   82.89    5.10
  -1   6   1   85.39    5.30
   0   6   1 1022.60   34.90
   0   6   1 1020.00   35.20
   1   6   1  928.91   32.50
   1   6   1  951.70   32.90
   2   6   1  386.76   15.60
   3   6   1  191.08    9.70
   4   6   1    0.20    2.80
   5   6   1   26.00    4.60
  -3   7   1  990.60   34.10
  -3   7   1  970.70   34.00
  -2   7   1  510.55   19.00
  -2   7   1  505.65   19.10
  -1   7   1  140.69    7.30
  -1   7   1  125.89    7.50
   0   7   1    9.20    3.20
   0   7   1    9.50    3.00
   1   7   1   86.89    6.00
   1   7   1   81.09    6.50
   2   7   1   -0.60    3.10
   2   7   1   -0.10    3.60
   3   7  -2   94.69    7.30
   3   7  -2  102.69    7.40
   2   7  -2  440.66   17.60
   2   7  -2  448.16   17.90
   1   7  -2  502.85   18.80
   1   7  -2  490.15   19.20
   0   7  -2   30.20    4.70
   0   7  -2   46.60    5.10
  -1   7  -2   11.60    3.20
  -1   7  -2   13.50    3.00
   6   6  -2  214.38   11.00
   5   6  -2  381.76   15.80
   4   6  -2  218.48   10.30
   3   6  -2   39.90    4.60
   2   6  -2    3.10    2.60
   2   6  -2    9.50    2.70
   1   6  -2    2.30    2.00
   1   6  -2   -1.00    2.10
   0   6  -2   69.09    5.10
   0   6  -2   78.59    4.80
  -1   6  -2  400.16   14.60
  -1   6  -2  391.36   15.40
  -2   6  -2  295.27   10.80
  -2   6  -2  280.17   11.70
   2  -6   2  264.97   10.50
  -3   6  -2  225.58    8.70
  -3   6  -2  212.78    9.80
   3  -6   2  202.58    8.80
  -4   6  -2  181.28    9.10
   4  -6   2  195.18    8.70
   7   5  -2   10.60    3.50
   6   5  -2   37.30    4.90
   5   5  -2    6.50    2.60
   4   5  -2  266.97   11.30
   3   5  -2 1262.77   42.70
   2   5  -2  777.72   27.00
   1   5  -2  642.94   22.60
   1   5  -2  627.94   22.10
   0   5  -2  422.26   15.00
   0   5  -2  416.66   15.60
  -1   5  -2   23.90    3.00
  -1   5  -2   27.20    2.70
   1  -5   2   27.30    2.20
  -2   5  -2   75.39    4.70
  -2   5  -2   82.49    4.10
   2  -5   2   77.89    4.10
  -3   5  -2   55.79    4.40
  -3   5  -2   62.79    3.40
   3  -5   2   52.29    3.80
  -4   5  -2  109.89    6.40
  -4   5  -2  116.19    5.10
   4  -5   2  111.69    5.90
  -5   5  -2  449.95   17.40
   5  -5   2  450.85   17.00
  -6   5  -2  473.35   18.70
   6  -5   2  478.95   18.20
   8   4  -2  321.87   13.70
   7   4  -2 1424.36   45.20
   7   4  -2 1312.27   46.70
   6   4  -2 1346.57   42.90
   6   4  -2 1277.67   44.70
   5   4  -2  415.76   15.80
   4   4  -2   94.09    5.20
   3   4  -2    6.70    1.70
   2   4  -2  476.25   16.90
   1   4  -2   14.50    2.20
   1   4  -2   16.50    2.00
   0   4  -2  331.57   12.90
   0   4  -2  346.37   12.40
   0   4  -2  348.07   11.90
   0  -4   2  373.66   12.00
  -1   4  -2 2377.86   77.29
  -1   4  -2 2406.66   76.59
   1  -4   2 2311.37   76.49
  -2   4  -2 4117.39  134.69
  -2   4  -2 4209.98  133.79
   2  -4   2 4154.38  134.19
  -3   4  -2  651.93   21.50
  -3   4  -2  641.24   22.60
   3  -4   2  645.24   22.20
  -4   4  -2  469.85   17.40
   4  -4   2  483.35   17.20
  -5   4  -2   -0.10    2.20
   5  -4   2    2.70    1.90
  -6   4  -2  175.08    9.00
   6  -4   2  185.18    8.60
   7  -4   2   51.19    5.20
   9   3  -2  132.79    7.10
   9   3  -2  141.59    7.80
   8   3  -2   63.89    5.20
   8   3  -2   66.69    4.30
   7   3  -2  139.79    6.90
   7   3  -2  127.89    5.90
   6   3  -2   45.10    3.80
   6   3  -2   52.99    2.90
   5   3  -2   14.70    2.10
   5   3  -2   17.20    1.60
   4   3  -2  401.26   13.70
   4   3  -2  403.96   14.70
   4   3  -2  413.26   13.70
   3   3  -2 4160.18  136.89
   3   3  -2 4269.07  138.09
   3   3  -2 4390.36  136.99
   2   3  -2 4992.90  160.78
   1   3  -2 3007.60   91.39
   1   3  -2 2663.13   91.89
  -1  -3   2 2867.21   91.39
   0   3  -2   43.80    2.60
   0   3  -2   52.39    2.40
   0   3  -2   41.80    2.20
   0  -3   2   47.20    2.20
  -1   3  -2    1.80    0.60
  -1   3  -2    1.20    0.80
   1  -3   2    1.10    0.70
   1  -3   2    0.90    0.70
  -2   3  -2  296.97   10.90
  -2   3  -2  301.47   10.00
   2  -3   2  291.07   10.60
   2  -3   2  296.07   10.10
  -3   3  -2   49.20    3.30
   3  -3   2   50.59    2.40
   3  -3   2   59.99    3.30
  -4   3  -2  339.07   12.90
   4  -3   2  347.27   11.70
   4  -3   2  337.17   12.70
  -5   3  -2  971.20   34.30
   5  -3   2 1022.10   34.00
   6  -3   2 2207.68   72.99
   7  -3   2 1266.27   43.40
   8  -3   2  182.78    9.40
  10   2  -2   60.19    5.70
  10   2  -2   62.59    6.10
   9   2  -2   27.40    4.00
   9   2  -2   20.90    3.20
   8   2  -2  466.05   17.30
   8   2  -2  487.55   17.80
   7   2  -2  797.92   27.10
   7   2  -2  783.12   27.40
   6   2  -2 3727.83  117.19
   6   2  -2 3512.05  117.49
   5   2  -2  987.20   34.50
   5   2  -2 1073.49   34.10
   4   2  -2   19.10    1.40
   4   2  -2   15.00    1.80
   3   2  -2   41.00    2.00
   3   2  -2   42.10    2.40
   3   2  -2   38.60    1.90
   2   2  -2  627.14   20.20
   2   2  -2  602.64   20.60
  -2  -2   2  619.94   20.20
   1   2  -2    5.70    0.90
   1   2  -2    7.80    0.80
  -1  -2   2    6.00    0.70
   0   2  -2 1076.19   33.30
   0   2  -2  988.70   33.00
   0   2  -2  979.80   33.40
   0  -2   2 1024.40   33.00
   0  -2   2 1020.00   33.20
  -1   2  -2 1200.68   39.50
  -1   2  -2 1220.18   38.80
   1  -2   2 1184.58   39.40
   1  -2   2 1215.48   38.80
  -2   2  -2 4656.53  147.99
   2  -2   2 4538.45  147.89
  -3   2  -2 3071.19   97.39
   3  -2   2 2958.50   96.29
   3  -2   2 2977.70   97.29
  -4   2  -2   73.29    4.30
   4  -2   2   72.49    3.20
   4  -2   2   81.59    4.10
   6  -2   2    2.30    1.70
   7  -2   2    2.40    2.40
   7  -2   2    1.00    1.50
   8  -2   2  230.38   10.60
  10   1  -2  484.75   18.40
  10   1  -2  479.85   18.80
   9   1  -2  436.56   17.00
   9   1  -2  452.95   16.90
   8   1  -2   14.60    2.50
   8   1  -2   12.50    2.30
   7   1  -2   61.99    4.00
   6   1  -2  131.99    5.90
   5   1  -2   37.30    2.40
   4   1  -2  720.53   24.10
   3   1  -2  470.85   16.00
   3   1  -2  481.85   16.00
   2   1  -2 2016.90   63.39
  -2  -1   2 1911.21   63.29
   1   1  -2 3563.94  114.39
   0   1  -2  104.39    3.80
   0   1  -2  110.69    4.10
   0   1  -2  112.29    4.20
   0  -1   2  111.59    4.20
   0  -1   2  118.49    4.20
  -1   1  -2  140.89    5.20
  -1   1  -2  139.39    5.30
   1  -1   2  138.19    5.20
   1  -1   2  138.89    5.30
  -2   1  -2   28.10    1.80
   2  -1   2   28.40    1.70
  -3   1  -2    5.00    1.20
   3  -1   2    2.70    0.90
   3  -1   2    4.90    0.70
   3  -1   2    5.00    0.70
   4  -1   2  251.97    8.50
   4  -1   2  258.67    9.50
   4  -1   2  230.08    8.70
   5  -1   2  881.41   27.90
   5  -1   2  816.72   28.90
   6  -1   2  358.46   11.90
   6  -1   2  321.37   13.00
   7  -1   2  778.22   28.50
   7  -1   2  849.32   27.30
   8  -1   2  238.48   10.90
   8  -1   2  258.47    9.70
   9  -1   2   23.90    3.90
  10   0  -2  103.09    7.10
  10   0  -2   98.79    6.40
   9   0  -2    7.00    2.90
   8   0  -2  323.27   13.00
   7   0  -2  350.06   13.40
   6   0  -2  464.65   16.70
   5   0  -2 1511.15   49.70
   4   0  -2  221.48    8.20
   3   0  -2   17.70    1.30
   2   0  -2  101.69    4.00
   2   0  -2  108.49    4.10
   1   0  -2  505.95   16.40
   1   0  -2  490.85   16.20
  -1   0   2  486.85   16.30
  -1   0   2  490.85   16.40
   0   0  -2 2910.81   89.59
   0   0  -2 2892.31   89.29
   0   0  -2 2689.33   89.29
   0   0   2 2724.93   89.59
   0   0   2 2615.74   89.29
   0   0   2 2890.01   89.39
  -1   0  -2  739.33   24.60
  -1   0  -2  716.23   24.50
  -1   0  -2  763.42   24.20
   1   0   2  791.62   24.40
   1   0   2  734.13   24.20
   1   0   2  734.63   24.60
   2   0   2   69.89    3.10
   2   0   2   69.49    2.60
   3   0   2 1359.56   45.80
   3   0   2 1436.96   45.30
   4   0   2   28.00    1.70
   4   0   2   27.40    2.20
   5   0   2   24.50    1.80
   5   0   2   24.60    2.40
   6   0   2  255.47    9.10
   6   0   2  235.18    9.90
   7   0   2    0.10    1.90
   7   0   2    4.20    1.50
   8   0   2   51.69    4.60
   8   0   2   57.89    4.30
   9   0   2  293.07   13.10
   9   0   2  304.07   11.90
  10  -1  -2  271.47   12.50
   9  -1  -2  226.88   10.60
   8  -1  -2   35.10    4.00
   7  -1  -2   15.10    2.30
   6  -1  -2  255.67   10.10
   5  -1  -2   11.00    1.60
   4  -1  -2  556.84   19.10
   3  -1  -2 3527.45  111.79
   3  -1  -2 3303.37  112.09
  -3   1   2 3598.24  111.99
   2  -1  -2 1940.21   63.19
   2  -1  -2 1984.60   63.69
   2  -1  -2 1945.61   63.69
   2  -1  -2 2018.50   63.69
  -2   1   2 1956.60   63.69
   1  -1  -2  536.55   17.30
   1  -1  -2  514.15   17.20
  -1   1   2  505.05   17.20
   0  -1  -2 2941.91   89.59
   0   1   2 2734.33   89.49
   0   1   2 2678.73   89.59
  -1  -1  -2  762.82   24.40
  -1  -1  -2  760.22   24.40
   1   1   2  700.43   24.40
   1   1   2  747.83   24.50
  -2  -1  -2   40.30    2.20
   2   1   2   44.60    2.20
   2   1   2   42.50    2.10
   3   1   2  211.38    7.70
   3   1   2  209.18    7.90
   4   1   2   25.60    1.80
   4   1   2   25.90    2.10
   5   1   2 1512.75   47.00
   5   1   2 1346.87   47.30
   6   1   2  666.33   22.40
   6   1   2  636.24   22.80
   7   1   2  246.08   10.30
   7   1   2  249.68    9.80
   8   1   2  145.09    7.60
   8   1   2  136.49    6.90
   9   1   2    7.00    3.30
   9   1   2   10.10    3.40
  10  -2  -2    2.10    3.00
   9  -2  -2   40.20    4.90
   8  -2  -2  253.27   11.10
   7  -2  -2 2042.00   67.79
   6  -2  -2 1112.99   37.70
   5  -2  -2 1150.08   38.50
   4  -2  -2   29.60    2.20
  -4   2   2   28.00    2.10
   3  -2  -2  176.18    6.90
   3  -2  -2  177.28    6.60
  -3   2   2  186.08    6.80
  -3   2   2  185.78    6.60
   2  -2  -2  609.54   20.40
   2  -2  -2  603.14   20.80
  -2   2   2  647.64   20.40
  -2   2   2  627.84   20.90
   1  -2  -2  304.87   10.60
  -1   2   2  317.77   10.30
  -1   2   2  305.67   10.80
   0  -2  -2  178.58    6.40
   0   2   2  184.38    6.50
   0   2   2  178.98    6.70
  -1  -2  -2 4927.11  154.88
   1   2   2 4688.53  155.18
   1   2   2 4868.81  154.98
   2   2   2 4606.24  147.29
   2   2   2 4546.04  147.09
   3   2   2 1584.84   51.09
   3   2   2 1538.35   51.19
   4   2   2  671.43   22.50
   4   2   2  644.84   22.50
   5   2   2    1.70    1.30
   5   2   2   -0.20    1.20
   6   2   2  169.78    7.40
   6   2   2  167.18    7.40
   7   2   2  162.58    7.50
   7   2   2  156.18    7.50
   8   2   2   -3.80    2.60
   8   2   2    4.20    2.60
   9  -3  -2   83.79    6.30
   8  -3  -2    5.70    2.70
   7  -3  -2  281.97   11.80
   6  -3  -2  434.06   16.20
   5  -3  -2   27.50    2.70
  -5   3   2   19.30    2.30
   4  -3  -2   48.20    3.00
  -4   3   2   47.60    3.00
  -4   3   2   46.70    2.80
   3  -3  -2 2630.54   88.79
  -3   3   2 2764.52   88.79
  -3   3   2 2822.62   88.49
   2  -3  -2 5289.57  172.78
  -2   3   2 5286.57  172.98
  -2   3   2 5557.14  172.58
   1  -3  -2 1720.43   54.79
   1  -3  -2 1686.33   54.79
  -1   3   2 1717.23   54.69
  -1   3   2 1630.44   55.19
   0  -3  -2  188.78    6.70
   0   3   2  187.48    6.80
   0   3   2  191.78    7.30
  -1  -3  -2   19.80    1.40
   1   3   2   19.30    2.00
   1   3   2   21.80    1.40
  -2  -3  -2  716.23   24.00
   2   3   2  724.43   24.10
   2   3   2  737.53   24.80
   3   3   2   15.10    2.10
   3   3   2   19.90    1.80
   4   3   2   18.10    2.50
   4   3   2   20.00    2.20
   5   3   2  545.65   18.50
   5   3   2  495.35   18.70
   6   3   2 2204.68   70.79
   6   3   2 2077.49   70.29
   7   3   2  576.74   21.10
   8   3   2  195.58    9.50
   8   3   2  191.18    9.10
   8  -4  -2  120.39    7.50
   7  -4  -2  644.14   23.50
   6  -4  -2 1588.94   53.19
  -6   4   2 1579.14   52.49
   5  -4  -2  528.65   19.40
  -5   4   2  550.94   19.10
  -5   4   2  537.85   19.00
   4  -4  -2    9.30    1.80
  -4   4   2    9.00    1.80
  -4   4   2   16.30    2.40
   3  -4  -2  372.76   13.40
  -3   4   2  385.36   13.20
  -3   4   2  360.16   13.50
   2  -4  -2  597.24   20.00
  -2   4   2  599.74   20.00
  -2   4   2  574.04   20.50
   1  -4  -2   34.30    2.10
  -1   4   2   29.50    2.60
  -1   4   2   32.70    2.10
   0  -4  -2   14.10    1.40
   0  -4  -2   13.30    1.60
   0   4   2   14.10    2.10
  -1  -4  -2  698.63   22.90
   1   4   2  698.53   24.30
  -2  -4  -2 1370.36   46.40
   2   4   2 1459.55   46.40
   2   4   2 1467.35   47.90
   3   4   2 1257.67   42.40
   3   4   2 1251.77   40.90
   4   4   2   67.09    4.60
   4   4   2   72.79    3.60
   5   4   2   16.80    2.40
   5   4   2   18.10    2.80
   6   4   2    3.40    2.30
   6   4   2    0.80    2.40
   7   4   2   21.90    3.60
   7  -5  -2   31.10    4.80
   6  -5  -2  111.19    6.60
  -6   5   2  106.09    6.00
  -6   5   2  105.29    6.40
   5  -5  -2    6.30    2.30
  -5   5   2    4.70    2.00
  -5   5   2    2.50    2.20
   4  -5  -2  406.46   14.50
  -4   5   2  383.06   14.20
  -4   5   2  379.96   14.50
   3  -5  -2  131.59    5.80
  -3   5   2  124.89    6.10
  -3   5   2  117.79    5.60
   2  -5  -2  847.52   27.80
  -2   5   2  834.62   28.00
  -2   5   2  806.62   28.50
   1  -5  -2  535.05   18.10
  -1   5   2  561.44   18.80
  -1   5   2  521.35   19.30
   0   5   2   15.80    2.30
   0   5   2   12.70    2.40
   1   5   2   34.30    3.50
   2   5   2  394.16   15.40
   3   5   2    3.70    2.30
   4   5   2   90.89    6.20
   5   5   2  106.49    6.90
   6   5   2  251.57   11.70
   6  -6  -2  244.18   11.20
  -6   6   2  239.78   10.70
  -6   6   2  249.28   11.20
   5  -6  -2  205.38    9.20
  -5   6   2  201.08    9.30
  -5   6   2  206.08    9.30
   4  -6  -2   76.59    5.10
  -4   6   2   97.49    5.80
  -4   6   2   84.89    5.20
   3  -6  -2   48.20    4.00
  -3   6   2   47.50    4.00
  -3   6   2   46.50    4.20
   2  -6  -2    6.50    1.70
  -2   6   2    9.40    2.20
  -2   6   2    5.90    2.10
  -1   6   2    6.40    2.10
  -1   6   2    8.70    2.40
   0   6   2  240.38    9.80
   0   6   2  230.08   10.50
   1   6   2  370.56   15.00
   1   6   2  380.46   14.40
   2   6   2  111.29    7.00
   3   6   2  166.48    9.10
   4   6   2    4.50    3.40
  -3   7   2  571.14   20.60
  -3   7   2  520.75   20.00
  -2   7   2  418.06   16.50
  -2   7   2  415.16   15.90
  -1   7   2  296.27   12.20
  -1   7   2  306.17   13.10
   0   7   2   93.59    6.90
   0   7   2   86.99    6.00
   1   7   2    6.20    3.80
   1   7   2    7.40    3.10
   2   7  -3  553.24   21.90
   2   7  -3  593.94   21.50
   1   7  -3 1064.99   37.10
   1   7  -3 1032.00   36.10
   0   7  -3  398.36   15.20
   0   7  -3  393.26   16.00
   6   6  -3  146.39    9.20
   5   6  -3  328.17   14.10
   4   6  -3  444.96   17.40
   3   6  -3   35.50    4.60
   3   6  -3   36.00    4.30
   2   6  -3   55.59    4.80
   2   6  -3   45.50    4.60
   1   6  -3   68.99    5.20
   1   6  -3   74.49    5.00
   0   6  -3   43.20    4.40
   0   6  -3   40.10    3.70
  -1   6  -3   82.89    5.60
  -1   6  -3   82.99    4.70
  -2   6  -3  228.38   10.10
   2  -6   3  213.78    9.00
  -3   6  -3  393.96   15.70
   3  -6   3  389.76   14.90
  -4   6  -3  521.55   19.80
   4  -6   3  504.65   19.00
   7   5  -3   19.90    3.90
   6   5  -3   69.19    5.90
   5   5  -3   87.89    6.00
   4   5  -3   37.70    4.00
   3   5  -3   21.50    3.30
   2   5  -3  117.19    6.40
   2   5  -3  120.99    5.90
   1   5  -3  171.18    7.30
   1   5  -3  166.88    7.80
   0   5  -3  418.56   16.20
   0   5  -3  440.46   15.30
   0  -5   3  436.46   14.90
  -1   5  -3   16.60    2.50
  -1   5  -3   17.00    2.30
   1  -5   3   21.90    2.60
  -2   5  -3   54.29    4.30
  -2   5  -3   57.29    3.10
   2  -5   3   57.59    3.70
  -3   5  -3  123.99    6.80
   3  -5   3  127.29    6.20
  -4   5  -3    4.80    2.50
   4  -5   3   -3.00    2.20
  -5   5  -3   23.60    3.80
   5  -5   3   23.80    3.50
   8   4  -3    1.50    2.70
   7   4  -3  205.48    7.90
   7   4  -3  191.28    9.50
   6   4  -3  659.63   24.10
   6   4  -3  664.03   22.10
   5   4  -3  408.86   13.90
   5   4  -3  419.96   15.80
   4   4  -3  442.36   16.30
   3   4  -3  341.47   12.80
   2   4  -3  349.87   13.30
   2   4  -3  396.06   12.40
  -2  -4   3  353.86   12.30
   1   4  -3  158.88    6.60
   1   4  -3  172.18    6.40
   1   4  -3  167.78    7.30
  -1  -4   3  171.48    6.20
   0   4  -3  143.59    5.70
   0   4  -3  139.29    6.40
   0  -4   3  150.78    5.70
  -1   4  -3   18.40    2.50
   1  -4   3   12.90    1.70
  -2   4  -3  618.04   22.00
  -2   4  -3  656.53   20.80
   2  -4   3  666.63   21.80
   2  -4   3  578.94   20.70
  -3   4  -3  125.79    6.30
   3  -4   3  133.79    6.10
  -4   4  -3  245.58   10.70
   4  -4   3  269.07   10.60
  -5   4  -3   45.20    5.00
   5  -4   3   52.19    4.50
  -6   4  -3   93.19    7.00
   6  -4   3   91.09    6.20
   9   3  -3  352.76   14.30
   9   3  -3  330.77   13.30
   8   3  -3  394.16   15.40
   8   3  -3  386.36   14.50
   7   3  -3   60.79    4.00
   7   3  -3   83.79    5.10
   6   3  -3   15.40    2.30
   6   3  -3   18.90    2.20
   5   3  -3  167.68    7.40
   5   3  -3  167.88    6.40
   4   3  -3    2.10    1.20
   4   3  -3    2.00    0.90
   4   3  -3    2.20    1.30
   3   3  -3  906.11   29.60
   3   3  -3  914.01   29.60
   3   3  -3  885.01   30.30
   2   3  -3 2807.22   87.29
   2   3  -3 2595.54   87.69
  -2  -3   3 2722.73   87.29
   1   3  -3 3342.97  110.59
   1   3  -3 3542.75  109.89
   1   3  -3 3314.47  109.99
  -1  -3   3 3457.65  109.89
   0   3  -3  596.24   20.20
   0   3  -3  608.04   21.00
   0  -3   3  628.84   20.60
  -1   3  -3  274.67    9.20
  -1   3  -3  270.57   10.20
   1  -3   3  269.97    9.90
  -2   3  -3   61.39    3.50
   2  -3   3   56.49    3.30
  -3   3  -3  965.70   33.30
   3  -3   3 1004.10   33.30
  -4   3  -3  176.38    8.00
   4  -3   3  178.58    7.70
  -5   3  -3   12.30    2.80
   6  -3   3  377.46   14.90
   7  -3   3  587.04   22.00
  10   2  -3  107.19    6.90
  10   2  -3   98.09    7.20
   9   2  -3  133.79    7.30
   9   2  -3  136.09    7.40
   8   2  -3   52.19    4.50
   8   2  -3   58.39    4.40
   7   2  -3  243.18   10.30
   7   2  -3  257.97   10.00
   6   2  -3 3336.37  110.19
   6   2  -3 3435.96  109.79
   5   2  -3 4168.78  130.89
   5   2  -3 3942.01  131.29
   4   2  -3  766.32   26.80
   4   2  -3  820.12   26.50
   3   2  -3  551.64   17.90
   3   2  -3  485.95   17.40
   2   2  -3  191.08    6.80
   2   2  -3  180.28    6.90
  -2  -2   3  185.38    6.70
   1   2  -3  400.26   13.90
   1   2  -3  389.26   13.40
   1   2  -3  402.36   13.60
  -1  -2   3  406.36   13.60
   0   2  -3   54.69    2.80
   0   2  -3   57.59    2.30
   0  -2   3   58.79    2.80
  -1   2  -3  590.24   20.10
   1  -2   3  595.34   20.10
  -2   2  -3 3216.98  102.59
   2  -2   3 3124.39  102.69
  -3   2  -3 4270.27  139.29
   3  -2   3 4346.06  139.29
  -4   2  -3 1187.68   39.90
   4  -2   3 1172.98   39.60
   5  -2   3  146.39    6.90
   6  -2   3    4.90    2.00
   7  -2   3  284.17   12.10
   8  -2   3   93.59    7.00
  10   1  -3  802.32   29.00
  10   1  -3  801.22   28.60
   9   1  -3 1329.87   45.40
   8   1  -3  381.36   14.70
   7   1  -3   90.59    5.00
   6   1  -3   57.79    3.50
   5   1  -3  778.92   26.30
   4   1  -3    2.60    0.80
   2   1  -3 3494.65  109.19
  -2  -1   3 3283.27  109.09
   0   1  -3 4459.85  142.99
   0   1  -3 4396.56  143.49
   0  -1   3 4562.74  143.59
   0  -1   3 4464.45  143.79
  -1   1  -3  217.18    7.80
   1  -1   3  216.08    8.00
  -2   1  -3    3.80    1.00
   2  -1   3    4.70    1.00
  -3   1  -3    2.90    1.40
   3  -1   3    3.70    1.10
   4  -1   3   68.09    3.00
   4  -1   3   70.49    4.00
   4  -1   3   74.89    2.80
   5  -1   3  356.06   14.20
   5  -1   3  408.46   13.00
   6  -1   3  461.75   15.10
   6  -1   3  423.86   16.50
   7  -1   3 1205.58   38.20
   7  -1   3 1116.09   39.90
   8  -1   3  826.42   29.70
  10   0  -3   64.19    6.10
   9   0  -3  106.09    6.80
   8   0  -3   16.00    2.70
   7   0  -3  317.27   12.40
   6   0  -3  493.75   17.70
   5   0  -3 2491.95   81.19
   4   0  -3 1803.42   58.99
   3   0  -3  155.48    6.00
   2   0  -3   15.10    1.40
  -2   0   3   16.60    1.30
   1   0  -3  683.33   21.20
   1   0  -3  630.84   21.00
  -1   0   3  645.24   21.30
  -1   0   3  620.74   21.50
   0   0  -3  222.28    7.60
   0   0  -3  216.98    7.60
   0   0   3  213.08    7.60
   0   0   3  231.48    8.10
   0   0   3  231.48    7.60
  -1   0  -3  497.45   15.70
  -1   0  -3  454.95   16.20
   1   0   3  489.25   16.00
   1   0   3  478.95   15.70
   1   0   3  474.25   16.40
  -2   0  -3 1402.76   44.40
   2   0   3 1359.66   45.10
   2   0   3 1355.46   44.30
   3   0   3 2276.97   74.09
   3   0   3 2264.67   73.09
   4   0   3 1664.03   52.29
   4   0   3 1558.64   53.19
   5   0   3  404.76   13.20
   5   0   3  354.96   14.10
   6   0   3    5.80    1.90
   6   0   3   10.20    1.60
   7   0   3    5.40    2.60
   7   0   3    8.00    1.80
   8   0   3   26.60    3.80
   8   0   3   21.30    3.60
  10  -1  -3  314.47   14.00
   9  -1  -3  671.23   24.80
   8  -1  -3  768.62   27.50
   7  -1  -3  102.19    5.60
   6  -1  -3  114.29    5.60
   5  -1  -3    9.60    1.60
   4  -1  -3  102.29    4.40
   4  -1  -3   99.79    4.60
   3  -1  -3 1004.50   32.90
   3  -1  -3 1006.30   33.60
  -3   1   3 1026.50   33.50
  -2   1   3  472.45   16.40
  -2   1   3  487.65   16.30
  -1   1   3   17.50    1.30
  -1   1   3   17.80    1.30
   0  -1  -3 2206.98   71.39
   0   1   3 2149.88   71.59
   0   1   3 2346.67   70.99
   0   1   3 2139.69   71.39
  -1  -1  -3   11.40    1.30
   1   1   3   11.70    1.10
   1   1   3    7.80    1.00
   2   1   3  206.78    7.50
   2   1   3  208.48    7.90
   3   1   3    7.20    1.30
   3   1   3    8.10    1.20
   5   1   3  505.15   18.50
   5   1   3  528.05   17.90
   6   1   3  520.15   19.20
   6   1   3  532.65   18.40
   7   1   3  397.66   15.80
   7   1   3  423.76   15.00
   8   1   3  420.46   17.10
   8   1   3  458.45   16.30
  10  -2  -3   41.00    6.00
   9  -2  -3    6.40    2.80
   8  -2  -3   27.10    3.90
   7  -2  -3  994.40   34.40
   6  -2  -3 1038.40   35.40
   5  -2  -3 1124.79   37.80
   4  -2  -3 1001.30   32.20
   4  -2  -3  853.21   31.40
  -4   2   3 1016.80   32.00
   3  -2  -3  571.64   19.50
   3  -2  -3  562.44   18.70
  -3   2   3  569.64   19.40
  -2   2   3   43.50    2.40
  -1   2   3  212.68    7.70
  -1   2   3  205.68    7.70
   0   2   3    3.50    0.80
   0   2   3    4.30    0.90
   1   2   3  199.88    7.50
   1   2   3  198.58    7.40
   2   2   3 1547.55   50.29
   2   2   3 1518.55   50.19
   3   2   3  559.64   19.80
   3   2   3  584.64   19.70
   4   2   3  318.57   11.20
   4   2   3  278.57   11.30
   5   2   3  196.88    8.20
   5   2   3  201.08    8.50
   6   2   3   25.20    3.40
   6   2   3   21.90    3.40
   7   2   3   91.19    5.90
   7   2   3  102.89    5.90
   8   2   3    5.40    3.10
   8   2   3    7.40    3.10
   9  -3  -3  415.66   17.00
   8  -3  -3  564.24   21.30
   7  -3  -3  248.48   10.80
   6  -3  -3   47.80    4.00
   5  -3  -3   10.60    1.90
  -5   3   3    9.90    1.80
   4  -3  -3    2.90    1.20
  -4   3   3    1.30    1.20
   3  -3  -3  929.61   31.10
  -3   3   3  879.31   31.00
  -3   3   3  969.40   30.40
   2  -3  -3 4249.38  138.39
  -2   3   3 4341.87  137.69
  -2   3   3 4286.17  138.59
  -1   3   3 2662.63   85.09
  -1   3   3 2625.54   85.89
   0   3   3 1263.17   41.50
   0   3   3 1269.37   42.00
   1   3   3  483.75   18.80
   1   3   3  603.84   18.50
   2   3   3   16.00    2.20
   2   3   3   21.00    2.00
   3   3   3  307.87   11.40
   3   3   3  302.67   11.60
   4   3   3   56.09    3.90
   4   3   3   57.99    4.10
   5   3   3    1.30    1.90
   5   3   3    0.30    2.00
   6   3   3  777.02   26.90
   6   3   3  755.12   26.90
   7   3   3  451.75   17.20
   7   3   3  450.65   17.30
   8  -4  -3   12.70    3.40
   7  -4  -3  222.88   10.20
   6  -4  -3 2012.60   66.19
  -6   4   3 1967.70   65.69
   5  -4  -3 2398.96   79.59
  -5   4   3 2441.36   79.29
   4  -4  -3 1047.80   35.90
  -4   4   3 1126.89   35.30
  -4   4   3 1018.00   35.80
   3  -4  -3  370.46   13.30
  -3   4   3  381.66   12.70
  -3   4   3  336.77   13.30
   2  -4  -3    9.40    1.50
  -2   4   3   16.30    2.10
  -2   4   3   10.80    1.40
   1  -4  -3   80.59    3.70
  -1   4   3   78.09    4.40
  -1   4   3   85.29    3.60
   0   4   3   18.80    2.50
   1   4   3  351.46   11.90
   1   4   3  325.27   12.80
   2   4   3 1225.68   41.50
   2   4   3 1303.57   42.80
   3   4   3 2822.02   93.99
   3   4   3 2911.01   92.89
   4   4   3  931.01   32.60
   4   4   3  947.21   31.70
   5   4   3  157.68    8.10
   5   4   3  159.58    7.50
   6   4   3   53.69    5.40
   6   4   3   52.89    5.00
   7  -5  -3    1.40    3.00
   6  -5  -3  187.48    8.80
  -6   5   3  164.38    8.20
   5  -5  -3  367.96   14.40
  -5   5   3  382.06   13.80
  -5   5   3  356.56   14.10
   4  -5  -3   16.30    2.50
  -4   5   3   13.40    2.30
  -4   5   3   13.60    2.00
   3  -5  -3   20.40    2.90
  -3   5   3   21.80    2.70
  -3   5   3   26.20    2.80
   2  -5  -3 1318.47   42.50
  -2   5   3 1225.18   43.10
  -2   5   3 1304.37   42.30
   1  -5  -3 2643.14   86.09
  -1   5   3 2569.94   87.19
  -1   5   3 2760.42   86.29
   0  -5  -3  933.51   31.50
   0   5   3  994.80   32.20
   0   5   3  941.11   33.00
  -1  -5  -3  365.46   12.50
   1   5   3  358.06   14.10
   2   5   3    4.00    2.30
   3   5   3    0.60    2.60
   4   5   3    0.20    2.70
   5   5   3   56.09    5.70
  -6   6   3  154.38    8.20
   5  -6  -3  454.85   17.10
  -5   6   3  426.86   16.90
  -5   6   3  444.16   16.50
   4  -6  -3  342.27   13.60
  -4   6   3  348.97   13.90
  -4   6   3  361.16   13.30
   3  -6  -3   40.70    3.80
  -3   6   3   34.60    3.50
  -3   6   3   40.60    4.40
   2  -6  -3   36.10    3.50
  -2   6   3   44.30    3.50
  -2   6   3   38.50    4.30
  -1   6   3  181.48    8.90
  -1   6   3  182.98    7.80
   0   6   3    3.10    2.50
   0   6   3    8.60    2.20
   1   6   3  189.08    8.60
   1   6   3  192.28    9.50
   2   6   3  160.58    8.70
   3   6   3  682.33   25.60
   4   6   3  480.55   19.30
  -2   7   3  107.79    7.40
  -2   7   3  101.89    6.10
  -1   7   3  103.19    7.40
  -1   7   3  108.39    6.30
   0   7   3  103.29    6.50
   0   7   3  114.09    7.60
   5   6  -4  935.71   33.40
   4   6  -4 1905.31   63.79
   3   6  -4  350.46   14.50
   3   6  -4  335.37   13.70
   2   6  -4   82.59    5.50
   2   6  -4   87.39    6.20
   1   6  -4    0.60    2.40
   1   6  -4    1.80    2.60
   0   6  -4   77.59    4.70
   0   6  -4   76.49    5.70
  -1   6  -4    0.60    2.50
  -2   6  -4  197.98    9.50
   2  -6   4  178.68    8.50
  -3   6  -4  541.55   19.90
   3  -6   4  492.15   19.10
   7   5  -4  303.07   13.60
   6   5  -4    1.40    2.60
   5   5  -4   15.20    3.10
   4   5  -4   15.70    2.80
   3   5  -4   11.00    2.40
   2   5  -4  387.56   14.80
   2   5  -4  366.76   13.90
   1   5  -4  864.81   31.00
   1   5  -4  899.51   30.00
  -1  -5   4  903.01   29.50
   0   5  -4 1770.12   60.39
   0   5  -4 1814.02   58.99
   0  -5   4 1843.12   59.29
  -1   5  -4  982.00   34.10
  -1   5  -4 1049.49   32.50
   1  -5   4  928.81   33.30
  -2   5  -4  108.89    6.50
   2  -5   4  120.19    6.10
  -3   5  -4    1.80    2.50
   3  -5   4    1.20    2.40
  -4   5  -4    7.50    2.90
   4  -5   4    9.30    2.80
  -5   5  -4   -2.50    3.30
   5  -5   4    0.30    2.90
   8   4  -4  100.19    7.00
   7   4  -4   11.30    2.80
   7   4  -4    8.20    2.00
   6   4  -4   92.09    6.00
   6   4  -4   92.59    4.30
   5   4  -4  197.88    8.90
   5   4  -4  194.38    7.20
   4   4  -4  612.24   20.40
   4   4  -4  609.14   21.70
   3   4  -4  973.70   32.90
   2   4  -4    9.40    2.20
   2   4  -4   10.00    1.70
  -2  -4   4   10.60    1.40
   1   4  -4    2.30    1.60
   1   4  -4    2.10    1.10
  -1  -4   4    2.10    1.20
   0   4  -4    3.60    1.00
   0   4  -4    1.80    1.40
   0  -4   4    3.50    1.40
  -1   4  -4    1.10    0.80
  -1   4  -4   -0.30    1.60
   1  -4   4   -0.10    1.70
  -2   4  -4  487.45   18.00
   2  -4   4  499.85   17.80
  -3   4  -4  257.07   10.80
   3  -4   4  262.87   10.60
  -4   4  -4  553.04   21.00
   4  -4   4  592.04   20.90
  -5   4  -4  565.24   21.60
   5  -4   4  578.34   21.20
  -6   4  -4   63.59    6.90
   6  -4   4   66.09    5.80
   9   3  -4  181.08    8.70
   9   3  -4  189.68    9.60
   8   3  -4  331.07   13.10
   8   3  -4  355.16   14.10
   7   3  -4  340.77   12.90
   7   3  -4  357.16   14.00
   6   3  -4   27.30    3.40
   6   3  -4   31.70    2.80
   5   3  -4  116.49    6.00
   5   3  -4  129.09    5.30
   4   3  -4  298.07   10.60
   4   3  -4  298.07   11.40
   3   3  -4    2.30    1.10
  -3  -3   4    2.60    1.00
   2   3  -4   40.10    3.00
   2   3  -4   46.90    2.60
  -2  -3   4   45.20    2.50
   1   3  -4  718.23   24.20
   1   3  -4  725.23   24.90
  -1  -3   4  743.73   24.50
   0   3  -4  272.37    9.20
   0   3  -4  258.37   10.20
   0  -3   4  278.17   10.10
  -1   3  -4  614.04   21.90
   1  -3   4  654.43   21.90
  -2   3  -4  340.67   13.00
   2  -3   4  356.66   13.00
  -3   3  -4  163.88    7.60
   3  -3   4  173.58    7.50
  -4   3  -4    1.30    2.20
   4  -3   4    4.40    2.00
  -5   3  -4    5.20    3.30
   5  -3   4    0.70    2.10
   6  -3   4   98.49    6.30
   7  -3   4  398.26   16.30
  10   2  -4   78.89    6.40
  10   2  -4   67.59    6.30
   9   2  -4   77.39    5.80
   9   2  -4   74.39    5.70
   8   2  -4    6.50    2.30
   8   2  -4    4.20    2.20
   7   2  -4   45.40    3.60
   7   2  -4   47.10    3.90
   6   2  -4  645.34   22.40
   5   2  -4 1506.35   49.60
   4   2  -4  694.53   23.50
  -3  -2   4 1016.60   33.70
  -2  -2   4   31.00    2.00
   1   2  -4  231.88    8.90
   1   2  -4  239.78    8.40
  -1  -2   4  251.57    8.90
   0   2  -4  843.32   27.90
   0   2  -4  856.81   27.90
   0   2  -4  865.71   28.80
   0  -2   4  888.61   29.00
  -1   2  -4  190.08    7.30
   1  -2   4  183.68    7.50
  -2   2  -4   77.89    4.20
   2  -2   4   85.69    4.30
  -3   2  -4 1222.38   40.70
   3  -2   4 1202.88   40.70
  -4   2  -4  786.92   27.80
   4  -2   4  797.02   27.60
   5  -2   4  427.36   16.20
   6  -2   4  199.38    9.30
   7  -2   4   12.90    3.30
  10   1  -4  372.36   15.50
   9   1  -4 1590.34   53.89
   8   1  -4 1593.44   53.49
   7   1  -4  314.47   12.30
   6   1  -4  235.78    9.40
   5   1  -4  311.17   11.60
   4   1  -4  457.65   16.10
  -3  -1   4  100.69    4.40
  -2  -1   4  553.14   18.80
   1   1  -4 4683.53  142.09
   1   1  -4 4278.77  142.29
  -1  -1   4 4330.17  142.69
   0   1  -4 4284.87  139.99
   0   1  -4 4527.05  139.39
   0  -1   4 4248.67  140.39
  -1   1  -4  787.92   26.10
   1  -1   4  776.22   26.50
  -2   1  -4  246.18    9.40
   2  -1   4  252.57    9.70
  -3   1  -4   73.09    4.30
   3  -1   4   69.59    4.10
   4  -1   4  821.42   28.40
   5  -1   4   85.89    5.20
   6  -1   4    5.20    2.40
   7  -1   4  375.86   15.20
  10   0  -4   38.50    5.40
   9   0  -4  180.38    9.20
   8   0  -4  155.68    7.90
   7   0  -4    2.50    1.70
   6   0  -4  501.05   18.10
   5   0  -4 4468.05  144.59
   4   0  -4 5673.83  182.78
  -3   0   4 1671.63   54.79
   2   0  -4  215.08    7.20
  -2   0   4  203.88    7.90
   1   0  -4  359.06   12.30
   1   0  -4  356.26   12.10
  -1   0   4  372.36   12.40
  -1   0   4  360.16   12.80
   0   0  -4  540.55   17.50
   0   0  -4  524.45   17.70
   0   0   4  554.94   17.70
   0   0   4  541.35   18.30
   0   0   4  492.25   17.50
  -1   0  -4  163.88    6.30
  -1   0  -4  160.38    5.70
   1   0   4  159.28    6.60
   1   0   4  158.78    5.70
  -2   0  -4   29.10    1.70
   2   0   4   36.80    2.70
   2   0   4   27.60    1.60
   3   0   4 1640.34   52.59
   3   0   4 1606.94   53.69
   4   0   4 2016.80   63.29
   4   0   4 1894.61   64.49
   5   0   4  961.70   34.10
   5   0   4 1030.00   32.80
   6   0   4   26.40    3.60
   6   0   4   26.50    2.60
   7   0   4    1.90    2.60
   7   0   4   -0.20    1.90
   8   0   4   42.00    5.50
  10  -1  -4   89.19    7.00
   9  -1  -4  477.55   18.70
   8  -1  -4 1246.08   42.80
   7  -1  -4  382.96   14.80
   6  -1  -4   61.59    4.00
   5  -1  -4  170.48    7.30
   4  -1  -4  437.16   15.60
  -3   1   4    1.10    0.80
  -3   1   4    2.10    0.90
  -2   1   4  710.73   23.30
  -2   1   4  680.13   23.50
  -1   1   4  920.81   29.60
  -1   1   4  866.41   29.80
   0   1   4 5106.39  171.08
   0   1   4 5650.83  170.18
   0   1   4 5187.98  170.68
   1   1   4 1280.27   43.80
   1   1   4 1293.37   43.10
   1   1   4 1391.36   43.00
   2   1   4   27.90    1.80
   2   1   4   26.00    2.50
   3   1   4    0.70    0.90
   3   1   4    1.30    1.30
   4   1   4  282.27   10.00
   4   1   4  265.77   10.90
   5   1   4    7.20    1.70
   5   1   4    7.00    2.10
   6   1   4   16.40    3.00
   6   1   4   17.40    2.30
   7   1   4  165.68    7.20
   7   1   4  144.09    8.10
  10  -2  -4    9.20    3.40
   9  -2  -4  160.08    8.80
   8  -2  -4  202.88    9.60
   7  -2  -4    8.00    2.10
   6  -2  -4   37.40    3.40
   5  -2  -4  422.36   15.80
  -5   2   4  441.36   15.70
   4  -2  -4  631.84   22.40
   4  -2  -4  637.54   21.30
  -4   2   4  666.63   22.30
   3  -2  -4  822.42   27.40
  -3   2   4  788.62   27.20
  -2   2   4   19.40    1.90
  -2   2   4   17.50    1.90
  -1   2   4  348.37   12.50
  -1   2   4  354.16   12.50
   0   2   4    6.50    1.10
   0   2   4    5.00    1.00
   1   2   4    4.50    1.30
   1   2   4    2.40    0.90
   2   2   4  632.74   21.40
   2   2   4  618.24   21.80
   3   2   4  348.57   13.10
   3   2   4  346.47   12.60
   4   2   4  538.55   19.50
   4   2   4  542.25   19.00
   5   2   4  462.05   17.30
   5   2   4  464.55   16.70
   6   2   4   15.30    3.10
   6   2   4   11.90    2.50
   7   2   4   48.40    5.40
   7   2   4   64.09    5.10
   9  -3  -4  126.59    7.90
   8  -3  -4  305.27   13.10
   7  -3  -4  433.46   16.80
   6  -3  -4    7.90    2.20
  -6   3   4    8.50    2.10
   5  -3  -4   24.20    2.90
  -5   3   4   22.60    2.90
   4  -3  -4  296.67   11.50
  -4   3   4  299.97   11.30
   3  -3  -4    4.20    1.50
  -3   3   4    3.70    1.30
  -2   3   4  388.66   14.00
  -1   3   4  482.15   16.50
  -1   3   4  456.15   16.60
   0   3   4  281.37   10.60
   0   3   4  279.77   10.40
   1   3   4  566.74   20.10
   1   3   4  585.04   19.90
   2   3   4   27.80    2.80
   2   3   4   20.80    2.60
   3   3   4   64.99    4.20
   3   3   4   61.79    4.10
   4   3   4   53.29    4.40
   4   3   4   52.99    4.20
   5   3   4   22.10    3.10
   5   3   4   23.70    3.50
   6   3   4  231.58   10.50
   6   3   4  221.38   10.00
   7   3   4  172.98    9.40
   7   3   4  181.48    9.00
   8  -4  -4    3.20    3.00
   7  -4  -4    6.40    3.00
   6  -4  -4  432.96   16.80
  -6   4   4  446.76   16.50
   5  -4  -4 1123.59   38.30
  -5   4   4 1118.29   38.00
   4  -4  -4  618.24   21.80
  -4   4   4  614.14   21.80
   3  -4  -4  447.36   16.70
  -3   4   4  503.75   15.70
  -3   4   4  442.26   16.80
   2  -4  -4   95.79    4.80
  -2   4   4   88.99    5.00
  -2   4   4  103.99    3.90
   1  -4  -4   71.69    3.90
  -1   4   4   76.89    3.20
  -1   4   4   69.49    4.40
   0   4   4  270.17   10.90
   0   4   4  274.77   10.20
   1   4   4   19.80    2.40
   1   4   4   18.80    2.60
   2   4   4   63.59    4.50
   2   4   4   63.69    3.90
   3   4   4  907.71   31.00
   3   4   4  871.81   30.30
   4   4   4  556.74   20.30
   4   4   4  538.45   19.80
   5   4   4  211.28    9.90
   5   4   4  213.98    9.80
   6   4   4  217.98   10.30
   6   4   4  209.48   10.40
   7  -5  -4  486.85   19.20
  -7   5   4  488.95   18.60
   6  -5  -4  152.28    8.10
  -6   5   4  151.38    7.80
   5  -5  -4   35.90    4.30
  -5   5   4   38.20    4.40
   4  -5  -4   19.30    2.80
  -4   5   4   18.70    2.20
  -4   5   4   15.90    2.80
   3  -5  -4   43.20    3.90
  -3   5   4   44.20    2.90
  -3   5   4   36.00    4.00
   2  -5  -4  230.98    9.40
  -2   5   4  242.98    8.70
  -2   5   4  229.18   10.00
   1  -5  -4 1544.75   51.69
  -1   5   4 1513.55   52.69
  -1   5   4 1652.23   51.39
   0  -5  -4 1029.70   35.70
   0   5   4 1072.79   37.00
   0   5   4 1120.99   35.80
   1   5   4  761.42   27.10
   2   5   4   84.49    4.60
   2   5   4   79.69    5.70
   3   5   4    2.50    2.60
   4   5   4   70.79    6.20
   5   5   4   71.39    7.20
   5  -6  -4 1065.09   36.60
  -5   6   4 1038.90   36.50
   4  -6  -4 2017.90   67.19
  -4   6   4 2034.70   67.59
   3  -6  -4  440.76   16.30
  -3   6   4  440.66   17.10
  -2   6   4  218.98   10.30
  -2   6   4  232.48    8.80
  -1   6   4    0.40    2.40
  -1   6   4   11.50    2.10
   0   6   4   91.99    5.10
   0   6   4   83.29    6.40
   1   6   4    2.50    2.90
   1   6   4    3.70    2.50
   2   6   4   10.70    3.50
   3   6   4  455.05   18.30
   4   6  -5  837.72   32.20
   4   6  -5  948.31   31.60
   3   6  -5  418.26   16.90
   3   6  -5  412.36   15.90
   2   6  -5  219.68    9.30
   2   6  -5  201.88   10.20
   1   6  -5   61.59    5.70
   0   6  -5  125.29    7.60
  -1   6  -5  183.08    9.50
   7   5  -5  949.40   34.10
   6   5  -5  156.78    8.60
   5   5  -5    2.10    2.60
   4   5  -5   39.60    4.40
   3   5  -5  354.36   14.20
   3   5  -5  336.37   13.20
   2   5  -5    2.80    2.40
  -2  -5   5    3.40    1.70
   1   5  -5  252.87    9.40
   1   5  -5  227.48   10.50
  -1  -5   5  243.58    9.40
   0   5  -5 1079.69   39.10
   0   5  -5 1240.28   38.00
   0  -5   5 1099.19   38.30
  -1   5  -5 1496.75   50.49
   1  -5   5 1488.95   49.99
  -2   5  -5  461.85   17.70
   2  -5   5  456.65   17.30
  -3   5  -5   18.80    3.70
   3  -5   5   18.50    3.30
  -4   5  -5    4.80    3.30
   4  -5   5   -0.70    3.10
   8   4  -5   39.90    5.50
   7   4  -5   33.90    4.70
   7   4  -5   35.00    3.50
   6   4  -5   29.50    4.10
   6   4  -5   24.30    3.00
   5   4  -5  389.16   13.70
   5   4  -5  379.26   14.80
   4   4  -5 1154.48   37.70
   4   4  -5 1127.69   38.60
   3   4  -5 2267.47   76.19
   3   4  -5 2344.07   76.99
  -3  -4   5 2381.26   75.79
   2   4  -5  530.25   18.40
   2   4  -5  519.35   19.30
  -2  -4   5  541.85   18.40
   1   4  -5    5.60    2.00
   1   4  -5    7.10    1.30
  -1  -4   5    7.70    1.90
   0   4  -5    7.90    2.00
   0   4  -5    6.10    1.10
   0  -4   5    7.60    1.90
  -1   4  -5  164.68    7.60
   1  -4   5  162.58    7.50
  -2   4  -5    2.10    2.10
   2  -4   5    4.70    2.20
  -3   4  -5   45.40    4.80
   3  -4   5   47.80    4.50
  -4   4  -5  547.85   21.20
   4  -4   5  588.44   21.30
  -5   4  -5  695.23   26.70
   5  -4   5  743.63   26.30
   9   3  -5  151.18    8.00
   9   3  -5  153.18    8.90
   8   3  -5  565.04   20.80
   8   3  -5  530.45   19.80
   7   3  -5 1146.59   38.90
   7   3  -5 1105.99   37.90
   6   3  -5  767.02   26.20
   6   3  -5  764.82   27.00
   5   3  -5   14.50    2.40
   5   3  -5   16.80    2.60
   4   3  -5   19.80    2.80
   3   3  -5   12.30    1.80
  -3  -3   5   14.20    1.80
   2   3  -5   21.50    2.60
   2   3  -5   19.00    2.00
  -2  -3   5   19.90    2.20
   1   3  -5  598.54   21.20
   1   3  -5  592.74   20.20
  -1  -3   5  626.94   21.10
   0   3  -5  429.06   14.70
   0  -3   5  370.36   14.50
  -1   3  -5  809.72   28.40
   1  -3   5  851.61   28.70
  -2   3  -5 1002.70   34.60
   2  -3   5 1032.30   34.80
  -3   3  -5    2.70    2.20
   3  -3   5    1.60    2.00
  -4   3  -5   -0.90    2.80
   4  -3   5    4.60    2.30
  -5   3  -5    3.40    3.60
   5  -3   5    0.80    2.50
   6  -3   5   -3.00    3.00
  10   2  -5  356.76   15.30
  10   2  -5  383.46   15.60
   9   2  -5    2.60    2.70
   9   2  -5    1.80    2.40
   8   2  -5    5.60    2.30
   7   2  -5   78.59    4.80
   6   2  -5   57.79    4.00
   5   2  -5  510.45   18.10
  -4  -2   5  427.36   15.30
  -3  -2   5 1112.99   37.00
   2   2  -5 1123.59   37.10
  -2  -2   5 1111.39   37.20
   1   2  -5  225.58    8.10
   1   2  -5  236.18    8.20
   1   2  -5  233.48    8.80
  -1  -2   5  242.08    9.10
   0   2  -5   62.19    3.60
   0  -2   5   71.99    4.10
  -1   2  -5    5.80    1.50
   1  -2   5    4.80    1.60
  -2   2  -5   26.20    2.90
   2  -2   5   23.10    2.90
  -3   2  -5  147.49    7.10
   3  -2   5  144.09    7.10
  -4   2  -5  417.96   16.00
   4  -2   5  401.16   15.60
   5  -2   5  225.58   10.10
   6  -2   5  250.07   11.30
  10   1  -5    3.40    3.40
   9   1  -5  375.36   15.30
   8   1  -5  893.31   31.40
   7   1  -5  318.67   12.60
   6   1  -5 1208.58   40.80
   5   1  -5  223.78    9.00
  -4  -1   5  160.78    6.80
  -3  -1   5    9.30    1.50
   2   1  -5    7.30    1.00
  -2  -1   5    8.80    1.40
   1   1  -5  946.71   30.80
   1   1  -5  926.51   31.10
  -1  -1   5  955.90   31.80
   0   1  -5 2017.60   65.29
   0   1  -5 1993.00   64.59
   0  -1   5 2019.60   65.99
  -1   1  -5  898.71   30.40
   1  -1   5  918.61   31.00
  -2   1  -5  769.12   26.90
   2  -1   5  806.32   27.40
   3  -1   5  374.46   14.30
   4  -1   5   98.19    5.60
   5  -1   5   83.89    5.50
   6  -1   5   11.40    3.00
   7  -1   5   15.20    3.40
  10   0  -5  296.17   13.40
   9   0  -5   33.70    4.80
   8   0  -5   53.19    4.60
   7   0  -5  142.89    7.20
   6   0  -5   12.70    2.20
   5   0  -5  736.43   25.60
  -3   0   5 2369.56   77.39
   2   0  -5 1478.85   47.40
  -2   0   5 1452.45   48.40
   1   0  -5  694.93   22.80
  -1   0   5  688.63   23.80
  -1   0   5  698.23   23.10
   0   0  -5   31.30    2.00
   0   0   5   28.70    2.60
   0   0   5   26.90    1.80
  -1   0  -5  341.17   11.30
   1   0   5  321.27   11.30
   1   0   5  336.17   12.60
  -2   0  -5   23.90    1.90
   2   0   5   21.60    1.50
   2   0   5   21.70    2.80
   3   0   5  372.16   12.40
   3   0   5  355.16   13.90
   4   0   5  987.50   34.40
   4   0   5 1003.80   32.60
   5   0   5 1684.73   58.59
   5   0   5 1807.02   56.69
   6   0   5  329.17   13.60
   7   0   5  179.98    9.50
  10  -1  -5    5.50    3.50
   9  -1  -5  449.56   18.00
   8  -1  -5 2225.78   74.29
   7  -1  -5 2151.38   71.49
   6  -1  -5  369.56   14.30
   5  -1  -5  215.28    9.00
   4  -1  -5  282.67   11.00
  -3   1   5  706.03   25.10
  -3   1   5  754.42   24.80
  -2   1   5   37.60    2.70
  -2   1   5   32.00    2.30
  -1   1   5   64.89    3.10
  -1   1   5   61.99    3.60
   0   1   5 4968.90  146.39
   0   1   5 4348.67  147.39
   0   1   5 4367.16  146.69
   1   1   5 3800.52  121.69
   1   1   5 3754.92  122.59
   2   1   5 1434.66   45.90
   2   1   5 1371.36   47.00
   3   1   5  506.45   16.70
   3   1   5  464.95   17.90
   4   1   5    9.40    1.60
   4   1   5    5.30    2.10
   5   1   5   20.40    3.30
   5   1   5   25.50    3.00
   6   1   5   29.10    3.60
   6   1   5   30.90    4.60
   7   1   5   61.19    6.20
  10  -2  -5  165.18    9.70
   9  -2  -5    5.40    3.00
   8  -2  -5  175.68    8.90
   7  -2  -5   87.49    5.70
   6  -2  -5   13.20    2.40
   5  -2  -5  460.55   16.10
   5  -2  -5  495.05   17.70
  -5   2   5  484.25   17.40
   4  -2  -5 1413.56   46.20
  -4   2   5 1345.57   45.80
  -3   2   5 4009.30  128.29
  -3   2   5 3921.81  128.59
  -2   2   5 1035.10   33.50
  -2   2   5  942.81   33.10
  -1   2   5    2.90    1.30
  -1   2   5    1.80    1.10
   0   2   5    1.60    1.10
   0   2   5    3.60    1.50
   1   2   5  329.47   12.50
   1   2   5  361.36   13.10
   2   2   5    2.40    1.40
   2   2   5    2.80    1.80
   3   2   5  199.98    8.10
   3   2   5  200.88    8.90
   4   2   5  473.55   17.10
   4   2   5  487.05   18.20
   5   2   5 1419.96   47.30
   5   2   5 1420.96   48.40
   6   2   5  659.33   22.50
   6   2   5  605.44   23.50
   9  -3  -5   49.90    5.90
   8  -3  -5  374.66   15.60
   7  -3  -5 1150.38   39.90
   6  -3  -5  199.28    9.00
  -6   3   5  182.88    8.50
   5  -3  -5   12.80    2.30
  -5   3   5   11.40    2.10
   4  -3  -5  126.89    6.20
  -4   3   5  126.69    6.10
   3  -3  -5  169.08    7.40
  -3   3   5  169.18    7.30
  -1   3   5  122.79    6.20
  -1   3   5  159.68    6.50
   0   3   5  304.47   12.30
   0   3   5  359.66   12.60
   1   3   5  804.52   27.40
   1   3   5  788.92   27.30
   2   3   5  496.85   17.70
   2   3   5  485.75   17.90
   3   3   5    3.40    2.40
   3   3   5   -1.20    1.80
   4   3   5   25.00    3.10
   4   3   5   23.90    3.70
   5   3   5   25.00    3.90
   5   3   5   22.40    3.50
   6   3   5   12.90    4.10
   6   3   5   11.10    3.50
   8  -4  -5   27.90    4.20
   7  -4  -5   59.29    5.40
   6  -4  -5    4.50    2.50
  -6   4   5    5.10    2.60
   5  -4  -5  390.46   15.20
  -5   4   5  385.56   14.90
   4  -4  -5  193.08    8.60
  -4   4   5  184.58    8.40
   3  -4  -5  405.06   14.80
  -3   4   5  387.26   14.90
   2  -4  -5  423.06   15.40
  -2   4   5  413.96   15.60
  -1   4   5    3.80    1.80
  -1   4   5    6.50    1.90
   0   4   5  131.69    6.20
   0   4   5  129.69    6.60
   1   4   5   34.10    3.70
   1   4   5   36.10    3.50
   2   4   5   16.80    2.80
   2   4   5   20.00    2.90
   3   4   5  141.39    7.30
   3   4   5  147.69    7.50
   4   4   5  211.08   10.00
   4   4   5  207.98    9.80
   5   4   5   54.39    6.30
   5   4   5   46.60    5.80
   7  -5  -5  177.98    9.70
  -7   5   5  174.68    9.30
   6  -5  -5  229.18   10.60
  -6   5   5  208.58   10.10
   5  -5  -5    3.80    2.70
  -5   5   5   -0.20    2.20
   4  -5  -5   12.60    2.80
  -4   5   5   12.00    2.70
   3  -5  -5  101.49    5.70
  -3   5   5   86.39    5.80
   2  -5  -5    3.60    2.20
  -2   5   5    0.80    2.10
   1  -5  -5  327.27   12.80
  -1   5   5  356.06   13.90
   0   5   5  351.66   14.40
   0   5   5  364.16   12.70
   1   5   5  408.36   16.20
   1   5   5  416.96   15.10
   2   5   5  106.09    6.70
   2   5   5  102.39    5.90
   3   5   5   48.90    5.50
   4   5   5   72.19    6.90
   4  -6  -5  918.31   31.80
  -4   6   5  897.81   32.30
   3  -6  -5  305.27   12.40
  -3   6   5  300.47   13.00
   2  -6  -5  254.47   13.50
  -2   6   5  350.96   13.30
  -1   6   5   93.19    6.60
   0   6   5   56.49    5.90
   1   6   5   21.90    4.40
   3   6  -6  153.78    8.70
   3   6  -6  145.79    7.80
   2   6  -6  223.78   10.70
   1   6  -6  279.37   12.50
   6   5  -6  429.56   17.10
   5   5  -6  208.48    9.90
   4   5  -6  139.49    7.30
   4   5  -6  136.29    7.90
   3   5  -6  156.68    8.40
   3   5  -6  163.58    7.50
  -3  -5   6  161.68    7.70
   2   5  -6   94.49    5.00
   2   5  -6   89.79    6.20
  -2  -5   6   96.99    5.30
   1   5  -6    3.40    2.50
  -1  -5   6    9.60    2.60
   0   5  -6  130.49    7.50
   0  -5   6  137.99    7.20
  -1   5  -6  592.94   21.70
   1  -5   6  565.54   21.30
  -2   5  -6  480.15   18.40
   2  -5   6  462.05   18.20
   8   4  -6    1.00    3.20
   7   4  -6  118.49    7.50
   7   4  -6  125.19    6.30
   6   4  -6  171.58    7.60
   6   4  -6  176.48    8.70
   5   4  -6    8.50    2.50
   5   4  -6    7.00    2.00
   4   4  -6  415.96   16.30
   4   4  -6  428.16   15.70
   3   4  -6 1821.52   60.79
   3   4  -6 1882.91   61.69
  -3  -4   6 1842.62   60.79
   2   4  -6 1496.65   49.20
   2   4  -6 1462.35   50.19
  -2  -4   6 1529.35   49.70
   1   4  -6  508.75   17.20
   1   4  -6  498.55   18.70
  -1  -4   6  520.65   18.50
   0   4  -6  116.79    6.40
   0  -4   6  123.89    6.50
  -1   4  -6   90.99    5.70
   1  -4   6   79.59    5.70
  -2   4  -6  175.48    8.80
   2  -4   6  194.58    9.20
  -3   4  -6   90.29    6.40
   3  -4   6   85.89    6.40
  -4   4  -6   52.09    6.60
   4  -4   6   73.79    6.00
   9   3  -6    1.10    2.80
   9   3  -6    0.70    3.10
   8   3  -6  213.48    9.70
   8   3  -6  230.28   10.70
   7   3  -6  968.90   33.40
   7   3  -6  983.60   34.20
   6   3  -6 1328.77   46.00
   6   3  -6 1391.56   45.60
   5   3  -6  182.28    8.30
   5   3  -6  194.08    8.10
   4   3  -6   11.10    2.00
  -4  -3   6    6.80    1.80
   3   3  -6   49.20    3.60
   3   3  -6   53.19    3.90
  -3  -3   6   44.30    3.40
   2   3  -6  390.26   14.50
   2   3  -6  382.86   13.70
  -2  -3   6  403.96   14.50
   1   3  -6    2.20    1.00
   1   3  -6    3.10    1.60
  -1  -3   6   -0.20    1.80
   0   3  -6  298.87   11.70
   0  -3   6  302.97   11.90
  -1   3  -6 1019.80   35.10
   1  -3   6 1045.00   35.60
  -2   3  -6 2216.18   73.59
   2  -3   6 2243.28   73.99
  -3   3  -6  357.66   14.40
   3  -3   6  357.86   14.50
  -4   3  -6  101.19    7.20
   4  -3   6   93.79    6.50
   5  -3   6    7.20    3.30
   9   2  -6   63.59    5.90
   8   2  -6   17.60    3.20
   7   2  -6  225.18    9.90
   6   2  -6  187.88    8.30
   5   2  -6   13.60    2.20
  -4  -2   6   33.80    3.10
   3   2  -6  808.32   29.70
  -3  -2   6  959.90   30.20
   2   2  -6 1104.29   35.60
  -2  -2   6 1022.80   35.80
   1   2  -6  777.42   26.10
   1   2  -6  749.33   25.20
   1   2  -6  757.62   25.30
  -1  -2   6  791.52   26.70
   0   2  -6    2.60    1.40
   0  -2   6    6.20    1.90
  -1   2  -6   27.80    3.00
   1  -2   6   25.40    3.30
  -2   2  -6    2.10    2.20
   2  -2   6    3.00    2.20
  -3   2  -6    2.60    2.80
   3  -2   6    6.60    2.50
   4  -2   6  190.18    9.20
   5  -2   6  260.77   11.80
  10   1  -6   22.20    4.10
   9   1  -6    2.10    2.70
   8   1  -6  358.96   14.50
   7   1  -6   87.19    5.50
   6   1  -6  939.41   32.40
   5   1  -6  361.06   13.80
  -4  -1   6   41.60    3.30
   3   1  -6  111.19    4.60
  -3  -1   6  107.69    5.30
   2   1  -6  240.78    8.60
  -2  -1   6  232.18    9.40
   1   1  -6   -1.50    1.00
  -1  -1   6    1.20    1.40
   0   1  -6   87.99    4.10
   0   1  -6   81.19    3.40
   0  -1   6   83.89    4.90
  -1   1  -6  193.78    8.20
   1  -1   6  218.58    9.10
  -2   1  -6  331.07   12.60
   2  -1   6  317.87   13.00
   3  -1   6  423.96   16.40
   4  -1   6    1.70    2.50
   5  -1   6   11.10    3.20
   6  -1   6    1.30    3.60
  10   0  -6  354.06   15.50
   9   0  -6  485.05   19.10
   8   0  -6   99.39    6.40
   7   0  -6   65.89    5.00
   6   0  -6    1.60    1.80
   5   0  -6   10.00    2.00
  -4   0   6  423.36   15.60
   3   0  -6  436.66   14.90
  -3   0   6  452.75   16.20
   2   0  -6  416.26   14.00
  -2   0   6  415.16   15.20
   1   0  -6  328.57   11.60
  -1   0   6  333.17   12.70
  -1   0   6  342.87   11.90
   0   0  -6   33.40    2.40
   0   0   6   27.00    3.00
   0   0   6   28.10    2.00
   1   0   6  339.87   11.80
   1   0   6  346.57   13.40
   2   0   6  223.58    9.80
   2   0   6  225.98    8.00
   3   0   6    6.20    2.40
   3   0   6    6.50    1.10
   4   0   6   27.30    2.30
   4   0   6   24.20    3.50
   5   0   6  319.97   13.60
   6   0   6  109.69    7.50
  10  -1  -6    6.70    3.50
   9  -1  -6   45.90    5.50
   8  -1  -6  747.93   27.40
   7  -1  -6 1688.03   56.99
   6  -1  -6  983.20   34.10
   5  -1  -6 1140.49   38.40
   5  -1  -6 1103.79   36.70
  -4   1   6  219.38    9.20
  -3   1   6   60.09    4.10
  -3   1   6   71.69    3.80
  -2   1   6  116.79    5.70
  -2   1   6  116.49    5.30
  -1   1   6   49.50    3.70
  -1   1   6   58.99    3.20
   0   1   6  530.55   18.10
   0   1   6  536.25   17.60
   0   1   6  510.65   19.00
   1   1   6 1076.59   35.50
   1   1   6 1071.79   36.80
   2   1   6  663.93   22.20
   2   1   6  645.54   23.60
   3   1   6  507.75   19.90
   3   1   6  561.04   18.40
   4   1   6   15.00    3.20
   4   1   6   19.20    2.30
   5   1   6   31.80    4.90
   5   1   6   23.20    3.20
   6   1   6  235.78   11.50
   9  -2  -6  213.28   10.80
   8  -2  -6   44.50    5.10
   7  -2  -6   43.80    4.60
   6  -2  -6  183.58    8.70
   5  -2  -6   59.29    4.50
  -5   2   6   58.79    4.30
  -4   2   6  754.12   26.10
  -3   2   6 3148.39  105.59
  -3   2   6 3328.07  105.39
  -2   2   6 3433.96  112.99
  -2   2   6 3507.85  112.59
  -1   2   6  868.11   28.80
  -1   2   6  829.42   29.20
   0   2   6  669.33   22.60
   0   2   6  643.44   23.20
   1   2   6   19.50    2.60
   1   2   6   18.30    2.90
   2   2   6  161.38    6.90
   2   2   6  150.98    7.70
   3   2   6   26.20    3.60
   3   2   6   24.20    3.30
   4   2   6    7.60    2.40
   4   2   6   13.00    3.30
   5   2   6  618.34   23.50
   5   2   6  627.24   21.90
   9  -3  -6   -1.50    2.90
   8  -3  -6  199.58   10.30
   7  -3  -6 1846.32   62.39
   6  -3  -6 1455.15   48.20
  -6   3   6 1359.16   47.50
   5  -3  -6  771.52   26.90
  -5   3   6  740.73   26.60
   4  -3  -6   24.80    3.40
  -4   3   6   23.70    3.20
  -3   3   6   24.10    3.20
  -2   3   6   52.99    4.00
  -2   3   6   48.40    3.90
  -1   3   6    0.70    1.90
  -1   3   6    1.10    1.60
   0   3   6  447.36   16.40
   0   3   6  446.96   16.60
   1   3   6 1290.17   44.10
   1   3   6 1315.77   43.70
   2   3   6 2141.69   69.69
   2   3   6 2089.49   70.39
   3   3   6  783.92   26.70
   3   3   6  742.43   27.40
   4   3   6  207.28   10.50
   4   3   6  217.28    9.50
   5   3   6    7.40    4.10
   5   3   6    9.80    3.50
   8  -4  -6   -2.10    3.30
   7  -4  -6   56.29    5.80
   6  -4  -6  186.58    9.40
  -6   4   6  177.88    8.90
   5  -4  -6   28.20    4.50
  -5   4   6   20.80    3.30
   4  -4  -6   96.79    5.90
  -4   4   6   93.29    5.80
   3  -4  -6  648.54   23.30
  -3   4   6  649.43   23.30
  -2   4   6 1272.77   43.20
  -1   4   6  529.65   19.90
  -1   4   6  559.84   19.80
   0   4   6   16.40    2.90
   0   4   6   18.50    2.90
   1   4   6   10.50    2.90
   1   4   6    8.50    2.70
   2   4   6    6.10    2.80
   2   4   6    6.40    3.30
   3   4   6   57.09    5.70
   3   4   6   52.79    5.30
   4   4   6  215.18   11.00
   4   4   6  212.08   10.20
   6  -5  -6  446.76   17.50
  -6   5   6  412.16   17.10
   5  -5  -6  156.18    8.60
  -5   5   6  146.79    8.20
   4  -5  -6    5.70    2.80
  -4   5   6    1.80    2.50
   3  -5  -6   80.49    5.60
  -3   5   6   79.39    5.90
   2  -5  -6   30.90    4.60
  -2   5   6   44.60    4.80
   1  -5  -6   18.40    3.10
  -1   5   6   32.50    4.50
   0   5   6   93.09    6.40
   0   5   6  104.29    6.70
   1   5   6  326.67   13.60
   1   5   6  312.37   12.90
   2   5   6  239.68   11.10
   2   5   6  225.78   11.20
  -3   6   6  148.49    8.70
  -2   6   6  227.58   10.90
  -1   6   6  164.88    9.20
   5   5  -7  141.29    8.90
   5   5  -7  154.18    8.30
   4   5  -7  449.56   17.70
   4   5  -7  434.36   16.60
   3   5  -7   -3.40    2.40
   3   5  -7   -0.40    2.70
  -3  -5   7    1.90    3.40
   2   5  -7   28.30    4.10
  -2  -5   7   33.60    4.70
   1   5  -7    1.30    2.80
  -1  -5   7   -2.40    2.90
   0   5  -7    5.10    3.00
   0  -5   7    6.00    3.60
   7   4  -7   62.69    5.90
   7   4  -7   52.39    5.70
   6   4  -7   55.09    5.60
   6   4  -7   55.69    4.80
   5   4  -7   51.89    4.50
   5   4  -7   54.99    5.60
   5   4  -7   46.10    4.80
   4   4  -7    5.00    2.30
   4   4  -7    4.30    2.90
  -4  -4   7    2.90    2.30
   3   4  -7  186.28    8.90
   3   4  -7  192.88    8.10
  -3  -4   7  194.38    8.70
   2   4  -7  592.84   20.30
   2   4  -7  595.24   21.70
  -2  -4   7  596.84   21.40
   1   4  -7  377.76   14.90
  -1  -4   7  382.66   14.90
   0   4  -7  357.66   14.50
   0  -4   7  380.06   15.00
  -1   4  -7   51.09    5.20
   1  -4   7   38.60    5.20
  -2   4  -7   43.00    5.40
   2  -4   7   35.50    5.60
  -3   4  -7  123.89    8.40
   8   3  -7   54.79    5.50
   8   3  -7   66.79    5.80
   7   3  -7  744.63   27.10
   7   3  -7  755.12   26.60
   6   3  -7 1685.83   57.39
   6   3  -7 1740.73   57.19
   5   3  -7 1099.79   37.50
   4   3  -7  390.26   14.90
   4   3  -7  389.76   14.50
  -4  -3   7  396.26   14.90
   3   3  -7  237.98    9.60
   3   3  -7  207.08    8.80
  -3  -3   7  229.68    9.50
   2   3  -7  247.18    9.20
   2   3  -7  253.67   10.40
  -2  -3   7  253.47   10.50
   1   3  -7  215.18    9.30
  -1  -3   7  221.08    9.80
   0   3  -7   10.60    2.50
   0  -3   7    5.70    2.70
  -1   3  -7   70.99    5.30
   1  -3   7   76.29    5.80
  -2   3  -7 1140.09   39.30
   2  -3   7 1152.88   40.00
  -3   3  -7  596.64   21.70
   3  -3   7  551.24   21.80
  -4   3  -7  395.76   15.80
   4  -3   7  322.47   15.40
   9   2  -7  657.03   24.40
   8   2  -7  343.07   14.20
   7   2  -7   19.50    3.30
   6   2  -7   36.90    4.10
   4   2  -7    9.40    2.20
  -4  -2   7    9.20    2.30
   3   2  -7  903.41   30.70
  -3  -2   7  910.61   31.20
   2   2  -7 1841.72   60.29
  -2  -2   7 1830.72   60.99
   1   2  -7 2791.02   91.29
   1   2  -7 2815.72   90.29
  -1  -2   7 2809.52   92.19
   0   2  -7  487.25   17.40
   0  -2   7  486.85   18.30
  -1   2  -7   87.29    5.30
   1  -2   7   85.49    5.70
  -2   2  -7    6.50    2.90
   2  -2   7    1.10    2.50
  -3   2  -7  274.47   12.00
   3  -2   7  266.27   12.10
   4  -2   7   13.80    3.50
   9   1  -7  188.48    9.90
   8   1  -7   44.40    5.40
   7   1  -7   99.09    6.20
   6   1  -7 1661.53   55.79
   4   1  -7  367.66   12.90
  -4  -1   7  350.06   13.90
   3   1  -7   93.49    4.30
  -3  -1   7   85.69    5.10
   2   1  -7   12.30    1.70
  -2  -1   7   18.50    2.70
   1   1  -7   52.09    3.30
  -1  -1   7   44.90    4.10
   0   1  -7   20.20    2.90
   0  -1   7   18.50    2.90
  -1   1  -7  232.18    9.70
   1  -1   7  239.78   10.50
   2  -1   7  714.33   26.00
   3  -1   7 1076.69   37.80
   4  -1   7  357.36   15.20
   5  -1   7   19.20    4.00
   9   0  -7  444.66   18.20
   8   0  -7  129.29    7.70
   7   0  -7  101.69    6.40
   6   0  -7   67.69    5.10
   4   0  -7    1.40    1.00
  -4   0   7    0.20    1.80
   3   0  -7  286.47    9.90
  -3   0   7  285.17   11.50
   2   0  -7  324.07   11.00
  -2   0   7  307.87   12.50
   1   0  -7 1179.88   38.20
  -1   0   7 1137.39   39.50
   0   0   7  599.04   19.60
   0   0   7  552.04   21.10
   1   0   7    2.90    2.10
   1   0   7   -2.30    1.10
   2   0   7    4.40    2.60
   2   0   7    1.20    1.20
   3   0   7    5.40    2.90
   4   0   7    2.20    3.20
   5   0   7  180.38   10.30
   9  -1  -7   95.19    7.30
   8  -1  -7   10.30    3.20
   7  -1  -7   96.99    6.50
   6  -1  -7   84.59    5.70
   5  -1  -7  303.57   12.50
  -4   1   7  263.97   11.00
  -3   1   7   84.99    4.80
  -3   1   7   80.19    5.00
  -2   1   7   50.79    4.00
  -2   1   7   50.39    3.50
  -1   1   7  133.09    6.10
  -1   1   7  150.68    7.10
   0   1   7   14.50    2.90
   0   1   7   13.10    2.00
   1   1   7  226.88   10.50
   1   1   7  244.88    9.00
   2   1   7  228.18   10.50
   2   1   7  228.38    8.70
   3   1   7  394.76   14.00
   3   1   7  392.86   16.30
   4   1   7  140.09    8.60
   5   1   7   54.59    6.80
   9  -2  -7  330.17   14.80
   8  -2  -7  259.97   12.20
   7  -2  -7   18.40    3.60
   6  -2  -7  226.18   10.40
   5  -2  -7   73.79    5.20
  -5   2   7   73.99    5.10
  -4   2   7   41.00    4.20
  -4   2   7   46.80    3.90
  -3   2   7  218.78    9.90
  -3   2   7  236.68    9.50
  -2   2   7  698.03   25.20
  -2   2   7  720.53   24.60
  -1   2   7  104.39    6.00
  -1   2   7   89.79    5.10
   0   2   7  552.04   20.70
   0   2   7  568.44   19.70
   1   2   7    0.00    1.70
   1   2   7    0.70    2.60
   2   2   7  154.28    6.90
   2   2   7  158.48    8.50
   3   2   7   91.49    5.40
   3   2   7   87.89    7.10
   4   2   7   57.59    4.90
   4   2   7   60.19    6.50
   8  -3  -7    5.10    3.30
   7  -3  -7  791.62   29.00
   6  -3  -7  977.10   34.40
  -6   3   7  962.20   33.90
   5  -3  -7 1082.79   37.80
  -5   3   7 1090.49   37.40
   4  -3  -7  335.57   13.80
  -4   3   7  344.67   13.50
  -3   3   7   60.19    4.50
  -3   3   7   51.49    4.80
  -2   3   7  145.39    7.50
  -2   3   7  134.79    6.90
  -1   3   7  363.86   13.90
  -1   3   7  360.36   14.30
   0   3   7   68.59    4.70
   0   3   7   62.19    5.30
   1   3   7   30.40    4.00
   1   3   7   29.90    4.00
   2   3   7  607.14   22.90
   2   3   7  615.74   22.00
   3   3   7  467.45   19.10
   3   3   7  478.15   17.70
   4   3   7  175.78   10.50
   4   3   7  178.08    9.00
   7  -4  -7   60.09    6.30
   6  -4  -7  132.79    8.20
  -6   4   7  130.89    7.70
   5  -4  -7   35.00    5.10
  -5   4   7   41.40    5.00
   4  -4  -7   14.30    3.20
  -4   4   7    7.80    2.80
   3  -4  -7  175.38    9.00
  -3   4   7  201.18    9.10
  -2   4   7 1291.67   44.40
  -2   4   7 1318.27   44.60
  -1   4   7 1087.99   37.70
  -1   4   7 1094.49   37.60
   0   4   7  348.27   13.80
   0   4   7  314.97   13.50
   1   4   7   86.19    6.70
   1   4   7   95.19    6.40
   2   4   7   26.50    4.00
   2   4   7   32.20    4.90
   5  -5  -7  949.11   33.30
  -5   5   7  909.51   33.00
   4  -5  -7  299.77   12.80
  -4   5   7  275.57   12.80
   3  -5  -7   20.50    3.60
  -3   5   7   20.70    3.60
   2  -5  -7    6.50    3.10
  -2   5   7   10.70    3.20
  -1   5   7   15.90    3.60
   0   5   7    0.90    3.70
   0   5   7    9.60    3.40
   1   5   7   94.49    7.60
   6   4  -8    5.00    3.20
   6   4  -8    4.20    3.00
   6   4  -8    0.30    3.40
   5   4  -8   27.90    4.10
   5   4  -8   22.00    3.60
   5   4  -8   26.10    3.70
   4   4  -8   -0.70    3.00
   4   4  -8    2.40    2.60
  -4  -4   8    3.80    3.10
   3   4  -8    3.90    2.90
  -3  -4   8    0.30    3.00
   2   4  -8  106.29    6.70
  -2  -4   8  108.09    7.00
   1   4  -8  157.28    8.40
  -1  -4   8  158.98    8.60
   0   4  -8  274.07   12.20
   0  -4   8  277.27   12.60
  -1   4  -8  158.98    8.90
   1  -4   8  148.99    9.30
   7   3  -8    1.00    3.00
   7   3  -8    3.80    3.30
   6   3  -8  176.38    9.00
   6   3  -8  191.88    9.10
   5   3  -8  334.27   13.60
   5   3  -8  351.26   13.50
  -5  -3   8  332.77   13.70
   4   3  -8  269.77   10.90
   4   3  -8  269.27   11.30
  -4  -3   8  274.97   11.70
   3   3  -8  524.55   19.00
   3   3  -8  525.95   18.20
  -3  -3   8  506.25   19.30
   2   3  -8    3.40    2.30
  -2  -3   8    6.70    2.90
   1   3  -8   56.19    4.90
  -1  -3   8   60.99    5.50
   0   3  -8   19.20    3.20
   0  -3   8   27.40    4.50
  -1   3  -8    7.70    3.30
   1  -3   8    5.70    3.50
  -2   3  -8  172.28    9.30
   2  -3   8  172.88    9.70
   8   2  -8  500.15   19.60
   7   2  -8  241.18   11.20
   6   2  -8   46.10    5.00
   5   2  -8  152.08    7.30
  -5  -2   8  150.08    7.80
   4   2  -8  188.28    8.00
  -4  -2   8  181.18    8.80
   3   2  -8   22.80    3.40
  -3  -2   8   28.40    3.70
   2   2  -8  218.38    9.00
  -2  -2   8  219.78   10.00
   1   2  -8 1199.48   39.80
  -1  -2   8 1171.08   40.90
   0   2  -8  778.72   26.90
   0  -2   8  766.62   28.00
  -1   2  -8  353.86   13.70
   1  -2   8  331.87   14.40
  -2   2  -8  215.58   10.40
   2  -2   8  221.58   10.90
   3  -2   8   90.79    7.60
   9   1  -8  124.69    8.30
   8   1  -8   12.00    3.60
   7   1  -8    7.60    3.10
   6   1  -8  716.93   26.10
   5   1  -8 2015.70   63.99
  -5  -1   8 1893.61   65.19
   4   1  -8 1126.89   37.20
  -4  -1   8 1115.39   38.60
   3   1  -8  665.13   22.40
  -3  -1   8  656.53   23.90
   2   1  -8   35.70    3.30
  -2  -1   8   32.10    4.20
   1   1  -8   16.10    2.40
  -1  -1   8   18.60    3.10
   0   1  -8  225.48    9.40
   0  -1   8  231.98   10.60
  -1   1  -8   11.50    3.40
   1  -1   8    6.60    3.00
   2  -1   8  215.48   10.70
   3  -1   8  704.53   26.60
   9   0  -8 1143.29   40.80
   8   0  -8 1760.82   60.19
   7   0  -8  113.59    7.20
   6   0  -8   89.09    6.20
  -5   0   8   48.30    4.70
  -4   0   8  142.29    7.50
  -3   0   8   15.80    2.80
   2   0  -8  278.37   10.00
  -2   0   8  282.77   11.90
  -1   0   8 1260.57   43.30
   0   0   8 1497.65   51.19
   1   0   8  459.05   18.30
   2   0   8   45.90    5.50
   3   0   8   19.90    4.00
   4   0   8   45.60    6.20
   9  -1  -8   12.90    3.90
   8  -1  -8   10.00    3.30
   7  -1  -8   44.90    5.40
   6  -1  -8  338.87   14.30
  -4   1   8 1339.27   45.80
  -3   1   8  339.77   12.90
  -3   1   8  329.27   13.60
  -2   1   8   11.00    2.70
  -2   1   8   14.00    2.40
  -1   1   8   25.10    3.60
  -1   1   8   27.90    3.30
   0   1   8    1.20    1.70
   0   1   8    3.70    2.60
   1   1   8    2.90    1.80
   1   1   8    1.40    3.20
   2   1   8  118.99    5.70
   2   1   8  132.39    8.20
   3   1   8  390.96   16.60
   8  -2  -8  471.15   19.50
   7  -2  -8  350.16   15.20
   6  -2  -8   16.20    3.30
   5  -2  -8    6.20    2.90
  -4   2   8    1.70    2.20
  -4   2   8    1.40    2.40
  -3   2   8   54.89    4.50
  -3   2   8   48.00    5.00
  -2   2   8  417.06   16.90
  -2   2   8  450.35   16.20
  -1   2   8  208.18    9.10
  -1   2   8  220.08   10.20
   0   2   8  557.94   21.40
   0   2   8  572.74   20.10
   1   2   8  231.78   11.20
   1   2   8  221.48    9.40
   2   2   8    2.50    2.40
   2   2   8   -1.00    3.70
   3   2   8    3.60    2.60
   3   2   8    7.50    4.30
   7  -3  -8   72.49    6.70
   6  -3  -8  219.08   10.80
   5  -3  -8  512.15   19.60
  -5   3   8  495.45   19.10
  -4   3   8  310.57   12.80
  -3   3   8  367.76   14.40
  -3   3   8  357.96   14.90
  -2   3   8   60.39    5.00
  -2   3   8   55.99    5.50
  -1   3   8  106.09    7.00
  -1   3   8   95.79    6.10
   0   3   8    2.60    3.70
   0   3   8    4.90    2.50
   1   3   8   -1.00    2.60
   1   3   8    2.70    3.80
   2   3   8  193.08    9.20
   2   3   8  191.38   10.70
   6  -4  -8    2.50    3.60
  -6   4   8    2.40    3.00
   5  -4  -8   34.00    5.40
  -5   4   8   39.90    5.50
   4  -4  -8   96.39    6.90
  -4   4   8   98.09    6.70
  -3   4   8    2.20    2.80
  -2   4   8  285.47   13.00
  -2   4   8  303.67   12.70
  -1   4   8  643.34   23.80
  -1   4   8  658.63   24.40
   0   4   8  536.55   20.40
   0   4   8  551.34   21.10
   1   4   8  326.27   13.80
   1   4   8  344.97   14.90
   6   3  -9    1.70    3.40
   6   3  -9    3.20    3.30
   6   3  -9    2.80    3.00
   5   3  -9   38.10    4.90
   5   3  -9   41.40    5.40
  -5  -3   9   38.50    4.60
   4   3  -9  106.09    6.80
   4   3  -9  110.29    6.20
  -4  -3   9  112.99    7.50
   3   3  -9  344.77   13.70
  -3  -3   9  336.37   14.30
   2   3  -9   67.59    5.70
  -2  -3   9   63.69    6.30
   1   3  -9   24.20    3.80
  -1  -3   9   19.00    4.20
   0   3  -9    9.20    3.80
   0  -3   9   11.60    4.30
   7   2  -9  305.27   13.20
   7   2  -9  274.67   12.20
   6   2  -9  191.68    8.90
   6   2  -9  199.08   10.10
   5   2  -9   -1.10    2.50
  -5  -2   9    3.90    3.00
   4   2  -9  132.89    6.70
  -4  -2   9  128.79    8.00
   3   2  -9   10.30    2.60
  -3  -2   9    5.10    3.20
   2   2  -9   33.50    4.50
  -2  -2   9   32.50    5.10
   1   2  -9   75.19    5.60
  -1  -2   9   78.69    6.50
   0   2  -9  109.29    6.90
   0  -2   9  103.79    7.80
  -1   2  -9   45.90    6.80
   1  -2   9   53.59    6.50
   8   1  -9   18.70    4.20
   7   1  -9   83.39    6.80
   6   1  -9   28.50    3.90
   6   1  -9   32.20    5.00
   5   1  -9  370.86   13.40
  -5  -1   9  370.66   15.10
   4   1  -9  390.96   14.50
  -4  -1   9  423.16   16.50
   3   1  -9  550.34   19.20
  -3  -1   9  561.94   21.10
   2   1  -9  182.18    7.70
  -2  -1   9  186.98    9.60
   1   1  -9   18.30    3.10
  -1  -1   9   18.60    3.60
   0   1  -9  210.48    9.70
   0  -1   9  213.48   10.80
   1  -1   9  183.08   10.00
   2  -1   9   27.20    4.50
   8   0  -9 1222.78   43.40
   7   0  -9  427.86   17.60
   6   0  -9  448.76   18.20
  -5   0   9   29.50    4.70
  -4   0   9  146.79    8.30
  -3   0   9   85.39    6.20
  -2   0   9    3.40    2.90
  -1   0   9  249.78   11.60
   0   0   9  931.51   33.60
   1   0   9  576.44   22.60
   2   0   9  240.38   12.50
   8  -1  -9  121.69    8.50
   7  -1  -9  197.88   10.40
   6  -1  -9    3.30    2.90
  -5   1   9  310.67   13.60
  -4   1   9 1258.07   43.70
  -3   1   9 1094.19   38.40
  -2   1   9  389.26   16.30
  -2   1   9  410.46   15.10
  -1   1   9   82.39    6.60
  -1   1   9   86.59    5.30
   0   1   9    5.60    2.30
   0   1   9    2.70    3.30
   1   1   9   49.60    6.40
   2   1   9    3.30    4.80
   7  -2  -9  642.74   24.80
   6  -2  -9   57.79    6.00
  -4   2   9   55.89    6.10
  -4   2   9   76.09    6.00
  -3   2   9  125.89    6.90
  -3   2   9  115.49    7.70
  -2   2   9   31.20    4.60
  -2   2   9   28.10    4.60
  -1   2   9   40.40    5.70
  -1   2   9   39.30    4.60
   0   2   9  679.93   24.20
   0   2   9  700.73   26.20
   1   2   9  691.03   26.30
   1   2   9  683.23   24.00
   6  -3  -9    0.40    3.70
   5  -3  -9  125.79    8.30
  -5   3   9  145.39    8.40
  -4   3   9  180.98    9.20
  -3   3   9  306.47   13.70
  -3   3   9  295.67   12.70
  -2   3   9  125.59    7.40
  -2   3   9  125.89    8.50
  -1   3   9   55.09    6.80
  -1   3   9   54.89    5.60
   0   3   9    1.70    4.30
   0   3   9    8.70    3.10
  -5  -2  10  140.59    8.70
   4   2 -10   -0.10    3.50
  -4  -2  10   -2.60    3.60
   3   2 -10   32.90    3.90
  -3  -2  10   40.20    5.90
   2   2 -10    3.60    3.40
  -2  -2  10   -2.90    3.80
  -5  -1  10    7.20    3.60
  -4  -1  10   58.29    6.10
  -3  -1  10  272.07   12.70
  -2  -1  10  189.98   10.50
  -1  -1  10  211.68   11.40
   6   0 -10  314.47   14.50
  -5   0  10  239.28   11.80
  -4   0  10   27.80    4.50
  -3   0  10   50.39    6.00
  -2   0  10   83.09    7.30
  -1   0  10   -1.00    4.10
   0   0  10   97.09    7.90
   6  -1 -10   16.40    3.70
  -5   1  10   -3.00    3.60
  -4   1  10  291.27   13.60
  -3   1  10  655.53   25.10
  -2   1  10  406.36   17.20
  -1   1  10  208.68   11.60
  -4   2  10   61.49    7.40
  -3   2  10   98.49    8.60
  -3   2  10   99.49    7.00
  -2   2  10   52.59    5.80
  -2   2  10   60.89    7.60
   0   0   0    0.00    0.00

_computing_structure_solution     'SHELXT 2014/5 (Sheldrick, 2014)'
;
_shelx_hkl_checksum              34535
_shelx_fab_file
;
    2    2    0      7.36      0.00
    3    3    0     -1.06      0.00
    4    4    0      1.14      0.00
    5    5    0      3.91      0.00
    6    6    0      3.60      0.00
    7    7    0      1.34      0.00
    8    8    0     -1.22      0.00
    9    9    0     -2.02      0.00
   10   10    0     -0.85      0.00
    9    9    1      0.74      0.00
    8    8    1     -1.10      0.00
    7    7    1     -3.44      0.00
    6    6    1     -3.45      0.00
    5    5    1     -1.34      0.00
    4    4    1      0.08      0.00
    3    3    1     -2.38      0.00
    2    2    1    -10.47      0.00
    1    1    1    -18.57      0.00
    0    0    1    -15.99      0.00
   -1    1    1     -3.09      0.00
   -2    2    1      6.25      0.00
   -3    3    1      4.27      0.00
   -4    4    1     -1.90      0.00
   -5    5    1     -3.79      0.00
   -6    6    1     -1.10      0.00
   -7    7    1      2.34      0.00
   -8    8    1      3.63      0.00
   -9    9    1      2.41      0.00
    9    9    2      0.06      0.00
    8    8    2      1.18      0.00
    7    7    2      2.42      0.00
    6    6    2      1.61      0.00
    5    5    2     -0.23      0.00
    4    4    2      0.32      0.00
    3    3    2      4.34      0.00
    2    2    2      8.61      0.00
    1    1    2      7.88      0.00
    0    0    2      0.74      0.00
   -2    2    2     -7.91      0.00
   -3    3    2     -3.56      0.00
   -4    4    2     -0.18      0.00
   -5    5    2     -0.95      0.00
   -6    6    2     -3.60      0.00
   -7    7    2     -4.65      0.00
   -8    8    2     -3.26      0.00
   -9    9    2     -1.16      0.00
    9    9    3     -0.18      0.00
    8    8    3     -1.00      0.00
    7    7    3     -1.15      0.00
    6    6    3      0.25      0.00
    5    5    3      1.70      0.00
    4    4    3      1.19      0.00
    3    3    3     -0.84      0.00
    2    2    3     -1.44      0.00
    1    1    3      1.55      0.00
    0    0    3      5.77      0.00
   -1    1    3      6.37      0.00
   -2    2    3      2.66      0.00
   -3    3    3     -0.83      0.00
   -4    4    3     -0.73      0.00
   -5    5    3      1.53      0.00
   -6    6    3      2.91      0.00
   -7    7    3      2.58      0.00
   -8    8    3      1.65      0.00
   -9    9    3      0.93      0.00
    8    8    4      0.70      0.00
    7    7    4      0.27      0.00
    6    6    4     -0.76      0.00
    5    5    4     -0.63      0.00
    4    4    4      0.77      0.00
    3    3    4      1.40      0.00
    2    2    4      0.06      0.00
    1    1    4     -2.00      0.00
    0    0    4     -2.70      0.00
   -1    1    4     -1.58      0.00
   -2    2    4     -0.16      0.00
   -3    3    4      0.01      0.00
   -4    4    4     -0.90      0.00
   -5    5    4     -1.47      0.00
   -6    6    4     -0.91      0.00
   -7    7    4      0.12      0.00
   -8    8    4      0.56      0.00
    7    7    5      0.07      0.00
    6    6    5      0.97      0.00
    5    5    5      1.06      0.00
    4    4    5      0.39      0.00
    3    3    5      0.20      0.00
    2    2    5      0.76      0.00
    1    1    5      1.15      0.00
    0    0    5      0.83      0.00
   -1    1    5      0.11      0.00
   -2    2    5     -0.56      0.00
   -3    3    5     -0.88      0.00
   -4    4    5     -0.58      0.00
   -5    5    5     -0.03      0.00
   -6    6    5      0.04      0.00
   -7    7    5     -0.23      0.00
    5    5    6     -0.17      0.00
    4    4    6     -0.27      0.00
    3    3    6     -0.22      0.00
    2    2    6     -0.56      0.00
    1    1    6     -1.05      0.00
    0    0    6     -0.85      0.00
   -1    1    6      0.00      0.00
   -2    2    6      0.73      0.00
   -3    3    6      0.92      0.00
   -4    4    6      0.66      0.00
   -5    5    6      0.19      0.00
    3    3    7      0.13      0.00
    2    2    7      0.41      0.00
    1    1    7      0.46      0.00
    0    0    7      0.06      0.00
   -1    1    7     -0.36      0.00
   -2    2    7     -0.41      0.00
   -3    3    7     -0.26      0.00
   -2    4    7     -0.23      0.00
   -1    3    7     -0.25      0.00
    0    2    7     -0.05      0.00
    2    0    7      0.80      0.00
    3    1    7      0.56      0.00
   -5    7    6      0.24      0.00
   -4    6    6      0.63      0.00
   -3    5    6      0.81      0.00
   -2    4    6      0.54      0.00
   -1    3    6     -0.03      0.00
    0    2    6     -0.67      0.00
    2    0    6     -0.85      0.00
    3    1    6     -0.33      0.00
    4    2    6     -0.02      0.00
    5    3    6      0.08      0.00
    6    4    6      0.21      0.00
   -6    8    5      0.05      0.00
   -5    7    5      0.42      0.00
   -4    6    5      0.58      0.00
   -3    5    5      0.27      0.00
   -2    4    5     -0.17      0.00
   -1    3    5     -0.22      0.00
    0    2    5      0.35      0.00
    2    0    5      1.32      0.00
    3    1    5      0.58      0.00
    4    2    5     -0.15      0.00
    5    3    5     -0.01      0.00
    6    4    5      0.44      0.00
    7    5    5      0.24      0.00
   -7    9    4     -0.23      0.00
   -6    8    4     -1.12      0.00
   -5    7    4     -2.39      0.00
   -4    6    4     -2.68      0.00
   -3    5    4     -1.45      0.00
   -2    4    4     -0.11      0.00
   -1    3    4     -0.30      0.00
    0    2    4     -1.62      0.00
    2    0    4     -0.45      0.00
    3    1    4      1.70      0.00
    4    2    4      2.33      0.00
    5    3    4      1.01      0.00
    6    4    4     -0.37      0.00
    7    5    4     -0.13      0.00
    8    6    4      0.82      0.00
    9    7    4      0.81      0.00
   -8   10    3      1.48      0.00
   -7    9    3      2.42      0.00
   -6    8    3      3.32      0.00
   -5    7    3      3.28      0.00
   -4    6    3      1.30      0.00
   -3    5    3     -1.42      0.00
   -2    4    3     -1.58      0.00
   -1    3    3      1.49      0.00
    0    2    3      3.65      0.00
    2    0    3     -2.39      0.00
    3    1    3     -3.75      0.00
    4    2    3     -1.99      0.00
    5    3    3      0.10      0.00
    6    4    3      0.34      0.00
    7    5    3     -0.86      0.00
    8    6    3     -1.50      0.00
    9    7    3     -0.86      0.00
   -8   10    2     -1.68      0.00
   -7    9    2     -3.21      0.00
   -6    8    2     -3.66      0.00
   -5    7    2     -1.73      0.00
   -4    6    2      1.71      0.00
   -3    5    2      3.17      0.00
   -2    4    2      0.47      0.00
   -1    3    2     -2.50      0.00
    0    2    2      0.34      0.00
    2    0    2     12.41      0.00
    3    1    2      9.95      0.00
    4    2    2      4.11      0.00
    5    3    2      0.24      0.00
    6    4    2      0.10      0.00
    7    5    2      1.39      0.00
    8    6    2      1.26      0.00
    9    7    2      0.03      0.00
   10    8    2     -0.35      0.00
   -9   11    1      0.77      0.00
   -8   10    1      2.06      0.00
   -7    9    1      2.04      0.00
   -6    8    1     -0.65      0.00
   -5    7    1     -5.04      0.00
   -4    6    1     -7.93      0.00
   -3    5    1     -5.75      0.00
   -2    4    1     -0.23      0.00
   -1    3    1     -0.24      0.00
    0    2    1     -9.73      0.00
    2    0    1    -16.27      0.00
    3    1    1     -6.71      0.00
    4    2    1      0.17      0.00
    5    3    1      1.20      0.00
    6    4    1     -0.91      0.00
    7    5    1     -2.51      0.00
    8    6    1     -1.48      0.00
    9    7    1      0.67      0.00
   10    8    1      1.17      0.00
    9   11    0     -0.91      0.00
    8   10    0     -1.18      0.00
    7    9    0      0.79      0.00
    6    8    0      3.93      0.00
    5    7    0      6.07      0.00
    4    6    0      5.80      0.00
    3    5    0      2.53      0.00
    2    4    0      1.14      0.00
    1    3    0     10.02      0.00
    0    2    0     24.58      0.00
    2    0    0     11.37      0.00
    3    1    0     -4.34      0.00
    4    2    0     -7.51      0.00
    5    3    0     -3.13      0.00
    6    4    0      0.13      0.00
    7    5    0      0.31      0.00
    8    6    0     -1.20      0.00
    9    7    0     -2.43      0.00
   10    8    0     -1.89      0.00
    9   11    1      0.79      0.00
    8   10    1      0.09      0.00
    7    9    1     -2.22      0.00
    6    8    1     -3.49      0.00
    5    7    1     -1.78      0.00
    4    6    1      1.20      0.00
    3    5    1      2.86      0.00
    2    4    1      0.80      0.00
    1    3    1     -5.63      0.00
   -2    0    1      9.69      0.00
   -3    1    1     15.01      0.00
   -4    2    1      9.34      0.00
   -5    3    1      1.59      0.00
   -6    4    1     -0.98      0.00
   -7    5    1      0.84      0.00
   -8    6    1      2.99      0.00
   -9    7    1      2.98      0.00
  -10    8    1      1.35      0.00
    8   10    2      0.35      0.00
    7    9    2      1.58      0.00
    6    8    2      2.04      0.00
    5    7    2      0.01      0.00
    4    6    2     -2.41      0.00
    3    5    2     -2.06      0.00
    2    4    2      1.02      0.00
    1    3    2      3.18      0.00
   -1    1    2     -6.81      0.00
   -3    1    2    -10.40      0.00
   -4    2    2     -4.59      0.00
   -5    3    2     -0.40      0.00
   -6    4    2     -0.50      0.00
   -7    5    2     -2.61      0.00
   -8    6    2     -3.16      0.00
   -9    7    2     -1.59      0.00
  -10    8    2      0.00      0.00
    8   10    3     -0.04      0.00
    7    9    3     -0.59      0.00
    6    8    3     -0.04      0.00
    5    7    3      1.97      0.00
    4    6    3      3.33      0.00
    3    5    3      2.33      0.00
    2    4    3      0.29      0.00
    1    3    3      0.43      0.00
   -2    0    3      4.95      0.00
   -3    1    3      0.64      0.00
   -4    2    3     -2.33      0.00
   -5    3    3     -1.99      0.00
   -6    4    3      0.04      0.00
   -7    5    3      1.16      0.00
   -8    6    3      0.75      0.00
   -9    7    3      0.15      0.00
    7    9    4      0.33      0.00
    6    8    4     -0.39      0.00
    5    7    4     -1.31      0.00
    4    6    4     -0.86      0.00
    3    5    4      0.52      0.00
    2    4    4      0.93      0.00
    1    3    4     -0.26      0.00
   -2    0    4     -0.24      0.00
   -3    1    4      1.03      0.00
   -4    2    4      1.27      0.00
   -5    3    4      0.57      0.00
   -6    4    4     -0.06      0.00
   -7    5    4      0.22      0.00
   -8    6    4      0.86      0.00
   -9    7    4      0.88      0.00
    6    8    5      0.84      0.00
    5    7    5      1.74      0.00
    4    6    5      1.31      0.00
    3    5    5      0.18      0.00
    2    4    5     -0.26      0.00
    1    3    5      0.10      0.00
   -2    0    5     -0.38      0.00
   -3    1    5     -0.90      0.00
   -4    2    5     -1.04      0.00
   -5    3    5     -0.44      0.00
   -6    4    5      0.21      0.00
   -7    5    5      0.09      0.00
    5    7    6     -0.09      0.00
    4    6    6     -0.17      0.00
    3    5    6     -0.05      0.00
    2    4    6     -0.10      0.00
    1    3    6     -0.55      0.00
   -2    0    6      0.73      0.00
   -3    1    6      0.83      0.00
   -4    2    6      0.50      0.00
   -5    3    6      0.08      0.00
   -6    4    6     -0.22      0.00
    2    4    7     -0.09      0.00
    1    3    7      0.00      0.00
   -2    0    7     -0.58      0.00
   -3    1    7     -0.46      0.00
   -1    5    7     -0.13      0.00
    0    4    7     -0.20      0.00
   -4    8    6      0.15      0.00
   -3    7    6      0.31      0.00
   -2    6    6      0.17      0.00
   -1    5    6     -0.18      0.00
    0    4    6     -0.43      0.00
    4    0    6      0.11      0.00
    5    1    6      0.50      0.00
    6    2    6      0.60      0.00
   -5    9    5      0.29      0.00
   -4    8    5      0.83      0.00
   -3    7    5      1.14      0.00
   -2    6    5      0.70      0.00
   -1    5    5     -0.15      0.00
    0    4    5     -0.48      0.00
    4    0    5     -0.16      0.00
    5    1    5     -0.42      0.00
    6    2    5      0.03      0.00
    7    3    5      0.37      0.00
    8    4    5      0.13      0.00
   -6   10    4     -0.52      0.00
   -5    9    4     -1.49      0.00
   -4    8    4     -2.50      0.00
   -3    7    4     -2.00      0.00
   -2    6    4     -0.07      0.00
   -1    5    4      1.26      0.00
    0    4    4      0.77      0.00
    4    0    4      2.99      0.00
    5    1    4      2.51      0.00
    6    2    4      0.70      0.00
    7    3    4     -0.48      0.00
    8    4    4     -0.07      0.00
    9    5    4      0.57      0.00
   -7   11    3      0.85      0.00
   -6   10    3      1.47      0.00
   -5    9    3      2.10      0.00
   -4    8    3      1.47      0.00
   -3    7    3     -1.22      0.00
   -2    6    3     -4.02      0.00
   -1    5    3     -3.79      0.00
    0    4    3     -0.95      0.00
    4    0    3     -3.64      0.00
    5    1    3     -1.61      0.00
    6    2    3      0.07      0.00
    7    3    3      0.07      0.00
    8    4    3     -0.80      0.00
    9    5    3     -0.94      0.00
   10    6    3     -0.26      0.00
   -8   12    2     -0.25      0.00
   -7   11    2     -0.94      0.00
   -6   10    2     -1.56      0.00
   -5    9    2     -1.03      0.00
   -4    8    2      1.65      0.00
   -3    7    2      5.32      0.00
   -2    6    2      6.31      0.00
   -1    5    2      3.16      0.00
    0    4    2      0.46      0.00
    4    0    2      5.75      0.00
    5    1    2      0.46      0.00
    6    2    2     -1.84      0.00
    8    4    2     -0.03      0.00
    9    5    2     -0.32      0.00
   10    6    2     -0.84      0.00
   -8   12    1      0.16      0.00
   -7   11    1      0.54      0.00
   -6   10    1     -0.50      0.00
   -5    9    1     -3.75      0.00
   -4    8    1     -7.77      0.00
   -3    7    1     -9.01      0.00
   -2    6    1     -4.61      0.00
   -1    5    1      1.82      0.00
    0    4    1      1.76      0.00
    4    0    1      0.53      0.00
    5    1    1      4.40      0.00
    6    2    1      3.59      0.00
    7    3    1      0.66      0.00
    8    4    1     -0.89      0.00
    9    5    1      0.16      0.00
   10    6    1      1.40      0.00
   11    7    1      0.95      0.00
    8   12    0     -0.45      0.00
    7   11    0     -0.32      0.00
    6   10    0      1.73      0.00
    5    9    0      4.33      0.00
    4    8    0      5.26      0.00
    3    7    0      3.10      0.00
    2    6    0     -1.78      0.00
    1    5    0     -3.90      0.00
    0    4    0      2.19      0.00
    4    0    0    -12.16      0.00
    5    1    0    -10.75      0.00
    6    2    0     -5.42      0.00
    7    3    0     -1.60      0.00
    8    4    0     -0.72      0.00
    9    5    0     -1.63      0.00
   10    6    0     -2.01      0.00
   11    7    0     -1.05      0.00
    8   12    1      0.70      0.00
    7   11    1     -0.09      0.00
    6   10    1     -1.91      0.00
    5    9    1     -1.73      0.00
    4    8    1      1.50      0.00
    3    7    1      5.54      0.00
    2    6    1      8.05      0.00
    1    5    1      6.75      0.00
   -4    0    1     15.65      0.00
   -5    1    1      7.98      0.00
   -6    2    1      0.35      0.00
   -7    3    1     -1.79      0.00
   -8    4    1     -0.02      0.00
   -9    5    1      1.55      0.00
  -10    6    1      1.22      0.00
  -11    7    1      0.20      0.00
    8   12    2     -0.02      0.00
    7   11    2      0.07      0.00
    6   10    2      0.98      0.00
    5    9    2      0.58      0.00
    4    8    2     -2.07      0.00
    3    7    2     -4.41      0.00
    2    6    2     -3.81      0.00
    1    5    2     -0.96      0.00
   -4    0    2     -7.26      0.00
   -5    1    2     -1.27      0.00
   -6    2    2      2.55      0.00
   -7    3    2      2.02      0.00
   -8    4    2     -0.26      0.00
   -9    5    2     -0.88      0.00
  -10    6    2      0.04      0.00
    7   11    3      0.04      0.00
    6   10    3     -0.18      0.00
    5    9    3      0.92      0.00
    4    8    3      3.11      0.00
    3    7    3      3.91      0.00
    2    6    3      1.85      0.00
    1    5    3     -0.90      0.00
   -4    0    3     -2.63      0.00
   -5    1    3     -4.36      0.00
   -6    2    3     -3.49      0.00
   -7    3    3     -1.26      0.00
   -8    4    3      0.01      0.00
   -9    5    3     -0.23      0.00
  -10    6    3     -0.45      0.00
    6   10    4      0.50      0.00
    5    9    4     -0.31      0.00
    4    8    4     -1.11      0.00
    3    7    4     -0.48      0.00
    2    6    4      1.05      0.00
    1    5    4      1.67      0.00
   -4    0    4      2.19      0.00
   -5    1    4      2.35      0.00
   -6    2    4      1.26      0.00
   -7    3    4      0.08      0.00
   -8    4    4      0.02      0.00
   -9    5    4      0.50      0.00
    5    9    5      0.95      0.00
    4    8    5      1.27      0.00
    3    7    5      0.27      0.00
    2    6    5     -0.97      0.00
    1    5    5     -1.12      0.00
   -4    0    5     -0.93      0.00
   -5    1    5     -0.49      0.00
   -6    2    5      0.36      0.00
   -7    3    5      0.77      0.00
   -8    4    5      0.32      0.00
    4    8    6      0.20      0.00
    3    7    6      0.43      0.00
    2    6    6      0.47      0.00
    1    5    6      0.01      0.00
   -4    0    6      0.47      0.00
   -5    1    6      0.28      0.00
   -6    2    6      0.17      0.00
    1    5    7     -0.23      0.00
   -3    9    6     -0.10      0.00
   -2    8    6      0.02      0.00
   -1    7    6      0.01      0.00
    0    6    6     -0.01      0.00
    6    0    6      0.94      0.00
    7    1    6      0.88      0.00
   -4   10    5      0.10      0.00
   -3    9    5      0.35      0.00
   -2    8    5      0.39      0.00
   -1    7    5     -0.30      0.00
    0    6    5     -1.17      0.00
    6    0    5     -0.09      0.00
    7    1    5      0.33      0.00
    8    2    5      0.30      0.00
   -5   11    4      0.06      0.00
   -4   10    4     -0.57      0.00
   -3    9    4     -1.05      0.00
   -2    8    4     -0.01      0.00
   -1    7    4      1.87      0.00
    0    6    4      2.54      0.00
    6    0    4      1.44      0.00
    7    1    4     -0.19      0.00
    8    2    4     -0.95      0.00
    9    3    4     -0.50      0.00
   -6   12    3     -0.54      0.00
   -5   11    3     -0.22      0.00
   -4   10    3      0.18      0.00
   -3    9    3     -0.94      0.00
   -2    8    3     -3.68      0.00
   -1    7    3     -5.40      0.00
    0    6    3     -3.91      0.00
    6    0    3     -0.13      0.00
    7    1    3      0.97      0.00
    8    2    3      0.74      0.00
    9    3    3     -0.11      0.00
   10    4    3     -0.28      0.00
   -7   13    2      0.41      0.00
   -6   12    2      0.07      0.00
   -5   11    2     -0.21      0.00
   -4   10    2      0.77      0.00
   -3    9    2      3.53      0.00
   -2    8    2      6.26      0.00
   -1    7    2      5.69      0.00
    0    6    2      1.69      0.00
    6    0    2     -2.83      0.00
    7    1    2     -3.28      0.00
    8    2    2     -1.77      0.00
    9    3    2     -0.68      0.00
   10    4    2     -0.72      0.00
   11    5    2     -0.72      0.00
   -7   13    1     -0.36      0.00
   -6   12    1     -0.33      0.00
   -5   11    1     -1.51      0.00
   -4   10    1     -4.22      0.00
   -3    9    1     -6.59      0.00
   -2    8    1     -5.18      0.00
   -1    7    1      1.21      0.00
    6    0    1      6.03      0.00
    7    1    1      4.02      0.00
    8    2    1      0.52      0.00
    9    3    1     -1.02      0.00
   10    4    1     -0.09      0.00
   11    5    1      0.71      0.00
    7   13    0     -0.43      0.00
    6   12    0     -0.57      0.00
    5   11    0      0.95      0.00
    4   10    0      2.49      0.00
    3    9    0      1.58      0.00
    2    8    0     -2.69      0.00
    1    7    0     -8.11      0.00
    0    6    0     -9.23      0.00
    6    0    0     -8.48      0.00
    7    1    0     -3.46      0.00
    8    2    0      0.36      0.00
    9    3    0      0.78      0.00
   10    4    0     -0.61      0.00
   11    5    0     -1.00      0.00
    7   13    1      1.02      0.00
    6   12    1      0.41      0.00
    5   11    1     -0.88      0.00
    4   10    1      0.15      0.00
    3    9    1      4.03      0.00
    2    8    1      8.31      0.00
    1    7    1     10.16      0.00
    0    6    1      7.43      0.00
   -6    0    1      1.30      0.00
   -8    2    1     -4.23      0.00
   -9    3    1     -1.51      0.00
  -10    4    1      0.23      0.00
  -11    5    1      0.20      0.00
    7   13    2     -0.57      0.00
    6   12    2     -0.47      0.00
    5   11    2      0.21      0.00
    4   10    2     -0.54      0.00
    3    9    2     -2.85      0.00
    2    8    2     -4.04      0.00
    1    7    2     -2.04      0.00
   -6    0    2      3.51      0.00
   -7    1    2      5.38      0.00
   -8    2    2      3.31      0.00
   -9    3    2      0.67      0.00
  -10    4    2      0.07      0.00
  -11    5    2      0.41      0.00
    6   12    3     -0.14      0.00
    5   11    3     -0.24      0.00
    4   10    3      0.96      0.00
    3    9    3      2.78      0.00
    2    8    3      2.55      0.00
    1    7    3     -0.69      0.00
   -6    0    3     -5.09      0.00
   -7    1    3     -3.53      0.00
   -8    2    3     -0.87      0.00
   -9    3    3      0.46      0.00
  -10    4    3      0.15      0.00
    5   11    4      0.77      0.00
    4   10    4     -0.02      0.00
    3    9    4     -0.58      0.00
    2    8    4      0.31      0.00
    1    7    4      2.01      0.00
   -6    0    4      2.07      0.00
   -7    1    4      0.41      0.00
   -8    2    4     -0.89      0.00
   -9    3    4     -0.71      0.00
    4   10    5      0.34      0.00
    3    9    5      0.16      0.00
    2    8    5     -0.91      0.00
    1    7    5     -1.73      0.00
   -6    0    5      0.35      0.00
   -7    1    5      1.04      0.00
   -8    2    5      0.99      0.00
    3    9    6      0.50      0.00
    2    8    6      0.83      0.00
    1    7    6      0.68      0.00
   -6    0    6      0.53      0.00
   -7    1    6      0.50      0.00
   -1    9    6      0.34      0.00
    0    8    6      0.54      0.00
   -3   11    5     -0.58      0.00
   -2   10    5     -0.66      0.00
   -1    9    5     -0.73      0.00
    0    8    5     -1.32      0.00
    8    0    5      0.23      0.00
    9    1    5     -0.08      0.00
   -4   12    4      0.87      0.00
   -3   11    4      0.44      0.00
   -2   10    4      0.09      0.00
   -1    9    4      0.89      0.00
    0    8    4      2.03      0.00
    8    0    4     -1.18      0.00
    9    1    4     -1.43      0.00
   10    2    4     -0.80      0.00
   -5   13    3     -1.29      0.00
   -4   12    3     -0.77      0.00
   -3   11    3     -0.29      0.00
   -2   10    3     -1.39      0.00
   -1    9    3     -3.20      0.00
    0    8    3     -3.17      0.00
    8    0    3      1.61      0.00
    9    1    3      1.01      0.00
   10    2    3     -0.06      0.00
   11    3    3     -0.32      0.00
   -6   14    2      0.61      0.00
   -5   13    2     -0.13      0.00
   -4   12    2     -0.75      0.00
   -3   11    2      0.13      0.00
   -2   10    2      2.29      0.00
   -1    9    2      3.53      0.00
    0    8    2      1.71      0.00
    8    0    2     -2.56      0.00
    9    1    2     -0.77      0.00
   10    2    2      0.17      0.00
   11    3    2      0.01      0.00
   -6   14    1      0.21      0.00
   -5   13    1      0.64      0.00
   -4   12    1     -0.09      0.00
   -3   11    1     -1.79      0.00
   -2   10    1     -2.37      0.00
   -1    9    1      0.58      0.00
    0    8    1      6.40      0.00
    8    0    1      1.45      0.00
    9    1    1     -1.63      0.00
   10    2    1     -2.18      0.00
   11    3    1     -0.83      0.00
    6   14    0     -1.36      0.00
    5   13    0     -1.69      0.00
    4   12    0     -0.41      0.00
    3   11    0      0.32      0.00
    2   10    0     -1.92      0.00
    1    9    0     -6.69      0.00
    0    8    0    -10.14      0.00
    8    0    0      0.91      0.00
    9    1    0      3.32      0.00
   10    2    0      2.02      0.00
   11    3    0     -0.10      0.00
   12    4    0     -0.45      0.00
    6   14    1      1.50      0.00
    5   13    1      0.89      0.00
    4   12    1     -0.16      0.00
    3   11    1      1.00      0.00
    2   10    1      4.40      0.00
    1    9    1      7.23      0.00
   -7    1    1     -4.04      0.00
   -8    0    1     -6.43      0.00
   -9    1    1     -4.53      0.00
  -10    2    1     -1.24      0.00
  -11    3    1      0.23      0.00
    6   14    2     -0.77      0.00
    5   13    2     -0.32      0.00
    4   12    2      0.32      0.00
    3   11    2     -0.36      0.00
    2   10    2     -1.89      0.00
    1    9    2     -1.66      0.00
   -8    0    2      4.79      0.00
   -9    1    2      1.70      0.00
  -10    2    2     -0.24      0.00
  -11    3    2     -0.12      0.00
    5   13    3     -0.36      0.00
    4   12    3     -0.53      0.00
    3   11    3      0.31      0.00
    2   10    3      1.37      0.00
    1    9    3      0.28      0.00
   -8    0    3     -1.50      0.00
   -9    1    3      0.79      0.00
  -10    2    3      1.26      0.00
  -11    3    3      0.49      0.00
    4   12    4      0.20      0.00
    3   11    4     -0.45      0.00
    2   10    4     -0.60      0.00
    1    9    4      0.52      0.00
   -8    0    4     -1.08      0.00
   -9    1    4     -1.46      0.00
  -10    2    4     -0.67      0.00
    3   11    5      0.08      0.00
    2   10    5     -0.12      0.00
    1    9    5     -0.97      0.00
   -8    0    5      1.17      0.00
   -9    1    5      0.68      0.00
    1    9    6      0.64      0.00
   -2   12    5     -0.90      0.00
   -1   11    5     -0.78      0.00
    0   10    5     -0.61      0.00
   -3   13    4      0.84      0.00
   -2   12    4      0.28      0.00
   -1   11    4     -0.24      0.00
    0   10    4      0.01      0.00
   10    0    4     -1.29      0.00
   -4   14    3     -0.64      0.00
   -3   13    3      0.36      0.00
   -2   12    3      0.88      0.00
   -1   11    3      0.01      0.00
    0   10    3     -0.77      0.00
   10    0    3      0.14      0.00
   11    1    3     -0.79      0.00
   -5   15    2     -0.12      0.00
   -4   14    2     -1.62      0.00
   -3   13    2     -2.52      0.00
   -2   12    2     -1.59      0.00
   -1   11    2      0.07      0.00
    0   10    2      0.28      0.00
    7    3    2     -1.09      0.00
   10    0    2      0.72      0.00
   11    1    2      1.01      0.00
   -5   15    1      1.40      0.00
   -4   14    1      2.36      0.00
   -3   13    1      1.84      0.00
   -2   12    1      0.60      0.00
   -1   11    1      0.87      0.00
    0   10    1      3.66      0.00
   10    0    1     -2.98      0.00
   11    1    1     -2.00      0.00
   12    2    1     -0.47      0.00
    5   15    0     -2.04      0.00
    4   14    0     -2.00      0.00
    3   13    0     -0.48      0.00
    2   12    0      0.01      0.00
    1   11    0     -2.36      0.00
    0   10    0     -5.93      0.00
   10    0    0      3.52      0.00
   11    1    0      1.26      0.00
   12    2    0     -0.24      0.00
    5   15    1      1.18      0.00
    4   14    1      0.40      0.00
    3   13    1     -0.54      0.00
    2   12    1      0.37      0.00
    1   11    1      2.76      0.00
  -10    0    1     -2.08      0.00
  -11    1    1      0.22      0.00
  -12    2    1      0.61      0.00
    5   15    2     -0.19      0.00
    4   14    2      0.67      0.00
    3   13    2      1.36      0.00
    2   12    2      0.76      0.00
    1   11    2     -0.40      0.00
  -10    0    2     -0.53      0.00
  -11    1    2     -0.86      0.00
    4   14    3     -0.38      0.00
    3   13    3     -0.65      0.00
    2   12    3     -0.17      0.00
    1   11    3      0.39      0.00
  -10    0    3      1.63      0.00
  -11    1    3      0.96      0.00
    3   13    4     -0.63      0.00
    2   12    4     -1.03      0.00
    1   11    4     -0.97      0.00
  -10    0    4     -0.84      0.00
    2   12    5      0.27      0.00
    1   11    5      0.13      0.00
    0   12    5     -0.10      0.00
   -2   14    4      0.05      0.00
   -1   13    4     -0.42      0.00
    0   12    4     -0.91      0.00
   -3   15    3      0.55      0.00
   -2   14    3      1.55      0.00
   -1   13    3      1.62      0.00
    0   12    3      0.74      0.00
   -3   15    2     -2.71      0.00
   -2   14    2     -3.14      0.00
   -1   13    2     -1.65      0.00
    0   12    2     -0.17      0.00
   -4   16    1      1.85      0.00
   -3   15    1      2.71      0.00
   -2   14    1      1.62      0.00
   -1   13    1      0.21      0.00
    0   12    1      0.68      0.00
   12    0    1     -0.58      0.00
    4   16    0     -1.34      0.00
    3   15    0     -0.57      0.00
    2   14    0      1.34      0.00
    1   13    0      1.88      0.00
    0   12    0     -0.08      0.00
   12    0    0      0.08      0.00
    4   16    1      0.17      0.00
    3   15    1     -0.95      0.00
    2   14    1     -2.00      0.00
    1   13    1     -1.26      0.00
  -12    0    1      0.87      0.00
    3   15    2      1.50      0.00
    2   14    2      2.12      0.00
    1   13    2      1.30      0.00
    3   15    3     -0.33      0.00
    2   14    3     -0.51      0.00
    1   13    3      0.06      0.00
    2   14    4     -0.60      0.00
    1   13    4     -0.90      0.00
    0   14    4     -0.47      0.00
   10    4    4     -0.03      0.00
   -1   15    3      1.32      0.00
    0   14    3      0.86      0.00
   -2   16    2     -2.10      0.00
   -1   15    2     -1.70      0.00
    0   14    2      0.13      0.00
   -2   16    1      1.25      0.00
   -1   15    1     -0.55      0.00
    0   14    1     -1.98      0.00
    2   16    0      1.40      0.00
    1   15    0      3.46      0.00
    0   14    0      3.78      0.00
    2   16    1     -1.92      0.00
    1   15    1     -2.99      0.00
    2   16    2      1.30      0.00
    1   15    2      1.50      0.00
    1   15    3     -0.10      0.00
   -8    6    5     -0.34      0.00
    0   16    2      0.01      0.00
   -1   17    1     -0.25      0.00
    0   16    1     -2.05      0.00
    1   17    0      1.97      0.00
    0   16    0      3.65      0.00
    1   17    1     -1.52      0.00
    1    1    0     26.66      0.00
   -2    0    2    -11.95      0.00
    0    0    0      0.00      0.00
# SQUEEZE RESULTS (Version = 230318)
# Note: Data are Listed for all Voids in the P1 Unit Cell
# i.e. Centre of Gravity, Solvent Accessible Volume,
# Recovered number of Electrons in the Void and
# Details about the Squeezed Material
loop_
  _platon_squeeze_void_nr
  _platon_squeeze_void_average_x
  _platon_squeeze_void_average_y
  _platon_squeeze_void_average_z
  _platon_squeeze_void_volume
  _platon_squeeze_void_count_electrons
  _platon_squeeze_void_content
   1  0.000  0.000 -0.040        97        17 ' '
   2  0.500  0.500 -0.046        97        17 ' '
# Missing Reflections Below sin(th)/lambda = 0.25
loop_
  _platon_missing_refln_index_h
  _platon_missing_refln_index_k
  _platon_missing_refln_index_l
  _platon_missing_refln_theta
    1    1    0     2.706
   -2    0    2     8.646
_platon_squeeze_void_probe_radius                  1.20
_platon_squeeze_details
)
TITL 20181019ZH_ZNZ6502_0m_a.res in P New: C2/m
CELL    9.2727   12.8910    5.4962     90.00     90.00     90.00
SPGR C2/m
# Solvent Accessible Volume =       192
# Electrons Found in S.A.V. =        33
# Note: Atoms in Void are Labelled as Cxxx and Qxxx for all Others
C101 0.605 0.437 0.370 !       4.74 eA-3
C102 0.424 0.497 0.094 !       1.08 eA-3
Q103 0.790 0.500 0.344 !       0.97 eA-3
C104 1.000 0.047 0.496 !       0.74 eA-3
C105 0.565 0.501 0.500 !       0.67 eA-3
Q106 0.892 0.497 0.062 !       0.62 eA-3
Q107 0.814 0.295 0.062 !       0.56 eA-3
C108 0.554 0.499 0.375 !       0.54 eA-3
)
;
_shelx_fab_checksum              43752
loop_
_space_group_symop_operation_xyz
'x, y, z'
'-x, y, -z'
'x+1/2, y+1/2, z'
'-x+1/2, y+1/2, -z'
'-x, -y, -z'
'x, -y, z'
'-x+1/2, -y+1/2, -z'
'x+1/2, -y+1/2, z'
loop_
_atom_site_label
_atom_site_type_symbol
_atom_site_fract_x
_atom_site_fract_y
_atom_site_fract_z
_atom_site_U_iso_or_equiv
_atom_site_adp_type
_atom_site_occupancy
_atom_site_site_symmetry_order
_atom_site_calc_flag
_atom_site_refinement_flags_posn
_atom_site_refinement_flags_adp
_atom_site_refinement_flags_occupancy
Co1 Co 0.500000 0.12017(3) 0.500000 0.00641(15) Uani 1 2 d S T P
Co2 Co 0.500000 0.000000 0.000000 0.00548(17) Uani 1 4 d S T P
O1 O 0.38062(15) 0.23698(11) 0.3507(2) 0.0114(3) Uani 1 1 d . . .
O2 O 0.36846(16) 0.11184(11) -0.1714(3) 0.0090(3) Uani 1 1 d . . .
O3 O 0.3967(2) 0.000000 0.3257(3) 0.0072(4) Uani 1 2 d S T P
H3A H 0.304585 0.000000 0.325009 0.009 Uiso 1 2 d R U P
C1 C 0.3038(2) 0.18767(16) -0.0755(3) 0.0080(4) Uani 1 1 d . . .
C2 C 0.3095(2) 0.24217(15) 0.1589(3) 0.0089(4) Uani 1 1 d . . .
loop_
_atom_site_aniso_label
_atom_site_aniso_U_11
_atom_site_aniso_U_22
_atom_site_aniso_U_33
_atom_site_aniso_U_23
_atom_site_aniso_U_13
_atom_site_aniso_U_12
Co1 0.0103(2) 0.0036(2) 0.0053(2) 0.000 -0.00142(14) 0.000
Co2 0.0083(3) 0.0031(3) 0.0049(3) 0.000 -0.0004(2) 0.000
O1 0.0157(7) 0.0095(7) 0.0091(7) -0.0010(6) -0.0046(5) 0.0041(6)
O2 0.0121(7) 0.0070(7) 0.0080(7) 0.0003(5) 0.0004(5) 0.0035(6)
O3 0.0074(9) 0.0074(10) 0.0067(9) 0.000 -0.0004(7) 0.000
C1 0.0091(9) 0.0060(10) 0.0088(9) 0.0022(7) 0.0010(7) -0.0003(8)
C2 0.0114(9) 0.0059(10) 0.0095(9) 0.0017(7) 0.0012(7) 0.0008(8)
loop_
_atom_type_symbol
_atom_type_description
_atom_type_scat_dispersion_real
_atom_type_scat_dispersion_imag
_atom_type_scat_source
C C 0.0033 0.0016 'International Tables Vol C Tables 4.2.6.8 and 6.1.1.4'
H H 0.0000 0.0000 'International Tables Vol C Tables 4.2.6.8 and 6.1.1.4'
Cl Cl 0.1484 0.1585 'International Tables Vol C Tables 4.2.6.8 and 6.1.1.4'
Co Co 0.3494 0.9721 'International Tables Vol C Tables 4.2.6.8 and 6.1.1.4'
O O 0.0106 0.0060 'International Tables Vol C Tables 4.2.6.8 and 6.1.1.4'
loop_
_geom_angle_atom_site_label_1
_geom_angle_atom_site_label_2
_geom_angle_atom_site_label_3
_geom_angle
_geom_angle_site_symmetry_1
_geom_angle_site_symmetry_3
O1 Co1 O1 84.91(8) . 2_656
O1 Co1 O3 174.23(6) . 5_656
O1 Co1 O3 96.65(6) 2_656 5_656
O1 Co1 O3 96.65(6) . .
O1 Co1 O3 174.23(6) 2_656 .
O3 Co1 O3 82.34(8) 5_656 .
O1 Co1 O2 90.39(6) . 2_655
O1 Co1 O2 93.77(6) 2_656 2_655
O3 Co1 O2 95.05(6) 5_656 2_655
O3 Co1 O2 80.68(7) . 2_655
O1 Co1 O2 93.77(6) . 1_556
O1 Co1 O2 90.39(6) 2_656 1_556
O3 Co1 O2 80.68(7) 5_656 1_556
O3 Co1 O2 95.05(6) . 1_556
O2 Co1 O2 174.36(8) 2_655 1_556
O3 Co2 O3 180.0 5_655 .
O3 Co2 O2 83.07(6) 5_655 6
O3 Co2 O2 96.93(6) . 6
O3 Co2 O2 96.93(6) 5_655 2_655
O3 Co2 O2 83.07(6) . 2_655
O2 Co2 O2 180.00(6) 6 2_655
O3 Co2 O2 96.93(6) 5_655 5_655
O3 Co2 O2 83.07(6) . 5_655
O2 Co2 O2 93.81(8) 6 5_655
O2 Co2 O2 86.19(8) 2_655 5_655
O3 Co2 O2 83.07(6) 5_655 .
O3 Co2 O2 96.93(6) . .
O2 Co2 O2 86.19(8) 6 .
O2 Co2 O2 93.81(8) 2_655 .
O2 Co2 O2 180.0 5_655 .
C2 O1 Co1 131.84(13) . .
C1 O2 Co2 128.13(12) . .
C1 O2 Co1 124.96(12) . 1_554
Co2 O2 Co1 94.58(6) . 1_554
Co2 O3 Co1 100.99(7) . .
Co2 O3 Co1 100.99(7) . 5_656
Co1 O3 Co1 97.66(8) . 5_656
Co2 O3 H3A 117.9 . .
Co1 O3 H3A 117.9 . .
Co1 O3 H3A 117.9 5_656 .
O2 C1 C2 133.70(18) . 7
O2 C1 C2 136.04(18) . .
C2 C1 C2 90.26(16) 7 .
O1 C2 C1 132.83(18) . 7
O1 C2 C1 137.40(18) . .
C1 C2 C1 89.74(16) 7 .
loop_
_geom_bond_atom_site_label_1
_geom_bond_atom_site_label_2
_geom_bond_distance
_geom_bond_site_symmetry_2
Co1 O1 2.0410(14) .
Co1 O1 2.0410(14) 2_656
Co1 O3 2.0579(13) 5_656
Co1 O3 2.0579(13) .
Co1 O2 2.1824(15) 2_655
Co1 O2 2.1824(15) 1_556
Co2 O3 2.0307(19) 5_655
Co2 O3 2.0307(19) .
Co2 O2 2.1102(14) 6
Co2 O2 2.1102(14) 2_655
Co2 O2 2.1102(14) 5_655
Co2 O2 2.1102(14) .
O1 C2 1.245(2) .
O2 C1 1.262(3) .
O3 H3A 0.8538 .
C1 C2 1.460(3) 7
C1 C2 1.468(3) .
loop_
_geom_torsion_atom_site_label_1
_geom_torsion_atom_site_label_2
_geom_torsion_atom_site_label_3
_geom_torsion_atom_site_label_4
_geom_torsion
_geom_torsion_site_symmetry_1
_geom_torsion_site_symmetry_4
Co2 O2 C1 C2 -166.30(16) . 7
Co1 O2 C1 C2 61.4(3) 1_554 7
Co2 O2 C1 C2 13.9(3) . .
Co1 O2 C1 C2 -118.4(2) 1_554 .
Co1 O1 C2 C1 162.09(16) . 7
Co1 O1 C2 C1 -20.6(3) . .
O2 C1 C2 O1 1.8(4) . .
C2 C1 C2 O1 -178.0(3) 7 .
O2 C1 C2 C1 179.8(3) . 7
C2 C1 C2 C1 0.001(0) 7 7
