#------------------------------------------------------------------------------
#$Date: 2019-11-03 10:56:43 +0200 (Sun, 03 Nov 2019) $
#$Revision: 221198 $
#$URL: file:///home/coder/svn-repositories/cod/cif/4/12/80/4128067.cif $
#------------------------------------------------------------------------------
#
# This file is available in the Crystallography Open Database (COD),
# http://www.crystallography.net/
#
# All data on this site have been placed in the public domain by the
# contributors.
#
data_4128067
loop_
_publ_author_name
'Castillo-Blas, Celia'
'L\'opez-Salas, Nieves'
'Guti\'errez, Mar\'ia C'
'Puente-Orench, In\'es'
'Guti\'errez-Puebla, Enrique'
'Ferrer, M. Luisa'
'Monge, M \'Angeles'
'G\'andara, Felipe'
_publ_section_title
;
 Encoding Metal-Cation Arrangements in Metal-Organic Frameworks for
 Programming the Composition of Electrocatalytically Active Multimetal
 Oxides.
;
_journal_issue                   4
_journal_name_full               'Journal of the American Chemical Society'
_journal_page_first              1766
_journal_page_last               1774
_journal_paper_doi               10.1021/jacs.8b12860
_journal_volume                  141
_journal_year                    2019
_chemical_formula_moiety
'C17 H8 Ca0.1 Co0.16 F6 Mn0.4 O4 Zn0.34, 0.25(O)'
_chemical_formula_sum            'C17 H8 Ca0.08 Co0.14 F6 Mn0.5 O4.25 Zn0.36'
_chemical_formula_weight         457.10
_space_group_crystal_system      hexagonal
_space_group_IT_number           179
_space_group_name_Hall           'P 65 2 (0 0 1)'
_space_group_name_H-M_alt        'P 65 2 2'
_symmetry_space_group_name_Hall  'P 65 2 (0 0 1)'
_symmetry_space_group_name_H-M   'P 65 2 2'
_atom_sites_solution_hydrogens   geom
_atom_sites_solution_primary     dual
_audit_creation_date             2018-05-16
_audit_creation_method
;
Olex2 1.2
(compiled 2018.04.26 svn.r3504 for OlexSys, GUI svn.r5492)
;
_cell_angle_alpha                90
_cell_angle_beta                 90
_cell_angle_gamma                120
_cell_formula_units_Z            12
_cell_length_a                   21.2398(7)
_cell_length_b                   21.2398(7)
_cell_length_c                   15.1793(9)
_cell_measurement_reflns_used    4565
_cell_measurement_temperature    250
_cell_measurement_theta_max      66.089
_cell_measurement_theta_min      2.402
_cell_volume                     5930.4(4)
_computing_cell_refinement       'SAINT v8.37A (Bruker, 2015)'
_computing_data_reduction        'SAINT v8.37A (Bruker, 2015)'
_computing_molecular_graphics    'Olex2 (Dolomanov et al., 2009)'
_computing_publication_material  'Olex2 (Dolomanov et al., 2009)'
_computing_structure_refinement  'XL (Sheldrick, 2008)'
_computing_structure_solution    'XT (Sheldrick, 2015)'
_diffrn_ambient_temperature      250
_diffrn_measured_fraction_theta_full 0.994
_diffrn_measured_fraction_theta_max 0.994
_diffrn_measurement_device_type  'Vantec 500'
_diffrn_measurement_method       '\f and \w scans'
_diffrn_radiation_type           CuK\a
_diffrn_radiation_wavelength     1.54178
_diffrn_reflns_av_R_equivalents  0.1178
_diffrn_reflns_av_unetI/netI     0.0630
_diffrn_reflns_Laue_measured_fraction_full 0.994
_diffrn_reflns_Laue_measured_fraction_max 0.994
_diffrn_reflns_limit_h_max       24
_diffrn_reflns_limit_h_min       -25
_diffrn_reflns_limit_k_max       25
_diffrn_reflns_limit_k_min       -23
_diffrn_reflns_limit_l_max       18
_diffrn_reflns_limit_l_min       -17
_diffrn_reflns_number            34671
_diffrn_reflns_point_group_measured_fraction_full 0.994
_diffrn_reflns_point_group_measured_fraction_max 0.994
_diffrn_reflns_theta_full        66.220
_diffrn_reflns_theta_max         66.220
_diffrn_reflns_theta_min         2.402
_diffrn_standards_number         0
_exptl_absorpt_coefficient_mu    5.228
_exptl_absorpt_correction_T_max  1.0000
_exptl_absorpt_correction_T_min  0.7186
_exptl_absorpt_correction_type   multi-scan
_exptl_absorpt_process_details
'SADABS-2016/2 (Bruker,2016/2) was used for absorption correction. wR2(int) was 0.1429 before and 0.0960 after correction. The Ratio of minimum to maximum transmission is 0.7186. The \l/2 correction factor is Not present.'
_exptl_crystal_colour            blue
_exptl_crystal_colour_primary    blue
_exptl_crystal_density_diffrn    1.536
_exptl_crystal_description       needle
_exptl_crystal_F_000             2722
_exptl_crystal_size_max          0.08
_exptl_crystal_size_mid          0.03
_exptl_crystal_size_min          0.03
_refine_diff_density_max         0.755
_refine_diff_density_min         -0.490
_refine_diff_density_rms         0.129
_refine_ls_abs_structure_details
;
 Flack x determined using 940 quotients [(I+)-(I-)]/[(I+)+(I-)]
 (Parsons, Flack and Wagner, Acta Cryst. B69 (2013) 249-259).
;
_refine_ls_abs_structure_Flack   -0.012(10)
_refine_ls_extinction_method     none
_refine_ls_goodness_of_fit_ref   1.185
_refine_ls_hydrogen_treatment    constr
_refine_ls_matrix_type           full
_refine_ls_number_parameters     269
_refine_ls_number_reflns         3451
_refine_ls_number_restraints     0
_refine_ls_restrained_S_all      1.185
_refine_ls_R_factor_all          0.0807
_refine_ls_R_factor_gt           0.0676
_refine_ls_shift/su_max          0.000
_refine_ls_shift/su_mean         0.000
_refine_ls_structure_factor_coef Fsqd
_refine_ls_weighting_details
'w=1/[\s^2^(Fo^2^)+(0.1000P)^2^] where P=(Fo^2^+2Fc^2^)/3'
_refine_ls_weighting_scheme      calc
_refine_ls_wR_factor_gt          0.1733
_refine_ls_wR_factor_ref         0.1841
_reflns_Friedel_coverage         0.698
_reflns_Friedel_fraction_full    0.993
_reflns_Friedel_fraction_max     0.993
_reflns_number_gt                2852
_reflns_number_total             3451
_reflns_threshold_expression     'I > 2\s(I)'
_iucr_refine_instructions_details
;

    1.res created by SHELXL-2014/7

TITL 1_a.res in P6(5)22
REM Old TITL 1 in P6(5)22
REM SHELXT solution in P6(5)22
REM R1 0.146, Rweak 0.046, Alpha 0.007, Orientation as input
REM Flack x = -0.339 ( 0.020 ) from Parsons' quotients
REM Formula found by SHELXT: C34 O6 F14 Ca Zn
CELL 1.54178 21.2398 21.2398 15.1793 90 90 120
ZERR 12 0.0007 0.0007 0.0009 0 0 0
LATT -1
SYMM -Y,+X-Y,0.667+Z
SYMM +Y-X,-X,0.333+Z
SYMM -X,-Y,0.5+Z
SYMM +Y,-X+Y,0.167+Z
SYMM -Y+X,+X,0.833+Z
SYMM +Y,+X,0.667-Z
SYMM -Y+X,-Y,-Z
SYMM -X,-X+Y,0.333-Z
SYMM -Y,-X,0.167-Z
SYMM +Y-X,+Y,0.5-Z
SYMM +X,+X-Y,0.833-Z
SFAC C H Co F Mn O Zn Ca
UNIT 204 96 1.68 72 6.06 51 4.32 1
 
L.S. 20
PLAN  20
SIZE 0.03 0.03 0.08
TEMP -23.15
list 4
fmap 2
acta
REM <olex2.extras>
REM <HklSrc "%.\\1.hkl">
REM </olex2.extras>
 
WGHT    0.100000
FVAR       0.21043   0.68511
PART 1
ZN01  7    0.282354    0.717646    0.083333    20.50000    0.02899    0.02899 =
         0.02497    0.00169    0.00169    0.01614
MN02  5    0.325814    0.651628    0.250000    10.40000    0.02098    0.02234 =
         0.03173    0.00000   -0.00362    0.01117
PART 0
O003  6   -0.255375    0.374095    0.520539    11.00000    0.03357    0.02208 =
         0.03968   -0.00117    0.00122    0.01175
F004  4   -0.094427    0.704254    0.316803    11.00000    0.04712    0.07064 =
         0.10156    0.02601    0.00829    0.03701
O005  6   -0.266582    0.424438    0.645116    11.00000    0.03590    0.03064 =
         0.04031    0.00095    0.00634    0.01381
O006  6    0.230363    0.656376    0.274925    11.00000    0.03317    0.04482 =
         0.04648   -0.00218    0.00371    0.01880
F007  4    0.047871    0.738273    0.572361    11.00000    0.04940    0.07249 =
         0.06814   -0.02068   -0.00585    0.01097
F008  4   -0.011744    0.794548    0.555898    11.00000    0.06131    0.04703 =
         0.11389   -0.02414    0.03894    0.01284
F009  4   -0.015778    0.813048    0.356479    11.00000    0.06497    0.04746 =
         0.13091    0.02782    0.04441    0.03694
O00A  6    0.203432    0.701410    0.158082    11.00000    0.03409    0.06588 =
         0.04305    0.00293    0.01251    0.02656
F00B  4    0.083261    0.825888    0.479278    11.00000    0.06186    0.03576 =
         0.11593   -0.01279    0.03932   -0.00790
F00C  4   -0.110798    0.748220    0.435374    11.00000    0.05321    0.07325 =
         0.12899    0.02214    0.03955    0.04348
C00D  1   -0.164786    0.564320    0.587543    11.00000    0.03175    0.03277 =
         0.04868   -0.00184    0.01194    0.01270
AFIX  43
H00D  2   -0.186113    0.559557    0.643210    11.00000   -1.20000
AFIX   0
C00E  1   -0.240133    0.429666    0.571247    11.00000    0.02082    0.03101 =
         0.04160   -0.00508   -0.00716    0.01090
C00F  1   -0.186527    0.503160    0.536138    11.00000    0.02604    0.03744 =
         0.04130   -0.00107   -0.00347    0.01832
C00G  1   -0.080096    0.639421    0.476168    11.00000    0.02874    0.02919 =
         0.05493    0.00219    0.00665    0.01322
C00H  1    0.194738    0.680930    0.237864    11.00000    0.02633    0.03051 =
         0.05741   -0.01133   -0.00048    0.00972
C00I  1    0.102657    0.720155    0.249179    11.00000    0.04312    0.05186 =
         0.04919    0.01084    0.01411    0.02705
AFIX  43
H00I  2    0.115098    0.739134    0.191830    11.00000   -1.20000
AFIX   0
C00J  1    0.050948    0.727372    0.296493    11.00000    0.03586    0.04848 =
         0.05953    0.00869    0.01221    0.02342
AFIX  43
H00J  2    0.026510    0.748849    0.269387    11.00000   -1.20000
AFIX   0
C00K  1   -0.112102    0.632634    0.558649    11.00000    0.03499    0.03624 =
         0.04844   -0.00690    0.00366    0.01231
AFIX  43
H00K  2   -0.098126    0.673820    0.594121    11.00000   -1.20000
AFIX   0
C00L  1    0.067821    0.668009    0.418495    11.00000    0.03927    0.04087 =
         0.04853    0.00695    0.01627    0.02088
AFIX  43
H00L  2    0.054757    0.648784    0.475669    11.00000   -1.20000
AFIX   0
C00M  1   -0.157129    0.510638    0.452782    11.00000    0.03160    0.02383 =
         0.04222   -0.00405   -0.00617    0.00752
AFIX  43
H00M  2   -0.173599    0.469841    0.415895    11.00000   -1.20000
AFIX   0
C00N  1   -0.103421    0.578268    0.423726    11.00000    0.03474    0.04332 =
         0.04266    0.00628    0.01487    0.01562
AFIX  43
H00N  2   -0.082560    0.582736    0.367814    11.00000   -1.20000
AFIX   0
C00O  1    0.136069    0.684824    0.286653    11.00000    0.02976    0.03311 =
         0.04938    0.00140    0.00369    0.01418
C00P  1    0.119282    0.659656    0.373657    11.00000    0.03093    0.04302 =
         0.05644    0.00931    0.00622    0.02107
AFIX  43
H00P  2    0.142924    0.637396    0.400858    11.00000   -1.20000
AFIX   0
C00Q  1    0.034434    0.703845    0.382340    11.00000    0.02778    0.03290 =
         0.05651    0.00556    0.01131    0.01165
C00R  1    0.025085    0.767769    0.513447    11.00000    0.04286    0.03528 =
         0.10152   -0.01635    0.02923    0.00447
C00S  1   -0.020070    0.713830    0.438621    11.00000    0.03212    0.03332 =
         0.06362   -0.00074    0.01620    0.01104
C00T  1   -0.059797    0.744701    0.387483    11.00000    0.04135    0.04428 =
         0.10209    0.01416    0.02584    0.02410
PART 2
CO01  3    0.282933    0.717067    0.083333   -20.50000    0.03432    0.03432 =
         0.05431    0.00521    0.00521    0.01697
PART 0
O1    6   -0.017879    0.479566    0.198578    10.25000    0.14249
PART 2
CA02  8    0.319567    0.639134    0.250000    10.10000    0.03524    0.02042 =
         0.02079    0.00000    0.00201    0.01021
HKLF 4
 
REM  1_a.res in P6(5)22
REM R1 =  0.0676 for    2852 Fo > 4sig(Fo)  and  0.0807 for all    3451 data
REM    269 parameters refined using      0 restraints
 
END  
     
WGHT      0.1264      0.0000 

REM Highest difference peak  0.755,  deepest hole -0.490,  1-sigma level  0.129
Q1    1   0.0702  0.5107  0.2381  11.00000  0.05    0.76
Q2    1   0.0168  0.4758  0.1911  11.00000  0.05    0.71
Q3    1  -0.0324  0.5014  0.2238  11.00000  0.05    0.71
Q4    1   0.0035  0.5464  0.5062  11.00000  0.05    0.40
Q5    1  -0.0687  0.4857  0.4211  11.00000  0.05    0.39
Q6    1   0.0729  0.5515  0.4065  11.00000  0.05    0.37
Q7    1  -0.2750  0.3956  0.4533  11.00000  0.05    0.35
Q8    1   0.2654  0.6752  0.1973  11.00000  0.05    0.35
Q9    1  -0.1539  0.4293  0.5047  11.00000  0.05    0.35
Q10   1  -0.1986  0.5135  0.7324  11.00000  0.05    0.34
Q11   1   0.1867  0.6940  0.0850  11.00000  0.05    0.34
Q12   1   0.1091  0.6134  0.0829  11.00000  0.05    0.33
Q13   1   0.2603  0.7441  0.1645  11.00000  0.05    0.33
Q14   1  -0.1652  0.4290  0.6672  11.00000  0.05    0.31
Q15   1   0.1677  0.5883  0.3385  11.00000  0.05    0.29
Q16   1   0.0015  0.5501  0.3415  11.00000  0.05    0.29
Q17   1  -0.2040  0.3506  0.5615  11.00000  0.05    0.28
Q18   1   0.2586  0.5980  0.2255  11.00000  0.05    0.27
Q19   1  -0.1658  0.6114  0.5542  11.00000  0.05    0.26
Q20   1  -0.0099  0.9814  0.3040  11.00000  0.05    0.26

  REM The information below was added by Olex2.
  REM
  REM R1 = 0.0676 for 2852 Fo > 4sig(Fo) and 0.0807 for all 34715 data
  REM n/a parameters refined using n/a restraints
  REM Highest difference peak 0.76, deepest hole -0.49
  REM Mean Shift 0, Max Shift 0.000.

  REM +++ Tabular Listing of Refinement Information +++
  REM R1_all = 0.0807
  REM R1_gt = 0.0676
  REM wR_ref = 0.1841
  REM GOOF = 1.185
  REM Shift_max = 0.000
  REM Shift_mean = 0
  REM Reflections_all = 34715
  REM Reflections_gt = 2852
  REM Parameters = n/a
  REM Hole = -0.49
  REM Peak = 0.76
  REM Flack = -0.012(10)

  
;
_cod_data_source_file            Zn0.32Mn0.40Co0.15Ca0.12(hfipbb).cif
_cod_data_source_block           1
_cod_original_cell_volume        5930.4(5)
_cod_original_formula_sum        'C17 H8 Ca0.08 Co0.14 F6 Mn0.50 O4.25 Zn0.36'
_cod_database_code               4128067
_shelx_shelxl_version_number     2014/7
_shelx_space_group_comment
;
The symmetry employed for this shelxl refinement is uniquely defined
by the following loop, which should always be used as a source of
symmetry information in preference to the above space-group names.
They are only intended as comments.
;
_shelx_estimated_absorpt_t_max   0.859
_shelx_estimated_absorpt_t_min   0.680
_olex2_refinement_description
;
1. Fixed Uiso
 At 1.2 times of:
  All C(H) groups
2. Others
 Sof(Co01)=0.5*(1-FVAR(2))
 Sof(Zn01)=0.5*FVAR(2)
 Fixed Sof: Mn02(0.4) O1(0.25) Ca02(0.1)
3.a Aromatic/amide H refined with riding coordinates:
 C00D(H00D), C00I(H00I), C00J(H00J), C00K(H00K), C00L(H00L), C00M(H00M),
 C00N(H00N), C00P(H00P)
;
_olex2_submission_special_instructions 'No special instructions were received'
loop_
_space_group_symop_operation_xyz
'x, y, z'
'-y, x-y, z+2/3'
'-x+y, -x, z+1/3'
'-x, -y, z+1/2'
'y, -x+y, z+1/6'
'x-y, x, z+5/6'
'y, x, -z+2/3'
'x-y, -y, -z'
'-x, -x+y, -z+1/3'
'-y, -x, -z+1/6'
'-x+y, y, -z+1/2'
'x, x-y, -z+5/6'
loop_
_atom_site_label
_atom_site_type_symbol
_atom_site_fract_x
_atom_site_fract_y
_atom_site_fract_z
_atom_site_U_iso_or_equiv
_atom_site_adp_type
_atom_site_occupancy
_atom_site_site_symmetry_order
_atom_site_calc_flag
_atom_site_refinement_flags_posn
_atom_site_refinement_flags_adp
_atom_site_refinement_flags_occupancy
_atom_site_disorder_assembly
_atom_site_disorder_group
Zn01 Zn 0.2824(2) 0.7176(2) 0.0833 0.027(3) Uani 0.69(3) 2 d S T P A 1
Mn02 Mn 0.3258(4) 0.6516(9) 0.2500 0.025(2) Uani 0.8 2 d S T P B 1
O003 O -0.2554(3) 0.3741(3) 0.5205(4) 0.0327(13) Uani 1 1 d . . . . .
F004 F -0.0944(4) 0.7043(4) 0.3168(6) 0.070(2) Uani 1 1 d . . . . .
O005 O -0.2666(3) 0.4244(3) 0.6451(4) 0.0369(14) Uani 1 1 d . . . . .
O006 O 0.2304(4) 0.6564(4) 0.2749(4) 0.0418(16) Uani 1 1 d . . . . .
F007 F 0.0479(4) 0.7383(4) 0.5724(5) 0.072(2) Uani 1 1 d . . . . .
F008 F -0.0117(4) 0.7945(4) 0.5559(6) 0.080(3) Uani 1 1 d . . . . .
F009 F -0.0158(4) 0.8130(4) 0.3565(6) 0.077(2) Uani 1 1 d . . . . .
O00A O 0.2034(4) 0.7014(4) 0.1581(4) 0.0470(18) Uani 1 1 d . . . . .
F00B F 0.0833(4) 0.8259(4) 0.4793(6) 0.086(3) Uani 1 1 d . . . . .
F00C F -0.1108(4) 0.7482(4) 0.4354(6) 0.080(3) Uani 1 1 d . . . . .
C00D C -0.1648(5) 0.5643(5) 0.5875(7) 0.039(2) Uani 1 1 d . . . . .
H00D H -0.1861 0.5596 0.6432 0.047 Uiso 1 1 calc R . . . .
C00E C -0.2401(4) 0.4297(5) 0.5712(6) 0.0321(19) Uani 1 1 d . . . . .
C00F C -0.1865(5) 0.5032(5) 0.5361(6) 0.034(2) Uani 1 1 d . . . . .
C00G C -0.0801(5) 0.6394(5) 0.4762(7) 0.038(2) Uani 1 1 d . . . . .
C00H C 0.1947(5) 0.6809(5) 0.2379(7) 0.040(2) Uani 1 1 d . . . . .
C00I C 0.1027(6) 0.7202(6) 0.2492(7) 0.047(2) Uani 1 1 d . . . . .
H00I H 0.1151 0.7391 0.1918 0.056 Uiso 1 1 calc R . . . .
C00J C 0.0509(6) 0.7274(6) 0.2965(7) 0.047(2) Uani 1 1 d . . . . .
H00J H 0.0265 0.7488 0.2694 0.056 Uiso 1 1 calc R . . . .
C00K C -0.1121(6) 0.6326(6) 0.5586(6) 0.042(2) Uani 1 1 d . . . . .
H00K H -0.0981 0.6738 0.5941 0.051 Uiso 1 1 calc R . . . .
C00L C 0.0678(5) 0.6680(5) 0.4185(7) 0.043(2) Uani 1 1 d . . . . .
H00L H 0.0548 0.6488 0.4757 0.051 Uiso 1 1 calc R . . . .
C00M C -0.1571(5) 0.5106(5) 0.4528(6) 0.035(2) Uani 1 1 d . . . . .
H00M H -0.1736 0.4698 0.4159 0.042 Uiso 1 1 calc R . . . .
C00N C -0.1034(5) 0.5783(6) 0.4237(7) 0.042(2) Uani 1 1 d . . . . .
H00N H -0.0826 0.5827 0.3678 0.050 Uiso 1 1 calc R . . . .
C00O C 0.1361(5) 0.6848(5) 0.2867(7) 0.038(2) Uani 1 1 d . . . . .
C00P C 0.1193(5) 0.6597(6) 0.3737(7) 0.042(2) Uani 1 1 d . . . . .
H00P H 0.1429 0.6374 0.4009 0.051 Uiso 1 1 calc R . . . .
C00Q C 0.0344(5) 0.7038(5) 0.3823(7) 0.041(2) Uani 1 1 d . . . . .
C00R C 0.0251(7) 0.7678(6) 0.5134(10) 0.067(4) Uani 1 1 d . . . . .
C00S C -0.0201(5) 0.7138(6) 0.4386(7) 0.045(3) Uani 1 1 d . . . . .
C00T C -0.0598(6) 0.7447(7) 0.3875(10) 0.061(3) Uani 1 1 d . . . . .
Co01 Co 0.2829(8) 0.7171(8) 0.0833 0.041(8) Uani 0.31(3) 2 d S T P A 2
O1 O -0.018(4) 0.480(3) 0.199(4) 0.14(2) Uiso 0.25 1 d . . . . .
Ca02 Ca 0.320(2) 0.639(5) 0.2500 0.027(10) Uani 0.2 2 d S T P A 2
loop_
_atom_site_aniso_label
_atom_site_aniso_U_11
_atom_site_aniso_U_22
_atom_site_aniso_U_33
_atom_site_aniso_U_23
_atom_site_aniso_U_13
_atom_site_aniso_U_12
Zn01 0.029(4) 0.029(4) 0.025(4) 0.002(2) 0.002(2) 0.016(3)
Mn02 0.0210(19) 0.022(5) 0.032(3) 0.000 -0.0036(15) 0.011(3)
O003 0.034(3) 0.022(3) 0.040(3) -0.001(2) 0.001(2) 0.012(3)
F004 0.047(4) 0.071(5) 0.102(6) 0.026(4) 0.008(4) 0.037(4)
O005 0.036(4) 0.031(3) 0.040(3) 0.001(3) 0.006(3) 0.014(3)
O006 0.033(4) 0.045(4) 0.046(4) -0.002(3) 0.004(3) 0.019(3)
F007 0.049(4) 0.072(5) 0.068(4) -0.021(4) -0.006(4) 0.011(4)
F008 0.061(5) 0.047(4) 0.114(6) -0.024(4) 0.039(4) 0.013(4)
F009 0.065(5) 0.047(4) 0.131(7) 0.028(4) 0.044(5) 0.037(4)
O00A 0.034(4) 0.066(5) 0.043(4) 0.003(3) 0.013(3) 0.027(4)
F00B 0.062(5) 0.036(4) 0.116(6) -0.013(4) 0.039(5) -0.008(3)
F00C 0.053(4) 0.073(5) 0.129(7) 0.022(5) 0.040(4) 0.043(4)
C00D 0.032(5) 0.033(5) 0.049(5) -0.002(4) 0.012(4) 0.013(4)
C00E 0.021(4) 0.031(5) 0.042(5) -0.005(4) -0.007(4) 0.011(4)
C00F 0.026(4) 0.037(5) 0.041(5) -0.001(4) -0.003(4) 0.018(4)
C00G 0.029(5) 0.029(5) 0.055(6) 0.002(4) 0.007(4) 0.013(4)
C00H 0.026(5) 0.031(5) 0.057(6) -0.011(5) 0.000(4) 0.010(4)
C00I 0.043(6) 0.052(6) 0.049(5) 0.011(6) 0.014(5) 0.027(5)
C00J 0.036(6) 0.048(6) 0.060(6) 0.009(5) 0.012(5) 0.023(5)
C00K 0.035(5) 0.036(5) 0.048(6) -0.007(4) 0.004(4) 0.012(5)
C00L 0.039(5) 0.041(5) 0.049(5) 0.007(5) 0.016(5) 0.021(4)
C00M 0.032(5) 0.024(4) 0.042(5) -0.004(4) -0.006(4) 0.008(4)
C00N 0.035(5) 0.043(6) 0.043(5) 0.006(5) 0.015(4) 0.016(4)
C00O 0.030(5) 0.033(5) 0.049(5) 0.001(4) 0.004(4) 0.014(4)
C00P 0.031(5) 0.043(6) 0.056(6) 0.009(5) 0.006(4) 0.021(5)
C00Q 0.028(5) 0.033(5) 0.057(6) 0.006(4) 0.011(4) 0.012(4)
C00R 0.043(7) 0.035(6) 0.102(10) -0.016(6) 0.029(7) 0.004(5)
C00S 0.032(5) 0.033(5) 0.064(6) -0.001(5) 0.016(4) 0.011(4)
C00T 0.041(6) 0.044(6) 0.102(10) 0.014(6) 0.026(6) 0.024(5)
Co01 0.034(11) 0.034(11) 0.054(16) 0.005(8) 0.005(8) 0.017(11)
Ca02 0.035(14) 0.02(2) 0.021(12) 0.000 0.002(8) 0.010(11)
loop_
_atom_type_symbol
_atom_type_description
_atom_type_scat_dispersion_real
_atom_type_scat_dispersion_imag
_atom_type_scat_source
C C 0.0181 0.0091 'International Tables Vol C Tables 4.2.6.8 and 6.1.1.4'
H H 0.0000 0.0000 'International Tables Vol C Tables 4.2.6.8 and 6.1.1.4'
Co Co -2.3653 3.6143 'International Tables Vol C Tables 4.2.6.8 and 6.1.1.4'
F F 0.0727 0.0534 'International Tables Vol C Tables 4.2.6.8 and 6.1.1.4'
Mn Mn -0.5299 2.8052 'International Tables Vol C Tables 4.2.6.8 and 6.1.1.4'
O O 0.0492 0.0322 'International Tables Vol C Tables 4.2.6.8 and 6.1.1.4'
Zn Zn -1.5491 0.6778 'International Tables Vol C Tables 4.2.6.8 and 6.1.1.4'
Ca Ca 0.3641 1.2855 'International Tables Vol C Tables 4.2.6.8 and 6.1.1.4'
loop_
_geom_angle_atom_site_label_1
_geom_angle_atom_site_label_2
_geom_angle_atom_site_label_3
_geom_angle
_geom_angle_site_symmetry_1
_geom_angle_site_symmetry_3
O003 Zn01 O003 106.0(5) 4_564 7_565
O00A Zn01 O003 114.5(3) . 7_565
O00A Zn01 O003 114.5(3) 10_665 4_564
O00A Zn01 O003 108.2(3) . 4_564
O00A Zn01 O003 108.2(3) 10_665 7_565
O00A Zn01 O00A 105.6(6) 10_665 .
O003 Mn02 O003 85.4(6) 7_565 6_664
O005 Mn02 O003 88.9(2) 4_564 7_565
O005 Mn02 O003 165.8(4) 4_564 6_664
O005 Mn02 O003 88.9(2) 8_666 6_664
O005 Mn02 O003 165.8(4) 8_666 7_565
O005 Mn02 O005 99.6(7) 8_666 4_564
O006 Mn02 O003 80.3(4) 11 7_565
O006 Mn02 O003 96.1(5) . 7_565
O006 Mn02 O003 80.3(4) . 6_664
O006 Mn02 O003 96.1(5) 11 6_664
O006 Mn02 O005 87.4(4) 11 8_666
O006 Mn02 O005 95.7(4) . 8_666
O006 Mn02 O005 87.4(4) . 4_564
O006 Mn02 O005 95.7(4) 11 4_564
O006 Mn02 O006 175.3(10) 11 .
Zn01 O003 Mn02 97.4(3) 4_565 5_455
C00E O003 Zn01 115.1(5) . 4_565
C00E O003 Mn02 124.7(5) . 5_455
C00E O003 Co01 114.9(6) . 4_565
C00E O003 Ca02 123.3(7) . 5_455
Co01 O003 Ca02 95.3(7) 4_565 5_455
C00E O005 Mn02 143.4(7) . 4_565
C00E O005 Ca02 148(2) . 4_565
C00H O006 Mn02 137.4(7) . .
C00H O006 Ca02 140.1(11) . .
C00H O00A Zn01 126.4(7) . .
C00H O00A Co01 126.0(9) . .
C00F C00D C00K 121.3(9) . .
O003 C00E C00F 116.6(8) . .
O003 C00E Ca02 104.8(16) . 4_565
O005 C00E O003 123.9(8) . .
O005 C00E C00F 119.5(8) . .
O005 C00E Ca02 19.8(15) . 4_565
C00F C00E Ca02 138.1(16) . 4_565
C00D C00F C00E 120.1(8) . .
C00D C00F C00M 119.2(9) . .
C00M C00F C00E 120.6(8) . .
C00K C00G C00S 122.7(9) . .
C00N C00G C00K 119.4(9) . .
C00N C00G C00S 117.9(9) . .
O006 C00H O00A 124.0(9) . .
O006 C00H C00O 119.9(9) . .
O006 C00H Ca02 25.4(7) . .
O00A C00H C00O 116.0(9) . .
O00A C00H Ca02 98.7(7) . .
C00O C00H Ca02 145.3(8) . .
C00J C00I C00O 119.8(10) . .
C00Q C00J C00I 121.6(11) . .
C00D C00K C00G 119.2(9) . .
C00P C00L C00Q 122.2(10) . .
C00F C00M C00N 120.0(9) . .
C00M C00N C00G 120.8(9) . .
C00I C00O C00H 119.7(9) . .
C00I C00O C00P 119.4(9) . .
C00P C00O C00H 120.5(9) . .
C00L C00P C00O 119.0(10) . .
C00J C00Q C00L 117.8(10) . .
C00J C00Q C00S 123.3(10) . .
C00L C00Q C00S 118.9(9) . .
F007 C00R F008 107.9(12) . .
F007 C00R F00B 108.2(12) . .
F007 C00R C00S 112.6(10) . .
F008 C00R C00S 112.8(11) . .
F00B C00R F008 105.1(10) . .
F00B C00R C00S 109.9(11) . .
C00Q C00S C00G 110.7(8) . .
C00Q C00S C00R 106.1(9) . .
C00R C00S C00G 111.7(9) . .
C00T C00S C00G 106.0(8) . .
C00T C00S C00Q 113.3(9) . .
C00T C00S C00R 109.1(10) . .
F004 C00T F009 105.7(11) . .
F004 C00T C00S 112.2(10) . .
F009 C00T C00S 113.9(10) . .
F00C C00T F004 105.7(10) . .
F00C C00T F009 105.8(10) . .
F00C C00T C00S 112.8(11) . .
O003 Co01 O003 107.0(14) 4_564 7_565
O003 Co01 Ca02 84.7(14) 7_565 2_664
O003 Co01 Ca02 48.5(12) 4_564 2_664
O003 Co01 Ca02 48.5(12) 7_565 .
O003 Co01 Ca02 84.7(14) 4_564 .
O00A Co01 O003 114.5(3) 10_665 4_564
O00A Co01 O003 114.5(3) . 7_565
O00A Co01 O003 108.2(3) 10_665 7_565
O00A Co01 O003 108.2(3) . 4_564
O00A Co01 O00A 104.6(14) 10_665 .
O00A Co01 Ca02 82.4(4) 10_665 2_664
O00A Co01 Ca02 155.2(14) . 2_664
O00A Co01 Ca02 82.4(4) . .
O00A Co01 Ca02 155.2(14) 10_665 .
Ca02 Co01 Ca02 101.2(11) 2_664 .
O003 Ca02 O003 78(3) 6_664 7_565
O003 Ca02 C00E 76.9(3) 7_565 4_564
O003 Ca02 C00E 76.9(3) 6_664 8_666
O003 Ca02 C00E 148(2) 6_664 4_564
O003 Ca02 C00E 148(2) 7_565 8_666
O003 Ca02 C00H 80.5(14) 6_664 .
O003 Ca02 C00H 78.0(13) 6_664 11
O003 Ca02 C00H 80.5(14) 7_565 11
O003 Ca02 C00H 78.0(13) 7_565 .
O003 Ca02 Co01 36.1(5) 6_664 3_565
O003 Ca02 Co01 98(2) 6_664 .
O003 Ca02 Co01 36.1(5) 7_565 .
O003 Ca02 Co01 98(2) 7_565 3_565
O005 Ca02 O003 87.5(8) 4_564 7_565
O005 Ca02 O003 160(3) 8_666 7_565
O005 Ca02 O003 160(3) 4_564 6_664
O005 Ca02 O003 87.5(8) 8_666 6_664
O005 Ca02 O005 110(4) 4_564 8_666
O005 Ca02 O006 99.4(12) 4_564 11
O005 Ca02 O006 99.4(12) 8_666 .
O005 Ca02 O006 90.5(10) 8_666 11
O005 Ca02 O006 90.5(10) 4_564 .
O005 Ca02 C00E 11.9(6) 8_666 8_666
O005 Ca02 C00E 121(3) 4_564 8_666
O005 Ca02 C00E 11.9(6) 4_564 4_564
O005 Ca02 C00E 121(3) 8_666 4_564
O005 Ca02 C00H 83.0(3) 4_564 .
O005 Ca02 C00H 113.6(8) 8_666 .
O005 Ca02 C00H 113.6(8) 4_564 11
O005 Ca02 C00H 83.0(3) 8_666 11
O005 Ca02 Co01 162.7(18) 8_666 .
O005 Ca02 Co01 162.7(19) 4_564 3_565
O005 Ca02 Co01 62.8(7) 8_666 3_565
O005 Ca02 Co01 62.8(7) 4_564 .
O006 Ca02 O003 76.0(17) 11 7_565
O006 Ca02 O003 91(2) 11 6_664
O006 Ca02 O003 91(2) . 7_565
O006 Ca02 O003 76.0(17) . 6_664
O006 Ca02 O006 163(5) 11 .
O006 Ca02 C00E 101.7(8) 11 4_564
O006 Ca02 C00E 101.7(8) . 8_666
O006 Ca02 C00E 85.2(7) 11 8_666
O006 Ca02 C00E 85.2(7) . 4_564
O006 Ca02 C00H 154(3) 11 .
O006 Ca02 C00H 14.5(5) 11 11
O006 Ca02 C00H 14.5(5) . .
O006 Ca02 C00H 154(3) . 11
O006 Ca02 Co01 66.5(10) 11 3_565
O006 Ca02 Co01 105.7(16) . 3_565
O006 Ca02 Co01 105.7(16) 11 .
O006 Ca02 Co01 66.5(10) . .
C00E Ca02 C00E 133(3) 4_564 8_666
C00E Ca02 C00H 116.2(5) 4_564 11
C00E Ca02 C00H 116.2(5) 8_666 .
C00E Ca02 C00H 75.7(3) 4_564 .
C00E Ca02 C00H 75.7(3) 8_666 11
C00E Ca02 Co01 50.9(3) 8_666 3_565
C00E Ca02 Co01 50.9(3) 4_564 .
C00E Ca02 Co01 168.1(6) 8_666 .
C00E Ca02 Co01 168.1(6) 4_564 3_565
C00H Ca02 C00H 152(3) . 11
C00H Ca02 Co01 114.1(16) . 3_565
C00H Ca02 Co01 52.0(6) 11 3_565
C00H Ca02 Co01 52.0(6) . .
C00H Ca02 Co01 114.1(16) 11 .
Co01 Ca02 Co01 129(3) 3_565 .
loop_
_geom_bond_atom_site_label_1
_geom_bond_atom_site_label_2
_geom_bond_distance
_geom_bond_site_symmetry_2
Zn01 O003 1.979(8) 4_564
Zn01 O003 1.979(8) 7_565
Zn01 O00A 1.907(8) 10_665
Zn01 O00A 1.907(8) .
Mn02 O003 2.327(13) 7_565
Mn02 O003 2.327(13) 6_664
Mn02 O005 2.167(12) 8_666
Mn02 O005 2.167(12) 4_564
Mn02 O006 2.114(7) .
Mn02 O006 2.114(7) 11
O003 Zn01 1.979(8) 4_565
O003 Mn02 2.327(14) 5_455
O003 C00E 1.307(11) .
O003 Co01 1.966(18) 4_565
O003 Ca02 2.50(7) 5_455
F004 C00T 1.341(16) .
O005 Mn02 2.167(12) 4_565
O005 C00E 1.234(11) .
O005 Ca02 2.03(5) 4_565
O006 C00H 1.247(12) .
O006 Ca02 2.136(15) .
F007 C00R 1.315(17) .
F008 C00R 1.340(14) .
F009 C00T 1.359(13) .
O00A C00H 1.269(13) .
O00A Co01 1.920(18) .
F00B C00R 1.340(14) .
F00C C00T 1.337(13) .
C00D C00F 1.382(13) .
C00D C00K 1.388(14) .
C00E C00F 1.497(13) .
C00E Ca02 3.14(4) 4_565
C00F C00M 1.385(13) .
C00G C00K 1.397(14) .
C00G C00N 1.387(14) .
C00G C00S 1.560(13) .
C00H C00O 1.487(13) .
C00H Ca02 3.19(2) .
C00I C00J 1.383(14) .
C00I C00O 1.387(15) .
C00J C00Q 1.377(15) .
C00L C00P 1.372(14) .
C00L C00Q 1.387(15) .
C00M C00N 1.386(13) .
C00O C00P 1.402(15) .
C00Q C00S 1.536(13) .
C00R C00S 1.557(17) .
C00S C00T 1.516(17) .
Co01 O003 1.966(18) 7_565
Co01 O003 1.966(18) 4_564
Co01 O00A 1.920(18) 10_665
Co01 Ca02 3.32(4) .
Co01 Ca02 3.32(4) 2_664
O1 O1 1.17(11) 9
Ca02 O003 2.50(7) 6_664
Ca02 O003 2.50(7) 7_565
Ca02 O005 2.03(5) 4_564
Ca02 O005 2.03(5) 8_666
Ca02 O006 2.136(14) 11
Ca02 C00E 3.14(4) 8_666
Ca02 C00E 3.14(4) 4_564
Ca02 C00H 3.19(2) 11
Ca02 Co01 3.32(4) 3_565
loop_
_refln_index_h
_refln_index_k
_refln_index_l
_refln_F_squared_meas
_refln_F_squared_sigma
1 -1 0 1278.07 61.39
1 -1 0 1236.68 62.19
1 -1 0 1247.48 62.29
1 0 0 1348.86 63.29
1 0 0 1288.27 62.89
1 0 0 1344.57 62.19
0 -1 0 1173.08 61.99
0 1 0 1423.06 63.99
0 1 0 1344.27 62.19
0 1 0 1241.28 62.09
0 -1 0 1346.07 62.19
-1 0 0 1369.66 63.29
-1 0 0 1387.66 62.99
-1 0 0 1308.77 62.19
-1 1 0 1301.77 61.39
-1 1 0 1369.26 62.49
-1 1 0 1289.47 62.39
0 -1 0 1454.35 63.99
-2 1 0 883.91 42.6
1 1 0 889.61 41
-1 2 0 810.82 40.6
-1 2 0 781.22 40.8
-2 1 0 848.42 40.5
2 -1 0 804.62 40.3
2 -1 0 798.02 42
2 -1 0 816.12 42
1 -2 0 766.82 40.8
1 1 0 779.92 44.4
1 1 0 825.82 40.9
-1 2 0 836.52 42.2
-1 -1 0 805.02 41.1
-1 -1 0 882.31 45
1 -2 0 822.42 41
0 -2 0 8821.52 425.86
0 2 0 9613.64 426.06
0 2 0 8487.85 428.26
0 2 0 9691.03 426.06
-2 2 0 9072.69 424.46
-2 2 0 9180.68 426.36
2 -2 0 9318.57 424.46
0 -2 0 8351.86 425.56
2 -2 0 8983.5 426.16
2 -2 0 8590.34 426.06
-2 2 0 9482.25 426.36
2 0 0 9630.74 427.96
2 0 0 9520.05 427.56
-2 0 0 9934.81 427.96
-2 0 0 9479.75 427.26
-2 0 0 7975.1 425.56
0 -2 0 9999 428.76
2 0 0 9361.76 425.96
-2 -1 0 1540.95 87.69
2 1 0 1510.25 89.29
2 1 0 1977.8 88.19
-3 2 0 1962.4 89.29
-2 -1 0 1864.81 92.09
3 -2 0 1627.24 88.79
2 1 0 1778.62 93.99
3 -1 0 1614.24 89.89
1 2 0 1914.71 88.09
2 -3 0 1763.02 87.99
2 -3 0 1568.94 87.59
-1 3 0 1847.42 87.99
-2 3 0 1942.91 86.89
-1 3 0 1928.11 91.89
-3 2 0 1990.8 86.59
-3 2 0 2061.09 89.89
-1 3 0 1925.11 87.89
-3 1 0 1918.41 89.89
3 -1 0 1732.43 88.29
-1 -2 0 1664.93 87.99
-2 3 0 1898.71 87.89
-2 3 0 1934.11 88.29
-1 -2 0 2010.5 93.99
3 -2 0 1876.21 86.09
3 -2 0 1539.65 88.49
1 -3 0 1700.63 87.89
1 2 0 1931.71 88.29
-3 1 0 1924.41 89.39
3 0 0 3674.93 172.28
-3 0 0 3877.81 175.78
-3 3 0 3590.34 172.88
-3 0 0 3869.91 175.18
-3 3 0 3594.94 173.08
0 3 0 3598.44 172.28
-3 3 0 3513.65 169.98
0 -3 0 3961.5 176.98
3 -3 0 3375.76 169.88
0 3 0 3450.75 172.18
-4 2 0 53.49 16
-2 4 0 67.39 15.2
4 -2 0 41.5 11.2
2 2 0 68.99 14.4
-4 2 0 34.2 13.3
2 2 0 75.59 14.9
-2 4 0 60.09 13.2
-2 4 0 20 13.7
-2 -2 0 48.3 20.7
3 1 0 90.59 14.8
4 -3 0 68.59 11.7
-3 -1 0 87.49 20.1
1 3 0 93.29 15.4
-3 4 0 104.39 16.6
-4 3 0 87.49 17.3
-1 -3 0 91.49 22.2
-4 1 0 86.79 19
-1 4 0 97.79 14.9
-4 3 0 93.29 14.3
-1 4 0 84.79 13.7
-4 3 0 83.89 17.4
1 3 0 110.09 16.2
-4 1 0 88.49 19.5
-3 4 0 73.39 12.9
-3 4 0 87.49 15.9
4 -1 0 95.59 14.5
0 -4 0 2717.73 132.99
0 4 0 2687.53 127.69
-4 0 0 2567.94 130.19
4 0 0 2593.24 126.79
-4 4 0 2597.34 128.39
-4 4 0 2717.13 128.89
-4 4 0 2515.65 123.79
0 4 0 2602.94 126.99
-4 0 0 2623.04 131.69
-3 5 0 36.1 15.9
-3 5 0 18.8 11.1
-5 3 0 9 16.7
-3 -2 0 20.4 21.4
-5 2 0 15.6 16.2
-2 -3 0 13 21.6
-5 3 0 13.5 12.6
5 -3 0 4 7.9
2 3 0 21.2 13.5
3 2 0 19.2 12.2
-2 5 0 16.5 13.8
-3 5 0 21.1 13.6
2 3 0 24.9 14.5
3 2 0 29 13.2
-5 2 0 25.9 16.5
-2 5 0 19.1 13.4
-5 4 0 1973.6 97.69
-1 -4 0 2007.9 102.39
1 4 0 1884.91 94.69
-5 1 0 1760.02 97.69
1 4 0 1906.01 94.89
-4 5 0 1842.52 91.59
5 -1 0 1908.81 94.49
-4 5 0 1981.2 96.49
4 1 0 1869.41 94.69
-5 4 0 1851.11 90.89
-5 4 0 1877.61 95.99
-4 -1 0 1914.41 101.39
-1 5 0 1877.41 94.19
-1 5 0 1888.51 94.79
-4 5 0 1899.21 96.49
-5 1 0 1820.52 97.69
0 5 0 3182.08 147.29
5 0 0 2998.6 146.39
-5 0 0 2763.42 150.58
-5 5 0 3069.39 148.19
-5 5 0 3083.89 148.69
0 5 0 3029.2 147.19
-5 5 0 2971.4 142.39
-3 6 0 1515.85 76.99
-3 -3 0 1417.16 85.09
-3 6 0 1498.05 76.19
3 3 0 1432.96 76.39
-6 3 0 1479.05 77.09
3 3 0 1491.65 77.09
-3 6 0 1421.36 76.49
-6 3 0 1464.75 79.39
2 4 0 757.92 45.6
-6 4 0 740.43 42.6
-4 6 0 760.22 42.1
-4 6 0 753.12 47.3
-6 4 0 736.63 48.3
4 2 0 713.73 43.9
-2 6 0 765.02 45.5
-4 6 0 754.72 45.3
-6 2 0 706.93 46.5
-6 2 0 726.33 48.9
-4 -2 0 703.83 53.89
-2 6 0 743.93 45.5
-2 -4 0 759.02 55.09
2 4 0 736.23 44.6
4 2 0 777.02 45.8
6 -2 0 777.32 45.4
-6 1 0 150.58 25.3
1 5 0 162.38 24.8
-6 5 0 150.98 24.1
-1 6 0 160.28 23.5
-5 6 0 182.78 25.3
6 -1 0 154.78 20.9
-5 6 0 157.78 26
-1 6 0 162.88 22.7
1 5 0 176.38 23.5
-6 5 0 133.89 17.7
-5 6 0 137.59 17.3
-5 -1 0 186.38 31.1
-6 1 0 136.39 24.5
-1 -5 0 206.08 32.9
5 1 0 133.69 21.3
-6 5 0 164.78 26.7
-6 0 0 366.56 38.8
-6 6 0 352.66 24.8
6 0 0 407.46 30.7
0 6 0 427.76 33.8
-6 6 0 360.06 33
0 6 0 394.96 30.9
-6 6 0 359.86 32.9
4 3 0 139.49 22.5
3 4 0 166.18 25.4
-7 3 0 155.18 24.9
-4 7 0 150.98 21.1
-3 -4 0 150.58 30.7
-4 -3 0 140.49 30.7
7 -3 0 150.68 21.4
-3 7 0 158.98 25.1
-7 4 0 148.89 25.1
-7 4 0 175.18 27
-3 7 0 169.88 23.7
-3 7 0 147.89 24.4
-7 3 0 174.88 27.1
-4 7 0 157.38 23.5
3 4 0 209.08 25.5
-4 7 0 155.78 24.3
4 3 0 165.28 24.4
-7 5 0 18.1 12.5
-2 7 0 33.7 18
2 5 0 27.6 19.1
7 -2 0 39 16.5
-2 7 0 27.3 16.6
-7 2 0 22.2 18.6
2 5 0 28 16.8
-7 2 0 25.1 23.8
-7 5 0 -2.4 11.4
5 2 0 24.5 16.2
5 2 0 30 17.6
-5 7 0 24.8 11.9
-5 7 0 24.2 21
-5 -2 0 15.3 25.2
-7 5 0 29.6 20.7
-2 -5 0 14.3 24
-5 7 0 32.1 19.8
6 1 0 176.48 23.9
-7 6 0 163.28 26.3
-6 7 0 131.99 24
-1 7 0 165.08 23.3
-7 1 0 164.78 28.3
-6 -1 0 123.89 27.9
-1 7 0 151.58 24.8
-7 1 0 167.28 27.8
-6 7 0 128.39 16.8
7 -1 0 148.59 22.1
1 6 0 182.28 27.3
1 6 0 167.48 26.3
-6 7 0 162.18 26.3
-7 6 0 170.68 28.3
0 7 0 332.17 29.9
-7 7 0 343.17 36.3
-7 7 0 281.27 25.4
-7 0 0 318.27 42.2
7 0 0 333.57 29.8
-7 0 0 245.88 22.5
-7 7 0 298.97 32.8
0 -7 0 292.97 22.8
0 7 0 332.27 31.5
-4 8 0 712.43 49.4
-4 8 0 753.62 46.1
-4 8 0 732.23 48.4
4 4 0 715.13 46.3
-4 -4 0 725.13 60.69
4 4 0 745.73 47.7
-8 4 0 717.83 51.19
-4 -4 0 686.43 40.9
-3 -5 0 140.99 17.4
5 3 0 170.78 26.7
-8 5 0 170.98 30.6
-8 3 0 110.89 21.7
-3 8 0 164.18 27.1
5 3 0 155.78 23.8
-8 5 0 117.19 20.2
-5 8 0 126.69 23.6
-5 8 0 148.39 22.7
-3 8 0 137.39 23.8
3 5 0 159.98 25.5
-5 -3 0 129.39 30.6
-5 -3 0 142.69 19.1
-3 -5 0 147.59 31.1
-5 8 0 164.28 26.6
3 5 0 157.08 24.9
-8 3 0 181.28 30.2
8 -3 0 158.38 24
-3 8 0 143.29 24.5
-8 3 0 137.59 20.3
6 2 0 16.3 17.8
6 2 0 8.5 16.6
2 6 0 10.2 16
-6 -2 0 -2.2 8.6
2 6 0 17.6 18.6
-2 8 0 14.2 16.5
-8 2 0 6.7 12.6
-6 -2 0 28.7 28.4
2 -8 0 13 10.2
-2 -6 0 16.8 11
-6 -2 0 17.7 12.5
8 -2 0 15 18.6
-6 8 0 -0.3 9.3
-8 6 0 9 24.5
-6 8 0 12.5 21.7
8 -6 0 2 9
-8 6 0 10.7 14.6
-8 2 0 23.7 22.2
6 -8 0 0.8 7.3
-8 2 0 16.2 22.9
-2 8 0 21.2 21.5
-6 8 0 -3 19.5
-6 8 0 14.2 11
-8 7 0 150.68 24.6
-1 -7 0 144.99 17.2
1 -8 0 154.18 19.5
-8 1 0 161.08 30.3
-7 -1 0 130.29 33.7
-7 -1 0 140.29 19.4
-7 8 0 133.59 26.3
-7 8 0 148.59 24.4
-1 8 0 140.59 26.3
-8 1 0 130.69 21.3
-8 7 0 143.89 26.3
-8 7 0 127.39 26
8 -7 0 103.59 17.4
1 7 0 147.49 25.1
7 -8 0 107.39 16.9
-7 8 0 141.99 28.3
-1 8 0 173.08 25.9
7 1 0 172.08 25.7
-7 -1 0 151.78 17.9
8 -1 0 180.88 26.7
1 7 0 148.09 23.7
-8 0 0 711.63 60.79
-8 0 0 700.93 43.2
8 -8 0 660.03 41.3
0 8 0 756.92 52.89
-8 8 0 718.43 45.3
-8 8 0 713.83 54.19
0 8 0 740.83 50.19
0 -8 0 649.54 39.8
-8 8 0 691.33 54.79
8 0 0 738.73 48.7
-9 5 0 6 14.5
-9 5 0 12.7 24.2
-9 4 0 13.1 13.7
-9 4 0 5.6 9.8
-5 -4 0 3.7 25.7
9 -4 0 9.9 17.7
9 -5 0 4.2 15.1
-4 -5 0 -1.6 11.9
-9 4 0 5.9 14
5 4 0 12.1 19.4
4 5 0 2.1 18.1
-4 9 0 1.9 17.8
4 5 0 -3.3 17.3
-5 -4 0 6.3 12.2
-5 9 0 11.6 15.4
-4 9 0 15.7 20.8
-9 5 0 6.1 11.1
5 -9 0 1.9 11.7
-5 9 0 10.9 22.4
-5 9 0 10.5 21.2
-4 9 0 -2.5 16.2
5 4 0 22.8 19.3
4 -9 0 3.9 11.3
-9 4 0 13.8 26.6
-4 -5 0 12.5 25.7
9 -6 0 59.99 16.4
-6 9 0 69.09 24.2
-6 -3 0 76.09 14.5
6 3 0 82.29 23.6
-9 6 0 76.39 17.6
-6 9 0 92.29 28.1
-9 6 0 41.7 12.7
-9 6 0 76.29 29.5
-9 3 0 24.2 19.9
-9 3 0 58.09 26.8
-6 -3 0 55.49 28.4
3 6 0 69.39 24.3
-9 3 0 80.99 16.5
9 -3 0 72.79 20.8
3 6 0 74.09 22.8
6 -9 0 74.99 14.5
-3 9 0 61.29 21.2
3 -9 0 79.69 14.8
6 3 0 76.39 22.8
-3 -6 0 73.19 14.6
-3 9 0 69.59 21.8
-3 9 0 75.99 24
7 2 0 18.9 18
9 -2 0 19.3 19.2
-9 7 0 -13.9 27.1
-2 9 0 11.2 23.9
-7 -2 0 9.8 27.2
2 -9 0 20.4 11.7
-9 2 0 26.9 22.4
9 -7 0 6.9 12.4
-9 7 0 1.4 11.8
-2 9 0 26.1 19.3
2 7 0 11 19.2
-7 9 0 10 23.2
7 -9 0 11.3 11.6
-9 7 0 21.2 16.5
7 2 0 13.8 19.7
-7 9 0 22.8 21.5
-7 -2 0 15.8 13.1
2 7 0 17.3 18.5
-2 -7 0 14.5 12
-7 -2 0 6.2 11.9
-7 9 0 8.4 16.2
-9 2 0 12.8 14.7
-9 2 0 24.1 24.7
8 1 0 -3.4 17.7
9 -1 0 8.3 17.9
1 8 0 10.4 19
-8 9 0 -19.6 23.2
-9 8 0 4.2 15.5
9 -8 0 1.3 14.1
-8 9 0 6.7 24.8
-8 -1 0 -4.7 28.7
1 8 0 7.5 20.8
-9 8 0 -1.8 22.5
-8 9 0 -4 15.8
-9 8 0 1.3 21.8
1 -9 0 -8.3 11.8
-1 -8 0 -3 10.6
-1 9 0 6.8 21
-1 9 0 0.9 22.2
8 -9 0 5.4 12
-8 -1 0 -2.7 13.2
-9 1 0 15.8 25.3
-9 1 0 -0.2 14
0 9 0 7.5 22.2
-9 0 0 17.8 14.8
-9 0 0 0.1 25.9
9 -9 0 9 13.8
0 9 0 17 21.5
9 0 0 6 22.3
-9 9 0 -4.6 25.4
0 -9 0 6.8 13
-9 9 0 7.3 16.3
-9 9 0 6.9 23
-5 10 0 1555.44 91.79
-5 10 0 1561.44 91.89
-10 5 0 1567.54 82.79
5 5 0 1555.54 90.09
5 -10 0 1633.64 82.09
5 5 0 1697.03 91.79
-10 5 0 1615.14 98.49
-10 5 0 1634.44 83.79
-5 -5 0 1643.24 81.99
10 -5 0 1561.14 83.19
10 -5 0 1663.23 90.49
-5 -5 0 1642.44 102.79
6 4 0 208.08 31.6
-6 -4 0 142.49 19.8
-4 10 0 91.89 21.8
-10 6 0 151.48 24.3
-4 10 0 118.49 27.1
10 -6 0 137.69 20.7
-10 6 0 183.08 36.5
6 4 0 150.08 28.6
4 6 0 147.19 27.2
10 -4 0 129.19 25.2
-10 6 0 141.09 21.7
-10 4 0 159.08 35.8
-10 4 0 161.08 22.9
4 6 0 184.78 29.6
-6 -4 0 122.79 35.7
-6 10 0 131.79 30
-4 -6 0 143.89 19.7
-4 10 0 176.38 31.8
6 -10 0 130.79 18.7
4 -10 0 153.78 20.7
-6 10 0 154.88 31.1
-10 4 0 135.99 20.7
-7 -3 0 23.5 27.3
-7 10 0 37.3 22.5
-3 -7 0 44.2 14.6
3 7 0 28.1 21.8
-7 -3 0 28.4 13.4
-10 3 0 27.3 29
-3 10 0 12.5 23.6
3 7 0 25.3 19.8
7 3 0 42.6 22.1
7 3 0 36.8 22.9
-7 -3 0 34.3 14.8
-7 10 0 39.2 16.6
-3 10 0 47.2 25.7
-3 10 0 22.5 20.5
-10 7 0 38.4 13.9
10 -3 0 33.5 20.2
-10 7 0 30.1 27.1
-7 10 0 29.3 28.2
7 -10 0 33.2 12.8
10 -7 0 44.5 16.7
-10 7 0 26.3 14.9
3 -10 0 27.8 12.6
-10 3 0 51.99 16.6
10 -8 0 53.79 15.5
8 2 0 41.4 21.8
10 -2 0 61.59 23.9
-8 -2 0 51.79 16
-10 8 0 55.69 16.4
-8 -2 0 53.59 14.2
-8 10 0 69.49 18.7
-8 10 0 40 25.3
-10 2 0 78.09 18.3
-2 10 0 45.7 28.6
-2 10 0 26.1 21.4
8 -10 0 55.49 15.3
-10 8 0 32.7 28.2
2 8 0 37.2 21.3
2 8 0 30.5 22.5
-8 10 0 26.2 25.4
-2 10 0 42.8 24.9
2 -10 0 61.19 15.2
8 2 0 52.49 25.7
-2 -8 0 78.89 16.1
-8 -2 0 48.2 31.2
9 1 0 211.08 32.3
-1 10 0 190.68 34
10 -1 0 206.48 31.9
-10 1 0 232.98 25.1
1 9 0 183.48 34.6
-10 9 0 128.39 35.7
-9 10 0 203.18 27.9
9 -10 0 203.18 24.4
1 -10 0 222.68 22
-9 -1 0 223.28 25.3
-1 -9 0 206.88 21.6
-9 10 0 138.49 31.8
10 -9 0 201.58 25.1
-10 9 0 200.18 27.2
1 9 0 150.38 28.7
-10 9 0 151.88 32.3
0 10 0 91.29 29.4
-10 10 0 29.2 26.8
-10 10 0 114.79 19.7
-10 0 0 111.59 18.4
-10 10 0 -2.2 26.9
0 -10 0 117.49 17.6
10 -10 0 120.99 17.9
10 0 0 64.79 24.3
-5 11 0 -14.6 22.4
-11 5 0 3.8 31.8
11 -5 0 7.4 20.9
-11 6 0 -0.6 13.9
6 5 0 6 22.5
-11 6 0 -4.2 28.1
11 -6 0 -1.1 16.3
-11 5 0 6.4 14.2
11 -5 0 11.2 17.3
6 -11 0 11.8 12.2
-11 5 0 19.6 15.7
-5 -6 0 5.5 13.4
-5 11 0 6.7 25.6
-11 6 0 21.3 16.6
5 -11 0 -3.1 11.5
11 -6 0 2 20.1
-6 11 0 -29.8 25.1
-6 11 0 17.2 28.8
6 5 0 5.3 21.6
-6 -5 0 5.7 11.9
5 6 0 0.5 23.6
5 6 0 -5.1 24
11 -7 0 614.14 39.3
-7 11 0 474.85 52.09
4 7 0 545.25 49.7
7 4 0 535.95 47.9
-4 -7 0 596.54 35.7
11 -4 0 478.35 43.7
7 -11 0 539.65 36
-4 11 0 546.65 51.89
-11 7 0 581.64 37.6
-11 4 0 518.65 53.59
-11 7 0 629.74 40.2
-11 7 0 389.56 49.7
-7 -4 0 610.04 37.6
-7 -4 0 498.05 36.1
-11 4 0 512.55 37.2
-11 4 0 558.24 38
4 -11 0 603.74 36.4
-7 11 0 536.35 38.7
4 7 0 504.35 46.1
7 4 0 511.05 46.5
-11 3 0 131.19 20.2
-8 -3 0 22 32.3
3 8 0 67.69 28.5
11 -8 0 84.69 18.5
-8 -3 0 118.29 19.6
-8 11 0 129.39 21.9
8 3 0 69.39 25.2
8 -11 0 96.19 17.6
-11 8 0 133.99 21.9
3 -11 0 106.49 17.9
-3 -8 0 111.89 17
-3 11 0 87.09 29.1
3 8 0 45.8 25
-8 11 0 37.7 26.2
8 3 0 75.89 26.7
-8 -3 0 117.59 17.9
2 9 0 139.59 32.8
9 2 0 157.18 30
-2 11 0 97.49 28.9
9 2 0 136.99 30.3
11 -2 0 75.99 24.1
11 -10 0 603.04 41.6
-10 -1 0 600.64 40.6
-11 1 0 629.04 41.1
10 -11 0 617.34 40.5
-1 -10 0 590.74 37.9
-10 11 0 538.15 41.8
1 -11 0 584.14 39
-11 10 0 552.74 42.1
-11 11 0 274.07 31.1
0 -11 0 250.17 25
-11 0 0 265.67 28.6
11 -11 0 266.07 28.4
6 6 0 286.37 37
-5 12 0 -2 42.9
7 5 0 13.9 23.7
7 5 0 1.8 25.1
-12 5 0 6.4 32.3
-7 -5 0 39.9 13.8
12 -5 0 -2.2 26.2
5 7 0 -4.3 26.3
5 7 0 12.8 26.6
-8 12 0 629.54 43.4
12 -8 0 615.74 42.2
-8 -4 0 616.44 41.3
-8 -4 0 613.34 39.1
-12 4 0 585.04 40
4 -12 0 617.34 40.1
8 -12 0 603.44 39.8
-12 8 0 623.44 43.2
-4 -8 0 596.94 39.9
-3 -9 0 68.49 17.2
3 -12 0 70.89 17.5
-12 3 0 62.99 17.3
-12 9 0 86.09 20.1
12 -9 0 71.09 19.9
-9 12 0 75.09 20.7
-9 -3 0 56.49 17.1
9 -12 0 42.9 15
-12 2 0 20.8 15.2
-12 10 0 12.5 16
2 -12 0 11.1 13.3
10 -12 0 14.3 15
-10 -2 0 27.2 16
-2 -10 0 26.4 15.2
-10 12 0 10.9 18.6
12 -10 0 17.2 17.5
-12 11 0 30.5 16.4
1 -12 0 55.09 16.8
-12 1 0 52.39 17
12 -11 0 50.39 18.2
11 -12 0 37.5 15.9
-11 12 0 47 19.4
-1 -11 0 61.59 17.7
-11 -1 0 62.29 18.9
-12 0 0 295.97 30.6
0 -12 0 286.07 29.2
-12 12 0 271.37 32.2
12 -12 0 283.27 30.6
-13 7 0 510.75 38.1
7 -13 0 466.05 35.1
-7 -6 0 463.95 33.6
13 -7 0 501.15 38.7
13 -6 0 496.35 39.5
-13 6 0 504.85 38.3
6 -13 0 477.55 35.3
-6 -7 0 474.15 34.3
-13 7 0 439.96 35.7
-13 6 0 474.05 37
-13 5 0 1081.59 64.39
-8 -5 0 1135.99 62.79
13 -8 0 1143.99 65.69
-13 8 0 1212.88 65.89
-8 -5 0 1037.6 63.89
5 -13 0 1182.28 63.39
-5 -8 0 1116.09 62.89
13 -5 0 1207.78 67.39
8 -13 0 1159.38 63.79
-13 5 0 1062.09 64.09
-4 -9 0 91.89 18.9
13 -9 0 108.59 22.1
-13 9 0 73.09 18.9
-9 -4 0 50.69 18.2
4 -13 0 69.39 16.8
-9 -4 0 70.19 16.5
-13 4 0 100.09 19.8
9 -13 0 76.39 17.4
-9 13 0 93.19 21.2
13 -10 0 456.35 37.8
-13 3 0 419.86 35.4
-3 -10 0 435.26 32.8
-10 -3 0 480.75 36.9
-10 13 0 467.55 40.1
10 -13 0 432.06 34.9
-13 10 0 430.56 37.1
3 -13 0 469.55 35.1
-13 11 0 147.89 23.9
-11 13 0 124.09 24.2
11 -13 0 82.69 17.9
13 -11 0 120.49 22.9
2 -13 0 128.89 21.7
-13 2 0 109.99 20
-2 -11 0 157.58 21.8
-11 -2 0 98.09 21
-12 -1 0 66.89 20.3
-12 13 0 50.19 19.6
-13 1 0 93.59 21.4
-13 12 0 79.39 21.1
13 -12 0 53.09 19.2
12 -13 0 64.89 19.2
1 -13 0 89.09 19.8
-1 -12 0 65.09 17.1
-13 13 0 1010.9 62.19
0 -13 0 1032.8 60.59
-13 0 0 1002.4 61.39
13 -13 0 959.1 60.89
-14 7 0 161.98 23.9
7 -14 0 133.89 21.2
-14 7 0 162.48 24.6
14 -7 0 120.69 23.6
-7 -7 0 120.29 19.5
-8 -6 0 299.77 29.9
14 -8 0 305.77 33.3
-14 6 0 291.17 30.3
-14 6 0 322.67 32.7
-6 -8 0 284.67 27.8
6 -14 0 302.37 29.2
-14 8 0 311.47 32.7
14 -6 0 288.47 31.7
8 -14 0 320.17 30.2
-9 -5 0 42.7 16.6
-9 14 0 30.3 18.6
-14 5 0 29.8 18
9 -14 0 40.2 17.6
14 -5 0 34 21.3
-9 -5 0 33.1 18
-14 9 0 39.3 19.3
-5 -9 0 57.59 17.2
14 -9 0 60.39 21.4
5 -14 0 22.7 14.6
-14 5 0 72.29 19.8
14 -10 0 457.45 36.8
-4 -10 0 437.36 32.9
-14 4 0 442.26 36.9
-14 10 0 444.86 38.3
-10 14 0 418.36 39.4
4 -14 0 435.26 33.9
10 -14 0 455.65 35.6
-10 -4 0 438.56 37.3
14 -4 0 445.46 40.1
-14 11 0 11.6 17.1
-3 -11 0 18 15.2
-11 -3 0 13.6 17.8
14 -11 0 11.6 19.7
-11 14 0 27.1 18.8
-14 3 0 6 16.4
11 -14 0 5.3 17
3 -14 0 15.6 14.8
12 -14 0 95.29 21
-12 -2 0 91.09 21.4
-14 2 0 133.59 24.4
-14 12 0 170.28 26.8
-2 -12 0 90.09 18.5
-12 14 0 115.99 23.6
2 -14 0 94.59 19.3
14 -12 0 73.69 20.6
-13 -1 0 1.3 17.5
-1 -13 0 2.4 16.6
-14 1 0 14.7 16.9
14 -13 0 -5 19
13 -14 0 1 17.7
1 -14 0 -0.9 16.9
-13 14 0 14.8 18.2
-14 13 0 14.1 18.4
-14 14 0 9.2 19.5
-14 0 0 12.6 17.8
0 -14 0 8.2 18.4
14 -14 0 6 18.1
8 -15 0 212.28 28.1
-15 8 0 230.38 32.1
7 -15 0 261.57 28.4
-7 -8 0 211.08 27.8
15 -7 0 238.98 33.3
-8 -7 0 235.08 28.4
15 -8 0 253.27 32.5
-15 7 0 220.18 28.4
-15 7 0 222.78 33.2
15 -9 0 523.65 43.2
-15 6 0 581.44 43.7
-15 9 0 614.04 44.6
15 -6 0 582.54 46
-9 -6 0 538.85 40.4
9 -15 0 555.34 41.3
6 -15 0 572.44 41.7
-6 -9 0 559.74 40.2
-15 6 0 574.04 42.9
-10 15 0 46.2 20.3
15 -10 0 56.09 21.3
-10 -5 0 55.09 20.8
-15 10 0 64.89 20.2
5 -15 0 76.29 19.6
-5 -10 0 66.79 16.8
10 -15 0 63.79 20
15 -5 0 68.79 24.2
-15 5 0 71.89 20.6
-11 15 0 80.99 23.2
-4 -11 0 95.39 20.4
15 -11 0 88.09 23.1
15 -4 0 55.49 22.4
-11 -4 0 55.39 21
-15 4 0 75.19 19.2
4 -15 0 69.79 18.4
11 -15 0 55.59 18.5
-15 11 0 67.39 20.6
-15 12 0 3.9 19
15 -12 0 5.4 20.1
-12 15 0 0.9 20
3 -15 0 8.6 16.6
-15 12 0 -6.8 16.1
-15 3 0 11.3 16.6
-12 -3 0 2.1 19.1
-15 3 0 -3.5 11.2
12 -15 0 -1.2 17.6
-3 -12 0 13.3 16.3
-2 -13 0 167.08 27.6
2 -15 0 170.08 25.8
-13 -2 0 148.49 26.2
-15 2 0 163.48 25.9
-15 13 0 205.88 30
15 -13 0 129.99 24.7
-13 15 0 144.99 27.1
13 -15 0 94.59 22.1
-15 13 0 93.89 18.3
-1 -14 0 51.69 20.2
1 -15 0 26.3 18.1
-14 15 0 37 21
-15 1 0 33.2 13.4
-15 1 0 36.7 19.1
-14 15 0 -4.4 15.3
14 -15 0 48.3 21.1
-14 -1 0 43.2 20.8
-14 -1 0 -0.9 18
-15 14 0 47.6 17.5
-15 14 0 68.09 23.2
15 -14 0 41.6 20.9
15 -15 0 -0.3 20
-15 0 0 9 12.4
0 -15 0 11.7 19.4
-15 15 0 17.5 16.7
-15 15 0 13.1 20.9
-15 0 0 8.8 19.6
8 -16 0 441.16 36.9
-8 -8 0 398.06 35.9
-16 8 0 407.36 40.6
16 -8 0 453.55 41.1
9 -16 0 82.69 20.5
-16 9 0 87.19 23.4
16 -9 0 63.29 22.6
-9 -7 0 73.59 19.1
-7 -9 0 67.49 18.4
16 -7 0 57.99 22.7
-16 7 0 62.39 21.1
7 -16 0 61.19 19.7
-6 -10 0 9.9 16.1
16 -10 0 34.8 23.1
-16 6 0 12.6 16.3
6 -16 0 19.2 17.1
-16 6 0 0.2 11.1
-16 10 0 23.5 19.3
-6 16 0 17.7 15.4
-16 6 0 -6.3 17.5
10 -16 0 5.5 15.9
16 -6 0 4.9 21.9
5 -16 0 142.79 24.2
-16 11 0 121.69 24.3
-11 -5 0 68.39 21.6
-11 16 0 83.59 22.7
-5 16 0 61.79 17.9
16 -5 0 95.79 24.4
-16 5 0 64.19 13.2
-12 -4 0 -4.6 19.3
16 -4 0 5.6 12.9
4 -16 0 12.5 16.7
-4 16 0 24.4 18.1
-16 12 0 -8.8 18
-16 4 0 3.4 17.6
16 -4 0 21.1 23
16 -12 0 6 21.7
-12 16 0 2.3 20
-16 4 0 6.7 11.4
-4 -12 0 9.2 16.9
-16 12 0 17.6 16.3
12 -16 0 9.7 18.3
3 -16 0 91.79 22.7
-16 3 0 80.59 23.2
-3 -13 0 64.99 18.8
-3 16 0 93.29 20.2
16 -3 0 53.59 24.5
13 -16 0 83.09 22.6
-13 16 0 77.89 23.7
-16 3 0 74.39 14.9
16 -13 0 82.09 25.6
-16 13 0 62.59 18.1
-16 13 0 119.19 25.7
-13 -3 0 86.49 23.9
16 -3 0 62.59 15.8
-16 2 0 65.59 15.1
14 -16 0 57.49 22.1
-16 2 0 47.9 20.2
-2 -14 0 58.69 19.4
-16 14 0 74.29 18.5
-2 16 0 73.89 18.9
-16 14 0 103.39 24.8
-14 -2 0 82.59 24.4
2 -16 0 87.09 22
-14 16 0 85.99 25.2
16 -14 0 50.59 22.8
-14 16 0 24.6 15.8
-1 -15 0 48.5 21.6
-16 1 0 37.3 20.6
-16 1 0 47 14.5
-15 16 0 60.19 23.3
1 -16 0 62.89 22.7
-1 16 0 29.9 17
-15 -1 0 37.2 21
16 -15 0 30 20.7
-16 15 0 66.39 23.1
15 -16 0 24.7 21.1
-15 16 0 63.49 18.7
-15 -1 0 53.79 15.6
-16 15 0 69.89 19.3
-16 16 0 92.29 19.1
-16 0 0 107.19 17.7
-16 16 0 123.19 27
0 -16 0 82.69 22.2
-16 0 0 130.69 27.3
17 -8 0 -0.4 11
8 -17 0 31.4 19.5
-17 9 0 30.3 20.4
17 -9 0 31.5 23
-8 17 0 30.1 18
-17 8 0 40 20.3
9 8 0 8.1 13.8
17 -8 0 18.3 21.7
8 9 0 26.4 14.4
-8 -9 0 16.4 11.5
-17 8 0 -0.2 10.9
9 -17 0 29.2 19.2
-8 -9 0 38.2 18.2
-9 17 0 15.4 16
-9 -8 0 33.8 18.6
10 7 0 -7.6 11.3
-17 10 0 2 19.3
10 -17 0 7 17.4
-7 -10 0 -4.3 10
7 10 0 4.4 13.8
-7 -10 0 6.6 16.8
17 -10 0 6.6 23
-17 7 0 -1.3 18.3
-17 10 0 -6 12.9
7 -17 0 7.9 18.6
-17 7 0 4.3 12.7
17 -7 0 13.7 22.4
-7 17 0 31.4 18.7
17 -7 0 -0.2 11.6
-10 17 0 -14.8 13.5
6 -17 0 122.19 23.7
-6 -11 0 99.49 21.1
17 -11 0 98.89 25.9
11 -17 0 134.49 24.5
-17 11 0 113.89 19
-17 11 0 162.68 27.7
-6 17 0 154.88 23.4
-17 6 0 83.19 16
17 -6 0 91.99 15.9
17 -6 0 132.09 28.4
-17 12 0 200.98 26
-17 5 0 206.48 22.4
5 -17 0 248.38 32.7
17 -5 0 250.07 40.4
12 -17 0 225.98 32.3
-17 12 0 256.57 34.4
17 -12 0 299.37 40.3
-5 -12 0 261.07 31.4
17 -5 0 183.88 25.6
-5 17 0 216.78 28.7
-17 5 0 252.07 31.7
-13 -4 0 18.8 21.3
-17 4 0 38.9 13.9
-13 17 0 10 21
13 -17 0 21.6 20.1
-4 -13 0 -2 11.8
-4 -13 0 27.9 17.9
-17 13 0 43.4 17.8
-17 13 0 30.9 20.5
17 -13 0 27.6 23.2
17 -4 0 18.7 23.8
4 -17 0 20.4 19.2
17 -4 0 17.7 14
-4 17 0 47 19.6
-17 4 0 17.1 18.2
17 -3 0 18 26.2
-3 17 0 35.8 18.8
17 -14 0 10.1 21.6
-17 3 0 14.5 18.1
3 -17 0 7.8 19.2
-14 17 0 0.3 14.6
-14 17 0 17.7 22.1
-14 -3 0 10.1 20.4
-17 14 0 26.1 21.4
-17 3 0 9.8 12.3
17 -3 0 17.3 14.9
-3 -14 0 3.8 19.5
14 -17 0 3.1 19.3
-14 -3 0 -3.7 12.2
-17 14 0 23.2 15
-3 -14 0 -0.6 12.1
-17 15 0 224.58 32.1
-2 -15 0 195.48 31.4
17 -2 0 166.98 31.3
2 -17 0 209.68 30.5
-17 15 0 184.68 22.7
-15 -2 0 174.08 23.4
-17 2 0 151.28 20.4
-2 17 0 178.38 24.2
-15 -2 0 202.58 35.2
17 -2 0 162.58 20.9
-15 17 0 200.78 31.5
-15 17 0 188.68 22.8
-16 -1 0 6.4 21.3
-17 1 0 12.4 19.2
-1 17 0 15.8 17
-1 -16 0 9.9 20.1
-16 17 0 -2.3 15.2
1 16 0 13.4 15
-16 -1 0 19.9 14
1 -17 0 16.7 20.6
-17 16 0 23.6 20.6
-17 1 0 6.1 12.8
-16 17 0 35.9 23.2
-1 17 0 -1.5 13.3
-17 16 0 19.2 15.1
0 17 0 174.08 24.8
-17 17 0 166.58 23.4
-17 17 0 145.99 27.2
-17 0 0 211.38 21.6
0 -17 0 225.48 32.6
-9 18 0 117.69 21.5
18 -9 0 84.79 25.9
9 -18 0 108.39 23
9 9 0 100.89 18.3
-18 9 0 54.29 20.9
-18 9 0 65.69 14.1
18 -9 0 80.59 15.6
10 -18 0 135.69 24.5
-8 -10 0 176.68 25.7
-10 18 0 191.18 23.3
-8 18 0 183.38 23.7
-18 10 0 120.39 18.5
18 -8 0 139.99 18.3
-18 10 0 183.58 29
18 -8 0 140.49 28.2
18 -10 0 143.09 28.2
18 -10 0 109.09 16.6
8 -18 0 112.89 23.4
8 10 0 151.98 19.8
-18 8 0 134.99 19.3
10 8 0 157.38 20.6
-18 7 0 25.9 13
11 -18 0 21.9 18.8
-7 -11 0 24.4 18.7
-7 18 0 52.19 19.7
18 -7 0 21.2 13.7
18 -11 0 -12.1 11.5
-7 -11 0 21.2 12.5
18 -7 0 45.5 25.5
-18 11 0 37.6 16.5
11 7 0 17.5 14.2
18 -11 0 28.7 23.5
-18 11 0 28.9 21.3
7 -18 0 20.5 19.2
7 11 0 34.2 16
-11 18 0 25.5 16.1
18 -12 0 -7.3 9.8
12 -18 0 -1.6 18.4
6 12 0 8.5 13.9
18 -6 0 5 23
-6 -12 0 8.8 11.6
-18 12 0 18.5 15.5
12 6 0 -12 12
-12 18 0 -17.2 13.1
-6 -12 0 12.7 17.6
-6 18 0 21.6 18.9
18 -12 0 16.3 23.2
-18 12 0 14 20.9
6 -18 0 4 18.8
-18 6 0 8.1 13.1
18 -6 0 16.8 13.6
-5 -13 0 14 18.6
5 13 0 10.3 14.4
-5 -13 0 3.3 11.2
-18 13 0 10.9 15.3
18 -13 0 -4.7 15.6
-18 13 0 2.7 19.9
18 -13 0 5.9 20.8
-18 5 0 8 12.8
13 -18 0 2.1 17.7
18 -5 0 29.1 24.5
-5 18 0 24.7 17.9
5 -18 0 6.9 19.3
18 -5 0 21 13.5
18 -14 0 -2.6 21.9
18 -4 0 19.3 26.4
-14 18 0 -6.1 17.7
-4 -14 0 12.1 11
-18 14 0 32.1 16.6
18 -4 0 20.3 14.8
-4 18 0 37.5 18.3
4 14 0 4.5 14.1
14 -18 0 -2.8 19.9
-18 4 0 29.9 14.2
4 -18 0 8.3 19.9
-4 -14 0 19 18.7
-18 14 0 13.3 20.4
-15 18 0 -2.3 21.4
-18 15 0 2.7 21.1
-15 18 0 6.8 15.8
-18 3 0 7.3 12.6
18 -3 0 4.2 24.9
3 -18 0 -10.9 19.4
3 15 0 14.3 14.4
18 -3 0 9.4 13.6
-3 18 0 10.6 17.2
-15 -3 0 3 27
-3 -15 0 -2.8 10.4
-3 -15 0 -2.1 18.5
-15 -3 0 -1.9 13.4
-18 15 0 19.6 15.3
-2 -16 0 12 19.2
2 16 0 32.8 15.8
18 -2 0 12.5 24.7
-18 2 0 22.1 13.1
-16 18 0 -2.2 20.5
-16 -2 0 26.5 14.4
18 -2 0 16.7 13.7
2 -18 0 15.1 20
-16 -2 0 3.5 26.5
-18 16 0 19.8 20.1
-2 18 0 17.4 17
-18 16 0 25.4 15.5
-2 -16 0 -2.5 9.7
-16 18 0 24.6 15.8
18 -1 0 2.9 25.8
-17 18 0 -5.4 20
-1 -17 0 -1.4 9.4
-1 18 0 5.1 15.7
-18 17 0 -0.2 14.4
1 -18 0 -2.3 19.8
-18 17 0 -1.7 21.5
-1 18 0 9.3 13.3
-17 18 0 13.4 14.7
18 -1 0 -6.4 13.2
-18 1 0 15.5 13.4
1 17 0 4.3 13.7
-1 -17 0 -3.2 19.2
-17 -1 0 18.3 13.5
-18 0 0 61.99 15.4
0 18 0 25.5 15
18 0 0 45.1 14.6
-18 18 0 -1.4 29
-18 18 0 49.3 15.6
0 18 0 50.49 15.3
19 -10 0 5.1 12.6
19 -9 0 7 13.6
-19 10 0 9 14
10 9 0 2 14.1
9 10 0 3 13.6
19 -9 0 -4.3 23.3
-19 9 0 1.4 12.5
-10 19 0 12.1 16.8
-19 10 0 -0.4 19.9
-9 19 0 13.4 17
-19 10 0 1.4 12.4
9 -19 0 0.5 18.2
10 -19 0 0.5 18.6
19 -10 0 -7.4 22.7
8 11 0 18.6 13.7
-19 11 0 41.9 15.7
-19 11 0 29.7 11.9
-8 -11 0 48.3 19.7
-8 19 0 65.79 19.7
-19 8 0 32.7 13.2
19 -11 0 5.8 22
11 -19 0 -1.6 18.3
-19 11 0 24 21.6
19 -11 0 34.6 14.2
8 -19 0 35.8 19.9
19 -8 0 51.29 15.1
19 -8 0 36.5 23.5
11 8 0 30.1 15.7
-11 19 0 41.4 17.4
-7 19 0 104.39 20.1
-12 19 0 63.59 18.5
19 -12 0 41.1 12.8
19 -7 0 92.19 16.1
-19 12 0 89.59 17.5
-19 7 0 52.29 13.2
7 -19 0 53.79 19.4
19 -12 0 12.3 32.2
-19 12 0 94.19 24.8
12 7 0 42.5 15.6
-7 -12 0 100.59 23.2
7 12 0 56.39 15.3
19 -7 0 61.89 23.8
-6 19 0 60.89 19.7
-19 13 0 35.5 15
19 -6 0 27.2 23.5
-6 -13 0 26.6 12.7
6 13 0 43.3 15.6
-19 6 0 31.2 12.7
-6 -13 0 24.2 18.9
-19 13 0 47.2 22.2
19 -6 0 43.1 13.6
19 -13 0 10.5 11.8
6 -19 0 13.3 18.9
13 6 0 -7.7 12
-13 19 0 -11.1 14.1
-19 5 0 13.2 11.7
5 -19 0 7.8 19
19 -5 0 3.7 12.3
19 -14 0 -2.5 10.3
19 -5 0 6.6 23.9
-19 14 0 4.4 20.8
-5 -14 0 7 11.6
-5 19 0 14 16.3
-19 14 0 15.5 14.7
-5 -14 0 13.5 18.6
5 14 0 17.5 13.8
-4 -15 0 71.99 13.4
-19 4 0 127.59 17.7
19 -4 0 6.3 23.4
-15 19 0 73.19 16
19 -4 0 77.79 14.9
4 15 0 123.79 18.2
-19 15 0 54.99 22.5
-19 15 0 116.59 18.1
-4 -15 0 60.29 20.4
-4 19 0 99.99 19.3
19 -3 0 19.5 13.1
3 16 0 18.7 13.9
-16 19 0 28.2 14.6
-19 16 0 18.8 14.3
-16 -3 0 32 14.2
-3 -16 0 10.1 18.9
-19 3 0 8.3 12
-19 16 0 5.8 20.9
-3 -16 0 16.9 10.6
-3 19 0 7 15.9
-17 19 0 10.4 13.5
-17 -2 0 7.8 13.3
2 17 0 11.9 13.5
-2 19 0 21.9 15.8
-2 -17 0 0.5 8.9
-19 17 0 9.9 13.5
-19 2 0 16.2 12.2
19 -2 0 3.5 13.1
-19 17 0 -2.4 19.6
1 18 0 82.79 15.9
-19 1 0 108.69 15.1
18 1 0 167.68 19.9
-1 19 0 105.59 17.9
19 -1 0 141.59 18
-19 18 0 106.49 16.1
-18 19 0 130.79 17.8
-18 -1 0 127.59 18.9
0 19 0 -8.5 11.1
0 19 0 4 12
-19 0 0 5.6 10.7
-19 19 0 12.3 11.9
19 0 0 -1.7 11.4
10 10 0 171.48 19.9
-10 20 0 187.58 25.9
-20 10 0 171.18 19.5
-20 10 0 115.49 17.9
20 -10 0 154.48 21.8
-20 11 0 75.69 14.9
11 9 0 59.69 16
20 -9 0 72.19 14.9
20 -11 0 53.89 13.5
-20 11 0 52.69 13.1
9 11 0 66.59 15.1
-20 9 0 62.59 13.9
-9 20 0 100.89 19.7
-11 20 0 100.89 20.2
12 8 0 -9.6 13.1
-20 8 0 13.1 11.8
-20 12 0 0.3 22.5
20 -8 0 5.1 12.4
-20 12 0 9.3 14.1
8 12 0 8.9 13.7
-8 20 0 14.8 16.2
20 -12 0 -3.8 11.2
-12 20 0 8.4 16.1
-20 12 0 2.4 11
-20 13 0 -2.6 20
20 -13 0 12 11.9
13 7 0 16.8 13.2
20 -7 0 20.9 13.1
-13 20 0 19.7 15.4
-7 -13 0 12.2 18.1
7 13 0 4.7 12.3
-7 20 0 23 16.8
-20 13 0 37 15.1
-20 7 0 14.6 12.1
-20 14 0 10.6 19.4
-20 6 0 17.4 12.1
-20 14 0 15 14.1
14 6 0 -4 9.9
20 -6 0 14.4 12.4
-14 20 0 -9.6 12.8
-6 -14 0 8.5 18
6 14 0 25.2 13.8
-6 20 0 41.5 16.9
20 -14 0 6.4 10.6
20 -15 0 -1.2 8.7
-5 -15 0 27.6 12
-20 5 0 34.2 11.9
-5 -15 0 3.1 18
-5 20 0 51.79 18.5
-20 15 0 68.79 15.5
-20 15 0 4.6 19.4
5 15 0 62.89 14.9
20 -5 0 19.5 11.9
-20 16 0 14 12.6
20 -4 0 1.6 10.9
4 16 0 8 12.3
-16 -4 0 -2.5 11.4
-4 -16 0 4.3 10.7
-20 4 0 1.7 10.8
-20 16 0 -2.4 23.1
-4 20 0 9.3 15.4
-16 20 0 -2.8 11.8
-17 -3 0 31.3 12.9
-20 3 0 29.4 10.9
-17 20 0 24.3 12.7
20 -3 0 22 11.6
3 17 0 19.2 12.5
-3 -17 0 1 9.4
-3 20 0 30.4 15.6
-20 17 0 49.1 13.5
-2 20 0 2.7 13.7
20 -2 0 2.8 10.4
2 18 0 8.3 12.2
-18 -2 0 3.7 11
-20 2 0 0.4 9.6
-20 18 0 -0.6 10.9
18 2 0 -3.8 11.9
-18 20 0 9.7 12.2
-20 1 0 81.49 12.4
-19 20 0 78.29 13.6
-19 -1 0 67.19 12.1
20 -1 0 70.49 13.3
-1 20 0 56.99 13.4
-20 19 0 70.39 13.2
1 19 0 56.59 13.5
20 0 0 63.99 12.4
-20 0 0 64.39 11.4
-20 20 0 76.59 12.2
21 -10 0 3.9 11.9
-10 21 0 1 15.1
-21 10 0 -3.4 12.3
-21 10 0 -4.6 11.6
-21 11 0 1.4 11.6
-11 21 0 4.9 15.2
11 10 0 2.3 12.7
-21 11 0 10.1 11
21 -11 0 -2.3 10.9
10 11 0 -6.5 12
-9 21 0 2.8 16
12 9 0 11.6 12.5
-21 9 0 -1.4 11.1
21 -9 0 5.2 11.6
-21 12 0 -1.9 10.9
-21 12 0 6.3 11.6
-12 21 0 0.9 15.2
21 -12 0 1.7 10.8
9 12 0 -5.4 11.8
-21 13 0 12.9 11.5
-8 21 0 16.8 16.1
21 -8 0 11.5 11.3
-13 21 0 11.3 14.5
-21 13 0 1.6 8.8
13 8 0 2.2 12
8 13 0 13 12.3
21 -13 0 19.1 11.8
-21 8 0 14.1 11.4
-14 21 0 46.5 13.9
7 14 0 66.59 13.5
14 7 0 43.5 12.3
-7 21 0 97.89 18.8
-21 14 0 97.99 15
21 -7 0 67.99 13.6
21 -14 0 46.5 11.3
-21 15 0 0.9 11.5
-6 21 0 10.4 14.9
-21 6 0 1.4 11.2
21 -6 0 6.8 11.5
6 15 0 7.8 11.1
21 -15 0 -1.9 8.3
-21 5 0 58.19 12
-21 16 0 41.4 12.3
-5 21 0 67.79 16.4
5 16 0 45.9 12.7
21 -5 0 33.9 11.9
-17 -4 0 -0.1 9.3
-21 17 0 12.9 11
-4 21 0 -0.4 13.2
21 -4 0 10.4 11.2
-21 4 0 3.2 9.5
-17 21 0 -5.9 9.6
4 17 0 1 10.9
-18 21 0 43.2 12.2
-21 3 0 81.79 13.5
-18 -3 0 35.5 10.5
3 18 0 44.1 12.6
18 3 0 61.09 13.9
-3 21 0 36.1 13.4
21 -3 0 59.59 12.3
-21 18 0 63.09 12.7
-21 2 0 26 10.3
19 2 0 24.1 11.4
2 19 0 24.2 11
21 -2 0 22.4 10.7
-19 21 0 17.7 10.8
-21 19 0 19 10.6
-19 -2 0 30.8 10.3
-2 21 0 21.8 11
20 1 0 9.4 10
-20 -1 0 11.7 9.4
21 -1 0 -0.8 8.8
-20 21 0 3.9 9.6
-21 20 0 5.3 9.4
1 20 0 3.3 8.6
-21 1 0 3.4 8.9
21 0 0 75.79 12.1
-21 0 0 47.4 10.2
-21 21 0 64.69 11.1
-22 11 0 79.69 13.3
-11 22 0 69.29 15.1
11 11 0 55.79 12.8
22 -11 0 61.69 12.4
-22 12 0 1.9 10.2
-22 12 0 -4 9.5
12 10 0 2.6 10.9
-10 22 0 6.1 13.3
-22 10 0 5.5 11
22 -12 0 13.4 11.3
10 12 0 13.2 11
22 -10 0 -3.2 9.8
-12 22 0 8.4 13.4
-22 9 0 12.5 10.7
-9 22 0 9 13.1
13 9 0 11.9 11.1
-13 22 0 11.6 13.1
22 -13 0 9.9 10.6
9 13 0 25.4 11.8
-22 13 0 8.5 10.5
-22 13 0 0.6 8.6
22 -9 0 -0.3 10.7
22 -14 0 4.7 9.2
-14 22 0 3.3 11.2
-22 8 0 -1.4 10
14 8 0 1.9 10.2
22 -8 0 2.5 10.3
-8 22 0 9.8 13.2
8 14 0 -0.9 10.7
-22 14 0 1.3 10.4
22 -15 0 -0.1 10.2
22 -7 0 11.7 10.1
7 15 0 -0.8 10.4
-7 22 0 14.3 13
-22 7 0 19.8 10.4
-22 15 0 5.8 10.4
-22 16 0 29.3 10.7
-6 22 0 18.5 12.9
22 -6 0 17.4 10.5
6 16 0 21.8 10.8
-22 6 0 9.3 9.3
-22 17 0 4.3 9.9
22 -5 0 -0.4 10.4
-5 22 0 6.1 12
5 17 0 -3.9 9.9
-22 5 0 10.2 9.6
4 18 0 9.6 10.3
18 4 0 5.5 11.7
22 -4 0 12.8 9.6
-22 18 0 7.1 10.1
-4 22 0 19.8 11.2
-22 4 0 8.6 8.6
22 -3 0 3.8 9.6
3 19 0 6 9.8
-22 19 0 4.7 9.7
19 3 0 6.1 10.6
-3 22 0 4.6 9.3
-22 3 0 7.2 9.3
-19 22 0 -4.7 14.6
2 20 0 14.1 7.9
20 2 0 33.3 11.2
-22 2 0 25.2 9.2
-22 20 0 21.9 10.1
22 -2 0 29.2 10.3
22 -1 0 27.4 11.1
-22 1 0 22.3 9.1
-21 22 0 1.7 6.9
21 1 0 14.7 10.6
-22 21 0 39.8 11.2
-12 23 0 34.6 12.3
-11 23 0 28.6 11.9
23 -11 0 20.4 10.4
-23 12 0 26.1 9.8
11 12 0 21.7 9.7
23 -12 0 27.8 10.3
-23 11 0 19.2 9.5
12 11 0 24.5 10.6
23 -10 0 3.9 9.4
-23 10 0 15.9 10.5
10 13 0 5.2 9.1
-23 13 0 10.8 9.2
-23 13 0 2 9.8
13 10 0 3.2 9.4
-10 23 0 9.5 11.7
23 -13 0 -1.3 8.9
-13 23 0 6.1 10.9
-23 9 0 9.2 9.8
-9 23 0 3.3 11.4
-14 23 0 -2.5 10
-23 14 0 8.8 9.6
23 -14 0 -0.5 8.9
23 -9 0 -9.7 8.6
14 9 0 -0.8 9.2
9 14 0 2.9 9.4
-8 23 0 9.5 11.5
-23 8 0 2.6 9.4
-23 15 0 3 9.7
8 15 0 8.5 9.7
23 -8 0 4.7 9.7
-23 7 0 5.6 8.9
23 -7 0 10.2 9.4
-23 16 0 15.8 9.7
7 16 0 9.7 9.4
-7 23 0 21.8 11
-6 23 0 5.3 9.9
17 6 0 2.4 10.6
23 -6 0 6 8.7
-23 17 0 0.9 9.7
6 17 0 0.9 8.9
-23 6 0 -3.9 8.5
-23 18 0 13.6 10
-23 5 0 15 8.7
-5 23 0 9.4 9.7
5 18 0 6 9.7
23 -5 0 6.1 8.8
18 5 0 -4.3 11
19 4 0 10.8 11.3
-4 23 0 12.9 8.7
4 19 0 4.2 9.4
-23 4 0 4.8 9.4
-23 19 0 8.7 9.9
23 -4 0 2.1 8.3
20 3 0 18.2 11.8
23 -3 0 17.6 9.9
-23 3 0 20.5 10.7
-23 20 0 21.4 11.4
12 12 0 6.8 8.4
-12 24 0 1.3 10.1
-24 12 0 1.6 7.5
24 -12 0 -1.4 7.7
-24 11 0 0.9 8.2
-11 24 0 5.2 9.7
13 11 0 0.6 8.3
-13 24 0 9.9 10.1
24 -11 0 4.1 8.1
11 13 0 3.6 8.2
-10 24 0 1.9 9.6
-24 14 0 -2.5 6.4
10 14 0 -0.1 8.2
-24 10 0 5.8 8.5
14 10 0 -4.8 6.4
-14 24 0 -1.2 8.2
24 -10 0 0.9 8.2
-24 9 0 10.2 8.8
-24 15 0 5.7 8.6
9 15 0 2.9 8.5
24 -9 0 -0.8 7.1
-9 24 0 8 9.7
16 8 0 9 11.3
-24 16 0 0.6 9.7
-8 24 0 6.1 9.8
24 -8 0 0.8 7.9
8 16 0 -4.9 8.3
-24 8 0 -3.6 8.2
24 -7 0 -0.1 8
7 17 0 -5 9.1
-24 17 0 -5.2 10.5
17 7 0 0.6 11.5
-7 24 0 7.5 9.9
-24 7 0 10 9
18 6 0 15.5 11.5
-24 18 0 14.7 10.2
24 -6 0 7.9 9.7
-24 6 0 7.8 9.6
6 18 0 13.2 9.9
-6 24 0 4 10.5
12 13 0 5.1 8.2
13 12 0 -3.5 5.4
-12 25 0 -0.9 10.2
-13 25 0 5.1 8.4
-11 25 0 19.5 10.6
11 14 0 27.5 9.3
-10 25 0 0.3 10.7
0 0 -1 0.7 2.6
0 0 -1 0.8 4.3
0 0 1 2.2 4.4
0 0 -1 -0.3 2.5
0 0 1 -4 2.2
-1 1 -1 10 4.6
0 1 -1 8.2 8.3
1 0 -1 12.9 3.9
-1 0 1 12.6 6.2
0 1 -1 10.3 4.1
-1 1 -1 11.9 3.7
1 -1 -1 9.7 6.4
0 1 -1 10.1 5.1
0 -1 -1 14 4.3
1 -1 1 3 3.3
-1 1 1 13.1 3.5
1 0 1 10.7 4.4
0 1 1 15.8 6
1 -1 -1 8.2 6
-1 1 1 12 6.2
-1 0 -1 12.1 5.4
0 -1 -1 16.6 6.2
0 1 1 15.8 5.7
-1 0 1 9.4 7.3
1 0 1 18.4 5
-1 1 -1 15.4 7.2
1 0 -1 15.3 8
0 -1 1 11.4 5.3
0 -1 1 15.5 7.2
-1 0 1 11.7 4.3
1 -1 1 10.4 7
-1 1 1 13.5 6
0 -1 -1 14.3 5.5
1 0 -1 9.5 5.8
0 1 1 10 4.1
1 -1 -1 11.4 3
1 -1 1 2.6 4
2 -1 1 711.73 32.7
2 -1 1 639.94 35.1
1 1 -1 649.54 35.6
-1 2 1 669.13 33.4
-1 -1 1 663.03 38.6
-2 1 -1 727.63 35.5
-1 -1 -1 642.84 34.7
-1 2 -1 646.94 36.2
1 -2 1 619.54 35.3
1 -2 1 670.23 32.7
1 1 -1 647.24 33.9
-1 2 1 676.13 35
1 -2 1 715.83 36.6
-1 -1 1 632.54 34.2
-1 -1 -1 673.13 34.5
1 1 1 720.03 34.2
-2 1 1 699.13 36
-2 1 -1 693.53 35.6
1 1 1 650.03 34.4
1 -2 -1 643.34 35.4
2 -1 -1 664.93 36.5
1 -2 -1 628.84 35.2
-1 2 1 708.63 35.1
2 -1 1 661.73 36.2
-1 2 -1 663.73 34.8
1 1 -1 609.24 38.1
-1 2 -1 669.13 32.7
-2 1 1 706.23 36.5
2 -1 -1 678.43 36
1 -2 -1 651.83 33.2
0 2 1 30.1 7.6
-2 2 1 30 8.7
0 -2 -1 29.2 8.6
2 0 -1 32.1 7.8
-2 0 1 39.4 11.7
-2 2 1 28.9 7.6
2 0 -1 18.6 12.2
2 0 1 35.2 8.2
2 -2 1 25.9 7.9
-2 2 -1 33.6 11.2
2 -2 -1 18.3 9.1
2 0 1 18.9 10.3
0 -2 1 19.6 6.7
-2 0 1 33.5 11.7
2 -2 -1 20 7.5
0 2 1 38.2 9.1
0 -2 1 29.5 12.8
0 2 -1 25.2 13.7
-2 2 -1 28 8.1
2 -2 1 25.9 11
-2 0 1 22.6 8.3
-2 2 1 41 10.9
0 -2 1 29.2 9.4
2 -2 -1 22.6 9.3
2 0 1 13.2 10.9
0 2 -1 27.2 8.3
-2 2 -1 28.4 4.6
0 -2 -1 24.8 9.9
2 0 -1 30.2 12.7
0 2 1 33 8.9
0 2 -1 28.9 6.9
1 2 1 528.35 30.2
3 -2 -1 447.86 30.2
-3 1 1 532.45 33
-1 3 -1 523.05 27.6
-1 3 -1 526.15 30.2
-2 3 1 522.05 29.8
3 -1 1 430.86 31.4
2 -3 1 534.75 31
-2 3 1 522.25 30.4
-3 1 1 547.35 33.8
2 -3 1 479.75 27.7
-3 2 -1 543.55 31.5
-1 3 -1 466.95 36.6
-2 3 1 523.05 28.8
1 2 1 521.65 28.9
-1 -2 1 484.55 37.5
2 1 -1 539.65 29.2
1 -3 -1 417.06 27.5
-3 2 -1 517.55 30.1
3 -1 1 563.54 31.4
3 -2 -1 477.15 30.1
2 1 1 521.75 30.1
-2 -1 1 418.06 29.3
-2 3 -1 537.85 30.8
-3 2 1 534.65 32.1
-1 3 1 530.25 30.1
2 -3 -1 446.66 28.5
-3 1 -1 570.84 33.5
-2 3 -1 533.05 28.7
1 -3 1 568.94 35
3 -2 1 542.85 24.4
3 -1 -1 440.16 31.4
2 1 1 422.66 33.9
2 -3 -1 444.36 29.3
1 2 -1 551.74 29.2
-2 -1 1 521.25 37.4
1 2 -1 554.54 30.6
-3 2 1 537.15 30.3
3 -2 1 450.45 30.7
-1 3 1 543.55 28.8
-1 3 1 510.75 30.4
-2 3 -1 506.55 31.6
2 1 1 539.15 30
1 -3 1 489.95 28.3
3 -1 -1 546.35 29.1
-3 3 1 56.69 10.9
3 0 1 18.7 14.4
0 3 1 59.99 12.6
-3 3 1 54.19 11.6
0 3 -1 70.29 12.8
-3 0 1 16.3 9.1
0 -3 1 32.1 16.9
3 -3 -1 27.6 9.9
0 -3 -1 20.7 9.1
3 0 -1 56.69 10.9
-3 3 -1 55.59 12.5
-3 0 1 69.79 18.5
0 3 1 64.69 11.9
0 3 -1 54.49 11.1
0 3 -1 4.5 13.9
3 -3 -1 32 10.7
3 0 1 61.39 12.7
-3 3 -1 41.8 5.8
-3 3 1 68.19 15
3 0 1 9.1 10.2
3 -3 1 39 11
-3 3 -1 47.3 13.8
-3 0 1 53.29 16.9
0 -3 1 27.4 9.4
-2 4 1 596.44 34.4
-2 4 1 569.34 34.2
-4 2 1 641.44 37.5
2 -4 1 621.34 40
2 2 -1 571.44 35.9
2 2 1 592.54 34.8
-2 -2 1 590.94 44.6
-2 4 -1 588.44 32.7
-2 4 1 603.24 35.3
-4 2 -1 589.64 36.6
4 -2 1 501.55 31.8
-4 2 1 567.04 38.2
2 2 1 593.34 34.7
-2 4 -1 583.54 35.4
4 -1 1 122.59 16.6
-4 3 -1 131.69 19.6
1 3 1 118.69 18.4
-4 1 1 141.09 21.7
1 3 1 129.29 18.8
-1 -3 1 173.28 25.2
-4 1 1 180.68 22.5
-3 4 1 124.59 17.1
-3 4 1 119.19 18.4
-4 3 -1 198.68 23.1
-3 4 1 133.69 19.4
-1 4 -1 136.69 18.7
-1 4 -1 121.59 15.8
3 1 -1 117.09 16.5
-3 -1 1 149.59 25.2
-4 1 -1 159.88 22.4
3 1 1 124.89 17.7
-3 4 -1 136.99 19.2
1 -4 1 144.79 22.9
-1 4 1 139.39 18.6
-1 4 1 133.29 18.9
3 1 1 120.59 16.8
1 3 -1 122.69 18.2
-4 3 1 129.69 18.8
-4 3 1 129.39 21.4
-3 4 -1 131.19 20.6
-1 4 1 143.19 18.2
4 -1 -1 122.59 16.6
1 3 -1 117.99 15.6
-4 3 1 136.29 17.1
-3 4 -1 174.98 21.2
0 4 -1 326.07 23.8
-4 4 1 317.07 26.5
-4 4 1 309.37 27.6
0 4 1 316.47 23.4
0 4 -1 314.57 25.2
-4 0 1 292.47 32.9
4 0 -1 305.67 23.6
0 -4 1 304.77 34.2
4 0 1 312.37 24.8
-4 0 1 327.97 37.2
0 4 1 318.17 25.3
-4 4 -1 327.17 26.6
-4 4 -1 326.57 27
-4 4 1 325.27 25.5
-3 5 1 238.48 22.1
-2 5 -1 255.17 21.8
-5 2 1 257.27 27.7
-5 2 1 263.57 28.8
3 2 -1 223.28 22.9
-3 5 1 237.48 22.8
-2 5 -1 241.18 24.2
-3 5 1 243.78 25.9
2 3 1 226.08 24.7
-2 -3 1 255.47 34.7
2 3 1 241.38 23.2
-5 3 -1 237.88 26.3
-3 5 -1 253.97 25
-2 5 1 282.27 26.7
5 -3 1 267.87 15.5
2 3 -1 247.08 23.8
-5 2 -1 267.07 28.8
2 3 -1 275.17 23.5
-2 5 1 264.87 23.4
-2 5 1 262.57 24.4
-5 3 1 294.97 27.1
2 -5 1 288.57 31.7
-3 5 -1 288.07 23.6
3 2 1 277.17 25
5 -2 -1 281.97 23.9
-5 3 1 275.77 27.6
-3 -2 1 284.27 32.4
3 2 1 279.57 22.9
-5 1 1 171.58 26.4
5 -1 1 173.08 21
-5 4 -1 161.18 24.5
-5 1 1 179.58 26.9
-4 5 1 191.58 27.2
1 4 1 182.48 21.1
-5 4 -1 179.78 27.4
4 1 -1 188.48 20.4
-4 5 1 181.78 19.7
-4 5 1 181.48 24.7
-1 5 -1 183.68 22.4
-1 -4 1 230.48 32.2
-1 5 -1 176.88 19.9
1 4 1 161.58 20.6
-1 5 1 190.58 22.4
-1 5 1 182.68 21.9
-4 5 -1 179.88 25.1
1 4 -1 189.68 20.3
-5 1 -1 170.48 25.7
-1 5 1 170.78 25.3
5 -1 -1 176.48 19.4
-4 -1 1 232.48 33.1
-5 4 1 220.98 25.3
4 1 1 162.48 20.3
-4 5 -1 188.98 22.9
-5 1 -1 173.78 26.1
1 -5 1 197.58 31.1
-5 4 1 184.18 19.4
-5 4 1 174.88 23.3
1 4 -1 184.78 22.6
-4 5 -1 170.08 15.4
5 0 -1 266.57 24.4
-5 0 -1 269.57 32.3
-5 5 -1 284.57 27.8
5 0 1 238.88 23.5
0 5 -1 287.47 26
0 5 -1 311.17 25.9
-5 0 1 279.97 39.3
-5 5 1 271.17 30.9
0 5 1 272.07 25.7
-5 5 1 263.17 24
-5 0 1 289.07 30.7
-5 5 -1 272.67 26
0 -5 1 297.57 36.8
-5 5 1 280.27 27.7
0 5 1 330.07 26.8
3 3 -1 134.69 20.7
3 3 1 157.68 20.9
-6 3 -1 126.49 22.7
-6 3 1 114.29 21.3
-6 3 1 142.59 24.4
-3 6 -1 144.69 22.1
-3 6 -1 117.59 17.5
3 3 -1 139.29 20.2
-3 6 1 104.89 17.4
-3 6 1 110.89 19.4
-3 6 1 128.99 20.7
-3 -3 1 126.89 27.6
3 3 1 167.38 21
-4 6 1 173.08 24.2
-6 2 1 145.99 25.8
4 2 -1 133.29 21
-6 2 1 173.68 25.2
-4 6 1 116.69 17.6
2 4 1 214.88 25.3
-6 4 -1 173.38 25.7
-2 6 -1 137.79 21
-2 -4 1 152.08 29.2
-4 6 1 134.39 22
6 -2 1 127.79 20.7
2 4 1 173.98 22.8
-2 6 -1 178.08 23.4
-6 4 -1 162.28 23.8
-4 -2 1 223.18 33.4
-6 4 1 172.58 26
-6 2 -1 171.78 27.4
4 2 1 148.29 20.9
6 -2 -1 177.68 23.4
2 4 -1 160.68 20.8
-4 6 -1 167.38 24.8
-6 4 1 167.28 23.8
2 -6 1 190.68 32.1
-2 6 1 159.48 24.4
-2 6 1 163.08 22.4
-2 6 1 177.28 24
4 2 1 177.38 23.4
2 4 -1 158.88 22.6
-4 6 -1 168.18 24
-5 6 1 46.1 20.5
-1 6 -1 79.29 20.7
-6 5 -1 50.19 20
-6 5 -1 45.5 21.3
1 5 1 58.39 18.3
1 5 1 51.19 17.6
5 1 -1 50.79 16.9
-6 1 1 64.79 24.8
-5 6 1 56.39 18
-1 -5 1 56.09 25.4
-6 1 1 49.8 22.3
-1 6 -1 57.69 15.7
6 -1 1 75.29 19.1
-5 6 1 43.6 13.1
-5 6 -1 84.79 23.3
-6 5 1 33.8 15
-5 6 -1 45.2 8.9
-1 6 1 56.49 16.4
1 -6 1 55.59 23.7
6 -1 -1 51.29 15
-6 1 -1 54.49 18.3
-6 5 1 47.9 19.6
-1 6 1 59.19 16.9
5 1 1 70.19 16.9
-5 -1 1 35.8 21.6
1 5 -1 61.49 17.4
1 5 -1 56.59 17.2
-6 5 1 59.29 18.3
-1 6 1 74.19 20.3
-5 6 -1 60.79 19
0 6 -1 74.29 19.7
-6 0 1 54.69 25.4
6 0 -1 69.99 19
6 0 1 82.09 17.9
-6 6 1 57.29 14.7
-6 6 -1 74.09 20.9
0 6 1 71.69 17.8
-6 6 1 53.69 18
-6 0 -1 36.8 21.2
0 6 1 56.49 17.4
0 6 -1 66.59 16.4
-6 6 1 61.79 21.7
-6 0 1 76.69 23.2
-6 6 -1 44.5 19.9
0 -6 1 71.69 26.8
3 4 1 348.37 30.1
-3 7 -1 338.47 29.4
4 3 -1 356.06 30.7
-4 7 1 348.17 29.8
-7 3 1 321.67 35.1
-4 7 1 325.67 30.5
-7 4 -1 317.67 32.6
-3 7 -1 329.97 30.8
4 3 -1 349.07 30.2
-3 -4 1 365.76 47.2
-7 3 1 325.67 37.9
3 4 1 330.37 31
-4 7 1 336.57 29.1
-3 7 1 421.86 35
-7 3 -1 414.26 40.4
3 4 -1 398.06 32.4
4 3 1 425.56 33.7
4 3 1 405.56 32
-3 7 1 423.86 34.3
7 -3 -1 430.86 32.8
-7 4 1 403.66 35.8
-3 7 1 408.56 34.1
-4 -3 1 429.46 44.3
3 4 -1 464.45 34.5
-7 4 1 415.46 40.5
-4 7 -1 379.36 32.7
-4 7 -1 398.46 35.8
-5 7 1 241.88 28.4
5 2 -1 263.17 27
-7 2 1 264.77 38
-2 7 -1 264.77 25.1
-7 5 -1 266.77 34.3
-5 7 1 252.87 24.5
-2 7 -1 283.17 29.1
-2 -5 1 255.27 44.4
2 5 1 247.48 27.5
2 5 1 282.47 29.4
-7 2 1 250.27 36.4
-7 5 -1 248.68 29.8
7 -2 1 250.27 26.9
-5 7 1 273.67 30.8
-7 2 -1 233.78 31.4
-5 -2 1 218.88 36.9
-2 7 1 263.17 30.5
-2 7 1 244.78 29.4
7 -2 -1 281.47 28.3
-7 5 1 212.88 26.9
-5 7 -1 238.38 20.7
-5 7 -1 264.37 30.9
-7 5 1 264.97 33.6
5 2 1 238.38 28
-2 7 1 228.78 29.2
-5 7 -1 245.88 28.2
2 5 -1 259.47 28.4
5 2 1 237.68 25.6
2 5 -1 254.57 30
-1 -6 1 44.3 10.6
-7 1 1 50.99 26.3
-6 7 1 55.09 20.6
-7 1 1 46.9 12.9
1 6 1 65.69 17.7
-7 6 -1 72.49 23
-1 7 -1 58.39 17.3
-6 7 1 45.2 20
-1 7 -1 79.59 21.3
-6 7 1 61.49 14.6
-1 -6 1 52.89 25.8
-7 1 1 86.99 24.9
6 1 -1 77.19 18.2
1 6 1 88.99 19.2
-7 6 -1 31.4 12.7
7 -1 1 77.29 18.1
-7 6 -1 59.89 24.2
6 -7 1 21.9 10.5
1 6 -1 58.29 19.3
-6 7 -1 74.69 21.3
-6 -1 1 75.59 25.7
-7 6 1 62.89 19.6
-7 6 1 40.3 13.2
-1 7 1 79.49 21.5
1 6 -1 73.29 17
1 -7 1 73.09 26.4
6 1 1 76.59 19
-1 7 1 94.89 21.9
1 -7 1 40.5 10.5
-7 6 1 49.4 16
-1 7 1 96.59 19.9
-6 7 -1 77.79 21.3
-7 6 1 91.69 25.4
7 -1 -1 75.19 18.9
-7 0 1 113.49 19
0 7 1 160.48 24.4
7 0 1 146.59 23.8
-7 7 1 98.99 16.8
7 -7 1 133.59 17.4
-7 7 -1 146.59 19.5
0 7 1 128.79 22
0 7 -1 145.39 24.9
-7 7 1 146.49 22.9
-7 7 -1 152.18 27.1
0 -7 1 123.59 18.3
-7 7 1 146.49 26.3
-7 7 1 161.08 28.1
0 7 -1 149.69 23.4
-7 0 1 132.69 31
-7 7 -1 112.79 24.1
0 -7 1 124.29 28.4
-7 0 -1 91.29 16.8
7 0 -1 185.08 26
4 4 1 159.98 25.3
-8 4 1 144.19 29.9
8 -4 1 95.09 16.5
-4 8 1 125.89 21.4
4 4 -1 132.79 24.1
-8 4 -1 164.78 30.7
-4 -4 1 125.29 31.7
4 4 1 132.29 22.6
-8 4 1 118.39 24.7
4 -8 1 119.19 17.7
-8 4 -1 111.59 19.6
-4 -4 -1 114.89 18.5
-4 8 1 113.09 21.7
-4 8 -1 96.29 20.3
-4 8 -1 137.79 24.5
4 4 -1 134.59 22.2
-4 -4 1 109.69 15.9
8 -4 -1 148.29 22.8
-4 8 1 114.19 22.7
3 5 1 62.59 18.9
5 -8 1 31.3 11.4
8 -3 1 64.49 20.2
3 5 1 42.1 19.5
5 3 -1 50.39 18.5
-3 8 -1 31 17.4
-5 8 1 60.59 16.8
-3 8 -1 53.99 20.7
-8 3 1 25.9 24.2
-5 8 1 53.09 21.1
5 3 -1 55.99 19.2
-3 -5 1 49.3 12.4
-8 3 1 37.2 12.7
-8 5 -1 32.3 13.1
-3 -5 1 68.39 27.8
-8 5 -1 52.09 24.6
-5 -3 -1 45.8 12
-5 8 1 48.2 22.4
-8 3 1 46 23.1
-8 5 1 44.6 18.6
3 5 -1 85.49 19.2
-3 8 1 54.59 19.6
8 -5 1 67.89 15.8
-5 8 -1 78.59 21.9
-3 8 1 66.29 20.2
-3 8 1 69.19 22
8 -3 -1 67.99 18.5
-8 5 1 67.49 24.7
5 3 1 93.69 21.5
-5 8 -1 60.39 22.8
-5 8 -1 62.29 14.1
-8 3 -1 68.59 24.2
-8 5 1 38.8 13.4
-5 -3 1 62.09 26.8
3 5 -1 94.19 21.4
3 -8 1 67.79 12.9
5 3 1 96.89 23.4
-5 -3 1 71.99 14.3
-3 -5 -1 56.19 12.3
-8 3 -1 51.59 13.7
6 2 -1 81.39 20.8
-6 8 1 79.99 23.1
-2 8 -1 72.79 19.5
-6 -2 -1 66.69 13
-8 2 1 73.99 15.5
-8 6 -1 65.19 24
8 -2 1 90.99 20.8
2 6 1 87.69 20.1
-6 8 1 78.29 16.5
-8 2 1 81.89 29.4
-8 2 1 93.79 28.9
-8 6 -1 70.89 15.7
-2 -6 1 70.09 28.8
-6 8 1 71.79 23.8
-2 -6 1 58.99 12.9
-2 8 -1 102.99 24
6 -8 1 84.49 15
2 6 1 93.69 22.7
-2 8 1 121.99 24.5
8 -6 1 102.59 15.9
6 2 1 137.89 22.4
-2 -6 -1 78.69 14.2
2 -8 1 90.49 13.9
8 -2 -1 125.09 22.7
2 6 -1 139.69 24
6 2 1 107.49 22.5
-8 2 -1 121.19 26.7
-6 8 -1 140.79 28.9
-6 -2 1 107.59 15.5
2 6 -1 122.99 24.4
-8 6 1 80.59 16.2
-6 8 -1 101.09 23.4
-2 8 1 97.79 22
-6 -2 1 90.69 28.4
-2 8 1 112.89 22.8
-8 6 1 119.59 27.9
-8 2 -1 116.59 20.4
-1 8 -1 36.6 23.2
-8 7 -1 27.7 26.2
1 7 1 44.5 19.3
1 -8 -1 24.5 11.1
-7 8 1 39.6 16.8
-7 8 1 33.9 21.7
8 -1 1 48.9 19.8
-7 8 1 6 13
1 7 1 50.59 18.9
-8 7 -1 26.7 21.6
-8 7 -1 25.5 14.5
-8 1 1 42.6 15.1
-1 -7 1 29.2 24.9
7 -8 1 29.5 12.9
-8 1 1 39.4 23.8
-1 -7 1 29.2 11.8
-8 1 1 43.9 27
-7 -1 -1 19.5 10.4
-7 8 1 31.5 21.8
7 1 -1 36.1 18.5
-1 8 -1 40.5 18.3
-1 -7 -1 46.7 11.9
-1 8 1 57.89 21.6
7 1 1 52.49 19.6
-8 7 1 55.59 22.3
-7 -1 1 51.69 14.8
-8 7 1 39.1 16.4
-7 -1 1 31.9 11.6
-7 8 -1 59.19 17.2
-1 8 1 79.49 24.5
-7 8 -1 24.6 19.4
-7 8 -1 44.7 22.4
-8 7 1 36.5 25.6
8 -7 1 38.1 14
-8 1 -1 44.8 14.1
8 -1 -1 57.59 20.5
-1 8 1 44.1 18.7
1 -8 1 47.1 12.8
1 7 -1 70.59 20.8
-7 -1 1 41.3 27.8
1 7 -1 59.59 21.8
-8 8 -1 43.3 25.8
-8 0 1 46.7 13.9
8 -8 1 52.79 14.9
-8 8 -1 61.79 18
8 0 1 52.59 20
0 8 1 42 21.3
8 0 -1 89.29 23.4
-8 8 1 58.89 17.5
0 -8 -1 42.8 12.4
-8 0 1 52.59 27.7
0 -8 1 62.89 14.3
-8 8 -1 53.09 26.6
-8 8 1 44.2 26.1
-8 8 1 64.19 24.4
-8 0 -1 52.59 14.4
0 8 -1 57.69 21
0 8 -1 48 22.1
0 8 1 45.2 21.1
5 4 -1 151.18 26
-4 9 -1 124.09 23.9
-9 4 1 144.09 21.2
-9 5 -1 148.99 30.1
-9 5 -1 117.79 19
-9 5 -1 133.39 22.2
9 -4 1 199.08 28.8
5 4 -1 159.98 27.1
-4 -5 1 148.69 36.2
4 5 1 165.38 26
4 5 1 205.08 30.2
-5 -4 -1 156.08 21.2
-4 -5 1 135.39 21
-5 9 1 120.69 26.5
9 -5 -1 164.98 25.5
-4 9 -1 158.88 27.5
-9 4 1 90.09 26.3
-5 9 1 160.68 28.5
-5 9 1 153.38 26.4
5 -9 1 140.69 20.2
-9 4 1 157.58 31
5 4 1 207.78 28.5
-5 9 -1 184.98 28.2
-9 5 1 183.18 21.1
-5 -4 1 200.68 22.5
-4 9 1 221.78 30.5
-4 9 1 202.28 32.6
9 -4 -1 197.98 30.4
-5 -4 1 230.28 39.7
4 5 -1 219.08 29.3
4 5 -1 220.38 28.9
-9 4 -1 204.68 24.8
-4 -5 -1 219.08 20.6
-9 5 1 209.18 25.4
5 4 1 221.48 30.6
-5 9 -1 232.08 34.3
-5 9 -1 168.68 23.9
-9 5 1 226.48 37
4 -9 1 191.28 20.2
9 -5 1 196.98 26.1
-9 4 -1 152.08 20.5
-4 9 1 213.38 33.7
-9 4 -1 224.98 36.3
3 6 1 174.28 27.8
6 3 -1 136.09 25
-6 9 1 152.38 29.1
9 -3 1 158.98 25.4
-3 -6 1 129.79 34.1
-3 9 -1 146.69 29.4
-9 3 1 107.89 17.6
-6 -3 -1 128.69 20.6
-9 3 1 138.29 30.7
6 -9 1 132.89 18.5
-6 9 1 117.09 27.4
3 6 1 159.18 27.7
-9 6 -1 136.39 32
6 3 -1 148.29 25.7
-3 -6 1 126.79 18.8
-3 9 -1 96.49 21.4
-9 6 -1 139.19 20.4
-6 9 1 99.29 18.7
-9 3 1 102.09 29.9
-6 -3 1 93.79 16.1
9 -6 1 79.79 16.9
3 6 -1 99.79 24.1
6 3 1 77.99 22.9
-3 9 1 59.79 22.1
-6 9 -1 90.49 26.8
-3 9 1 67.19 22.9
-9 6 1 86.99 18.4
6 3 1 94.49 22.2
-6 -3 1 50.09 12.8
-6 9 -1 53.19 21.9
-9 3 -1 73.49 15.7
3 -9 1 71.89 14
-9 3 -1 80.39 25.9
-3 -6 -1 103.89 16.8
-6 -3 1 100.99 35.3
-9 6 1 102.59 30.7
3 6 -1 85.29 22.1
-3 9 1 68.99 21.3
9 -3 -1 80.09 19.9
-9 2 1 281.07 44.1
-2 9 -1 336.87 37.6
9 -2 1 329.37 32.7
-7 -2 -1 314.47 26.7
-9 7 -1 328.47 45.2
7 -9 1 342.17 27.9
7 2 -1 343.47 36.8
2 7 1 322.57 33.5
-7 9 1 290.87 37.5
-9 7 -1 314.87 30.1
2 -9 -1 317.17 25.7
-2 -7 1 312.97 26.3
-2 9 -1 333.07 34.3
-7 9 1 346.07 30.8
-7 9 1 292.77 34.4
-9 2 1 324.47 41.9
-9 2 1 337.47 27.9
2 7 1 338.07 34.7
-2 -7 1 312.17 46.3
2 -9 1 280.87 25.1
9 -2 -1 346.57 35.6
-7 9 -1 315.17 28.3
-9 7 1 281.47 41.7
-7 9 -1 264.27 37.1
-7 9 -1 283.87 35.8
7 2 1 290.77 32.3
-9 2 -1 328.67 28.2
-7 -2 1 288.97 24.5
-7 -2 1 280.87 25.9
-9 7 1 303.67 30
-2 -7 -1 309.77 26.2
2 7 -1 312.77 32.2
-7 -2 1 311.97 48
2 7 -1 295.57 34.8
-2 9 1 356.46 40.5
-2 9 1 341.77 36.3
7 2 1 329.47 38.2
-2 9 1 326.87 37.3
9 -7 1 302.37 26.2
-8 -1 -1 79.29 16.3
9 -1 1 80.09 22.6
-1 9 -1 87.79 27.2
1 -9 -1 121.69 17.2
-9 8 -1 86.69 28.6
-9 1 1 67.49 28.8
8 -9 1 105.89 17
-1 -8 1 123.99 16.9
-9 1 1 131.49 19.6
1 8 1 111.19 27.9
8 1 -1 107.09 25.5
-1 9 -1 97.99 24.1
-8 9 1 98.89 18.9
-9 8 -1 68.59 25.4
1 8 1 90.09 23.6
-8 9 1 93.69 27.4
-9 8 -1 126.39 21.4
-8 9 1 109.89 30.1
-9 1 -1 96.79 18.2
9 -1 -1 82.79 24.7
-9 8 1 119.39 20.9
9 -8 1 109.39 18.9
-9 8 1 69.89 27.3
-8 9 -1 98.69 19.4
8 1 1 96.09 25
1 -9 1 114.79 17.4
-8 9 -1 83.29 28
1 8 -1 100.69 24.9
-9 8 1 63.59 25.8
-8 -1 1 106.89 18.1
-8 -1 1 81.19 35.8
-1 9 1 73.49 22.8
-1 9 1 66.29 27.3
-1 9 1 76.79 25
1 8 -1 77.99 25.7
-1 -8 -1 119.29 17.5
-8 9 -1 58.09 26.3
8 1 1 84.79 23.5
0 9 1 13.4 26.7
0 9 1 -2.6 23.7
-9 0 -1 -5.3 13.9
0 -9 1 10.7 11.9
-9 9 -1 6.7 27.8
-9 9 1 11.7 21.5
-9 9 -1 3.4 16.6
0 9 -1 8.6 19.3
0 9 1 3.9 19.5
-9 0 1 10.8 14.2
-9 9 1 7.1 16.8
0 -9 -1 -1.7 11.1
-9 9 1 -26.9 26.1
9 0 -1 12.1 20.7
-9 9 -1 -3.9 22.1
-9 0 1 -2.3 30.3
9 0 1 7.2 20.3
9 -9 1 -5.4 14.9
9 -9 -1 1.8 10.3
0 9 -1 15.8 25.9
5 5 1 676.63 49.5
10 -5 -1 680.33 43.1
10 -5 -1 748.03 51.29
-5 -5 -1 716.03 42.2
-10 5 1 725.63 57.69
5 5 -1 694.83 50.69
-10 5 -1 743.33 44.3
-10 5 -1 732.73 61.69
10 -5 1 723.13 44.6
-5 -5 1 769.02 43.2
5 5 1 745.63 53.59
5 -10 1 743.13 43.2
-10 5 -1 702.53 44.5
-5 10 -1 576.44 50.09
5 -10 -1 691.93 41.9
-5 10 -1 720.93 54.79
-5 10 1 732.93 52.89
-10 5 1 772.92 45.7
-10 5 1 750.12 44.1
-5 10 1 716.33 56.29
-5 -5 1 779.62 69.79
5 5 -1 739.63 52.09
10 -5 1 761.42 52.69
-4 10 -1 30.3 18.5
-10 6 -1 67.69 18.3
10 -4 1 54.59 22.4
-10 4 1 57.99 29.1
-4 10 -1 66.59 28.5
6 4 -1 75.59 24.1
-4 -6 1 66.39 15.6
-10 4 1 47.5 14.4
4 -10 -1 62.99 14.5
-10 6 -1 58.69 15.9
-10 4 1 53.19 15.7
4 6 1 74.79 24.8
-10 6 -1 57.99 31.4
-6 10 1 45.8 26.6
-6 10 1 66.69 29.4
4 6 1 44.5 23.2
10 -6 -1 51.19 20.6
6 -10 1 66.29 15.1
10 -6 -1 63.99 16.3
-4 -6 1 53.69 32.6
6 4 -1 42.1 21.5
-4 10 -1 48.9 21.6
-6 -4 -1 77.19 15
-6 10 -1 57.69 26.8
-4 -6 -1 66.59 14.3
-10 4 -1 34.5 25.6
-6 -4 1 58.59 14.3
6 4 1 82.69 24.7
-10 4 -1 70.69 16
4 6 -1 54.79 22.8
-4 10 1 48.9 23.8
-10 6 1 54.99 28.8
-10 6 1 82.89 19.2
-10 6 1 54.69 14.8
-6 -4 1 52.19 13.8
-4 10 1 73.59 24.8
10 -6 1 73.99 17.2
-4 10 1 51.09 21.9
6 -10 -1 43 11.7
-6 10 -1 45.2 23.3
-10 4 -1 82.79 18.9
4 6 -1 50.69 22.9
10 -4 -1 88.59 25.5
4 -10 1 52.09 14
-6 -4 1 39.2 35.2
6 4 1 74.29 23
-10 3 1 419.56 31.2
-7 -3 -1 461.85 31.8
-3 -7 1 437.46 31.7
10 -3 1 474.15 43
-3 -7 1 455.15 53.39
-7 10 1 409.86 43.7
7 -10 1 434.16 31.5
10 -7 -1 405.46 30.8
7 3 -1 481.55 42
3 -10 -1 452.45 31.2
-7 10 1 351.86 41.5
-10 7 -1 434.86 47.1
-3 10 -1 334.37 38.6
-7 10 1 475.75 35.7
-3 10 -1 451.85 47.4
-10 7 -1 424.26 32.8
3 7 1 439.66 40.5
7 3 -1 478.85 43.8
3 7 1 480.75 43.1
-10 3 1 400.26 47.6
7 3 1 484.05 44.5
3 7 -1 502.95 43
-7 -3 1 476.45 33.9
3 -10 1 491.95 31.9
-3 10 1 471.55 46.7
-10 7 1 478.35 37
10 -7 1 481.55 34.1
-10 7 1 477.55 53.19
-3 -7 -1 477.55 33.3
-3 10 1 465.55 45.6
-10 3 -1 517.75 36
-7 -3 1 496.55 34.1
-7 10 -1 464.25 35.5
10 -3 -1 488.35 42.3
7 3 1 511.35 44.2
7 -10 -1 426.96 31.1
-7 -3 1 494.05 61.29
-3 10 1 481.75 47
-7 10 -1 528.65 47.4
10 -2 1 283.37 33.5
2 8 1 269.07 34.4
-10 8 -1 289.57 29.6
-2 -8 1 273.37 23.8
-8 10 1 264.17 39
-10 2 1 259.67 24.9
-2 10 -1 276.07 41.9
-8 10 1 188.98 34
2 -10 -1 279.07 24.1
-10 8 -1 207.78 37.7
8 2 -1 253.67 37.5
10 -8 -1 262.27 24.5
-8 10 1 288.17 30.8
-8 -2 -1 300.77 26.8
2 8 1 236.88 34
-10 2 1 267.77 42.4
8 -10 1 271.17 24.9
2 8 -1 266.07 36.3
-10 2 -1 338.37 29.5
-10 8 1 299.27 43.8
10 -2 -1 283.47 33.6
-8 -2 1 242.98 45.9
-8 10 -1 333.07 44.7
2 8 -1 298.87 41.6
-2 10 1 288.77 39.9
-2 -8 -1 296.07 27.4
-2 10 1 289.87 42.5
2 -10 1 307.87 26.8
-8 10 -1 315.87 30.4
-2 10 1 325.67 43.4
-8 -2 1 278.17 26.3
8 2 1 295.57 38.1
8 -10 -1 308.07 25.3
8 2 1 308.47 38.4
-10 8 1 302.77 31.2
10 -8 1 316.27 27.3
-8 -2 1 305.37 27.6
-10 9 -1 57.09 17.8
-10 9 -1 3.9 26.6
-10 9 -1 39.4 26.3
1 9 1 36.5 24.1
-9 -1 -1 37.5 14.6
-1 10 -1 54.79 28
1 9 1 28.7 21.6
-9 10 1 13.9 25.9
10 -9 -1 61.39 16.2
1 -10 -1 55.49 15.7
-9 10 1 27.3 24.7
-10 1 1 82.09 18.3
9 -10 1 67.59 16.5
9 1 -1 46.2 22.6
10 -1 1 40.4 24.5
-1 10 -1 -3.7 22
-9 10 1 77.29 20.4
-1 -9 1 78.59 15.9
-9 10 -1 -2.2 22.7
-9 10 -1 73.69 19.4
1 -10 1 49 15.2
-10 1 -1 52.99 16.9
-9 -1 1 15.1 34.2
10 -1 -1 33.3 23.6
-1 -9 -1 51.99 15.1
-1 10 1 33.6 24.1
9 1 1 40.5 23.3
9 1 1 38.7 24
-9 10 -1 24.3 29.7
9 -10 -1 70.69 15.2
-9 -1 1 33.2 14.7
1 9 -1 13 22.5
-1 10 1 32.3 26.8
-1 10 1 34.3 27.6
1 9 -1 25 25.5
10 -9 1 60.59 18.4
-10 9 1 15 28.1
-10 9 1 66.79 19.3
10 0 1 211.48 35.5
0 10 -1 196.68 37.1
0 -10 1 283.47 25
-10 0 1 320.17 28.8
-10 10 -1 242.88 28.9
-10 0 -1 327.67 28.9
10 -10 1 287.37 28.8
0 -10 -1 317.57 27.6
10 -10 -1 321.47 27.4
-10 10 1 262.57 27.9
-11 6 -1 115.79 19.1
5 6 1 103.29 28.6
-5 -6 1 100.49 38.1
11 -6 -1 143.69 22.2
-11 6 -1 66.79 33.8
6 5 -1 87.69 26.9
-11 6 -1 134.19 22.5
-6 11 1 62.09 27.3
6 5 -1 113.19 26.6
-6 -5 -1 147.79 19.3
6 -11 1 122.09 19.6
5 -11 -1 99.49 16.4
-11 5 1 143.59 20.3
11 -5 1 109.69 25.6
-5 11 -1 87.79 29.1
-11 5 1 97.99 32.9
5 6 1 129.79 29.2
-5 -6 1 110.49 18.4
-6 11 1 49.9 30
11 -5 1 133.49 21.9
-11 5 1 121.99 19.8
-11 6 1 87.29 34
-6 -5 1 108.59 17.8
-5 -6 -1 122.39 18.3
-6 11 -1 79.89 30.5
-6 -5 1 81.79 15.7
5 -11 1 93.69 16.4
-11 5 -1 98.79 18.7
-11 6 1 97.69 17.7
-5 11 1 63.49 26.6
11 -6 1 123.59 21.1
6 5 1 97.29 29.1
5 6 -1 100.19 29.4
-11 5 -1 104.49 19.9
-11 6 1 80.69 18
11 -5 -1 107.99 20.6
5 6 -1 60.69 26.9
-6 -5 1 89.99 38.6
6 5 1 101.09 25.4
-11 5 -1 50.59 29.6
6 -11 -1 87.29 16.4
11 -5 -1 40.7 21.5
11 -6 1 85.09 25
-7 11 1 134.89 21.7
-11 4 1 159.68 23.1
-11 4 1 150.08 22.7
4 7 1 171.38 31.4
7 4 -1 143.79 29.1
-4 11 -1 149.19 35.5
-7 -4 -1 170.78 23.2
-4 -7 1 142.29 21.9
11 -4 1 139.09 28
4 7 1 136.49 29.2
11 -7 -1 155.38 21.9
-11 4 1 134.49 38
7 -11 1 162.68 22.7
7 4 -1 123.59 27.3
-11 7 -1 172.18 25.7
-4 -7 1 121.09 35.6
4 -11 -1 177.48 22.5
-7 -4 1 127.49 20.8
-11 7 1 98.39 35.3
4 -11 1 118.49 19
-11 7 1 121.19 20.3
-4 -7 -1 115.29 18.9
7 -11 -1 122.29 19.6
7 4 1 107.29 28.4
-11 4 -1 128.59 21.1
-7 -4 1 126.19 21.7
7 4 1 127.99 30.4
11 -7 1 186.88 23.3
4 7 -1 90.49 25.3
-4 11 1 45.5 24.8
-7 11 -1 109.59 18.2
-11 4 -1 79.69 32.3
-11 7 1 177.08 23.4
4 7 -1 57.19 23.7
-11 4 -1 139.49 22.4
-7 -4 1 93.89 35
-7 11 -1 128.49 35.8
-4 11 1 83.69 26.8
3 -11 -1 148.29 22.5
-11 8 -1 152.38 26
3 8 1 100.69 28.3
-11 3 1 126.59 21.7
-8 -3 -1 143.39 21.8
11 -3 1 90.19 25
11 -8 -1 146.29 22.9
-3 11 -1 103.49 34.3
-8 11 1 137.39 22
8 3 -1 81.69 26.5
-11 3 1 95.89 31.8
8 -11 1 154.38 22.6
3 8 1 66.99 24.9
-3 -8 1 121.69 19.7
8 3 -1 105.39 28.7
-3 11 1 80.59 29.1
-3 11 1 14.4 23
11 -3 -1 39 23.6
-8 11 -1 89.19 28.3
-3 11 1 4.5 26.4
3 8 -1 87.69 27.4
-8 -3 1 35.9 34.3
-11 8 1 81.09 14.2
-8 -3 1 139.99 18.9
8 3 1 139.09 30.1
8 3 1 146.79 30.6
-11 8 1 61.99 29.7
-11 2 1 736.33 44.6
-11 9 -1 684.03 45.7
-9 -2 -1 662.63 43.8
-2 -9 1 676.23 42.6
11 -9 -1 641.34 42.9
2 -11 -1 686.53 42.9
-9 11 1 655.83 46.2
9 -11 1 724.93 44.1
9 2 1 395.86 47.7
-11 9 1 568.74 39.7
-11 2 -1 641.64 40.8
-2 -9 -1 589.04 37
-9 -2 1 602.34 39.1
11 -9 1 637.94 41
2 -11 1 567.74 36.9
9 -11 -1 529.85 37.1
-9 11 -1 585.94 41
1 -11 -1 416.26 31.1
-1 -10 1 351.66 28.8
-10 -1 -1 413.66 33.1
11 -10 -1 386.36 31.6
10 -11 1 401.86 32.9
-11 1 1 398.86 32.5
-11 10 -1 380.26 33.9
-10 11 1 345.77 34.2
-1 -10 -1 382.86 31.6
-10 -1 1 410.56 33
10 -11 -1 393.16 31.4
1 -11 1 382.06 29.3
-10 11 -1 382.76 34.4
-11 1 -1 422.86 33.9
-11 10 1 371.76 34
11 -10 1 382.66 31.7
-11 11 -1 108.49 20.9
11 -11 -1 117.89 19.9
-11 0 -1 116.99 20.6
11 -11 1 115.79 19.3
0 -11 -1 100.29 17.9
-11 11 1 142.69 23.5
-11 0 1 101.39 18.7
0 -11 1 127.89 18.5
12 -6 1 192.48 25.7
6 -12 -1 143.39 22.1
-12 6 1 145.69 22.4
12 -6 -1 130.79 21.4
-12 6 -1 171.38 26.6
-12 6 -1 135.19 23.2
6 -12 1 167.48 23.7
-6 -6 1 152.68 22.1
-6 -6 -1 137.39 20.6
-12 6 1 155.08 25.4
7 5 -1 -0.2 24.1
5 7 1 5.5 27.5
-12 5 1 124.49 20.7
7 5 -1 1.9 30
-5 -7 1 6.6 32.2
5 -12 -1 127.89 20.6
-12 5 1 8.5 32
5 7 1 1.2 25.4
-5 12 -1 -2.2 28.9
12 -5 1 3.6 23.9
-12 5 -1 152.58 25.9
-12 7 1 107.79 18.7
-12 7 1 148.79 25.5
-5 -7 -1 136.59 19
7 -12 -1 143.59 20.4
12 -7 1 149.29 22.5
5 -12 1 119.09 20.1
-7 -5 1 161.68 20.9
12 -5 -1 128.59 22.1
-12 5 -1 191.18 24.9
-7 -5 1 142.39 24.3
8 -12 1 148.39 20.8
12 -8 -1 114.79 20.7
4 -12 -1 151.38 23.8
-12 4 1 149.88 22
-12 8 -1 177.38 24.5
-8 -4 -1 180.88 22.5
-8 12 1 131.19 22.9
-4 -8 1 186.98 22.5
-8 -4 1 91.89 19.5
12 -8 1 93.99 19.7
-8 -4 1 94.09 18
-8 12 -1 76.99 19.4
-12 4 -1 65.39 15.9
-4 -8 -1 100.39 18.2
-12 8 1 96.99 20.5
4 -12 1 109.09 18.6
8 4 1 1.4 30.5
-12 4 -1 104.49 19.6
8 -12 -1 87.59 17.1
-12 8 1 80.99 16.9
-9 -3 -1 188.48 26
-9 12 1 175.28 29.4
12 -9 -1 185.08 26.2
-12 3 1 173.48 24.4
9 -12 1 170.48 24.7
-12 9 -1 184.88 26.8
-3 -9 1 164.88 23.1
3 -12 -1 196.98 25
-9 -3 1 135.59 21
-9 -3 1 157.08 24.7
-12 9 1 220.28 26.7
3 -12 1 141.79 23
-9 12 -1 154.98 26.9
-12 3 -1 151.48 24.2
9 -12 -1 158.48 23
12 -9 1 162.98 26.7
-3 -9 -1 163.08 23.9
10 -12 1 153.08 22.3
-10 12 1 116.49 22.3
-10 -2 -1 146.99 22.9
-2 -10 1 176.08 23
-12 10 -1 189.78 25.9
12 -10 -1 105.59 19.6
-12 2 1 132.09 23.3
2 -12 -1 116.79 19
-10 -2 1 177.78 25.3
10 -12 -1 117.79 19.3
-12 10 1 163.38 25.9
12 -10 1 152.98 22.7
-12 2 -1 154.58 25.3
-2 -10 -1 160.38 23.8
2 -12 1 148.29 23
-10 12 -1 180.38 25.4
-1 -11 1 202.58 25.7
-12 11 -1 203.68 29.3
11 -12 1 209.28 25.2
1 -12 -1 221.58 26.7
-11 -1 -1 211.28 27.3
-11 12 1 187.38 28.9
-12 1 1 188.38 26.3
12 -11 -1 201.48 27.2
-12 1 -1 145.59 25.2
-1 -11 -1 182.98 23.1
-11 12 -1 160.08 25.4
1 -12 1 192.58 23.3
-12 11 1 160.48 23.9
11 -12 -1 103.39 18.6
-11 -1 1 142.99 24.4
12 -11 1 132.09 21.1
-12 12 -1 432.56 38
-12 0 1 416.36 35.1
0 -12 -1 446.26 35.7
12 -12 1 431.46 35.8
-12 0 -1 416.66 35.6
0 -12 1 395.86 33.5
12 -12 -1 411.66 35
-12 12 1 436.86 37.7
7 -13 1 20.2 15.8
-13 6 1 19.3 17.4
-13 7 -1 36.8 17.8
13 -7 -1 17.4 18.2
-6 -7 1 14.9 14.1
-7 -6 -1 20.2 15.2
13 -6 1 28 18.1
6 -13 -1 15.9 14.2
-13 6 1 19.6 15
-13 6 -1 16.3 14.5
-7 -6 1 8.2 15.2
-6 -7 -1 17.7 13.8
6 -13 1 13.7 15.2
7 -13 -1 23.8 13.9
13 -7 1 20.8 17.7
-13 6 -1 22.4 17.7
-13 7 1 22.4 16.4
-7 -6 1 19.6 13.7
13 -6 -1 22.3 18.6
-13 7 1 9.1 14.1
13 -8 -1 232.88 30
8 -13 1 235.18 27.3
5 -13 -1 262.77 27.6
-13 5 1 250.57 28
-8 13 1 225.68 30.3
13 -5 1 242.18 31.6
-8 -5 -1 252.77 26.5
-5 -8 1 231.48 23.9
-13 8 -1 225.58 30
-13 5 1 239.28 26.4
-13 5 -1 224.58 28.1
-8 13 -1 145.99 25.9
-5 -8 -1 210.18 24.8
13 -8 1 219.98 26.6
-13 8 1 206.28 28.1
-8 -5 1 231.08 25.7
-13 8 1 188.48 24.6
13 -5 -1 245.78 32
-8 -5 1 237.18 28.1
8 -13 -1 207.48 25
-13 5 -1 210.68 26.9
5 -13 1 225.48 25.6
-13 9 -1 68.29 20.2
-4 -9 1 69.19 17.4
4 -13 -1 57.69 17.5
13 -4 1 59.29 18.7
9 -13 1 65.29 18.2
-13 4 1 68.79 17.7
-9 13 1 55.19 20.6
-9 -4 -1 57.89 18.3
13 -9 -1 55.09 20
-9 -4 1 69.79 17.7
13 -9 1 42.7 19.9
9 -13 -1 50.39 16.7
-13 9 1 51.19 18
4 -13 1 55.29 15.9
-9 13 -1 67.59 20.1
-9 -4 1 48.2 18.1
-4 -9 -1 50.49 16
-13 4 -1 61.69 18.4
-10 -3 -1 111.39 21.4
3 -13 -1 102.09 19.2
-13 3 1 173.68 23.7
-13 10 -1 155.48 24.5
10 -13 1 126.49 20.9
-3 -10 1 136.49 19.5
13 -10 -1 126.39 23.1
-10 13 1 126.09 23.6
-10 13 -1 151.68 24.9
-10 -3 1 134.69 23.5
-13 10 1 160.38 24.8
3 -13 1 120.49 20.1
-3 -10 -1 137.79 21.8
-13 3 -1 154.88 25.2
13 -10 1 109.09 21.8
13 -11 -1 261.07 30.7
-13 2 1 252.47 28.9
-13 11 -1 267.57 31.9
11 -13 1 279.67 29.6
-11 13 1 263.37 32.2
-2 -11 1 278.47 28.4
2 -13 -1 267.77 28.6
-11 -2 -1 241.78 31
11 -13 -1 202.78 26
-2 -11 -1 221.88 27
-11 13 -1 213.38 31.2
-13 2 -1 202.98 28
13 -11 1 222.08 30.9
-11 -2 1 212.38 28.1
-13 11 1 189.18 28.9
2 -13 1 215.38 26.3
-12 13 1 117.29 24.9
1 -13 -1 107.39 21.2
-13 12 -1 121.89 24.8
-1 -12 1 79.79 17.9
-12 -1 -1 107.19 21.2
-13 1 1 119.79 22.6
12 -13 1 96.59 21.9
13 -12 -1 67.59 19.4
1 -13 1 129.89 21.5
13 -12 1 104.79 22.3
-12 -1 1 132.89 23.5
-1 -12 -1 109.59 21.7
-12 13 -1 90.29 21
12 -13 -1 93.09 20.2
-13 12 1 149.19 25.7
-13 1 -1 106.19 22.2
0 -13 1 24.8 16.8
-13 0 -1 27.6 18.6
13 -13 -1 22.7 17.4
-13 13 1 19.4 17.6
-13 13 -1 23.9 19.3
13 -13 1 28.8 18.3
-13 0 1 9.9 17
0 -13 -1 16.5 17.7
14 -7 -1 38.5 19.6
14 -7 1 32.2 18.8
7 -14 1 53.49 17.4
-7 -7 1 34 15.3
-7 -7 -1 55.99 17.1
-14 7 1 26.5 15.7
7 -14 -1 24 15.3
-14 7 -1 45.5 19.2
-14 7 1 43 18.6
-14 8 -1 260.77 31.4
14 -8 -1 217.28 31.2
-14 6 1 226.18 29.4
-6 -8 1 224.48 24.3
-14 6 1 221.38 27.5
14 -6 1 224.38 32
6 -14 -1 230.38 27.3
-8 -6 -1 222.38 26.6
8 -14 1 225.98 25.5
-8 -6 1 178.88 27.8
-14 8 1 196.08 26
-14 6 -1 209.58 28.9
14 -6 -1 223.68 31.5
-14 6 -1 201.08 27.4
14 -8 1 203.88 29.8
-14 8 1 208.68 29.3
-8 -6 1 189.58 25.2
6 -14 1 195.68 25.8
8 -14 -1 215.78 26
-6 -8 -1 193.28 23
-14 5 1 40.5 18
-9 14 1 50.49 20.4
14 -9 -1 71.29 21.3
-14 9 -1 74.09 22
5 -14 -1 68.39 18.5
9 -14 1 84.29 19.6
-5 -9 1 68.09 17
14 -5 1 68.39 20.9
-14 5 1 58.59 17.3
-5 -9 -1 54.69 16.4
-9 -5 1 82.09 18.7
9 -14 -1 52.89 16.6
-9 14 -1 69.39 20
14 -5 -1 71.49 22.7
-14 5 -1 100.99 21.7
-14 9 1 73.59 20
-14 5 -1 49.7 18.5
5 -14 1 65.79 16.9
-9 -5 1 70.39 19.9
14 -9 1 61.19 21.4
-10 14 1 633.54 47.3
14 -4 1 634.34 47.4
-14 10 -1 636.24 46.3
10 -14 1 654.53 44.1
4 -14 -1 696.33 44.4
-14 4 1 612.24 43.9
-4 -10 1 616.14 42.4
14 -10 -1 614.44 46.5
-10 -4 -1 588.44 44.6
-10 -4 1 596.04 42.8
-4 -10 -1 544.95 40
14 -4 -1 541.65 44
-14 10 1 531.15 41.9
14 -10 1 588.04 43.7
10 -14 -1 538.45 39.6
4 -14 1 562.44 39
-14 4 -1 539.45 42
-10 14 -1 563.74 43.4
14 -11 -1 96.59 22.9
-11 14 1 97.09 22.9
-14 11 -1 141.19 25.6
-11 -3 -1 98.69 21.7
11 -14 1 87.89 20.4
-14 3 1 117.79 21.3
3 -14 -1 122.49 22
-3 -11 1 99.59 18.8
3 -14 1 99.69 19
-3 -11 -1 112.89 21
14 -11 1 115.39 21.8
-14 11 1 171.48 26.6
11 -14 -1 66.69 18.6
-14 3 -1 165.48 25.9
-11 14 -1 96.49 22.5
-11 -3 1 91.49 21.3
14 -12 -1 53.99 20.3
12 -14 1 52.69 18
-14 2 1 48.5 17.6
-14 12 -1 51.59 19.1
-12 14 1 46.8 20.5
2 -14 -1 66.59 20.1
-12 -2 -1 66.59 21.2
-2 -12 1 61.39 17.4
14 -12 1 85.09 22.4
-12 14 -1 68.19 21.2
-2 -12 -1 96.49 21.4
-14 12 1 127.69 24.4
-14 2 -1 111.09 23.7
2 -14 1 81.69 18.3
-12 -2 1 67.39 19.3
12 -14 -1 68.79 20.1
14 -13 -1 71.89 20.8
1 -14 -1 82.49 21.9
13 -14 1 73.79 21.2
-1 -13 1 95.99 21.5
-13 14 1 51.49 20.3
-13 -1 -1 62.19 20.9
-14 13 -1 56.49 20
-14 1 1 86.89 21.2
-14 1 -1 59.99 20.2
1 -14 1 61.49 18.9
-14 13 1 64.59 21.2
13 -14 -1 33.4 19.1
-13 14 -1 73.79 23.3
-1 -13 -1 45.6 18.4
-13 -1 1 47.8 19.5
14 -13 1 72.19 22.1
-14 14 -1 -7.2 20.5
-14 14 1 1.3 15.9
-14 0 -1 -8.2 18
0 -14 -1 0.8 17.4
-14 0 1 10.2 17.4
-14 14 1 21.5 19.1
-14 14 -1 8.8 19.8
14 -14 1 9.6 18.1
0 -14 1 8.8 17.4
14 -14 -1 0.7 17.6
-14 0 1 -3.5 12.2
7 -15 -1 71.69 19
15 -7 1 70.49 23
-7 -8 1 91.29 19.1
-15 7 1 88.79 22.4
-15 7 1 72.39 20
15 -8 -1 79.39 23.3
-15 8 -1 73.89 21
8 -15 1 58.59 16.9
-8 -7 -1 92.29 20.1
-7 -8 -1 78.39 19.4
-15 7 -1 54.49 20
15 -8 1 35.1 18.9
-15 8 1 59.89 18.4
8 -15 -1 58.89 18.2
-15 8 1 66.19 20.1
15 -7 -1 61.59 22.9
7 -15 1 68.69 18.8
-8 -7 1 66.19 17.3
15 -6 1 21.1 19.6
9 -15 1 14.6 16
15 -9 -1 16.2 20.2
-15 6 1 11.8 17.1
-6 -9 1 18.2 14.1
6 -15 -1 37.6 18.4
-15 9 -1 21.6 18.1
-9 15 1 -7.1 20.9
-15 6 1 11.1 15.7
-9 -6 1 19.9 18.2
-6 -9 -1 32.8 15.6
15 -6 -1 32.9 21.2
-9 -6 1 19.7 16.2
15 -9 1 34.7 19.2
-15 9 1 11.1 18.1
6 -15 1 13.8 16.4
9 -15 -1 4.6 15.4
-15 6 -1 12.7 19.5
-5 -10 1 67.19 17.6
-10 15 1 52.09 21.2
5 -15 -1 58.09 18.3
10 -15 1 62.89 18.7
15 -10 -1 64.79 22
-15 10 -1 99.49 23.2
15 -5 1 77.69 23.2
-15 5 1 54.29 18.1
-15 10 1 36 18
-10 15 -1 50.99 20.3
-15 5 -1 46.6 17.3
-10 -5 1 57.49 20.9
5 -15 1 70.99 19.9
-5 -10 -1 75.19 18.5
15 -10 1 64.29 22.9
10 -15 -1 39.9 16.7
-15 5 -1 1 18.8
15 -5 -1 73.99 24.2
-15 11 -1 152.78 26.5
-15 4 1 149.69 25.1
15 -4 1 128.89 27.5
4 -15 -1 122.59 22.9
15 -11 -1 133.79 26
-4 -11 1 102.89 19.1
-11 15 1 87.09 23.1
-11 -4 -1 70.49 21.2
11 -15 1 120.69 23.7
15 -4 -1 141.79 28.2
11 -15 -1 119.69 22.7
-11 -4 1 152.78 26.4
15 -11 1 135.99 26.5
-15 11 1 126.09 23.7
4 -15 1 122.69 20.5
-15 4 -1 189.38 27.9
-4 -11 -1 127.89 21.4
-11 15 -1 111.79 24.4
-12 15 1 124.39 26
-3 -12 1 115.19 21
15 -12 -1 70.79 22.1
3 -15 -1 119.99 23.1
-15 12 -1 123.39 24.6
12 -15 1 107.19 24.2
-12 -3 -1 110.19 24.1
-15 3 1 132.99 24.5
15 -12 1 96.69 23.7
-12 15 -1 120.19 26.1
12 -15 -1 71.89 19.9
-15 12 1 115.89 24.2
-3 -12 -1 81.99 20.1
-15 3 -1 150.08 26.1
-12 -3 1 90.19 22
3 -15 1 120.39 22.3
-2 -13 1 448.26 37.7
2 -15 -1 469.95 40.6
-15 13 -1 455.05 40.9
-13 -2 -1 445.96 41
13 -15 1 462.05 40.6
-15 2 1 411.16 38.8
-13 15 1 429.96 42.3
15 -13 -1 451.65 40.6
-2 -13 -1 410.16 37.4
-13 -2 1 420.86 38.7
13 -15 -1 354.36 37.6
2 -15 1 428.76 37.6
-15 13 1 448.66 39.6
-13 15 -1 443.16 41.4
-15 2 -1 430.96 39.7
-14 15 1 1.8 14.7
15 -14 -1 -1.5 18.5
14 -15 1 23.2 20.2
-14 15 1 19.3 20.2
-15 14 -1 19.9 15.6
-14 -1 -1 24.3 21.2
-1 -14 1 13.8 18
1 -15 -1 6.3 19.7
-15 1 1 22.1 14.3
-15 14 -1 27.9 21.4
-15 1 1 19.4 18.2
-14 -1 1 35.3 19.2
-15 14 1 42.7 16.6
-14 15 -1 35.4 21.9
-14 15 -1 -4.3 14.4
-15 1 -1 30.4 19.6
14 -15 -1 17.3 19.1
-14 -1 1 7.4 12.2
1 -15 1 31.3 18.4
-1 -14 -1 17.4 19.4
-15 1 -1 9.8 12.2
15 -14 1 11.6 19.5
-15 14 1 19.8 18.8
-15 0 -1 192.98 21.4
-15 0 1 225.08 23.9
-15 15 1 223.48 26.8
15 -15 1 274.77 36
0 -15 1 282.47 33.1
-15 15 1 261.07 34.7
-15 15 -1 274.47 37.3
-15 15 -1 227.68 26.6
-16 8 1 5.5 15.7
-16 8 -1 16 20
-8 -8 1 6 16.1
-8 -8 -1 12.9 15.2
8 -16 1 17.2 16.1
16 -8 1 10 20.3
-8 -8 -1 -1 14.2
8 -16 -1 12.2 17.1
16 -8 -1 16.8 21.4
-8 16 -1 -13.2 18.5
-16 8 1 4.7 17.3
-16 7 1 128.49 23.3
9 -16 1 82.39 19.9
-7 -9 1 146.79 23.8
-16 7 1 115.09 24.7
16 -9 -1 112.39 27
-16 9 -1 89.59 22.6
16 -7 1 94.19 23.7
7 -16 -1 123.69 23.1
-16 9 1 113.29 23.5
16 -9 1 117.49 25.4
9 -16 -1 84.59 19.5
-9 -7 1 116.49 22
-7 -9 -1 116.39 21.7
-16 7 -1 101.49 25.1
16 -7 -1 102.09 24.6
7 -16 1 74.39 19.4
16 -6 1 70.09 23.5
-16 10 -1 69.79 21.8
-16 6 1 41.3 18.1
16 -10 -1 89.89 25
-6 -10 1 59.69 17.1
-6 16 -1 32.7 16.2
6 -16 -1 83.69 21.1
10 -16 1 87.69 20.7
6 10 -1 43 14.2
-16 10 1 71.99 20.5
10 -16 -1 61.29 19.2
16 -6 -1 65.59 23.2
-10 -6 1 30.3 19.1
16 -10 1 75.79 24
-6 16 1 46.3 18.1
6 -16 1 67.99 19.8
-6 -10 -1 59.59 18
-5 16 -1 142.89 21.8
11 -16 1 211.18 31.9
-16 5 1 220.38 30
16 -11 -1 214.88 31.6
5 -16 -1 220.78 30.3
-5 -11 1 198.28 27.5
16 -5 1 262.27 35.2
-16 11 -1 244.88 32.8
-5 16 1 126.39 21.9
16 -5 -1 115.59 17.2
-11 -5 1 179.18 31.2
-16 5 -1 140.79 17.7
11 -16 -1 129.99 22.1
5 -16 1 188.28 28.9
16 -5 -1 133.89 26.8
-5 -11 -1 180.08 27.3
16 -11 1 144.49 25.5
-16 11 1 127.59 22.9
5 11 -1 121.99 17.6
4 -16 -1 540.95 41.2
-4 -12 1 484.95 37.6
-4 16 -1 367.36 33.6
12 -16 1 514.95 41.7
-12 -4 -1 387.16 40.6
-16 12 -1 378.86 31.1
-12 16 1 483.35 41.5
-16 12 -1 513.85 42
16 -4 1 575.24 47.9
-16 4 1 499.05 40.3
16 -12 -1 476.85 43
-16 4 1 375.86 29.5
16 -4 -1 528.05 46.1
-4 -12 -1 532.05 38.9
4 12 -1 375.16 31.2
-16 4 -1 518.15 41.1
16 -4 -1 368.56 32
-12 -4 1 533.85 42
-16 12 1 357.66 31.8
-16 12 1 501.05 40.8
-4 16 1 382.86 34.6
16 -12 1 546.45 44.6
-16 4 -1 407.96 30.6
12 -16 -1 479.25 39.3
-12 16 -1 543.25 44
-16 13 -1 18.7 20.3
-13 16 1 4.8 19.3
-13 -3 -1 9.6 19.6
-16 3 1 4.1 12.7
16 -13 -1 -0.1 19.8
13 -16 1 -2.9 18.7
16 -3 1 15.6 23.7
-16 13 -1 9.6 15.1
-3 -13 1 1 17
3 -16 -1 13.1 19.3
-16 3 1 19.4 19
-3 16 -1 26.6 18.2
16 -13 1 4.9 21.3
-16 3 -1 4.8 16.4
-13 -3 1 5.7 19.9
-3 -13 -1 -1.9 9.4
-16 3 -1 16.9 13.1
16 -3 -1 16.1 24.7
-16 13 1 23.1 16.5
-3 16 1 15.6 17.8
13 -16 -1 -3 18.9
3 -16 1 13.8 18.3
-3 -13 -1 15.6 19
3 13 -1 19.5 14.4
-16 13 1 5.1 17.9
-13 16 -1 0.6 21.2
16 -3 -1 9.5 14.5
-14 -2 -1 173.38 29.4
-16 14 -1 163.78 21.3
14 -16 1 195.18 30.2
-14 16 1 192.88 30.6
2 -16 -1 187.78 28.4
-16 2 1 173.18 30.8
-14 16 1 116.59 20.1
-2 16 -1 120.49 20.8
-16 2 1 132.69 20.3
-2 -14 1 201.68 27.6
-16 14 -1 150.88 26.5
-2 16 1 101.59 20.3
2 14 -1 74.29 16.3
-14 -2 1 86.39 16
-16 14 1 106.89 20
2 -16 1 80.09 20.6
16 -14 1 121.69 27.1
-16 2 -1 118.69 25.1
-14 -2 1 78.19 22.4
16 -2 -1 99.39 17.8
-16 14 1 78.49 21.4
-14 16 -1 86.19 25.7
-2 -14 -1 117.09 23.7
-16 2 -1 109.89 16.8
-16 1 1 144.19 20.9
-15 16 1 221.58 24.7
-15 -1 -1 133.29 20.4
-15 16 1 163.18 28.9
-16 15 -1 182.28 29.6
-15 -1 -1 150.38 28.3
15 -16 1 167.98 28.9
-1 -15 1 220.78 29.8
-16 1 1 130.99 25
-16 15 -1 142.09 20.8
1 -16 -1 132.09 25.7
-16 15 1 230.28 31.7
-16 15 1 158.38 21.8
16 -15 1 179.68 29.7
-15 16 -1 168.28 25
-1 16 1 107.49 20.1
-16 1 -1 172.68 21.6
1 15 -1 125.09 18.8
-15 -1 1 172.68 31.3
-1 -15 -1 197.58 32.7
-15 -1 1 179.98 24.1
-15 16 -1 132.49 26.7
1 -16 1 206.78 33.3
-16 1 -1 197.58 31.9
-16 16 -1 126.99 20.4
-16 0 -1 49.5 21.7
-16 16 1 89.49 19
-16 16 1 94.09 24.6
-16 0 1 72.39 16.1
-16 16 -1 92.79 24.4
0 -16 -1 94.89 24.6
0 -16 1 93.49 22.3
-16 0 1 131.19 26.1
16 -16 1 81.49 24.1
-16 0 -1 84.49 16.4
-17 8 1 54.79 21.7
-8 -9 1 101.59 21.7
-9 17 1 69.09 18.1
17 -8 1 56.29 22.8
-9 -8 -1 86.79 15.4
-8 17 -1 70.89 18.7
8 -17 -1 66.69 20.3
-17 9 -1 84.79 24.5
9 8 -1 35.6 14.7
17 -9 -1 46.4 14.2
9 -17 1 106.99 22.3
17 -9 -1 65.89 24.3
-9 17 -1 62.49 17.1
-17 8 -1 70.79 23.4
17 -8 -1 55.19 14.5
9 8 1 37.4 14.3
-9 -8 1 66.59 18.3
-8 -9 -1 48.1 12.9
-17 8 -1 45.2 12.7
17 -8 -1 73.39 24.7
8 9 -1 57.39 15.9
-8 17 1 65.69 19.3
-8 -9 -1 91.29 21.2
-17 9 1 91.09 23.8
9 -17 -1 61.99 19.7
8 -17 1 97.09 22.9
17 -9 1 58.89 23.6
7 -17 -1 46.4 18.8
17 -7 1 48.2 22.6
-10 17 1 -9.6 13.2
-17 10 -1 33 20.7
10 7 -1 28.8 14.1
17 -10 -1 48.9 24.1
-17 7 1 22.3 12
17 -10 -1 13.6 12.3
-7 -10 1 63.09 19.9
-17 10 -1 0.4 12.6
-17 7 1 56.09 19.7
10 -17 1 55.69 19.6
-17 7 1 -3.4 21.1
-7 17 -1 81.69 20.5
17 -7 -1 32.4 22.7
-17 10 1 54.49 22.9
10 -17 -1 31.2 18.4
-17 10 1 -1.4 13.1
-7 -10 -1 56.39 20.4
17 -7 -1 26.2 13.3
-17 7 -1 -0.6 19.6
17 -10 1 40 23.6
7 -17 1 35.9 20.4
-17 7 -1 37.2 13.4
-7 -10 -1 20 11.5
-7 17 1 50.39 18.6
7 10 -1 29.7 14.9
-10 17 -1 -4.1 14.1
17 -11 -1 -10.8 11.2
17 -11 -1 25.5 22.4
-6 17 -1 43.5 20.2
11 6 -1 -12.8 14.2
11 -17 1 16.8 18.4
-6 -11 1 23.1 18.1
-17 6 1 30.4 19.7
-17 6 1 17.4 12.4
17 -6 1 49 24.7
17 -6 1 -3.8 10.6
-17 11 -1 24.1 15
6 -17 -1 13.5 18.2
-17 11 -1 24.1 20.9
17 -6 -1 21.4 13.8
-6 -11 -1 20.7 11.7
17 -11 1 21.5 23.4
6 11 -1 35.8 15.2
-6 -11 -1 15.1 18.5
6 -17 1 20.8 19.7
-6 17 1 22.1 17.6
17 -6 -1 30.6 23.9
11 -17 -1 2.8 17.7
-17 6 -1 17.1 12
-11 -6 1 -0.7 30.9
-17 11 1 19.8 20.1
-17 11 1 21.6 14.8
-17 5 1 13.9 13.2
17 -12 -1 -11.9 10.1
5 -17 -1 19.4 19
12 -17 1 23.2 20.1
17 -5 1 14.3 24.5
-12 17 1 -8.4 19.4
-5 -12 1 6 16
-17 5 1 14.1 17.6
17 -12 -1 0.4 21.3
-5 17 -1 38 19.3
-17 12 -1 16.9 19.7
-17 12 -1 15.7 15
17 -5 1 12.5 13.5
-17 12 1 3.3 19.3
-5 -12 -1 7 11.2
17 -5 -1 11.1 14
5 -17 1 17.3 18.4
-17 12 1 27.5 16.2
-12 -5 1 6.7 21.3
-12 17 -1 -1.2 25.2
5 12 -1 16.7 14.3
12 -17 -1 -0.9 17.5
-5 -12 -1 19.7 18.6
-17 5 -1 14.9 13.4
-5 17 1 13.7 18.9
17 -12 1 4.9 23.1
17 -5 -1 4.3 22.9
13 -17 1 -10.2 20
17 -4 1 23.1 14.5
-13 17 1 9.5 21.4
-17 13 -1 9.9 14.9
-17 4 1 2.2 17.7
-17 4 1 4.2 12.8
17 -13 -1 -0.6 22.9
-4 17 -1 33.1 19.3
-17 13 -1 25.7 20.9
17 -13 -1 -3.8 12.1
17 -4 1 20 24.9
4 -17 -1 5.3 20
-4 -13 1 8 17.3
-17 4 -1 20.3 13.6
4 -17 1 3.7 17.5
4 13 -1 17.8 14.6
17 -4 -1 -0.8 23.9
-13 17 -1 3.4 22.3
-13 -4 1 19 20
-4 -13 -1 2.1 18.2
-4 -13 -1 12.2 11.8
-17 13 1 12.6 21.1
17 -4 -1 11.8 13.8
17 -13 1 18 21.8
13 -17 -1 -0.9 27.2
-4 17 1 8.7 17.5
-17 13 1 9 16.3
-3 -14 1 12.8 17
-17 14 -1 18 15.4
17 -14 -1 -1.8 10.8
3 -17 -1 -13.8 20.5
-17 3 1 16.5 12.7
-14 17 1 3.5 21.5
14 -17 1 18.1 21.7
-17 3 1 20.9 19.6
-3 17 -1 24.8 19
-14 17 1 -8.2 15.4
17 -3 1 -0.6 23.7
-17 14 -1 12.8 19.5
17 -3 1 12.8 14.5
-14 -3 -1 -3.1 20.1
-17 3 -1 33.4 13.8
17 -14 1 23.3 22.4
-14 -3 1 23.7 14.6
-14 17 -1 -3.2 14.8
-14 17 -1 23.6 23.5
-17 14 1 36.3 16.7
3 14 -1 25.4 15.3
-3 17 1 50.29 19.2
17 -3 -1 25.7 25.4
-3 -14 -1 25.3 11.7
17 -3 -1 20.2 14.1
-14 -3 1 18 21.1
-3 -14 -1 22.4 19
3 -17 1 35.7 20.9
-17 14 1 17 20.2
17 -2 1 16.3 24.5
15 -17 1 13.1 21.1
-17 15 -1 25 15.6
-15 -2 -1 10.9 12.7
-17 2 1 14.9 12.9
-2 -15 1 28.8 18.5
2 -17 -1 12 20
-15 -2 -1 4.3 19.5
-17 15 -1 8.3 20.9
-15 17 1 13.2 21.4
-15 17 1 18.6 17.2
2 -17 -1 1.8 9.6
-2 17 -1 24.5 17.9
17 -15 -1 -0.3 9.8
-17 2 1 25.1 19.8
-17 15 1 35.5 21.7
-15 17 -1 33.8 24.6
-17 2 -1 24.6 13.7
-17 15 1 25.1 16.9
-15 -2 1 34.8 16.6
17 -2 -1 22.9 15.1
2 -17 1 45.3 21.8
-2 17 1 34.8 18.3
-15 -2 1 11.4 20.3
2 15 -1 15.4 15
-2 -15 -1 14.7 11.5
-15 17 -1 21.2 16.7
-2 -15 -1 27.4 20.4
17 -15 1 21.4 22.4
17 -2 -1 3.1 24.5
-17 1 1 157.48 21.9
-17 16 -1 148.89 20.4
-1 17 -1 140.39 22
-17 16 -1 214.78 32.2
-1 -16 1 181.78 29.2
-16 17 1 165.98 22.1
1 -17 -1 161.08 26.9
-16 17 1 172.38 29.2
17 -1 1 185.18 32.7
-16 -1 -1 171.38 23.4
-17 1 1 197.48 30.7
-17 16 1 156.78 24.2
-16 -1 1 210.38 34.7
-1 17 1 149.88 22.2
-16 17 -1 238.58 39.2
-16 -1 1 184.58 23.3
-17 16 1 154.98 27.3
1 16 -1 190.78 25.4
-17 1 -1 195.18 22.3
17 -1 -1 190.78 24.5
-1 -16 -1 140.89 19.1
-16 17 -1 210.88 25.1
-1 -16 -1 215.08 30.6
17 -16 1 172.58 28.2
1 -17 1 233.38 33.8
0 -17 -1 30.6 20.3
17 -17 1 -4.7 25.7
-17 17 1 81.99 18.3
-17 17 -1 55.69 15.5
0 17 -1 64.29 15.9
0 17 1 64.59 17.4
-17 0 1 62.99 15.1
0 -17 1 55.09 23
-17 0 -1 63.79 15.1
17 0 -1 90.79 18.1
-17 17 1 51.19 22.4
0 -17 -1 44.5 11.5
-17 0 1 54.59 22
-17 17 -1 51.79 23.5
-18 9 1 41.7 20.2
-9 18 -1 38.1 17.9
18 -9 -1 25.9 22.7
-9 18 1 59.49 18.4
-18 9 -1 54.19 14
18 -9 -1 46.4 15.4
-18 9 -1 47.9 21.7
9 -18 -1 1.2 19.3
9 9 -1 58.79 17.7
9 -18 1 47.7 21.5
18 -9 1 42.1 23.9
-18 9 1 30.2 12.8
9 9 1 52.19 16.3
-9 -9 1 48.1 18.8
8 -18 -1 30.9 18.8
-18 10 -1 58.89 13.6
-18 10 -1 47.8 15.3
10 -18 1 55.59 19.7
-8 18 -1 66.39 19.7
10 8 -1 68.09 18
18 -10 -1 52.09 14.5
18 -8 1 69.69 24.3
-18 10 -1 63.79 24.1
18 -8 1 17.2 12.6
-8 -10 1 79.49 21.5
-18 8 1 55.29 15.1
18 -10 -1 11.6 24
8 10 1 36.5 15.2
-10 18 1 82.89 20
-8 -10 -1 77.99 21.4
-18 10 1 46.9 15.6
18 -8 -1 36.6 23.3
-8 -10 -1 75.09 15
-18 8 -1 95.29 16.5
10 8 1 62.89 16.2
8 -18 1 67.09 21.1
18 -10 1 72.89 26.3
8 10 -1 59.39 15.7
-18 10 1 65.79 22.3
-8 18 1 105.59 21.3
-10 18 -1 75.49 18.8
18 -8 -1 73.59 16.2
-7 18 -1 101.79 20.4
-18 7 1 89.79 16.7
11 7 -1 66.59 16.9
11 -18 1 92.19 22.5
7 -18 -1 62.69 19.8
-7 -11 1 108.09 22.6
18 -7 1 74.69 14.8
-11 18 1 58.29 17.1
18 -7 1 137.29 30.5
-18 11 -1 112.79 26.2
-18 11 -1 70.29 17.2
18 -11 -1 82.69 16.4
-18 11 1 97.59 18.4
-7 -11 -1 113.29 23
18 -7 -1 76.49 25
18 -7 -1 94.49 16.1
11 7 1 42.5 14.3
-18 11 1 114.39 25.6
7 11 -1 96.69 17.4
-7 18 1 109.59 20.5
-11 18 -1 91.49 19.1
7 -18 1 77.49 21.3
-7 -11 -1 74.39 14.6
18 -11 1 88.39 26
-18 7 -1 107.49 16.6
18 -6 1 31.3 14
12 6 -1 22.3 13.7
-6 18 -1 46.1 18.4
18 -6 1 48.5 25.5
6 -18 -1 25 18.6
-12 18 1 -15.9 13.9
-18 6 1 23.5 14.1
12 -18 1 32 20
18 -12 -1 20.7 12.5
-18 6 1 18.3 18
-6 -12 1 50.79 20.6
-18 12 -1 42.7 22.8
-18 12 -1 59.49 17.6
-6 -12 1 -3.6 11.4
-18 12 1 24.4 16.1
18 -12 1 9.1 22.7
-6 -12 -1 3.9 18.1
-12 18 -1 -14.4 14
-18 12 1 10.2 20.2
-6 -12 -1 22.8 12.6
-18 6 -1 17.3 12.2
18 -6 -1 20.2 13.3
6 12 -1 11.7 14.3
18 -6 -1 10.9 22.4
-6 18 1 32.5 18.1
6 -18 1 17.7 18.8
-18 5 1 98.59 23.4
18 -13 -1 101.89 16.1
18 -5 1 100.79 17
-18 5 1 126.19 17.8
-18 13 -1 155.18 21.2
5 -18 -1 62.09 21.9
13 -18 1 74.09 22.1
18 -5 1 156.48 31.3
-5 -13 1 86.79 21.3
-18 13 -1 137.09 27.2
-5 18 -1 174.48 24.3
18 -13 1 118.19 27.9
5 13 -1 126.79 19.1
-5 -13 -1 74.49 14.6
18 -5 -1 103.79 17.6
-18 5 -1 76.19 14.8
-5 18 1 122.69 21.8
5 -18 1 74.09 20.9
-18 13 1 129.29 19.4
18 -5 -1 83.19 25.5
-18 13 1 106.49 24.4
-5 -13 -1 116.59 24.9
-14 18 1 -7.5 14.7
18 -4 1 8.1 13.6
4 -18 -1 -2.6 20.1
18 -4 1 15 24.8
-18 4 1 5.8 12.6
18 -14 -1 3.6 12.1
-4 -14 1 11.6 18.4
-18 14 -1 6.7 20.8
-18 14 -1 13.6 14.7
-4 18 -1 19.5 17.7
-18 4 1 6.3 18.6
14 -18 1 10.6 20.7
18 -14 1 9.3 20.8
-14 18 -1 -8.3 23.1
18 -4 -1 23 25
-18 14 1 21 16.9
4 14 -1 28.4 15.1
-18 4 -1 33.9 13
4 -18 1 5.8 18.9
-14 -4 1 -1.1 20.1
-14 -4 1 8.9 14.5
-4 -14 -1 20.3 20.4
-4 -14 -1 13.1 11.9
18 -4 -1 24.6 13.5
-4 18 1 53.39 18.8
-18 14 1 21.4 21.2
-15 18 1 148.59 20
-3 18 -1 193.88 24.7
18 -15 -1 87.89 14.2
-18 15 -1 154.38 22.5
15 -18 1 80.09 24.5
-3 -15 1 140.49 24.9
18 -3 1 130.49 18.2
-18 3 1 169.48 28.9
-18 3 1 132.49 19.8
-18 15 -1 119.79 25.4
18 -3 1 142.49 31.6
-18 15 1 236.28 32.8
-15 -3 1 188.58 23.3
-18 15 1 184.58 25
-18 3 -1 174.38 20.2
-15 18 -1 162.38 22.5
3 -18 1 215.08 34
-3 18 1 135.69 21.6
-3 -15 -1 148.59 20.1
18 -3 -1 225.18 22.9
3 15 -1 121.49 18.9
-3 -15 -1 202.68 29.6
18 -2 1 30.8 26.2
-2 -16 1 32 19.9
-16 18 1 1.5 19.7
-2 18 -1 52.99 19.2
18 -16 -1 32.6 11.8
-16 18 1 31.2 16.2
18 -2 1 46.5 14.8
-16 -2 -1 39.9 14.4
-18 2 1 55.89 15.2
-18 16 -1 53.29 22
2 -18 -1 0 24.8
-18 16 -1 41.8 14.7
-18 2 1 25.8 20.4
2 -18 -1 5.8 10.2
-16 -2 1 1.7 20.3
-2 -16 -1 35.3 12.5
-2 -16 -1 27.9 19.7
2 16 -1 20.6 14.7
-2 18 1 54.29 17.9
18 -2 -1 0.9 26.2
-16 -2 1 62.89 16.1
-16 18 -1 48.7 16
2 -18 1 47.6 21.5
-18 16 1 46 16.3
-18 2 -1 28.3 12.5
-16 18 -1 2.5 21.9
18 -2 -1 35.3 14.3
-18 16 1 26.1 20.5
-17 18 1 29.5 15.2
-18 1 1 31.1 13
-17 -1 -1 19.3 13.4
-1 18 -1 38 17
-1 18 -1 -10.5 12.8
-18 1 1 17.8 18
17 1 -1 37.7 15.2
18 -1 1 12.2 25.3
-18 17 -1 35.9 14.1
-17 18 1 -3.9 19.1
18 -1 1 19.1 13.7
1 -18 -1 22.4 11.2
-18 17 -1 18.2 21.1
1 17 1 15.5 13.9
18 -17 -1 0.7 10.2
-1 -17 1 13.2 18.4
-17 18 -1 -0.3 19.3
18 -1 -1 22.9 13.8
-1 18 1 38.5 16.7
-17 -1 1 25.2 13.4
-18 1 -1 21.7 12.4
-17 18 -1 14.5 13.3
1 -18 1 20.1 19.5
17 -18 -1 -0.2 10.1
-1 -17 -1 5.8 33.3
-17 -1 1 3.4 19.5
1 17 -1 32.8 15.3
-18 17 1 17.4 21.5
-18 17 1 16.8 14.7
-1 -17 -1 5.9 10.7
-18 0 -1 197.58 19.7
18 0 1 156.78 23
0 18 1 128.09 18.7
-18 18 1 151.98 22.2
0 -18 -1 149.29 18.6
0 18 1 162.08 19.9
-18 18 -1 161.38 21.1
18 0 -1 163.88 24.1
-18 0 1 174.58 19.6
0 18 -1 161.08 22.3
-9 19 -1 16.9 18.3
-19 9 1 11.7 12.5
19 -10 -1 34.2 14.2
10 9 -1 19.1 14.9
-19 10 -1 17.3 12.4
10 -19 1 9 19.6
19 -9 1 21.5 13.1
9 10 1 9.8 13
-19 10 -1 -1.8 18.9
-19 10 -1 20 12.8
-10 19 1 29.9 17.4
19 -9 1 17.5 24.1
-19 10 1 22.4 14.2
19 -10 1 51.49 26.6
-10 19 -1 40.4 18.3
19 -10 1 -0.4 11.5
19 -9 -1 9.7 12.8
9 10 -1 20.1 14.6
10 9 1 28 14.5
-19 9 -1 32 13.1
-9 19 1 54.69 18.1
9 -19 1 28 20.2
-19 10 1 -3.7 18.5
-19 10 1 16 13
11 8 -1 114.49 19
8 11 1 135.79 18.7
11 -19 1 112.39 24.4
-8 -11 1 96.99 21.6
-11 19 1 120.49 20.7
19 -8 1 119.89 17.4
19 -8 1 160.28 31
-19 11 -1 136.99 17.5
-19 8 1 152.78 18.6
-8 19 -1 184.08 24.7
-19 11 -1 119.59 17.7
19 -11 -1 116.19 16.7
-19 11 -1 131.09 25.8
-8 19 1 127.69 21.7
19 -11 1 137.19 29
19 -8 -1 109.59 17.1
-19 11 1 58.89 21
-19 8 -1 114.29 17
8 -19 1 85.49 22.6
8 11 -1 69.59 16.1
-11 19 -1 126.99 20.9
-19 11 1 113.59 18.7
11 8 1 56.29 15.5
12 -19 1 56.39 20.5
12 7 -1 57.69 15.8
-12 19 1 71.69 17.8
-7 -12 1 77.79 21.4
-19 12 -1 80.49 23.7
7 12 1 95.79 17
-7 19 -1 151.88 24.2
19 -7 1 96.49 26.7
-19 7 1 95.89 16
19 -12 -1 76.49 15.1
19 -7 1 93.59 16.5
-19 12 -1 97.09 16.7
19 -12 1 76.19 25.6
-12 19 -1 78.99 18.4
-7 -12 -1 93.59 22.6
7 12 -1 81.19 16.8
-19 7 -1 69.99 15
-19 12 1 83.49 23.4
12 7 1 43.8 14.3
19 -7 -1 70.19 15.3
-7 19 1 89.79 19.8
-7 -12 -1 60.19 14.3
-19 12 1 65.49 16.9
7 -19 1 78.79 22.8
19 -6 1 12.5 12.4
19 -6 1 7 23.9
-19 13 -1 39.6 14.1
13 -19 1 -0.1 18.7
-6 19 -1 20.3 18.6
13 6 -1 21.7 13.1
6 13 1 18.8 13.7
-19 6 1 26.5 13.7
19 -13 -1 30 13.2
-6 -13 1 30.4 20.5
-19 13 -1 28.5 22.4
-13 19 1 -20 13.7
6 13 -1 39.4 15.8
6 -19 1 22.1 19.5
-19 6 -1 19.9 12.8
19 -13 1 5.1 22.8
-6 -13 -1 27.9 19.3
-6 19 1 37.6 18.5
19 -6 -1 14.8 12.6
-13 19 -1 6.4 14.2
-6 -13 -1 19.6 12.5
-19 13 1 14.3 14.4
-19 13 1 18.7 20.5
-19 14 -1 5.8 20.9
-19 5 1 31 14
14 5 -1 -3.1 11
-5 19 -1 20.3 18.4
14 -19 1 -1.4 21.1
-19 14 -1 16.7 13.1
-5 -14 1 4.9 18.7
-5 -14 1 -3.6 9.5
19 -5 1 4.8 12.3
5 14 1 12.1 14.3
19 -5 1 4.7 23.5
19 -14 -1 19.4 12.6
-14 -5 1 -3.7 12.7
-19 14 1 8.3 20.3
19 -14 1 1.2 22.9
-5 -14 -1 4.5 11.6
-19 5 -1 11.4 11.9
5 -19 1 7.9 18.7
19 -5 -1 9.8 11.3
-19 14 1 15 15
5 14 -1 16.9 14.5
-5 -14 -1 -5.8 18.9
-5 19 1 13.5 15.9
-15 19 1 19 14.7
-19 4 1 13.5 12.6
4 15 1 25.1 13.7
19 -4 1 14.7 12.9
-4 -15 1 12.9 19.3
19 -15 -1 1.6 10.9
-4 19 -1 23 18.5
4 -19 -1 0.5 8.7
-19 15 -1 17.9 20.1
-19 15 -1 12.4 12.5
19 -4 1 2.3 23.2
-4 -15 -1 2.6 19
4 -19 1 1.9 18.6
-19 15 1 1.7 19.9
19 -4 -1 11 12.2
-15 19 -1 3.9 12.6
4 15 -1 18.5 14.2
-19 4 -1 7.6 11
-15 -4 1 8.9 13.4
-4 -15 -1 15.2 12
-19 15 1 9.7 14.7
-4 19 1 21.4 16.3
3 16 1 116.79 17.6
-16 -3 -1 95.19 16
19 -16 -1 97.79 14.2
19 -3 1 114.79 17.4
-19 3 1 153.68 17.7
-19 16 -1 139.69 17.8
-3 -16 1 76.09 20.7
-19 16 -1 83.59 22.9
-16 19 1 131.29 18.9
-3 19 -1 103.09 19.6
19 -3 -1 168.58 19.2
-19 16 1 138.89 25.8
-16 19 -1 139.99 21
3 16 -1 155.38 19.5
-19 3 -1 136.99 18.4
-3 19 1 141.19 20.8
-3 -16 -1 131.29 19.6
-19 16 1 172.08 23.3
-16 -3 1 162.58 22.1
2 -19 -1 6.7 9.3
19 -2 1 18.5 12.6
-19 2 1 32 12.6
-2 19 -1 35.9 16
-17 -2 -1 42.5 13.2
17 2 -1 46.5 15.4
-2 -17 1 0.9 17.6
19 -17 -1 13 10.1
2 17 1 42 14.2
-19 17 -1 32.7 13.1
-19 17 -1 -2.9 18.4
-17 19 1 44.2 15.5
-19 17 1 1.6 18.6
-2 19 1 -2.6 11.2
-17 -2 1 46.4 14.1
-2 -17 -1 26.9 11.8
-2 19 1 34.2 15.8
-19 2 -1 34 12.5
-17 19 -1 23.8 13.5
-19 17 1 46.4 15.6
19 -2 -1 37.5 13
2 17 -1 43.2 14.8
-19 18 -1 14.9 12
1 18 1 6.7 12.6
-18 19 1 4.6 13.4
-1 19 -1 9.9 14.3
19 -18 -1 0.4 8.9
-18 -1 -1 19.5 11.6
1 -19 -1 2.2 9.5
19 -1 1 6.1 11.8
18 1 -1 14.3 13.2
-19 1 1 6.8 11.2
1 18 -1 12.1 13.9
-1 -18 -1 12.6 10.7
-19 1 -1 8.7 10.7
-18 19 -1 11.7 12.9
18 1 1 2.3 12.6
-1 19 1 -3 13.8
-19 18 1 11.8 14
19 -1 -1 2.7 11.6
-1 19 1 2.8 12.2
-18 -1 1 7.5 12.1
-19 0 1 13.5 11.4
0 -19 -1 6.7 9.4
0 19 -1 -7.4 11.6
19 0 1 16 11.9
-19 19 1 23.6 13.1
-19 0 -1 18.3 11.4
0 19 1 6.7 11.9
-19 19 -1 21.2 12.1
0 19 -1 4.3 12
19 0 -1 17.6 13.1
0 19 1 -2.2 11.8
-10 20 -1 29.8 18.3
-20 10 -1 38.3 13.3
10 10 -1 17.8 14.1
10 -20 1 0.4 19.1
20 -10 -1 40.7 13.7
-20 10 1 30.9 13.6
-10 20 1 47.6 18
-20 10 -1 30.1 12.4
10 10 1 29.2 13.4
-20 10 1 14.6 13.3
20 -10 1 25.9 12.9
20 -10 1 8.3 23
-9 20 -1 32.5 17.7
20 -9 1 10.2 12.3
20 -11 -1 -0.3 11.4
-20 11 -1 10.9 12.3
11 -20 1 1.2 31.4
-11 20 1 13.7 16
-20 9 1 1.1 12.4
9 11 1 20.3 13.2
11 9 -1 3.6 13.2
20 -9 1 5.9 23.1
-20 11 -1 14.5 12.3
-20 9 -1 8.2 11.6
11 9 1 13.4 13.5
-11 20 -1 1.8 16.2
9 11 -1 22.1 14.3
9 -20 1 2.2 17.9
-9 20 1 24.5 16.6
-20 11 1 10.1 11
-20 11 1 15.2 13.7
20 -11 1 -11 10.4
20 -11 1 9.5 25.6
20 -9 -1 7 12.2
12 8 -1 44.1 14.6
-20 8 1 30.3 12.6
-20 12 -1 38.6 11.5
20 -12 -1 29.1 13.2
-8 -12 1 29.4 19.2
-8 20 -1 92.59 20.2
-12 20 1 62.99 17.7
-20 12 -1 -0.4 21.5
20 -8 1 5.3 23.1
-20 12 -1 38.7 13.1
8 12 1 48.8 14.2
20 -8 1 42.5 13.9
12 8 1 46.1 15.2
8 -20 1 -3.2 18.3
-20 12 1 -1.3 34
-8 20 1 60.69 18.7
20 -8 -1 54.99 14.3
8 12 -1 50.89 15.5
-20 12 1 34 14.6
-20 8 -1 43.2 13.2
-12 20 -1 55.59 17.2
7 13 1 39.7 14.2
20 -7 1 4.4 22.6
-20 13 -1 2.5 19.1
-20 13 -1 42.3 13.4
-13 20 1 50.39 16.7
-20 7 1 31.4 13.1
20 -13 -1 33.2 14.1
-7 20 -1 57.79 19.3
-7 -13 1 41 19.4
13 7 -1 17.6 13.3
20 -7 1 41.7 13.9
-13 20 -1 53.19 16.4
-7 -13 -1 25.7 18.9
-20 7 -1 31.7 12.4
13 7 1 3.6 13.1
20 -7 -1 43.9 13.4
7 -20 1 3 20
7 13 -1 45.4 14.5
-20 13 1 39.6 15
-7 20 1 62.29 18.9
-20 13 1 -7.1 18.9
20 -14 -1 58.19 13.5
-6 -14 1 21.8 18.4
20 -6 1 35.2 13.2
-20 14 -1 53.09 13.9
-20 14 -1 11.3 18.6
14 6 -1 39.5 12.8
6 14 1 43.7 13.6
-14 20 1 -12.7 17.6
-20 6 1 78.89 14.8
-6 20 -1 72.49 18
20 -6 1 7.5 39.1
6 14 -1 54.89 14.8
-20 6 -1 48.6 13.3
-20 14 1 -1.9 18.8
-6 -14 -1 32 12.7
-20 14 1 62.99 15.9
20 -6 -1 49.2 14.2
-6 -14 -1 -3.2 17.6
-6 20 1 39.1 16.4
20 -5 1 146.79 20.3
5 15 1 138.49 17.6
20 -15 -1 138.39 18.6
-20 5 1 143.49 18.6
-20 15 -1 179.88 19.8
-5 20 -1 223.08 23.6
-20 15 1 189.68 22.3
20 -5 -1 186.08 21.2
-5 -15 -1 149.88 19.8
-20 5 -1 176.98 20.4
5 15 -1 198.08 22.5
-5 20 1 184.38 24
20 -16 -1 46.7 11.6
-20 16 -1 1 22.5
-16 20 1 45.9 13.9
-4 -16 1 3.1 24.8
-4 20 -1 40.9 15.9
-20 4 1 84.19 15.2
4 16 1 63.89 14.6
-20 16 -1 46 13.4
20 -4 1 51.79 13.3
-4 20 1 38.3 15.7
-20 4 -1 41.5 11.9
-16 20 -1 30.4 12.9
20 -4 -1 48.6 12.6
-20 16 1 76.29 16.5
-4 -16 -1 29.5 11.8
-20 16 1 -2.9 22.9
4 16 -1 40.4 13.8
-16 -4 1 52.89 13.8
20 -17 -1 2.8 9.5
-20 17 -1 9.6 12.4
-17 20 1 1.1 12.7
-20 3 1 10.1 11.1
3 17 1 10.7 12.4
20 -3 1 -2.9 10.7
17 3 -1 13.2 14.1
3 -20 -1 -0.4 11.7
-17 -3 -1 6.1 10.1
-3 20 -1 29.5 14.9
3 17 -1 15.4 12.9
-17 20 -1 6.5 12.2
-3 -17 -1 1.8 10.6
-20 3 -1 7 10.7
-20 17 1 3.7 12.7
-17 -3 1 9.1 12
20 -3 -1 8.4 11
-3 20 1 10.8 14.4
20 -2 1 135.09 16.9
-20 18 -1 123.59 17.1
-2 20 -1 70.89 15.1
-18 -2 -1 87.19 13.7
2 18 1 118.19 16
-18 20 1 74.19 13.8
-20 2 1 104.39 15.2
-2 20 1 76.49 16.2
2 18 -1 99.79 15.6
-20 2 -1 92.59 14
-18 20 -1 108.99 15.9
20 -2 -1 152.08 17.1
18 2 1 110.89 15.8
-18 -2 1 76.89 13.8
-2 -18 -1 86.89 12.8
-20 1 1 29.4 10.5
-1 20 -1 15.1 10.2
-19 20 1 37.3 12.2
1 19 1 25.5 12.2
20 -1 1 25.2 11
-19 -1 -1 31.1 11.7
19 1 -1 63.09 14.1
-20 19 -1 41.4 12.6
-1 20 1 5.2 9.7
20 -1 -1 26.1 10.9
19 1 1 12.8 11.2
-20 1 -1 23 10.4
-19 20 -1 24.4 12
-1 -19 -1 0.8 8.2
-1 20 1 5 12.2
1 19 -1 12.6 11.5
-20 19 1 37.1 12
-19 -1 1 26.9 11.4
20 0 -1 11.8 10.8
-20 20 -1 8.6 10.5
0 20 1 7.5 9.8
-20 0 1 7.7 9
20 0 1 4.8 10.2
-20 0 -1 2.7 9.3
-20 20 1 5.3 10.1
-21 11 -1 26.9 12.5
-21 11 -1 17 12
-21 10 1 28.7 12
-10 21 -1 24.3 15.3
21 -10 1 12.6 12.1
10 11 1 16.3 13
-11 21 1 33.3 16.4
21 -11 -1 10.7 11.1
11 10 -1 13.5 12.2
-21 11 1 13.8 11.6
-21 10 -1 -3 10.5
-11 21 -1 16.7 14.8
-10 21 1 9.6 15.5
21 -10 -1 3.2 11.8
-21 10 -1 20.4 12.7
10 11 -1 33 13.5
-21 11 1 6.8 11.2
11 10 1 12.8 12.8
21 -11 1 1 10.2
-21 9 1 128.29 16.5
21 -9 1 83.19 14.5
-9 21 -1 155.08 20.8
12 9 -1 73.39 14.7
9 12 1 90.29 15.7
-12 21 1 87.89 17.5
-21 12 -1 121.29 16.4
21 -12 -1 95.09 15.3
-21 12 -1 89.39 14.1
-21 12 1 57.19 14.6
-9 21 1 70.39 16.5
12 9 1 72.39 15.2
21 -9 -1 96.39 15.2
9 12 -1 75.69 14.8
-21 9 -1 103.69 15.6
-12 21 -1 117.99 18.5
-13 21 1 31.5 15.4
13 8 -1 32.4 13
21 -8 1 29.3 12.3
-21 13 -1 40.3 12.6
-21 13 -1 23.3 10.4
-8 21 -1 50.59 16.5
21 -13 -1 37 13.1
-21 8 1 36.3 12.2
8 13 1 25 12.9
-8 21 1 45 15.7
21 -13 1 -2.4 13.6
21 -8 -1 40.6 12.3
-21 8 -1 35.1 12.1
8 13 -1 34 13.1
13 8 1 26.6 12.8
-21 13 1 55.09 14.6
-13 21 -1 40.7 14.9
21 -14 -1 34 11.9
-7 21 -1 87.99 18.6
14 7 -1 26.7 12.2
7 14 1 54.29 14.2
-21 14 -1 44.3 12.6
21 -7 1 43.7 13.7
-21 7 1 60.89 13.8
-14 21 1 20.8 13
14 7 1 -6.3 9.7
-21 7 -1 34.3 12
21 -7 -1 28.2 12.1
-14 21 -1 16.9 12
-7 21 1 34.2 15
-21 14 1 16.7 12.6
7 14 -1 30.7 13
21 -6 1 19.2 12.4
21 -15 -1 12 10.6
15 6 -1 -4.2 9.9
-21 15 -1 21.6 11.6
6 15 1 19.9 12.2
-6 21 -1 30.1 15.1
-21 6 1 24.3 11.2
-21 15 1 33.9 13.5
-21 6 -1 27.1 11.5
21 -6 -1 28.7 12.6
-6 21 1 44.8 15.7
6 15 -1 48.8 13.5
5 16 1 21.6 12.5
21 -16 -1 11.6 9.8
21 -5 1 11.5 11.1
-21 16 -1 14.6 11
-21 5 1 9.5 9.9
-5 21 -1 22.1 14.6
-21 5 -1 19.5 11.1
5 16 -1 9.1 11.5
21 -5 -1 18 11.4
-5 21 1 14.9 14.3
-16 -5 1 -3.4 11.1
-21 16 1 16.8 12.6
21 -4 1 46.8 12.1
-21 17 -1 80.39 14.2
17 4 -1 59.49 15
-4 21 -1 45.3 13.9
4 17 1 57.09 13.4
-21 4 1 50.89 11
-4 -17 -1 48.6 11.9
-4 21 1 71.39 15.7
-17 -4 1 54.29 12.3
-21 17 1 79.49 14.9
21 -4 -1 48.1 11.9
-21 4 -1 84.29 13.4
4 17 -1 59.89 13.6
-18 21 1 16.5 10.9
18 3 -1 30.7 12.7
-21 3 1 24.2 10.4
3 18 1 27.8 11.7
21 -3 1 20.4 10.6
-3 21 -1 8.7 11.3
-18 -3 -1 -2.7 14.8
-21 18 -1 13.2 10.7
21 -3 -1 29.3 10.9
-18 21 -1 35.2 11.7
-3 21 1 45.3 14.2
-3 -18 -1 30.7 10.7
3 18 -1 27.9 11.4
-21 18 1 33.9 11.3
-21 3 -1 40.9 10.6
-18 -3 1 51.19 11.9
18 3 1 40.1 12.8
-21 19 -1 9.7 10.1
21 -2 1 7.9 9.5
-2 21 -1 1.1 9.6
-19 -2 -1 3 9.1
2 19 1 11.6 11
19 2 -1 -2.4 10.9
-21 2 1 2.8 8.6
-19 21 1 3.8 10
-21 19 1 5.9 10.1
-2 21 1 6.4 10.9
-21 2 -1 10.3 9.3
21 -2 -1 5.4 9.8
2 19 -1 15.5 10.5
19 2 1 9.8 10
-19 -2 1 4.8 9.1
-19 21 -1 7.6 10
-2 -19 -1 -3 12.9
-21 1 1 19.2 9.5
1 20 1 10.5 9.6
20 1 -1 17.1 10.7
-21 20 -1 15 9.8
21 -1 1 16.4 9.2
-20 21 1 18.2 10.1
-20 -1 -1 11.6 8.9
21 -1 -1 17 9.9
-20 21 -1 22 9.9
-20 -1 1 16.7 9.1
-21 20 1 23.9 10.4
-21 1 -1 23 10.1
20 1 1 27.4 10.3
21 0 -1 40.2 10.9
-21 21 1 23.1 10
21 0 1 29.9 9.6
-21 21 -1 27.4 9.7
-21 0 -1 25.5 9.6
-21 0 1 30.9 10
22 -11 1 31.4 10.8
-11 22 1 79.39 16.7
22 -11 -1 66.09 12.9
-22 11 -1 43.3 11.2
11 11 1 55.39 13
-11 22 -1 80.99 15.9
-22 11 1 54.89 12.8
11 11 -1 77.59 13.8
-12 22 1 18.3 13.7
12 10 -1 7.4 11.3
10 12 1 13.6 11.6
-10 22 -1 22.1 13
-22 12 -1 13.5 10.4
22 -12 -1 16.2 11.2
-22 12 -1 15.7 10.7
-22 10 1 21.6 11.3
22 -10 1 3.9 9.7
-12 22 -1 14.4 12.1
-10 22 1 11.8 13.6
22 -10 -1 0.7 10.2
22 -12 1 -4.6 9
-22 10 -1 17.4 11.4
12 10 1 -1.9 11.1
-22 12 1 6.5 10.7
10 12 -1 2.4 10.2
-22 12 1 1.9 10
-13 22 1 83.39 16.2
-22 13 -1 54.29 12.1
22 -9 1 80.29 13.6
13 9 -1 90.49 14
-9 22 -1 140.39 18.3
9 13 1 116.59 15.9
-22 13 -1 83.19 14.1
-22 9 1 103.09 14.7
22 -13 -1 85.49 13.8
22 -9 -1 62.99 13.5
13 9 1 61.99 12.8
9 13 -1 73.39 12.9
-9 22 1 85.79 16.5
-13 22 -1 57.19 14
-22 13 1 76.99 13.2
-22 9 -1 47 12
-22 14 -1 11.6 10.6
-22 8 1 10 11.4
8 14 1 2.4 10.4
-14 22 1 1.8 12.2
14 8 -1 10.4 10.9
-8 22 -1 10.7 13.3
22 -14 -1 5.3 10.1
22 -8 1 3.2 10.1
8 14 -1 3.7 10.6
-14 22 -1 2.7 11.2
-22 14 1 5.2 10
-22 8 -1 18.2 11
-8 22 1 -5.5 13.1
22 -8 -1 8.9 10.9
14 8 1 -1.2 8.8
7 15 1 41.9 11.8
-7 22 -1 24.9 12.7
22 -15 -1 26.2 10.1
22 -7 1 31 11
-22 7 1 30.1 11.3
-22 15 -1 35 11.5
-22 15 1 33.1 11.2
-22 7 -1 35.5 11.4
7 15 -1 21.2 10.3
22 -7 -1 25.8 10.8
-7 22 1 14.3 12.9
6 16 1 55.89 12.4
22 -6 1 37.1 11.5
-22 16 -1 43 11.1
22 -16 -1 30.5 9.6
-22 6 1 48.1 11.6
-6 22 -1 43.3 12.7
-22 16 1 37.9 11
-22 6 -1 52.49 11.2
22 -6 -1 48.8 11.3
6 16 -1 38.3 11.2
-6 22 1 56.69 13.9
-5 22 -1 20.1 11.3
-22 5 1 18.4 10.1
5 17 1 21.2 10.6
22 -5 1 13.9 10.4
-22 17 -1 15.4 11
17 5 -1 19 12.7
22 -5 -1 16.3 9.7
-22 5 -1 24.6 9.7
-22 17 1 29 11
5 17 -1 33.1 10.7
-5 22 1 17.2 12.2
4 18 1 19.8 10.7
18 4 -1 16.8 11.8
-4 22 -1 16 10.4
22 -4 1 28.1 10.6
-22 4 1 31.3 10
-22 18 -1 25.3 10.7
4 18 -1 12.2 9.6
18 4 1 15.1 11.2
-22 18 1 18.2 9.9
-22 4 -1 31.8 10.3
22 -4 -1 23.8 10.5
-4 22 1 14.8 11.4
-22 3 1 23.3 9.4
-22 19 -1 25.6 10.5
22 -3 1 14.9 9.6
3 19 1 23.4 10.5
-3 22 -1 9.7 9.5
19 3 -1 39.3 12
-19 -3 1 -2.9 7.4
-22 19 1 12.9 10.4
19 3 1 14 10.1
-22 3 -1 10.8 9.2
-3 22 1 16 10.6
3 19 -1 11.4 9.7
22 -3 -1 14 10
22 -2 1 22.2 9.6
2 20 1 10.2 8.8
-20 22 1 -0.3 7.6
-22 20 -1 20.9 10
-22 2 1 9.8 9
20 2 -1 20.9 11.2
20 2 1 25.2 9.9
22 -2 -1 29 11
-20 -2 1 1.6 7.4
-22 2 -1 21.6 9.7
-20 22 -1 -1.1 8.2
-22 20 1 20.7 10.5
-22 21 -1 17.6 10
21 1 -1 13.9 11.4
22 -1 1 11 10.2
-21 22 1 -1.5 6.7
-22 1 1 14.7 9.6
-22 1 -1 3.6 8.1
-21 -1 1 -0.9 6.4
22 -1 -1 23.2 12.5
-21 22 -1 -1.9 8
-22 21 1 16.2 9.9
21 1 1 10.4 10
23 -12 -1 29.7 11.1
-23 12 -1 29.6 10.2
-12 23 1 30.6 12.6
12 11 -1 27.3 10
-23 11 1 37.8 10.4
-11 23 -1 31.4 12
11 12 1 30.9 10.5
-23 12 1 7.9 8.3
-23 11 -1 31.9 10.1
11 12 -1 24.8 9.9
-12 23 -1 35.6 11.6
12 11 1 21.5 10
-11 23 1 16.7 11.6
23 -11 -1 36.3 10.9
13 10 -1 51.29 11.4
23 -13 -1 78.09 11.7
-10 23 -1 76.99 13.2
23 -10 1 61.39 11
-23 13 -1 40.1 10
-23 13 -1 77.09 11.5
-13 23 1 70.79 13.9
10 13 1 73.19 12.4
-23 10 1 89.99 13.2
-13 23 -1 61.29 12.6
10 13 -1 55.09 10.8
-23 10 -1 67.59 11.5
-10 23 1 83.49 14.3
-23 13 1 66.99 11.4
13 10 1 65.69 11.6
23 -10 -1 40.5 10.8
-14 23 1 9.9 10.2
23 -14 -1 13 8.8
-23 9 1 15.6 9.8
-23 14 -1 32.8 10.5
14 9 -1 18 10.4
9 14 1 7.4 9.9
23 -9 1 11.2 8.7
-9 23 -1 12.7 10.6
14 9 1 -3.8 8.1
-23 9 -1 10 8.9
9 14 -1 13.9 9
-9 23 1 19.5 11.7
23 -9 -1 13.3 9.6
-23 14 1 6.1 9.1
-14 23 -1 8.8 10.4
-8 23 -1 62.79 12.5
8 15 1 55.79 11.6
23 -8 1 41.4 11
23 -15 -1 32.8 9
-23 15 -1 55.59 11.6
-23 8 1 63.69 11.6
8 15 -1 62.79 11.1
23 -8 -1 45.5 10.6
-8 23 1 87.59 14
-23 15 1 51.49 10.8
-23 8 -1 28.3 10.1
23 -7 1 7.9 9.4
7 16 1 10.5 9.6
-7 23 -1 5.5 10.1
-23 7 1 5.9 8.7
16 7 -1 3.6 11.9
-23 16 -1 16.6 9.9
-23 7 -1 9.8 9.4
-23 16 1 4.9 9.4
23 -7 -1 8.6 9.8
-7 23 1 11.8 11.1
7 16 -1 15 9.4
-23 17 -1 53.19 10.6
17 6 -1 66.39 13.8
-23 6 1 57.49 10.1
23 -6 1 46.8 10
6 17 1 63.99 11.3
-6 23 -1 44.7 10.9
6 17 -1 46 10.5
23 -6 -1 29.6 9.6
-6 23 1 49.99 12.2
-23 6 -1 40.5 9.9
-23 17 1 61.19 11.2
-23 5 1 23 9.4
-23 18 -1 17.8 9.9
-5 23 -1 13.2 9.9
18 5 -1 18.7 11.3
23 -5 1 18.7 8.9
5 18 1 21.4 9.6
23 -5 -1 7.4 8.8
-23 5 -1 7.9 9.2
-5 23 1 3.2 10.1
5 18 -1 10.2 9.5
-23 18 1 7.1 9.9
18 5 1 11.1 10.8
4 19 1 18.4 9.8
23 -4 1 18.1 8.6
19 4 -1 5.2 11
-4 23 -1 4 7.5
-23 19 -1 29.8 10.7
-23 4 1 20.5 10
-23 4 -1 18.6 10.1
19 4 1 40.7 11.5
-23 19 1 26.6 10.9
23 -4 -1 19.1 9.7
-4 23 1 19.2 8.5
4 19 -1 29.7 9.6
20 3 -1 10.9 10.7
-23 20 -1 22.2 11.7
23 -3 1 7.8 9
3 20 1 1.7 6.4
-23 3 1 18.7 9.8
-23 20 1 8.2 11.1
20 3 1 15.3 11.2
-23 3 -1 18.3 9.8
23 -3 -1 14.5 10.1
12 12 1 66.09 10.2
12 12 -1 55.99 10
-12 24 1 65.59 12.2
-24 12 -1 51.39 9.6
-12 24 -1 58.99 11.6
24 -12 -1 65.89 10.6
-11 24 -1 9.3 10.4
-13 24 1 3.5 9.8
11 13 1 5.2 8.6
-24 11 1 -0.2 7.4
-24 13 -1 3.3 12
13 11 -1 0.6 8
24 -13 -1 13.5 8
11 13 -1 3.7 8.6
24 -11 -1 7.1 9
13 11 1 -1.4 7.5
-11 24 1 -2.9 10.6
-24 11 -1 11.8 9.1
-13 24 -1 -5.6 9.7
-24 14 -1 -1.8 6.5
-24 10 1 17.5 8.3
-14 24 1 -0.7 7.5
-10 24 -1 16.8 9.6
10 14 1 21.9 8.7
14 10 -1 12.2 7.6
24 -14 -1 -0.7 6.3
10 14 -1 16.9 8.7
-24 14 1 -2.8 11.8
24 -10 -1 20.5 9.6
-24 10 -1 9.8 8.5
-10 24 1 11.3 10.2
-14 24 -1 15.5 9
-24 9 1 55.59 10
-24 15 -1 49.1 9.7
-9 24 -1 23.1 9.8
24 -9 1 -3.5 11.2
9 15 1 35.4 9.8
24 -9 -1 30 9.2
-24 15 1 36.3 9.4
-9 24 1 64.79 12.3
-24 9 -1 43.3 9.2
9 15 -1 38.3 9.6
-8 24 -1 12.8 9.9
16 8 -1 1.4 11.5
-24 8 1 13.6 9
-24 16 -1 3.4 9
8 16 1 5.3 8.2
24 -8 1 -5.5 7.9
-24 16 1 6.1 9.6
-24 8 -1 -5.3 8.9
8 16 -1 9.1 8.9
-8 24 1 9.3 10.5
24 -8 -1 -0.5 8.2
-24 17 -1 34.4 10.5
7 17 1 33.4 10.2
17 7 -1 36.9 12.3
-24 7 1 24.8 9.3
-7 24 -1 41.7 11.2
7 17 -1 25.8 9.8
-7 24 1 22.3 9.9
17 7 1 64.99 13.2
-24 17 1 38.3 11
-24 7 -1 44.3 10.4
24 -7 -1 38.9 10
-6 24 -1 2.9 10
24 -6 1 -6.6 9.6
-24 6 1 9.6 9.9
-24 18 -1 9.2 10.3
6 18 1 6.5 9.6
18 6 -1 -4.1 10.8
-24 18 1 6.8 10.6
6 18 -1 -0.4 9.7
-6 24 1 4.4 10.1
18 6 1 10 11.5
24 -6 -1 0 9.3
-24 6 -1 8.6 9.6
12 13 1 5.3 6.7
-13 25 1 -1 7
-12 25 -1 6.3 10.8
13 12 -1 3 6.1
-12 25 1 1.2 10
12 13 -1 11.6 8.9
-13 25 -1 3.6 8.5
-11 25 -1 5.6 10.8
-11 25 1 14.6 11
-25 11 -1 1.4 6.2
0 0 -2 -2.4 8.6
0 0 -2 0.1 5.4
0 0 2 -10.1 4.8
0 0 -2 -1.3 5.3
0 0 2 5.7 9
0 -1 -2 573.74 36.4
0 1 -2 689.63 32.1
0 1 2 675.33 34
-1 1 -2 571.64 34.9
1 0 -2 681.93 32.2
1 -1 2 674.73 31.3
0 1 2 658.13 36.6
1 -1 2 577.94 34.1
1 -1 2 697.33 35.9
1 0 -2 560.34 38.2
1 0 -2 658.33 34.5
-1 0 2 711.93 34.8
-1 0 2 630.14 32.1
-1 0 -2 629.04 35.7
-1 1 -2 650.83 34.6
0 1 -2 625.94 38
0 1 -2 674.53 34
1 0 2 656.03 34.4
0 -1 2 693.13 37.4
1 0 2 687.93 33.5
1 -1 -2 649.24 35
0 -1 2 593.84 33.2
1 0 2 712.43 35.8
-1 0 2 727.63 38.6
0 -1 -2 620.24 34.5
-1 1 2 698.83 37.5
-1 0 -2 630.84 33.6
-1 1 2 659.63 34.5
0 1 2 680.13 32.1
0 -1 2 706.73 32.6
-2 1 -2 2045.8 99.59
2 -1 -2 2276.47 97.69
1 1 2 2136.79 101.29
1 -2 -2 1995.5 97.49
1 -2 2 2068.29 101.39
-1 -1 -2 1944.51 98.89
1 1 -2 2219.28 99.19
-1 -1 -2 1748.53 99.59
-1 2 2 2137.89 101.79
-1 -1 2 2085.59 103.39
-2 1 2 2153.68 102.39
2 -1 2 2222.78 99.69
-2 1 -2 2153.28 100.99
2 -1 2 2106.89 99.59
1 1 2 2088.99 98.99
1 1 -2 1871.41 99.49
-1 -1 2 2241.28 100.29
-2 1 2 2089.79 100.99
-1 2 2 2205.78 100.89
1 1 2 2208.18 100.09
-1 2 -2 2094.99 100.19
-1 2 2 2195.08 97.59
2 -1 2 2135.29 98.39
-1 2 -2 1715.63 100.49
-1 -1 2 1953.8 98.99
2 0 2 834.02 42.5
2 -2 2 797.72 41.8
-2 2 2 865.21 45.3
-2 2 2 765.32 39.1
0 2 -2 778.32 40.7
-2 2 -2 826.22 39.8
-2 0 2 704.43 40.3
0 2 2 800.42 40.3
-2 2 -2 821.52 41.8
0 2 2 804.32 43.8
0 -2 2 832.62 48
2 -2 -2 775.82 39
0 2 -2 846.52 42.5
0 2 -2 808.62 39.2
2 0 2 812.62 41.2
2 0 2 814.32 41.3
-2 2 -2 833.92 44
0 2 2 827.42 42.5
2 -2 2 724.63 39.1
-2 0 2 772.22 43.1
-2 0 2 811.72 46.7
0 -2 -2 712.53 40.2
2 0 -2 853.71 40.6
-2 2 2 795.82 43.9
2 1 -2 912.81 46
-3 2 -2 907.21 49.2
-3 1 2 869.71 49.5
-2 3 2 882.71 44.3
2 -3 2 958.6 49.1
-2 3 2 869.21 48.2
-3 2 -2 861.71 46.3
-1 3 -2 860.31 43
3 -1 2 887.11 45.6
-1 3 -2 881.31 47.9
1 2 2 897.11 48.3
-3 1 2 900.11 50.39
-3 2 -2 805.82 43.7
1 2 2 906.11 47
-1 -2 2 913.81 53.89
-2 3 2 882.01 47.8
1 2 2 921.21 45.3
2 -3 2 769.52 42.6
-1 3 2 789.02 38.9
-1 3 2 798.32 43.1
2 1 2 740.23 41.1
-1 3 2 767.82 42.9
3 -2 2 811.02 39.3
-2 3 -2 762.32 42.8
-2 -1 2 784.12 44.1
1 2 -2 778.92 40.9
3 -1 -2 784.12 39.2
-2 -1 2 752.72 47.6
2 1 2 767.02 40.2
-3 2 2 771.42 44.9
2 1 2 742.03 41.7
-2 3 -2 616.34 41.5
-2 3 -2 822.72 38.3
2 -3 -2 627.14 38.1
-3 2 2 800.92 44.3
1 -3 2 809.72 47.6
1 -3 2 690.43 37.4
3 0 2 1712.43 84.89
3 0 -2 1726.83 83.89
0 3 2 1716.83 85.79
-3 3 2 1755.82 87.39
-3 3 2 1687.53 83.29
-3 3 2 1761.32 86.89
3 -3 2 1769.42 83.29
-3 3 -2 1692.13 83.39
0 -3 2 1749.62 91.79
3 0 2 1717.73 84.69
-3 3 -2 1531.45 81.79
3 0 2 1755.62 84.79
-3 0 2 1684.63 89.29
0 3 -2 1764.42 85.39
0 3 2 1701.53 83.49
0 3 2 1657.63 86.49
0 3 -2 1781.42 82.89
-3 0 2 1778.42 87.59
-3 3 -2 1734.63 86.69
-2 4 2 1202.58 64.29
2 2 2 1182.48 64.79
-2 4 -2 1266.27 65.39
4 -2 -2 1301.87 61.79
2 2 -2 1205.08 62.69
2 2 2 1215.68 62.49
4 -2 2 1237.88 60.09
2 2 2 1190.58 64.39
-2 4 2 1252.87 61.49
-2 4 2 1211.68 64.49
-4 2 2 1225.68 66.99
-4 2 2 1248.38 67.09
-2 4 -2 1186.88 60.09
-4 2 -2 1263.57 64.79
-2 -2 2 1155.18 70.89
2 -4 2 1247.78 66.89
4 -1 2 1094.79 56.49
3 1 -2 1141.29 57.49
-3 4 2 1073.19 56.89
1 3 2 1148.59 59.69
1 3 2 1115.99 60.69
-4 1 2 1096.79 61.09
-3 4 2 1101.69 60.59
3 -4 2 1101.89 58.79
-4 1 2 1037.8 61.89
-1 -3 2 1076.09 66.29
-1 4 -2 1074.19 54.99
-3 4 2 1123.39 59.89
-4 3 -2 1100.49 60.69
-4 3 -2 1156.08 58.69
1 3 2 1126.39 57.39
-1 4 -2 1072.39 58.69
-3 4 -2 1054.19 58.49
1 -4 2 1060.39 63.19
3 1 2 999.8 55.69
-1 4 2 1010.2 57.29
3 1 2 1024.8 56.69
-4 3 2 1077.99 58.99
1 3 -2 1072.99 54.29
4 -1 -2 1102.09 54.99
-1 4 2 1098.29 54.39
-4 3 2 1067.29 58.49
-3 4 -2 1092.69 54.39
-3 -1 2 1012.8 62.69
-3 -1 2 1090.09 59.69
1 3 -2 1053.29 55.69
3 1 2 1089.99 55.79
-1 4 2 1061.59 56.99
4 -3 2 962.6 50.79
-4 4 2 142.49 19.5
-4 4 -2 132.69 20.9
4 0 -2 142.99 19.2
-4 4 -2 164.28 21.3
-4 0 2 166.58 23.8
4 0 2 166.38 18.8
0 -4 2 164.88 27
0 4 2 138.69 22.3
4 0 2 110.89 17.8
4 0 2 127.89 19.4
-4 4 2 145.89 23.3
4 -4 2 141.09 14.4
0 4 -2 135.89 18.1
-4 4 2 145.09 22.9
0 4 -2 144.49 22
0 4 2 148.09 22.7
-4 0 2 167.38 25.9
3 -5 2 1262.27 65.99
-5 2 2 1188.38 67.09
5 -2 2 1250.87 60.09
-3 5 2 1178.38 62.19
-2 5 -2 1206.98 64.79
2 3 2 1213.08 66.69
3 2 -2 1213.58 63.19
-5 3 -2 1189.68 65.49
-5 2 2 1233.48 68.29
-3 5 2 1232.88 65.19
-2 5 -2 1157.88 60.59
-3 5 2 1182.88 64.99
2 3 2 1192.48 65.59
-2 -3 2 1213.28 75.29
2 3 2 1136.19 62.39
2 3 -2 1166.58 59.99
-3 5 -2 1077.09 58.49
2 -5 2 1181.98 65.49
-5 3 2 1074.89 62.09
5 -3 2 1118.19 54.19
-5 2 -2 1229.58 64.19
-2 5 2 1176.88 59.69
-2 5 2 1169.18 62.19
-2 5 2 1051.69 61.59
2 3 -2 1159.28 61.49
3 2 2 1061.29 60.69
3 2 2 1107.09 60.39
-5 3 2 1147.49 64.19
3 2 2 1075.09 62.39
-3 5 -2 1139.49 62.29
5 -2 -2 1267.77 60.09
-3 -2 2 1086.39 69.89
-1 -4 2 733.33 54.59
-1 5 -2 727.53 45
1 4 2 738.83 44.7
5 -1 2 746.03 44.8
-4 5 2 746.63 45.4
-5 4 -2 760.42 49
1 4 2 761.72 43.3
-5 1 2 767.82 52.39
4 1 -2 729.53 43
-5 1 2 702.03 48.8
1 4 2 744.83 48.5
-1 5 -2 753.32 41.4
4 -5 2 753.32 42.2
-4 5 2 740.03 47.1
-5 4 -2 761.82 45.8
5 -1 2 772.82 42.7
-4 5 2 728.83 44.2
-5 4 2 635.74 44.6
-4 5 -2 610.34 43
-1 5 2 656.03 38.8
-5 4 2 630.24 41.6
4 1 2 636.34 40.3
5 -1 -2 679.23 39
1 -5 2 637.34 48.7
-1 5 2 631.84 40.9
-1 5 2 662.33 42.2
-4 -1 2 706.23 46.5
4 1 2 628.64 39.2
1 4 -2 628.94 39.9
1 4 -2 647.24 38.7
-4 5 -2 674.43 39.4
-4 -1 2 654.53 53.09
-5 5 -2 2644.04 127.39
5 0 -2 2639.04 126.39
0 5 2 2670.43 126.49
-5 5 -2 2611.54 129.69
0 -5 2 2576.94 133.99
5 0 2 2542.95 126.69
-5 5 2 2641.24 130.49
0 5 -2 2630.04 125.29
-5 5 2 2509.75 127.19
0 5 -2 2550.84 127.79
-5 0 2 2542.05 130.19
0 5 2 2435.06 127.19
-5 5 2 2512.85 125.99
-5 0 2 2481.75 133.49
0 5 2 2573.04 129.79
-6 3 2 305.37 33.7
-3 6 2 333.27 28.5
-3 6 -2 325.07 29.8
6 -3 -2 332.07 26.2
-3 6 2 336.67 27.4
3 -6 2 320.67 34.4
-6 3 -2 288.97 32.5
-6 3 2 297.97 32.6
3 3 -2 337.27 27.8
-3 -3 2 319.27 41.4
3 3 2 325.07 29.3
6 -3 2 311.87 19.5
-3 6 -2 306.07 25.1
3 3 2 310.97 26.3
3 3 -2 355.36 28.6
-3 6 2 320.57 29.6
-6 4 -2 1070.89 61.59
2 4 2 1053.29 59.79
-2 6 -2 1058.39 55.69
-4 6 2 1026.8 57.89
-6 4 -2 1071.59 61.09
-6 2 2 1060.49 64.99
-4 6 2 1052.59 59.69
2 4 2 1096.09 62.89
-2 6 -2 1039.8 61.09
-6 2 2 1035.5 62.69
4 2 -2 1071.99 58.79
6 -2 2 1027.4 59.09
-2 -4 2 1066.69 67.89
6 -2 2 1115.19 55.49
-4 6 2 1002.4 60.59
2 4 2 1006 57.19
2 -6 2 922.51 60.09
-4 -2 2 951.3 66.89
-2 6 2 946.21 54.99
6 -2 -2 944.21 51.69
-4 6 -2 834.02 51.69
2 4 -2 955.5 52.59
-6 4 2 915.91 55.49
-2 6 2 995.4 56.29
-6 4 2 943.21 57.49
2 4 -2 899.71 52.89
-4 6 -2 910.71 56.19
-2 6 2 974.7 53.09
4 2 2 905.11 52.59
4 2 2 949.31 54.99
-5 6 2 602.94 40.8
-1 6 -2 618.04 43
-5 6 2 685.93 42.8
-6 5 -2 693.63 44.6
-1 6 -2 660.23 39
6 -1 2 664.03 43.2
5 1 -2 624.44 40.5
-6 5 -2 627.74 45.2
1 5 2 648.94 42.7
-5 6 2 615.14 45.1
-1 -5 2 626.84 51.49
-6 1 2 667.13 52.69
1 5 2 651.93 45.4
1 5 2 673.43 41.8
-6 1 2 643.94 48.8
-6 5 2 555.54 42.1
1 5 -2 598.04 39.6
-5 6 -2 559.34 40.6
6 -1 -2 578.14 38
1 5 -2 602.04 38.1
-1 6 2 591.44 38.2
5 1 2 581.44 40.7
-5 6 -2 558.94 38.1
5 1 2 545.55 37.6
1 -6 2 583.64 49.5
-1 6 2 568.44 39.5
-6 5 2 522.75 38.1
-5 -1 2 565.64 49.9
-1 6 2 575.14 43
0 6 2 65.09 21.9
6 0 -2 44.1 16
-6 6 2 75.79 22
-6 6 2 80.89 19.3
0 6 -2 45.2 15.8
6 0 2 55.39 16.7
-6 6 -2 60.39 20.9
0 6 -2 55.89 20.1
-6 0 2 57.69 26.1
0 6 2 49.7 16.8
-6 6 -2 62.09 22.1
-6 0 2 67.29 23.3
0 6 2 54.49 17.2
-6 6 2 47.5 17.2
0 -6 2 51.89 23.9
-4 7 2 615.54 41.9
4 3 -2 599.54 40.4
-3 -4 2 621.94 52.39
-4 7 2 628.24 44.9
3 4 2 590.54 40.1
-3 7 -2 580.24 38.1
-4 7 2 609.94 40.5
7 -4 -2 656.53 39.5
-7 3 2 583.34 46.8
7 -3 2 550.24 33.4
-7 4 -2 599.14 46.4
3 4 2 623.24 44.1
4 3 -2 601.94 40.2
-3 7 -2 607.14 43
-7 3 2 664.53 49
-4 7 -2 678.03 45.9
-3 7 2 658.83 43.1
3 4 -2 676.03 45
7 -3 -2 638.44 41
-4 7 -2 619.24 41.8
3 -7 2 667.53 48.9
4 3 2 639.24 41.5
-7 3 -2 629.44 47.4
4 3 2 670.53 43.8
-7 4 2 644.74 46.2
3 4 -2 691.33 43.6
-3 7 2 669.43 44.9
-3 7 2 671.03 44.4
-7 4 2 662.83 48.7
-4 -3 2 687.43 53.69
-5 7 2 1401.56 76.79
-7 5 -2 1408.16 79.19
2 5 2 1437.86 76.59
7 -2 2 1464.75 73.49
-5 7 2 1379.16 77.09
-7 2 2 1343.17 80.39
2 5 2 1458.55 83.19
2 5 2 1420.16 78.29
-2 7 -2 1364.36 74.29
-2 7 -2 1398.96 78.09
7 -2 2 1339.67 76.09
-2 -5 2 1451.65 87.09
-7 2 2 1473.95 84.99
5 2 -2 1412.36 76.59
-5 7 2 1494.45 81.59
-7 5 -2 1480.35 81.39
2 5 -2 1382.76 74.39
2 5 -2 1395.06 72.29
-2 7 2 1324.87 74.89
-2 7 2 1283.47 72.19
-7 5 2 1277.97 76.49
-5 7 -2 1286.17 71.89
-2 7 2 1398.46 76.49
7 -2 -2 1373.96 72.29
-5 -2 2 1392.66 84.89
2 -7 2 1198.78 78.09
5 2 2 1331.77 74.69
-5 7 -2 1378.46 77.39
-7 5 2 1283.67 72.99
5 2 2 1270.97 71.69
-7 6 -2 35.7 22.7
-7 6 -2 49.7 22.2
-7 1 2 47.6 25.5
1 6 2 48.7 18.2
-1 -6 2 27.5 10.3
-6 7 2 17.5 17.3
7 -1 2 30 16.8
-6 7 2 31.5 20.4
-7 1 2 28.4 25.7
-1 -6 2 51.59 26.5
1 6 2 37.6 20
1 6 2 41.3 17.5
-6 7 2 21.3 12
6 1 -2 40.2 18.3
-7 1 2 26 12.4
6 -7 2 27.2 11.7
-1 7 -2 46.8 16
-7 6 -2 29.5 14.5
-1 7 -2 32.6 19.8
-6 7 2 32.2 17.3
-1 7 2 16.8 17.1
-7 6 2 13.6 12.6
-6 7 -2 7.3 19.5
-6 -1 2 15.3 12.3
-7 6 2 5.4 19.2
-6 7 -2 3.3 10.5
7 -1 -2 22 17.9
6 1 2 19.7 16.7
1 6 -2 10.2 15.8
1 6 -2 -4.7 18.3
1 -7 2 8.7 22.8
-1 7 2 19 18.4
-6 7 -2 -1.2 18.9
-1 7 2 22.7 17.7
7 -6 2 22.9 13.1
1 -7 2 15.3 10
-7 6 2 -0.7 17.1
-7 1 -2 5.1 11.6
6 1 2 6.9 14.8
-6 -1 2 2.2 25.9
0 7 2 102.79 21.3
7 0 -2 73.39 19.4
0 7 -2 93.29 22.8
0 -7 2 83.79 14.8
0 7 -2 72.29 18.3
0 7 2 91.09 25
-7 7 2 84.09 24.8
-7 7 2 72.39 19.2
-7 0 2 68.59 13.7
0 -7 2 98.99 31.5
-7 7 2 84.89 17.9
-7 7 -2 88.99 25.2
7 0 2 90.99 20.4
7 -7 2 86.39 16.8
-7 7 -2 97.29 17.8
-7 0 2 90.09 26
-7 0 2 109.69 34.2
-7 7 -2 100.09 26
-7 7 2 76.09 20.7
0 7 2 104.69 22.5
8 -4 -2 622.14 40.4
-4 8 -2 626.54 45.4
-4 -4 2 539.95 35.3
4 4 -2 636.44 42.6
4 4 2 664.13 46.6
8 -4 2 570.84 38.8
4 4 2 597.04 41.9
-4 8 2 626.24 43.2
-8 4 2 665.33 49.6
-4 8 2 618.74 45.1
-4 8 2 603.34 41.3
-8 4 -2 587.64 48.5
-4 -4 2 662.13 56.29
-8 4 2 589.64 49.6
-4 8 -2 596.84 40.5
4 4 -2 610.64 42.8
4 -8 2 585.04 36.2
8 -3 2 212.28 26.6
-5 -3 -2 202.78 19.3
-8 3 2 159.08 31.1
5 3 -2 211.28 27.2
-8 3 2 199.08 21.2
-8 5 -2 209.18 32
-5 8 2 186.88 30.8
-5 8 2 220.08 30.2
5 3 -2 216.98 27.4
-3 -5 2 205.38 21.3
5 -8 2 189.18 19.9
-3 -5 2 237.18 39.5
3 5 2 207.48 27.7
-8 3 2 231.28 32.7
-3 8 -2 195.48 24.8
3 5 2 220.18 31.1
-3 8 -2 222.38 32.8
-8 5 -2 168.08 21.1
-5 8 2 227.38 28.2
-5 8 -2 210.28 28
-8 3 -2 229.28 24.3
3 -8 2 185.58 21.8
-3 8 2 228.38 32.1
-3 8 2 228.28 29.3
-5 8 -2 225.98 32
-8 5 2 181.48 23.6
-5 -3 2 154.18 18.8
8 -3 -2 241.28 27.4
-5 -3 2 235.98 40.7
5 3 2 242.08 29.3
-8 5 2 191.28 30.3
8 -5 2 215.08 22.5
-8 5 2 264.47 35.9
5 3 2 234.38 28.3
3 5 -2 216.68 26
3 5 -2 266.87 32.5
-3 8 2 244.78 29.7
-8 2 2 51.09 14.8
-8 6 -2 46.6 22.2
-8 2 2 69.09 26.8
-8 6 -2 26.8 14.3
8 -2 2 25.3 13.5
-6 8 2 38.7 17
-8 6 -2 54.39 25.5
-2 -6 2 64.09 29.5
-6 -2 -2 44.4 12.5
-6 8 2 44.7 19.9
8 -2 2 44.4 19.1
-8 2 2 21.8 26
2 6 2 65.59 19.8
6 2 -2 52.49 20.5
6 -8 2 43.8 13.7
-2 -6 2 43.7 11.9
-2 8 -2 66.69 23.2
-2 8 -2 40.9 17
-6 8 2 43.7 14.8
2 6 2 60.39 23.7
-6 8 2 56.39 23.7
2 6 2 56.89 19
6 2 2 67.49 22.6
-6 -2 2 58.49 27.8
-8 6 2 69.49 17.4
8 -6 2 43.6 14.3
2 -8 2 74.39 14.2
-8 6 2 35.5 18.7
6 2 2 79.29 20.1
-6 -2 2 49.4 14.7
2 6 -2 38.7 19.4
-2 8 2 74.49 23.4
-8 6 2 59.99 23.5
8 -2 -2 68.49 18.4
-6 8 -2 63.19 24.7
2 6 -2 69.29 20.8
-6 8 -2 29.2 12.5
-6 8 -2 35.5 19.6
-6 -2 2 29.4 10.1
-2 8 2 56.79 20.6
2 -8 2 42 22
-2 8 2 50.49 20.2
-8 2 -2 65.49 17.8
-8 1 2 343.97 51.09
-7 8 2 326.77 34.6
-8 1 2 354.96 41.3
-8 7 -2 312.07 28.9
-8 7 -2 324.67 40.1
1 7 2 345.67 33.9
7 1 -2 348.07 33
-1 -7 2 336.27 51.69
-7 8 2 343.37 38.4
1 7 2 341.47 39.8
8 -1 2 363.26 32.7
-7 8 2 296.47 27.4
7 -8 2 304.17 25.9
-8 7 -2 324.37 36.6
-1 8 -2 343.37 32.3
-8 1 2 326.57 27
1 7 2 349.47 34.8
-1 -7 2 331.07 25.8
-7 8 2 308.37 32.6
-1 8 -2 373.56 40.1
7 1 2 304.07 33.8
-7 8 -2 298.17 37.5
-8 1 -2 295.17 27.7
-7 -1 2 294.27 47.7
1 7 -2 356.76 35.3
8 -1 -2 326.47 34.6
-7 8 -2 270.77 27.7
-1 8 2 312.47 36.9
7 1 2 330.47 32.5
1 7 -2 332.37 32.4
-8 7 2 310.67 42.3
-8 7 2 302.57 28.7
1 -8 2 270.47 23.4
1 -8 2 293.97 46
-1 8 2 302.27 33.8
8 -7 2 327.87 28.1
-1 8 2 347.47 34.6
-7 -1 2 307.57 26
-7 8 -2 346.07 41.4
-8 0 2 1.5 12.6
-8 8 -2 3 15.4
8 0 -2 7.3 20.8
-8 0 2 -10.6 32.9
8 0 2 -0.5 19.1
-8 8 -2 8.6 24
8 -8 2 1.5 13.3
-8 8 -2 2.2 24.1
-8 0 -2 9.1 13.3
0 8 2 17.6 19.2
-8 8 2 -6.2 15.4
0 -8 2 -24.1 29.6
0 8 -2 -4.3 17.2
-8 8 2 -4.2 19.2
0 -8 2 -6.4 12.7
-8 8 2 2.4 22.5
8 0 2 3.7 17.6
-8 8 2 -5.5 14.9
0 -8 -2 4.8 9.7
0 8 -2 27.3 24.7
0 8 2 0.9 18.3
0 8 2 -7.4 20.9
-4 9 -2 53.29 23.5
9 -4 2 57.29 18.1
-5 9 2 55.19 23.4
-9 5 -2 46.4 25.4
9 -4 2 60.19 20.3
-9 4 2 53.29 14.2
-9 4 2 46.4 14.3
-9 4 2 32.3 25.5
-5 -4 -2 53.09 13.4
4 5 2 64.99 22.2
-4 -5 2 60.29 15.1
4 5 2 50.49 22.7
-9 4 2 62.29 30
5 4 -2 58.29 21.4
-5 9 2 49 20.5
9 -5 -2 61.99 21.4
5 -9 2 68.39 15.1
-5 9 2 36.6 18.4
-4 9 -2 30.8 18.2
-9 5 -2 37.2 14.8
-4 -5 2 43.1 31.3
5 4 -2 59.29 22
-9 4 -2 83.59 27.9
5 4 2 65.09 22.9
-4 9 2 64.59 22.7
-5 -4 2 60.89 14.8
9 -5 2 69.89 18.5
4 5 -2 59.79 23.8
-4 9 2 65.79 23.2
4 5 -2 62.49 20
-9 5 2 42.3 12.4
-5 -4 2 76.89 15.3
4 -9 2 76.59 16
-5 9 -2 37.6 20.7
-9 4 -2 59.79 15
9 -4 -2 63.99 21.7
-5 -4 2 41.4 29.5
-9 5 2 12.9 22
-9 5 2 36.4 26.3
-9 5 2 71.59 17.6
-9 4 -2 83.79 17.9
5 4 2 86.89 26.2
-4 -5 -2 71.89 15.3
-5 9 -2 49.5 24.1
-4 9 2 59.99 22
6 3 -2 430.66 39.5
-6 9 2 426.16 42.4
6 3 -2 385.66 35.8
-3 9 -2 392.06 38.9
3 6 2 359.76 34.5
3 6 2 404.26 36.8
-9 6 -2 360.76 31
-6 -3 -2 395.36 28.7
-9 6 -2 416.16 44.9
6 -9 2 358.46 27.4
-3 -6 2 368.56 50.79
-9 3 2 352.06 28.9
-9 3 2 392.46 49.5
-9 3 2 377.46 44
-3 -6 2 358.46 27.2
-6 9 2 366.96 36.3
-6 9 2 367.06 38.7
-6 9 2 333.27 28.8
-3 9 -2 333.47 32.8
9 -3 2 375.76 38.1
-6 -3 2 397.06 27.6
3 -9 2 408.56 29.4
-3 -6 -2 394.06 28.4
9 -6 2 398.36 32
-9 6 2 365.16 45.3
-6 9 -2 443.36 45.7
6 3 2 414.76 38.6
3 6 -2 419.46 38.8
-6 -3 2 311.07 49.9
9 -3 -2 415.96 34.8
-9 6 2 397.66 32.5
-3 9 2 424.46 36.7
6 3 2 358.66 34.6
3 6 -2 429.16 37.8
-6 -3 2 365.06 29.2
-3 9 2 403.46 38.7
-9 3 -2 386.16 30.4
-3 9 2 435.26 42.4
-2 -7 2 1344.27 89.89
-9 2 2 1416.86 90.19
7 -9 2 1336.87 69.39
-7 9 2 1276.27 77.49
-9 2 2 1250.07 68.89
2 7 2 1382.66 78.29
2 7 2 1325.07 83.79
-9 2 2 1277.07 82.79
-2 9 -2 1372.16 79.79
2 7 2 1304.97 77.49
-7 9 2 1378.46 71.59
9 -2 2 1390.36 78.69
-9 7 -2 1261.17 81.49
-2 -7 2 1287.17 68.29
-7 9 2 1363.56 81.29
7 2 -2 1300.77 76.39
-9 7 -2 1220.88 69.49
2 7 -2 1154.98 70.89
-2 9 2 1283.07 76.49
9 -2 -2 1281.47 72.69
-7 9 -2 1339.17 79.09
-2 9 2 1186.08 73.69
7 2 2 1275.27 75.99
9 -7 2 1239.38 65.49
-2 -7 -2 1210.58 64.29
2 -9 2 1227.58 63.89
7 2 2 1194.18 71.39
-9 7 2 1223.98 80.09
-7 -2 2 1320.97 90.39
-7 -2 2 1206.88 65.39
-9 2 -2 1321.37 67.69
2 7 -2 1302.27 75.09
-7 -2 2 1165.68 64.09
-2 9 2 1134.89 71.69
-7 9 -2 1195.18 65.99
-9 7 2 1134.69 65.49
8 1 -2 187.58 31.1
-8 9 2 250.27 28.6
1 8 2 265.57 36.2
-8 -1 -2 232.38 24.6
-1 9 -2 236.08 36.6
1 8 2 242.88 39.8
-8 9 2 137.89 28
-1 -8 2 243.78 23.3
9 -1 2 239.78 34.6
-9 1 2 228.08 24.6
-1 -8 2 223.48 42.5
-9 1 2 203.48 36.1
-9 8 -2 215.78 24.8
1 8 2 219.38 34.9
-9 1 2 177.78 40.9
-8 9 2 204.18 34.5
8 -9 2 225.58 23.5
-9 8 -2 227.28 36.6
1 -9 -2 224.38 21.4
9 -1 -2 247.58 32.4
-1 -8 -2 226.58 23.6
1 8 -2 195.58 30.2
9 -8 2 251.07 24.7
-8 9 -2 250.67 27.9
-8 -1 2 222.38 23.6
-1 9 2 273.67 42.3
1 -9 2 203.98 38.3
1 8 -2 253.47 35.9
-8 -1 2 184.98 38.7
8 1 2 240.78 33.9
-8 9 -2 258.57 41.8
-9 1 -2 237.08 26.5
-9 8 2 213.88 36.3
1 -9 2 238.28 22.1
-9 8 2 228.08 27.4
-1 9 2 240.98 32.9
-1 9 2 263.27 36.9
8 1 2 236.18 34.8
9 -9 2 201.38 23.9
-9 9 -2 173.48 36.7
-9 9 2 162.38 22.5
0 9 2 116.19 26.1
-9 0 -2 149.29 23.7
0 9 2 113.39 26.2
-9 0 2 71.19 33.8
9 0 2 148.19 30.3
0 -9 2 123.39 20.8
-9 9 2 111.09 30.8
0 9 -2 119.79 30
-9 9 -2 184.78 23.5
0 -9 -2 155.08 19.6
9 0 2 123.79 26.4
0 -9 2 105.89 32.2
0 9 2 105.49 29.7
-9 0 2 142.69 22.4
9 0 -2 139.69 28.9
-10 5 2 252.97 24.5
5 5 -2 267.07 33.4
-5 -5 2 227.18 24
-5 -5 -2 252.07 22.7
10 -5 2 239.78 26.2
10 -5 2 244.28 32.3
-5 -5 2 210.68 41.5
5 -10 2 270.87 24.9
-10 5 -2 242.68 26
-5 10 2 194.58 33
-5 10 -2 278.17 42.4
-10 5 2 250.07 26.9
-5 -5 2 273.47 24.8
-5 10 2 220.18 35.4
5 5 2 233.68 35.5
5 5 2 260.77 34.2
10 -5 -2 224.38 31.6
-10 5 -2 170.98 35
5 5 -2 247.08 32.4
-10 5 2 198.08 37.3
-5 10 2 244.68 37.1
-4 -6 2 63.49 15.8
4 6 2 66.19 23.6
-10 4 2 64.99 29.6
-6 10 2 63.19 28.4
-10 6 -2 52.29 15.4
-6 10 2 26.7 24.3
6 4 -2 44.2 22.3
-6 10 2 29.9 14.3
10 -6 -2 37.8 20.2
6 4 -2 57.19 24.1
-4 -6 2 52.29 36.3
10 -4 2 63.59 17.6
-6 -4 -2 59.49 14.7
-10 4 2 63.29 16.2
4 6 2 42.3 21.6
-4 10 -2 66.29 28.4
6 -10 2 74.09 16.2
-10 4 2 44.6 14.9
-10 6 -2 39.1 30.6
10 -4 2 54.99 23.8
-10 6 2 81.99 33.8
-6 -4 2 46.9 32
6 4 2 68.69 25.1
-6 -4 2 44.8 14.2
-4 10 2 45.7 24.1
4 -10 2 71.29 15.1
-6 -4 2 64.59 15.6
-4 -6 -2 78.49 16.2
4 6 -2 55.89 23.8
-6 10 -2 -6.9 21.7
10 -6 2 65.79 18.2
-6 10 -2 56.49 28.5
6 4 2 65.29 26.5
-10 6 2 67.99 18
-4 10 2 30.5 22.9
4 6 -2 49 21.6
-4 10 2 42.6 24.3
-10 6 2 48.1 13.5
-10 4 -2 72.89 18.3
-10 4 -2 54.19 15
10 -4 -2 35.4 19.4
-10 3 2 223.88 37.9
-3 -7 2 201.58 22
7 3 -2 204.28 32.4
-10 7 -2 199.58 24.7
3 7 2 192.68 36
-3 10 -2 233.48 37.4
3 7 2 256.27 34.5
10 -3 2 225.88 33.1
-3 -7 2 244.48 46.5
-7 10 2 148.59 31.4
-7 10 2 217.68 27.1
-7 -3 -2 225.48 22.3
7 3 -2 233.88 36.2
-10 3 2 197.78 23.5
3 7 2 217.48 31.8
7 -10 2 248.48 23.1
-3 10 2 201.38 32.8
-10 7 2 237.98 28
7 3 2 265.27 39.1
-3 -7 -2 242.08 23
-7 -3 2 220.88 44.2
-7 -3 2 241.18 24.1
-7 -3 2 225.88 23.8
-10 7 2 215.78 37.8
7 3 2 221.78 31.4
3 -10 2 249.38 24.3
-7 10 -2 264.07 40.3
-3 10 2 235.68 35.4
10 -3 -2 209.48 29.3
10 -7 2 238.48 25.2
-7 10 -2 234.08 26.3
-3 10 2 222.08 39.3
3 7 -2 222.78 34.2
-10 3 -2 254.37 27.5
-8 10 2 249.68 40.6
8 -10 2 327.47 28.7
2 8 2 237.28 33.9
-2 -8 2 271.47 24.4
-10 2 2 289.37 26.8
2 -10 -2 318.57 25.6
2 8 2 327.47 44.9
-2 10 -2 329.17 41.7
-2 -8 2 249.78 43.9
-10 2 2 313.47 48
-8 10 2 305.67 30.6
8 2 -2 263.97 38.7
-10 8 -2 310.87 30.2
10 -2 2 291.67 37
2 8 2 275.97 36.3
-8 -2 -2 283.07 26.8
-8 -2 2 218.88 44.1
-10 8 2 327.47 50.59
-8 10 -2 277.47 41.7
2 -10 2 286.57 24.6
-8 -2 2 300.27 25.4
-8 10 -2 294.57 29.1
8 2 2 295.47 37.7
10 -8 2 324.87 29.8
-2 10 2 269.27 37.7
-2 10 2 254.87 39.9
-10 8 2 310.47 28.2
-10 2 -2 336.47 30.3
2 8 -2 279.77 38.1
8 2 2 279.37 34.9
-8 -2 2 297.97 26
-2 10 2 270.87 43.1
-2 -8 -2 300.07 25.1
-10 1 2 140.59 21.6
-1 -9 2 122.29 18.3
9 -10 2 163.98 22.1
-10 9 -2 115.39 31.6
-9 -1 -2 133.39 22.6
-9 10 2 90.79 31.5
1 9 2 88.99 30
1 -10 -2 156.28 20.9
1 9 2 62.39 24.5
-10 9 -2 150.28 24.9
-9 10 2 166.38 22.5
1 9 2 104.19 26.1
-1 -9 2 100.69 33.1
10 -1 2 106.69 26.4
-1 10 -2 148.19 32.6
-9 10 -2 112.89 32.3
-1 -9 -2 147.89 22.7
-10 1 -2 144.79 22.1
10 -9 2 148.19 20.8
1 -10 2 172.78 20.7
-1 10 2 81.79 25.3
1 9 -2 108.79 31
-9 -1 2 137.79 20
-10 9 2 79.79 32.6
-9 10 -2 175.98 23.2
9 1 2 96.59 27.3
9 1 2 127.79 27.6
-1 10 2 78.19 30.2
-10 9 2 158.78 22.9
-10 10 2 -12.4 27.2
0 10 -2 -5.6 30.4
10 0 2 2.7 24
-10 0 2 7 14.6
10 -10 2 6.2 14.8
-10 10 -2 10.7 16.2
0 -10 -2 8.8 14.7
0 -10 2 16.3 13.7
-10 10 -2 0.7 27.8
-10 0 -2 2.6 14.1
0 10 2 1.2 23.2
10 0 2 -5.2 27.2
-10 10 2 17.9 16.3
0 10 2 12.6 26.8
5 6 2 119.29 26.3
-6 11 2 87.09 30.8
-11 5 2 175.68 22.3
6 -11 2 196.28 21.7
-5 11 -2 162.28 34.9
-5 -6 2 206.58 23.1
-5 -6 2 173.68 44.9
-11 5 2 177.58 25.3
-6 -5 -2 177.08 23.4
-11 5 2 173.38 39.4
11 -5 2 185.68 24.9
11 -5 2 213.58 34.4
6 5 -2 145.49 28.4
5 6 2 165.88 31.7
-11 6 -2 202.58 25.5
-5 -6 2 187.88 22
-6 -5 2 174.98 44.7
-11 5 -2 208.38 25.6
-11 6 2 209.98 23.4
-5 -6 -2 214.08 22.2
6 5 2 163.38 30.2
-6 -5 2 235.68 24.5
-6 -5 2 207.08 23.3
11 -6 2 234.88 27.8
5 -11 2 222.88 23.1
5 6 -2 158.68 29.8
6 5 2 183.08 33.3
11 -5 -2 158.18 24.5
-6 11 -2 230.48 42.3
-11 6 2 163.78 36.8
11 -6 2 212.28 33.4
-11 6 2 234.28 27.5
-11 4 2 281.27 26.7
-11 4 2 262.17 26.6
-11 7 -2 326.97 29.8
4 7 2 239.88 37.1
7 -11 2 313.67 27.1
-4 -7 2 174.08 41.1
-7 11 2 313.97 30
-4 11 -2 244.18 40.1
11 -4 2 275.37 40.1
11 -4 2 302.97 30.6
4 -11 -2 307.27 25.9
4 7 2 183.88 33.1
-4 -7 2 256.07 23.7
-7 -4 -2 315.47 25.2
4 7 2 252.97 43.5
-11 4 2 198.18 39.7
-7 -4 2 318.27 26.9
-7 -4 2 315.97 27.7
7 4 2 256.67 36.1
4 7 -2 200.38 35.6
11 -7 2 320.97 30.4
4 -11 2 316.47 27.1
-4 -7 -2 335.27 26.2
-11 7 2 285.17 25.5
-11 4 -2 307.17 27.9
-11 4 -2 330.77 30
-11 7 2 295.97 29.5
-11 7 2 214.88 39.4
-7 11 -2 301.87 44.9
7 4 2 275.67 39.3
-7 11 -2 300.47 27.2
-8 11 2 -8.2 27.6
-11 3 2 31.1 13.9
8 -11 2 47.9 15.8
-8 -3 -2 19.6 13.2
3 -11 -2 34.4 14.4
-3 -8 2 35.8 14.2
8 3 -2 5.4 23.9
8 3 -2 6.5 24.5
-11 8 -2 30.5 16.7
11 -8 -2 4.3 12.7
-3 -8 2 22.6 32
11 -3 2 23.7 24.7
-3 11 -2 4.7 31.2
-11 3 2 24 31.1
3 8 2 10.1 25.4
3 8 2 -2.7 23.2
3 8 2 24.3 31.9
-8 11 2 42.1 17.4
8 3 2 23.3 23.9
-3 -8 -2 35.9 13.9
-8 -3 2 31.4 14.9
-11 8 2 1.1 10.3
3 8 -2 -7.6 24.3
-3 11 2 0 30.6
-8 11 -2 36.9 16.2
3 -11 2 31 14.4
-11 3 -2 31.6 17.3
8 -11 -2 -3 10.6
8 3 2 21.1 25.1
-11 3 -2 -0.8 11.2
-8 -3 2 32.3 14.2
-8 -3 2 2.6 33.8
11 -8 2 43.7 16.2
-11 8 2 44.1 17.2
-8 11 -2 14.7 29.8
-3 11 2 -4 23.5
-11 8 2 -3.4 31.4
-11 1 2 266.17 27.6
-1 -10 2 273.57 26.4
1 -11 -2 283.77 28
-10 11 2 230.88 29.9
-11 10 -2 265.47 29.6
10 -11 2 268.87 28.5
-10 -1 -2 289.17 29.4
-11 10 2 263.97 30.4
-11 1 -2 271.47 29.6
-1 -10 -2 283.17 27.2
-10 -1 2 277.77 27.9
11 -10 2 293.17 28.2
1 -11 2 279.17 27.1
-10 11 -2 257.67 29.9
-11 0 2 7.5 13.5
-11 0 -2 16.1 16.8
-11 11 -2 9.6 15.2
11 -11 2 12.1 14.6
0 -11 -2 12.1 15.6
0 -11 2 13.9 14.1
11 -11 -2 1 13.2
-11 11 2 4.8 17.3
-6 -6 -2 13.9 14.9
6 -12 -2 -2.4 12
-6 -6 2 7.9 38
6 -12 2 5.5 15
-12 6 2 3.9 37.2
12 -6 -2 3.5 14.7
12 -6 2 4.5 14.8
-6 12 -2 0.1 35.6
12 -6 2 -2.1 27.2
-12 6 2 20.6 16.6
-12 6 2 4.6 13.5
-6 -6 2 -6.1 11.5
6 6 2 -2.2 26.4
-12 6 -2 2.3 15
-6 -6 2 8.5 13.7
5 -12 -2 147.49 23
-7 -5 -2 172.18 23.5
-5 -7 2 143.09 22
12 -5 2 168.68 28
-12 7 -2 193.28 26.2
-7 12 2 157.18 24.8
12 -7 -2 110.59 19.5
-12 5 2 144.29 22.2
7 -12 2 186.78 23.7
-12 5 2 161.48 25.7
-5 12 -2 -0.7 53.39
-12 5 2 14.5 60.89
-12 5 -2 111.89 19.8
-7 -5 2 158.68 20.6
12 -5 -2 128.69 22.3
-12 7 2 120.09 22
-12 7 2 191.88 24.8
-7 -5 2 139.29 21.3
-5 -7 -2 145.49 23
5 -12 2 172.28 21.4
12 -7 2 169.08 23.8
7 5 2 -0.6 50.29
8 -12 2 129.49 20.8
-12 8 -2 139.09 22.5
4 -12 -2 119.29 19.1
-12 4 2 110.89 19.6
-4 -8 2 88.39 16.8
-8 12 2 103.69 22.3
12 -4 2 119.69 21.5
-12 4 -2 96.59 18.5
-12 4 -2 62.19 16.7
-8 12 -2 82.09 18.9
12 -8 2 74.09 18.3
-8 -4 2 78.59 16.7
4 -12 2 96.09 18
-8 -4 2 74.09 17.8
-12 8 2 64.69 14.9
-12 8 2 95.59 21.1
-4 -8 -2 78.79 16.6
-12 3 2 146.49 23
-9 12 2 151.18 23.7
-9 -3 -2 131.19 23.8
-3 -9 2 132.89 21
-12 9 -2 126.89 20.6
3 -12 -2 150.88 23.9
9 -12 2 144.19 21.6
-9 -3 2 145.09 22.9
-9 -3 2 159.28 24.3
-12 3 -2 154.68 24.9
-12 9 2 181.78 24.8
-3 -9 -2 139.99 21.1
-9 12 -2 124.09 21.1
12 -9 2 226.28 26.5
3 -12 2 142.79 21.4
10 -12 2 58.59 16.8
2 -12 -2 55.99 16.6
-10 -2 -2 63.19 19.1
-12 2 2 96.29 19.9
-10 12 2 56.19 19.8
-2 -10 2 71.99 16.8
-12 10 -2 63.59 18.6
-10 12 -2 27.6 18.1
-10 -2 2 38.9 17.2
-12 10 2 46 19
10 -12 -2 -3.8 12.3
-2 -10 -2 28.9 16.5
-12 2 -2 31.8 17.7
2 -12 2 26.4 16.1
12 -10 2 33.6 18.4
-11 -1 -2 225.08 28.8
-11 12 2 223.98 31.1
1 -12 -2 231.08 27.2
-1 -11 2 205.48 23.9
11 -12 2 233.28 28.7
-12 11 -2 224.28 30
-12 1 2 220.38 26.7
12 -11 2 201.48 26.1
-11 12 -2 206.28 29.8
-1 -11 -2 216.08 26.1
-11 -1 2 185.38 25.4
-12 1 -2 222.78 28.2
1 -12 2 208.38 23.3
-12 11 2 201.58 29.4
12 -12 2 34 18.5
-12 12 -2 47.1 19.4
0 -12 -2 26.7 16.8
12 -12 -2 -0.7 14
-12 12 2 40.9 20
-12 0 2 35.4 17.8
0 -12 2 34.9 15.9
-12 0 -2 24.1 18
13 -7 -2 5.2 16.9
-13 6 2 20.3 16.9
7 -13 2 16 15.9
-13 7 -2 4.8 16.8
-13 6 2 1.3 13.6
-7 -6 -2 11.5 14.4
13 -6 2 13.9 17.9
-6 -7 2 -1.4 14.4
-6 -7 2 3.3 12.2
6 -13 -2 11.5 14.3
-13 7 2 6.9 13.7
-13 7 2 15.9 17
13 -6 -2 7.7 17.3
6 -13 2 18 14.9
-7 -6 2 16.3 12.9
-7 -6 2 1.1 14.3
13 -7 2 24.1 17.9
7 -13 -2 16.3 14
-6 -7 -2 10.6 13.4
-13 6 -2 19.3 17.9
-13 8 -2 95.99 21
8 -13 2 69.49 16.8
-13 5 2 68.19 18.1
13 -8 -2 41.6 17.8
-13 5 2 72.69 18.4
5 -13 -2 69.99 18
-5 -8 2 78.99 17.8
13 -5 2 79.49 20.1
-8 13 2 62.49 19.3
-8 -5 2 72.19 17.1
-13 8 2 75.49 19.6
8 -13 -2 47.2 15.6
5 -13 2 92.69 19.2
13 -5 -2 44.4 19.2
-8 13 -2 38.9 17.6
-5 -8 -2 67.19 17.3
-8 -5 2 87.99 19.7
-13 5 -2 71.79 19.2
13 -8 2 112.29 22.1
-13 8 2 49.9 15.8
4 -13 -2 399.36 33.5
-13 4 2 383.16 33.2
-9 13 2 427.16 37.2
9 -13 2 374.36 33.7
-4 -9 2 404.06 32.4
-13 9 -2 384.46 35.6
13 -4 2 378.26 36.5
-4 -9 -2 408.86 32.8
-13 9 2 401.36 35.7
-9 -4 2 398.06 33
13 -9 2 429.26 34.6
-13 4 -2 415.16 35.3
4 -13 2 411.36 33.7
-9 -4 2 442.16 35.3
-9 13 -2 439.26 35.5
-13 10 -2 230.38 28.6
-10 13 2 131.99 24.1
-10 -3 -2 151.68 27.4
-13 3 2 147.49 24.6
10 -13 2 172.88 24
3 -13 -2 145.39 22.1
-3 -10 2 145.79 23.8
-13 10 2 160.98 27.6
13 -10 2 243.08 29
3 -13 2 152.28 24.5
-13 3 -2 156.08 26.4
-10 -3 2 159.78 26
-3 -10 -2 148.49 24.3
-10 13 -2 207.88 27.6
-13 11 -2 22.5 18.5
13 -11 -2 8.1 14.7
2 -13 -2 17.6 16.3
-13 2 2 26.9 16
-11 13 2 18.4 18.5
11 -13 2 17.2 15.9
-2 -11 2 27.5 16.3
-11 -2 -2 23.2 18.1
-13 11 2 11.8 16.9
-11 13 -2 13.3 17.9
11 -13 -2 -5.6 13.7
-11 -2 2 25.5 17.5
-13 2 -2 6.7 15.8
2 -13 2 17.8 14.1
-2 -11 -2 17 16.3
13 -11 2 18.1 17
-13 12 -2 83.49 22.7
-1 -12 2 85.39 19.9
-12 -1 -2 61.49 20.3
1 -13 -2 51.19 19
-12 13 2 68.69 21.9
12 -13 2 55.79 18.8
-13 1 2 71.09 19.2
13 -12 2 31.7 18.8
-13 12 2 28.2 19.6
1 -13 2 28.9 15.5
-13 1 -2 44.4 19.3
-12 13 -2 20.2 18.6
12 -13 -2 -4.8 13.9
-12 -1 2 29.3 17.1
-1 -12 -2 27.6 16.8
0 -13 2 4.2 16.1
-13 0 2 5.1 15.5
-13 13 -2 8.3 19.4
-13 0 -2 -12 17.4
-13 13 2 12 17.6
13 -13 2 5.2 18.6
0 -13 -2 10.1 18.1
13 -13 -2 -3.4 22.2
-7 -7 -2 14.5 15.4
14 -7 2 8.2 17.4
14 -7 -2 1.7 19.4
-14 7 -2 7 18.2
-7 -7 2 1.3 16.3
-14 7 2 9.1 14.5
7 -14 -2 4.9 15.3
-7 -7 2 3.9 13.7
-14 7 2 6.4 16.4
7 -14 2 18.2 15.9
-14 6 2 94.09 19.4
14 -8 -2 97.09 21.1
-8 -6 -2 148.79 24.8
-14 8 -2 187.38 26.4
14 -6 2 197.08 27.7
-14 6 2 153.68 23.4
8 -14 2 139.99 21.1
-6 -8 2 164.08 22.4
6 -14 -2 137.59 21.9
-14 8 2 154.28 24.1
-8 -6 2 157.98 24.5
6 -14 2 135.19 19.9
14 -8 2 112.49 21.6
-14 8 2 110.29 20.2
8 -14 -2 74.19 17.6
-14 6 -2 132.99 23.4
14 -6 -2 85.29 22.1
-6 -8 -2 132.69 21
-8 -6 2 109.29 20
-14 9 -2 136.29 24.4
-14 5 2 39 17.8
-14 5 2 90.79 20.1
-9 14 2 63.99 20.9
9 -14 2 94.19 19.5
5 -14 -2 88.99 19.7
14 -9 -2 44.4 19.1
-5 -9 2 98.29 19.8
14 -5 2 138.49 25.7
5 -14 2 67.09 17.5
-14 9 2 49 16
-9 -5 2 72.19 17.5
-5 -9 -2 80.09 18.6
-9 14 -2 60.49 20.4
-14 5 -2 64.29 19.3
-9 -5 2 63.39 19.3
-14 9 2 59.79 18.2
9 -14 -2 37.5 15.7
14 -9 2 61.79 19
14 -5 -2 50.39 21.1
-10 14 2 102.39 23
-14 4 2 92.79 19.3
-14 10 -2 111.49 22.7
4 -14 -2 100.09 21
14 -4 2 144.99 27
-4 -10 2 96.79 18.3
10 -14 2 82.99 19.1
-10 -4 2 149.99 24.5
-10 14 -2 103.09 22.6
-14 10 2 115.09 21.8
14 -4 -2 108.49 25.5
4 -14 2 137.59 22.1
14 -10 2 100.49 21.4
-4 -10 -2 103.39 20
11 -14 2 278.37 31.8
-11 14 2 260.07 33.6
-3 -11 2 263.37 28.7
-14 11 -2 259.97 32.9
3 -14 -2 282.57 31.5
-11 -3 -2 275.77 31.4
-14 3 2 267.57 29.9
-11 14 -2 220.98 33.9
-14 11 2 205.08 29.9
3 -14 2 231.18 28.2
-11 -3 2 229.18 30
14 -11 2 219.38 31.8
-14 3 -2 193.08 28.7
-3 -11 -2 221.68 29.1
14 -12 -2 -0.4 18.7
-12 14 2 62.79 20.9
-14 2 2 54.29 17.5
2 -14 -2 47.6 20.2
-12 -2 -2 41.2 20.2
-14 12 -2 76.39 23.1
12 -14 2 84.79 21.8
-2 -12 2 59.29 18.1
-12 -2 2 54.39 19.6
12 -14 -2 -3.8 19.3
2 -14 2 48.2 18.4
-2 -12 -2 34.4 17.9
-12 14 -2 45.6 20
-14 12 2 46.5 19.6
-14 2 -2 27.9 16.8
14 -12 2 67.59 21.6
-14 13 -2 16.3 20.2
13 -14 2 20.4 17.6
-1 -13 2 24.9 17.8
-14 1 2 24.2 17.8
-13 14 2 12.9 19
1 -14 -2 4.1 18.5
-13 -1 -2 21.5 19.7
-14 1 2 -1.2 12.2
-14 1 -2 20.1 18.9
14 -13 2 33.2 20.2
-13 -1 2 31.5 18.6
-1 -13 -2 39.2 20.7
1 -14 2 28.9 18.1
-13 14 -2 35.4 21.1
-14 13 2 17.6 18.2
0 -14 -2 52.79 20.7
-14 14 -2 36 21.6
-14 14 -2 -0.5 13.5
0 -14 2 43.9 19.6
14 -14 2 42.9 20.9
-14 14 2 29.4 20.1
-14 0 2 18.8 11.4
-14 0 2 33.7 18.9
-14 0 -2 28.3 19.4
-14 14 2 4.1 14.1
-7 -8 2 249.28 28.3
-15 8 -2 253.47 34.9
15 -7 2 249.68 33.4
7 -15 -2 235.08 28.5
-15 7 2 258.67 30.8
-15 7 2 213.78 28.9
8 -15 2 241.98 27.4
15 -8 -2 218.98 32.9
-8 -7 -2 221.78 28.8
-7 -8 -2 284.17 29.5
7 -15 2 274.37 29.7
-15 8 2 259.07 32.4
-15 8 2 239.08 28.8
-8 -7 2 258.37 27.4
15 -7 -2 242.78 33.9
8 -15 -2 200.88 28.4
15 -8 2 260.07 32.6
-15 7 -2 282.57 34.2
-8 -7 2 224.28 30.6
6 -15 -2 53.29 18.4
15 -9 -2 37.6 20
-15 6 2 71.19 20.3
9 -15 2 75.89 18.9
-6 -9 2 96.39 19.6
-15 6 2 73.59 18.5
-15 9 -2 83.29 22.2
15 -6 2 112.49 24.3
15 -6 -2 97.99 24
-15 9 2 135.89 24.4
15 -9 2 133.09 25.7
-6 -9 -2 125.09 22.3
-15 9 2 101.69 19.8
-9 -6 2 122.99 22
-9 -6 2 84.09 21.3
-15 6 -2 83.79 21.3
6 -15 2 146.79 23.6
-15 5 2 352.36 33.9
10 -15 2 384.86 35.6
-10 15 2 320.27 37
-5 -10 2 366.76 31.3
15 -5 2 380.96 39.9
-15 10 -2 366.56 37.2
5 -15 -2 361.26 34.9
5 -15 2 436.56 35.4
15 -5 -2 408.06 39.6
-10 -5 2 390.26 37.1
15 -10 2 398.46 37.9
-15 10 2 372.16 36.1
-5 -10 -2 393.16 34.5
-10 15 -2 328.77 37
-15 4 2 155.38 26.7
4 -15 -2 153.68 23.7
11 -15 2 183.68 26.3
15 -4 2 157.78 26.6
-4 -11 2 190.18 25.4
-15 11 -2 174.68 29.2
-11 15 2 129.39 25.1
-11 15 -2 209.48 36.1
-11 -4 2 195.48 31
15 -4 -2 227.08 34.8
4 -15 2 224.98 28.6
15 -11 2 228.48 30.1
-15 11 2 221.28 31.2
-4 -11 -2 206.28 28.4
15 -3 2 159.28 26.6
-15 12 -2 190.58 28.1
-15 3 2 168.38 27.8
3 -15 -2 157.08 25.7
-12 15 2 194.48 29.1
-12 -3 -2 111.89 24.1
12 -15 2 206.48 28.7
-3 -12 2 172.88 24.2
-12 -3 2 206.28 31.1
-12 15 -2 233.98 37.6
3 -15 2 216.08 29.6
15 -12 2 215.48 32.8
-15 12 2 178.98 31
-3 -12 -2 198.18 29.6
-2 -13 2 92.49 21.6
-15 2 2 76.99 21
13 -15 2 73.29 21
-15 13 -2 88.19 17.3
-13 15 2 91.39 24.2
-15 2 2 65.09 14.4
-13 -2 -2 84.89 22.9
2 -15 -2 81.99 23.2
-15 13 -2 84.59 23.9
15 -13 2 114.89 24.9
-2 -13 -2 77.69 20.9
2 -15 2 128.29 22.7
-15 13 2 149.69 25.7
-13 -2 2 153.28 25.2
-13 15 -2 104.29 26.6
15 -2 -2 106.19 17.5
-15 13 2 95.49 17.3
-1 -14 2 156.58 25.5
-15 1 2 143.09 18
-14 -1 -2 99.79 23.9
-15 14 -2 118.59 27.1
-14 15 2 111.39 18.9
-15 14 -2 137.99 20.7
-14 15 2 90.29 23.3
-15 1 2 105.59 22.3
14 -15 2 131.29 25.4
1 -15 -2 96.49 23.8
-15 14 2 124.89 25.6
-15 14 2 120.69 19.7
1 -15 2 93.39 20.9
-14 -1 2 117.29 24.1
15 -14 2 89.99 22.9
-1 -14 -2 74.69 21.7
-14 -1 2 81.89 14.7
-14 15 -2 130.69 28.7
0 -15 -2 52.69 22.4
-15 15 -2 52.19 16.1
-15 15 2 49.8 23
-15 15 2 44.3 17.5
-15 15 -2 62.59 24
-15 0 2 38.6 14.1
-15 0 2 53.69 21.1
15 -15 2 44.7 21.4
-15 0 -2 18.8 12.4
0 -15 2 67.29 21.9
0 -15 -2 48.8 12.3
-16 8 -2 22.9 20.6
-16 8 2 16 19.1
-8 -8 2 35 17.9
16 -8 2 32.2 19.7
-8 -8 -2 42.6 18.7
-8 16 -2 -20.2 13.8
-16 8 -2 1.1 15.4
8 8 -2 -2.1 13.6
-8 16 2 3.8 20.9
-8 -8 -2 12.4 10.4
8 -16 -2 11 16.1
8 -16 2 32.8 18.1
16 -8 -2 22.1 20
16 -8 -2 4.7 12.1
-16 8 2 29.8 17.7
16 -7 2 224.68 33.1
7 -16 -2 177.38 28.5
-7 -9 2 230.48 28.1
-7 16 -2 143.19 21.1
-9 -7 -2 136.59 19
-7 -9 -2 146.99 17.9
7 9 -2 188.08 22.5
16 -7 -2 140.09 17
-6 -10 2 81.19 17.8
16 -10 -2 9.5 29.7
-6 16 -2 85.59 20
16 -6 2 117.59 26.4
-16 6 2 142.39 24.7
-16 10 -2 167.18 28.2
10 -16 2 126.99 23.1
6 -16 -2 84.39 21
-6 16 2 54.39 18.9
6 10 -2 60.99 15.2
16 -6 -2 38.3 12.4
6 -16 2 54.69 17.8
16 -10 2 116.59 26.1
-6 -10 -2 84.79 20.8
-16 6 -2 9.6 16.8
-6 -10 -2 38 11.6
-10 -6 2 72.29 22.9
16 -6 -2 61.99 23.3
-16 6 -2 55.89 13
-16 10 2 82.59 22.1
-16 5 2 47.5 13.4
-11 16 2 62.29 21.8
16 -5 2 86.89 25
-16 11 -2 59.09 15.8
-16 11 -2 88.69 22.8
-5 -11 2 74.39 19.6
-16 5 2 73.69 20.2
5 -16 -2 72.59 21.1
-5 16 -2 101.79 20.8
11 -16 2 79.59 22.2
-5 -11 -2 71.49 13.1
-11 -5 2 116.99 25.2
-16 5 -2 85.49 14.9
-5 16 2 77.19 19.3
5 11 -2 72.79 15.5
16 -5 -2 74.59 24.5
16 -11 2 131.79 25.9
-16 11 2 137.99 25.9
-5 -11 -2 119.79 23.5
16 -5 -2 58.49 14
-16 11 2 65.09 14.9
12 -16 2 223.68 32.9
-16 12 -2 189.08 23.6
4 -16 -2 219.48 33.5
16 -4 2 261.77 37.8
-16 4 2 215.78 30.3
-16 4 2 172.78 21.9
-4 16 -2 193.78 26.6
-12 16 2 202.78 34.5
-16 12 -2 240.48 36.2
-4 -12 2 225.28 28.5
4 -16 2 273.47 30.8
16 -4 -2 286.17 38.1
-16 12 2 262.17 33.4
-4 -12 -2 163.98 19.8
16 -4 -2 205.38 25
4 12 -2 187.98 23.5
-12 -4 2 253.87 34.1
-16 12 2 183.28 23.7
-16 4 -2 199.88 21.3
-4 16 2 203.38 30.7
-4 -12 -2 258.77 31.9
16 -12 2 282.27 36.3
-12 16 -2 270.57 38
16 -13 -2 39.6 13.2
-16 3 2 116.19 17.5
-3 -13 2 127.59 24.1
-3 16 -2 91.99 19.7
-13 16 2 105.19 25
13 -16 2 64.49 21.3
-16 13 -2 76.69 17
3 -16 -2 70.09 22.5
16 -3 2 79.99 24.6
-16 13 -2 106.69 26
-13 -3 -2 43.9 20.7
-16 3 2 76.29 21.6
-16 13 2 92.19 18.7
-16 13 2 63.79 22.1
16 -3 -2 58.29 24.8
3 -16 2 87.99 21.4
-3 -13 -2 54.69 12.9
-3 16 2 57.39 20.5
-13 -3 2 86.79 23.7
-16 3 -2 91.89 16.1
-3 -13 -2 96.89 23.3
3 13 -2 60.69 16.4
16 -3 -2 42.3 15.3
16 -13 2 105.49 25.8
-13 16 -2 88.89 26.3
16 -14 -2 70.69 13.9
16 -2 2 115.69 30.1
-2 -14 2 101.69 21.5
2 -16 -2 49.3 11.6
-16 2 2 101.29 23.7
14 -16 2 68.39 24.3
-2 16 -2 61.19 19.9
-14 16 2 52.59 17.1
2 -16 -2 73.69 23
-16 2 2 81.49 15.7
-14 16 2 82.89 24.2
-16 14 -2 76.79 17.2
-16 14 -2 73.89 23.9
-16 14 2 84.49 22.4
-16 14 2 142.79 21
2 -16 2 85.59 21.5
-2 -14 -2 126.39 25.4
-2 -14 -2 86.19 14.1
-14 -2 2 96.09 15.9
2 14 -2 54.89 15.5
-14 16 -2 64.09 16.1
16 -2 -2 85.89 18
-14 -2 2 77.09 22.6
-14 16 -2 139.49 29.5
16 -14 2 140.19 27.8
-16 2 -2 77.09 15.5
-2 16 2 92.59 20.9
-16 15 -2 18.1 22.5
15 -16 2 18.7 21.8
-15 -1 -2 9.8 12.8
1 -16 -2 18.2 20.4
16 -15 -2 12 11.2
-16 1 2 12.3 19.4
-1 -15 2 22.4 19.3
-1 16 -2 -5.4 16.4
1 -16 -2 13.6 11.1
-16 1 2 7.6 13.6
-16 15 -2 21.6 15.1
-15 16 2 35.4 17.2
-15 16 2 16.8 21.5
-15 -1 2 7.1 18.9
-15 16 -2 22.7 22.6
-16 15 2 16.6 20.9
-15 16 -2 15.4 14.8
-1 -15 -2 32.5 21.9
16 -15 2 34.6 22.6
-16 15 2 21.9 16.6
1 15 -2 9.8 13.7
-15 -1 2 27 14.7
1 -16 2 18.3 20.3
16 -1 -2 29.7 15.7
-16 1 -2 24 13.8
15 -16 -2 9.7 11.6
-1 -15 -2 13.1 11.9
-1 16 2 31.5 17.9
16 -16 2 -1.9 20.5
-16 0 2 23 19.2
0 -16 2 14.1 18.6
-16 16 -2 -8.2 20.7
16 -16 -2 10 11.5
0 16 -2 -12.5 15
0 -16 -2 4.3 11.4
0 -16 -2 -8.8 19.1
-16 0 -2 10.1 13
0 16 2 -1.5 15
-16 16 2 2.4 19.4
-16 16 2 -2.5 15.7
-16 0 2 16.3 14.8
-16 16 -2 6.7 14.5
16 0 -2 12.9 15.5
17 -9 -2 203.18 23.6
-8 -9 2 245.18 31.1
17 -8 2 273.27 36.7
9 8 -2 197.78 25.6
-9 -8 -2 184.58 22.2
-17 9 -2 205.08 20.8
-17 8 2 259.77 31.5
-9 17 2 184.58 27
9 -17 2 287.47 32.6
-17 9 -2 286.17 35.9
-8 17 -2 196.58 29.9
-17 8 2 237.18 31.8
-17 8 -2 157.78 20.2
-8 17 2 226.28 26.6
8 -17 2 239.68 31.7
17 -9 2 217.58 34.9
-17 9 2 135.69 25
-9 -8 2 211.38 28.8
-9 17 -2 184.28 23
8 9 -2 172.88 21.4
17 -8 -2 153.78 19.4
-17 8 -2 219.78 33.4
-8 -9 -2 160.68 21.4
17 -10 -2 41.1 14.3
10 -17 2 51.39 19.6
-17 10 -2 10.2 10.9
-17 7 2 40 12.9
-17 7 2 38.1 19.3
-17 10 -2 55.69 22.7
10 7 -2 23.7 15.7
-17 10 -2 18.4 12
-7 17 -2 81.29 21.8
17 -7 2 31.9 20.9
-7 -10 2 43.5 17.9
7 -17 -2 -0.6 17.5
7 -17 2 94.29 22.6
-10 17 -2 63.39 17.7
-7 -10 -2 58.29 19
-7 -10 -2 66.99 13.7
-17 10 2 92.79 22.9
-7 17 2 65.49 19.7
17 -7 -2 90.49 16.3
7 10 -2 108.09 19.4
-17 7 -2 63.19 14.4
17 -10 2 147.99 28.5
17 -7 -2 4 20.8
-17 11 -2 232.48 24.7
17 -6 2 342.77 40.5
-17 6 2 316.47 35.7
-6 -11 2 343.57 33.5
-6 17 -2 277.07 33.8
-17 11 -2 351.56 39
11 -17 2 353.56 36
-17 6 2 278.77 24.3
17 -11 -2 235.58 24.4
6 11 -2 282.27 27.2
-6 -11 -2 266.17 24.2
-17 11 2 326.37 36.1
-17 6 -2 276.97 24.1
-6 17 2 272.37 33.7
-11 -6 2 239.28 34.3
-17 11 2 277.07 25.6
17 -6 -2 283.57 25.6
-17 12 -2 120.69 26.1
-17 5 2 117.29 18
-17 5 2 144.39 27.2
12 -17 2 118.39 25.2
17 -12 -2 103.29 17
17 -5 2 184.38 31.9
-5 17 -2 168.88 25.4
-5 -12 2 155.48 24.5
-17 12 -2 131.59 19.5
-17 12 2 60.49 20.9
17 -5 -2 17.1 23.9
-17 12 2 95.39 18.7
-5 17 2 129.99 23.6
-5 -12 -2 82.79 14.4
-17 5 -2 66.59 14.2
17 -5 -2 97.29 16.5
-5 -12 -2 88.39 23.3
5 12 -2 57.19 16
17 -12 2 107.69 26.9
5 -17 2 132.79 24.9
-12 -5 2 59.49 21.2
-17 4 2 87.19 16.1
-4 -13 2 66.29 20.4
-4 17 -2 107.29 23.2
17 -4 2 76.99 15.8
4 -17 -2 40.1 11.5
17 -4 2 111.19 29.1
4 -17 -2 8 21.3
-17 13 -2 94.49 25.4
-17 4 2 85.49 23.6
-17 13 -2 59.29 16.1
17 -13 -2 70.39 15.9
13 -17 2 67.99 22.8
-13 17 2 63.09 21.4
-4 -13 -2 89.19 14.8
4 13 -2 71.39 16.7
17 -4 -2 28.1 25
-17 13 2 76.69 18.2
17 -4 -2 88.99 16.8
-4 -13 -2 77.39 21.6
17 -13 2 71.89 23.9
-4 17 2 67.99 20.9
-13 17 -2 43.3 23.3
-17 4 -2 87.69 15.2
4 -17 2 82.29 21
-17 13 2 109.59 24.9
-13 -4 2 83.79 23.5
17 -3 2 73.49 16.8
-17 14 -2 100.49 17.6
-14 17 2 63.79 16.9
3 -17 -2 1.4 20.5
-14 17 2 61.59 22.5
3 -17 -2 46 12.1
-17 14 -2 73.89 23.9
-3 17 -2 135.59 23.8
-3 -14 2 56.79 19.2
-17 3 2 60.29 20.8
-17 3 2 101.99 17.2
17 -14 -2 63.69 14.7
14 -17 2 70.19 24
17 -3 2 64.29 27.2
-3 -14 -2 66.39 22.3
3 14 -2 57.89 16.4
-17 14 2 82.69 23.4
-17 3 -2 69.19 15
-3 17 2 80.69 20.4
-17 14 2 60.99 17.3
-3 -14 -2 83.09 15
3 -17 2 81.39 21.6
17 -3 -2 11.4 24.1
17 -3 -2 92.39 17.9
-14 -3 2 76.89 15.7
-14 17 -2 65.59 23.1
17 -14 2 124.89 27.6
-14 -3 2 103.69 25.1
-2 -15 2 21.9 18.3
2 -17 -2 18.8 11.4
2 -17 -2 1.4 20.2
17 -2 2 26.9 25.2
-17 15 -2 37.8 22.7
-15 17 2 27.4 17.2
-17 15 -2 31.8 14.5
17 -15 -2 9.1 12.1
-15 17 2 23.3 21.7
15 -17 2 35.5 23.3
-17 2 2 14.4 19.2
-17 2 2 35.8 14.6
-2 17 -2 22.8 18.3
-15 -2 -2 -2 12.4
-17 2 -2 23.3 13
-2 17 2 15.5 17.6
-2 -15 -2 16.2 19.9
17 -15 2 27.8 22
2 -17 2 32 21.2
-2 -15 -2 26.4 12.1
-15 -2 2 7 19.3
-15 17 -2 15.9 14.4
-17 15 2 44.3 21.8
15 -17 -2 19.2 12
17 -2 -2 3.1 23.6
-15 17 -2 28.1 22.8
17 -2 -2 24.4 15.4
-15 -2 2 52.29 16
-17 15 2 31.8 16.9
2 15 -2 34.6 15.9
-16 -1 -2 31 13.2
1 -17 -2 2 29.1
1 -17 -2 28.4 11.9
-1 -16 2 52.49 22.6
-16 17 2 18.5 22.7
17 -16 -2 39 12.7
-17 16 -2 26.6 20.6
-17 1 2 25.6 19.9
-1 17 -2 32.3 17.2
-17 1 2 50.59 15.3
16 -17 2 20 21.8
-17 16 -2 40.9 14.1
-16 17 2 45.3 17
17 -1 2 30.2 26
-17 16 2 29.4 21.7
-1 17 2 21.6 17.4
-17 16 2 41.5 16.3
-16 -1 2 22.2 19.6
-17 1 -2 27.2 12.7
-16 17 -2 35.6 15.3
17 -1 -2 22.1 15
1 -17 2 13 19.1
-1 -16 -2 23.8 12
17 -16 2 33.7 21.8
1 16 -2 32.9 15.5
-16 -1 2 56.29 16.6
16 -17 -2 29.4 12.6
-16 17 -2 26.8 22.2
-1 -16 -2 -0.2 20.5
-17 0 -2 6.3 11.8
0 17 -2 4.2 14.4
17 -17 -2 7.1 11.9
-17 17 2 1 20.3
-17 17 -2 14 13.3
0 -17 -2 10.1 11.3
17 -17 2 -3 21.8
0 -17 2 19.3 20.1
-17 0 2 7.7 19.1
-17 0 2 19.3 13.7
17 0 -2 13 15.3
-17 17 -2 3.5 20.6
-17 17 2 19.1 15.5
0 17 -2 -16.1 13.5
17 0 2 10.9 24.1
0 17 2 3.6 15.7
18 -9 2 46.8 24.8
-9 -9 2 36.1 17.8
-18 9 -2 40.6 14.1
-18 9 -2 46.9 21.4
-9 18 2 34.6 18.3
-18 9 2 -0.2 11.7
-9 -9 -2 45.4 14.1
9 9 -2 26 16.3
9 -18 2 47 21.7
18 -9 -2 38.2 14.7
-18 9 2 29.9 20
-9 18 -2 62.69 19.6
-18 10 -2 159.38 27.2
-8 -10 2 185.38 30.8
-18 8 2 179.58 29.7
-18 8 2 160.48 21.6
-8 18 -2 162.68 23.4
-10 18 2 204.58 24.7
-18 10 -2 155.78 21.3
18 -10 -2 162.58 23.5
-18 10 -2 126.49 19.9
18 -8 2 234.98 33.2
10 -18 2 148.59 24.8
10 8 -2 174.68 21.4
-8 18 2 232.48 25.9
18 -10 2 233.28 35.7
-18 10 2 141.89 19.3
-18 10 2 206.88 34
-8 -10 -2 164.38 22.1
8 -18 2 208.58 32.8
8 10 -2 238.28 24.4
10 8 2 133.89 19
-18 8 -2 143.99 19.8
18 -8 -2 161.08 23.6
-10 18 -2 155.38 22.3
-7 18 -2 82.09 21.5
18 -11 -2 30.8 13.3
11 7 -2 36.2 16.3
18 -7 2 54.99 24.8
-18 7 2 55.89 20.9
-11 18 2 31.5 16.5
-7 -11 2 69.09 21.4
-18 11 -2 34.4 20.9
11 -18 2 55.59 21.2
-18 7 2 44.3 13.8
-18 11 -2 39.8 13.5
-18 11 -2 38.7 13.8
7 -18 -2 4.8 10.1
18 -11 2 47.7 23.9
-18 11 2 64.39 22.7
7 11 -2 77.39 17.5
-7 18 2 60.39 19.7
18 -7 -2 53.29 15.1
-7 -11 -2 65.49 21.2
-18 7 -2 79.49 15.1
-18 11 2 54.49 16.9
-11 18 -2 42.5 17.7
7 -18 2 54.29 20.7
-7 -11 -2 37.5 13.3
-18 12 -2 49.8 14.9
18 -6 2 40.2 24.1
-18 6 2 54.09 15.1
18 -12 -2 36.5 14.3
18 -6 2 19.5 12.1
12 -18 2 29.3 20.5
-18 12 -2 4 9.5
-18 6 2 43.4 20.9
-12 18 2 -15.4 14.3
6 -18 -2 25.2 11.8
12 6 -2 25.1 14.4
-18 12 -2 63.89 23.1
-6 -12 2 53.39 20.5
-6 18 -2 82.49 21.3
-12 18 -2 40 15.5
-6 -12 -2 65.09 14.8
-18 12 2 32.9 16.1
6 -18 2 73.39 21.9
-6 -12 -2 58.09 21.7
-6 18 2 74.19 20.3
-18 6 -2 53.29 14.4
-18 12 2 49.3 21.8
18 -12 2 41.7 24.5
6 12 -2 84.39 18.5
18 -6 -2 61.09 15
13 5 -2 7.5 12
18 -5 2 34.9 25.4
5 -18 -2 7.2 10.6
-18 13 -2 29.3 21.2
13 -18 2 21 20.6
18 -5 2 17.6 13.2
18 -13 -2 15.6 14.3
-18 5 2 18.7 20.4
-5 -13 2 16.9 16.9
-18 13 -2 21.5 13.9
-18 5 2 21.1 13.2
-5 18 -2 29.3 18.9
-18 5 -2 37.2 13.4
-13 -5 2 0.6 12.7
-5 18 2 30.8 17.5
18 -5 -2 40.1 13.6
-5 -13 -2 36.1 12.6
-5 -13 -2 30.6 21.2
5 -18 2 42.2 19.6
-18 13 2 31.6 21.7
5 13 -2 39.8 15.9
-18 13 2 32.2 16.5
18 -13 2 24.8 24.5
13 -18 -2 16.9 11.2
-13 -5 2 0.9 20.5
14 -18 2 20.8 22.8
4 -18 -2 20.2 11.3
-14 18 2 -0.2 14.4
18 -4 2 24.4 23.6
-4 18 -2 39.7 19.1
-4 -14 2 48.2 20.8
18 -14 -2 27.4 13.6
-18 4 2 24.7 20.4
-18 14 -2 46.5 14.9
-18 4 2 47.2 14.3
-18 14 -2 30.2 21.1
18 -4 2 22.5 14.5
-14 -4 2 6 19.3
-4 -14 -2 10.8 20.8
-4 -14 -2 21.4 12
18 -4 -2 33.5 14.5
4 -18 2 17.3 19.5
-14 18 -2 -4.8 15.8
-14 -4 2 34.2 15.6
-18 14 2 34.6 20.9
18 -14 2 11.7 22.1
-18 4 -2 37.8 13.8
4 14 -2 25.6 15.3
-18 14 2 45.1 16.7
-4 18 2 18.4 17.4
14 -18 -2 16.3 11.3
-18 15 -2 45.6 14.5
-18 3 2 45.7 13.7
-18 15 -2 39.9 22
-3 -15 2 25.2 20
18 -15 -2 33.9 12.9
-3 18 -2 51.59 19.7
18 -3 2 34.7 15.1
3 -18 -2 35.4 12.3
-15 18 2 -4.7 21.1
-15 18 2 39.4 17.1
-18 3 2 35.8 21.4
18 -3 2 22.9 25.2
15 -18 2 27.4 23.5
15 -18 -2 16.7 11.3
-3 18 2 32.2 17.3
-15 -3 2 11.5 19.7
-18 15 2 6 20.5
3 -18 2 24.7 19.5
-18 3 -2 40 13.1
-3 -15 -2 1.1 19.9
-3 -15 -2 18.5 11.8
-15 -3 2 22.9 15.5
3 15 -2 31.5 15.2
-15 18 -2 29.7 15.3
18 -3 -2 31.9 14.1
18 -15 2 25.3 23
-18 15 2 37.2 16.5
-16 18 2 -3.3 20.1
-16 -2 -2 34.7 13
16 -18 2 15.4 20.8
-16 18 2 31.6 16.5
-18 2 2 38.9 21.2
-18 2 2 44.6 13.9
18 -2 2 41.6 24.8
18 -2 2 39.4 14.6
2 -18 -2 28.7 11.9
-18 16 -2 68.69 15.5
18 -16 -2 41.4 12.9
-2 -16 2 38.4 20.5
-18 16 -2 54.39 22.4
-2 18 -2 45.7 17.6
-18 2 -2 56.99 14.7
-16 -2 2 69.29 17.1
16 -18 -2 34 12.4
-2 -16 -2 44.1 13
-16 18 -2 1.6 24.9
-2 18 2 46.8 17.6
-18 16 2 43.8 17
-16 -2 2 19 18.8
-16 18 -2 41.7 15
2 16 -2 37 15.9
18 -16 2 19.6 20.5
2 -18 2 46.4 21.4
-18 16 2 37.9 22.5
18 -2 -2 41.7 14.8
18 -17 -2 11.2 11.7
-18 17 -2 12.3 20
17 1 -2 13.7 15.1
-18 1 2 -3.4 18.6
-17 -1 -2 -2.4 11.6
-18 17 -2 16.1 13.3
-17 18 2 -3.5 20.2
18 -1 2 20.4 13.8
-17 18 2 18.6 15.4
-1 -17 2 0.8 18.2
-18 1 2 11.6 12.7
1 17 2 -13.9 12
1 -18 -2 15.7 11.6
-1 18 -2 19.7 15.8
18 -1 2 8.8 25.4
18 -1 -2 4.1 14
1 -18 2 7 19.5
-1 -17 -2 21.7 12.2
1 17 -2 10.2 15.2
-17 -1 2 2 19.1
-17 18 -2 3.3 23.4
-18 17 2 10.4 14.9
-18 17 2 16 20.2
-1 18 2 14.5 15.9
17 -18 -2 12.4 11.9
-17 -1 2 20.4 13.5
-18 1 -2 17.1 12.3
-17 18 -2 28.5 14.3
-18 0 -2 26.9 12.5
18 0 -2 32 14.2
18 -18 -2 28.3 11.8
-18 18 2 25.4 14.6
0 18 2 26.8 15.1
0 -18 2 -4.6 17
-18 0 2 37 13.8
0 -18 -2 22.5 11.7
-18 18 -2 41.4 14.5
0 18 -2 1.4 13.3
0 18 -2 -6.1 10.6
-18 0 2 2.1 25.3
18 0 2 6.4 23.6
-19 9 2 25.9 13.3
19 -9 2 48.2 25.8
10 -19 2 36.3 21.2
-10 19 2 38.5 17.5
9 10 2 35.8 15.2
9 -19 -2 21.5 10.9
-9 -10 2 30.9 19.4
19 -10 -2 14.4 13.7
-19 10 -2 -0.9 19.8
-19 10 -2 23.7 13.7
-19 10 -2 20.8 13.1
10 9 -2 38.9 15.6
-9 19 -2 43.7 18.8
-19 10 2 20 13.8
-19 9 -2 -4.2 12.7
-9 19 2 31 17.2
-19 10 2 16.9 11.3
19 -10 2 19.5 23.4
9 10 -2 17.4 15.1
-19 10 2 -3.3 24.3
9 -19 2 15.6 19.8
10 -19 -2 9.4 10.3
10 9 2 26.3 14.7
19 -9 -2 31.3 13.5
-19 9 -2 18.5 12.2
-10 19 -2 28.7 17.9
-19 11 -2 45.6 14.2
19 -8 2 41.2 23
-19 11 -2 41.2 14
-19 11 -2 40.7 20.8
19 -11 -2 48.1 13.6
8 -19 -2 26 11.6
-19 8 2 56.39 15.2
11 8 -2 58.09 15.8
-8 19 -2 63.49 19.6
11 -19 2 50.99 22.3
-11 19 2 52.79 18.7
-8 -11 2 45.3 19
-11 19 -2 46.6 18
-19 11 2 28.8 20.1
-19 11 2 48.9 16.3
8 -19 2 64.19 22.4
-19 8 -2 39.4 12.6
19 -11 2 59.99 25.9
11 -19 -2 25.9 10.7
8 11 -2 75.49 16.8
11 8 2 18 13.8
-8 19 2 72.99 19.5
19 -8 -2 46.8 14.5
-8 -11 -2 45 13.6
19 -12 -2 52.29 14.5
-7 19 -2 48.8 18.8
19 -7 2 32.9 23.1
7 -19 -2 35.1 12.2
-7 -12 2 63.49 21
12 -19 2 33.3 20.9
-19 7 2 44 14.6
-12 19 2 66.89 17.6
12 7 -2 46.3 15.1
-19 12 -2 44.3 12.4
-19 12 -2 33.2 13.6
19 -7 2 43.5 13.5
-19 12 -2 47.5 22.3
-19 7 -2 44.9 13.5
19 -7 -2 37.6 13.8
12 -19 -2 11.7 10.5
7 12 -2 69.39 16.8
-7 -12 -2 25.3 12.8
-19 12 2 25.8 21.4
-19 12 2 35.7 16.3
19 -12 2 23.5 24.4
-12 19 -2 42.9 16.6
12 7 2 -3.1 12.1
7 -19 2 34.8 20.2
-7 19 2 44.8 18.5
-6 -13 2 -3.9 18.5
-13 19 2 -20.3 14.5
-19 13 -2 1.2 19.4
-6 19 -2 15.9 17.8
13 6 -2 9 13.2
19 -13 -2 4.4 13.6
-19 6 2 4.9 18.4
19 -6 2 0 22.9
-19 6 2 16 13.6
-19 13 -2 0.1 12.1
-19 13 -2 4.6 10.3
6 -19 -2 0.6 10
13 -19 2 -2.3 19
19 -6 2 12 12
-6 -13 -2 -0.1 11.6
6 -19 2 2.8 17.4
13 -19 -2 -0.3 10.5
19 -13 2 3.1 22.9
-6 19 2 11.8 16.7
19 -6 -2 20.7 13.2
-13 19 -2 7.5 13.2
-19 6 -2 15.5 12.7
-19 13 2 16.7 15.8
6 13 -2 23.5 14.9
-19 13 2 -11 20.2
-6 -13 -2 -4.3 18.4
14 -19 2 10.7 20
-19 14 -2 19.8 19.7
-19 14 -2 1.9 12.1
-19 5 2 2.4 18.4
19 -14 -2 16 12.4
-5 -14 2 0.2 18.1
19 -5 2 17.4 24.5
-19 5 2 16.3 12.7
19 -5 2 17.1 12.5
-5 19 -2 20.4 16.9
5 -19 -2 -1.2 10.3
14 5 -2 2.4 12
14 -19 -2 6.9 11.8
-19 14 2 11 19.4
-5 19 2 11.9 16.7
19 -5 -2 9.7 12.3
-19 5 -2 20.7 12.5
-5 -14 -2 8.2 11.6
19 -14 2 0 20.8
-5 -14 -2 10.4 19.2
-14 -5 2 8.8 14.4
-19 14 2 9.4 15.3
5 -19 2 12.7 19
5 14 -2 30.5 14.8
-15 19 2 7.6 14.6
19 -4 2 25.1 13.5
15 -19 2 -4.4 20.3
-4 -15 2 22.4 19.8
-19 4 2 8.9 12.1
-19 15 -2 17.8 13.2
19 -15 -2 -2.6 11.3
-19 15 -2 22.5 20.9
19 -4 2 4.7 24.3
-19 4 2 2.6 17.6
-4 19 -2 29.6 17.1
4 -19 -2 10.7 10.7
19 -4 -2 14.2 12.1
-4 19 2 30.5 16.6
19 -15 2 -4.3 20.4
-4 -15 -2 19 12.2
-15 -4 2 23.8 15.5
-19 15 2 15 15.6
-19 4 -2 15.9 12.5
-19 15 2 15.6 20.6
4 -19 2 6.1 19.5
15 -19 -2 20.9 12.4
-15 19 -2 -10.1 12.6
4 15 -2 16 14.9
-19 16 -2 61.89 14.5
-3 -16 2 30.5 18.3
19 -16 -2 72.49 13.6
-16 19 2 64.39 16.5
-19 3 2 49.9 20
19 -3 2 28.6 24.4
-19 3 2 105.89 15.8
3 -19 -2 47 12.2
19 -3 2 73.39 15.1
-3 19 -2 81.19 18.9
-19 16 -2 46.9 21.3
-16 19 -2 76.19 16.2
16 -19 -2 69.99 13.4
-16 -3 2 120.09 17.2
3 16 -2 74.19 16.4
-3 19 2 94.69 18.4
-19 16 2 145.19 20.3
-3 -16 -2 71.79 13.8
19 -3 -2 121.39 17.8
-19 3 -2 93.99 15.3
3 -19 2 36 19.1
-19 16 2 39.6 20.9
2 -19 -2 11.5 11.1
-19 2 2 0 17.4
19 -2 2 15.3 12.6
-19 17 -2 2.7 19.5
-2 -17 2 1.5 18
-19 17 -2 12.8 12.7
-17 19 2 2.9 14.3
19 -2 2 6 24.9
-17 -2 -2 3.6 11.2
19 -17 -2 12.5 11
-2 19 -2 9.8 14.7
17 2 -2 8.6 14.7
-19 2 2 5.5 11.3
2 17 -2 15.2 14.7
-17 19 -2 13.7 13.9
17 -19 -2 5.9 10.6
-19 17 2 8.8 14
-2 19 2 15.9 15.1
-17 -2 2 5.5 12.3
-19 2 -2 22.3 12.4
19 -2 -2 14.5 12.2
-19 17 2 -2 19.9
2 -19 2 -1.7 19.7
-2 -17 -2 14.4 11.6
-19 18 -2 10.4 12.1
-19 1 2 5.8 11.1
-18 -1 -2 5.4 11.6
-18 19 2 15.5 14.2
1 18 2 18.1 12.6
19 -1 2 17.3 12.3
19 -18 -2 5.4 10.6
18 1 -2 16.9 13.5
1 -19 -2 7.2 10.4
-1 19 -2 12.9 12.4
19 -1 -2 15.5 12.2
18 -19 -2 17 10.3
-18 19 -2 8.7 12.4
-19 1 -2 4.7 11.8
-19 18 2 10.9 14
1 18 -2 2.3 12.7
-1 19 2 9.1 13.9
-18 -1 2 8.6 11.9
-1 -18 -2 3.5 10.4
-1 19 2 2.6 12.5
0 19 -2 -7.4 10.7
-19 0 2 4.5 10.8
0 -19 -2 13.6 10.4
19 -19 -2 6.8 9.6
-19 0 -2 4 11.2
0 19 2 4.6 11.9
0 19 2 -15.4 11.4
19 0 -2 -6.1 11.2
19 0 2 12.1 12.4
-19 19 2 16.8 13.3
-19 19 -2 1.3 11.9
20 -10 -2 90.49 15.7
-10 20 -2 142.49 20.5
-20 10 -2 100.69 15.5
-20 10 2 84.09 15.8
20 -10 2 84.39 24.6
10 10 2 77.89 15.4
-10 20 2 110.79 18.9
10 10 -2 99.59 16.2
-20 10 2 99.09 15.1
10 -20 2 68.79 21.9
-20 10 -2 83.59 15
10 -20 -2 70.89 12.8
-9 20 -2 104.69 19.2
-20 9 2 113.39 16.5
-20 11 -2 106.69 15.4
20 -11 -2 90.99 15.4
-11 20 2 125.09 19.9
9 -20 -2 63.69 13.3
20 -9 2 58.79 23.9
9 11 2 90.89 16
11 9 -2 82.59 15.7
-20 11 -2 110.39 16.8
-20 11 2 63.29 16
20 -11 2 30.4 24.1
11 -20 -2 31 10.8
9 11 -2 93.39 16.8
-11 20 -2 70.59 17.1
11 9 2 43.5 14.3
9 -20 2 38.5 19.7
-20 9 -2 93.39 15.5
20 -9 -2 61.29 13.7
12 8 -2 49.5 14.7
-12 20 2 61.89 17.2
20 -12 -2 41.4 14.2
-20 8 2 76.99 15.1
-20 12 -2 67.19 15.5
-20 12 -2 84.69 14.2
8 -20 -2 63.99 13.4
8 12 2 45.8 13.9
20 -8 2 53.79 13.7
20 -8 2 31.7 22.6
-8 -12 2 47.3 18.8
-8 20 -2 78.09 19.1
12 -20 2 0.6 19.9
20 -8 -2 91.79 15.6
8 -20 2 54.89 19.7
-20 12 2 101.89 17.6
-12 20 -2 89.79 17.1
8 12 -2 145.59 18.6
-8 20 2 92.59 18.7
12 8 2 84.29 16.1
-20 8 -2 93.49 14.5
-7 20 -2 75.99 18.8
20 -7 2 26 22
13 7 -2 45.8 14
20 -7 2 48.9 13.9
7 13 2 69.99 15.2
-20 13 -2 36.1 12
-20 7 2 72.19 14.4
7 -20 -2 45 11.7
-20 13 -2 67.39 14.4
13 -20 2 -0.8 29.9
-7 -13 2 40.8 19.4
-13 20 2 54.29 15.9
20 -13 -2 63.09 14.6
-20 13 -2 2.2 19.4
-7 20 2 59.29 17.1
20 -13 2 4 30.7
7 -20 2 9.2 17.8
-20 13 2 -3.9 24.2
13 -20 -2 15.2 10
-20 7 -2 71.99 14.2
-20 13 2 42 14.8
7 13 -2 67.29 14.8
20 -7 -2 71.09 14.5
-13 20 -2 38.8 13.9
-7 -13 -2 66.99 14
-6 20 -2 13.5 16.3
20 -6 2 9.8 22
-20 14 -2 -0.3 18.5
-20 14 -2 5.5 11.8
6 14 2 7.9 12.2
14 6 -2 14.7 12.6
20 -14 -2 0.8 11.9
-20 14 -2 1.4 9.3
20 -6 2 5 11.9
6 -20 -2 9.7 9.8
-20 6 2 14.7 12.7
-6 -14 2 5.8 17.4
20 -6 -2 5.9 12.1
-6 20 2 8.6 16.4
-20 6 -2 5.7 11.6
6 -20 2 -3.7 18.7
-20 14 2 -3.2 19.3
-14 20 -2 -0.1 11.8
14 -20 -2 -1.2 9.9
-14 -6 2 -6 13.3
6 14 -2 5.3 13.4
-20 14 2 10.3 14
-6 -14 -2 7.9 11.7
-20 15 -2 123.19 17.1
-5 20 -2 71.29 17.3
5 -20 -2 82.89 13.4
5 15 2 89.49 15.8
20 -5 2 81.39 14.2
-20 5 2 95.49 15.2
20 -15 -2 75.29 13.5
20 -5 2 5.6 30.2
-15 -5 2 103.79 16.3
20 -5 -2 176.78 19.3
5 15 -2 114.49 17.3
-20 5 -2 137.99 16.8
-5 -15 -2 96.39 15
-5 20 2 152.08 21.1
-20 4 2 17 12.6
-16 20 2 4.4 12.7
4 -20 -2 12.2 10
20 -16 -2 17.6 10.8
4 16 2 10.6 12.6
20 -4 2 12.7 11.4
-20 16 -2 13.2 12.5
-4 20 -2 8.3 14.6
-20 16 2 16.8 13.9
-16 -4 2 7.2 12.7
-20 4 -2 1 10.5
-4 20 2 17.1 14.5
4 16 -2 5.8 12.8
-16 20 -2 -3.2 11.6
20 -4 -2 -6.9 10.7
-4 -16 -2 0.4 10.9
16 -20 -2 1 9.4
20 -3 2 19.3 11.7
-17 20 2 29.7 14.3
-20 3 2 50.79 13.2
17 3 -2 30.5 14.7
3 -20 -2 16.5 10.6
-20 17 -2 33.8 13
3 17 2 13.8 11.9
20 -17 -2 33.5 11.7
-3 20 -2 25.9 13.6
-20 3 -2 55.59 12.8
-17 -3 2 37.8 12.7
-3 20 2 62.49 16.5
-20 17 2 98.89 17.7
20 -3 -2 70.99 14.1
17 -20 -2 26.4 10.9
-17 20 -2 47.9 13.7
-3 -17 -2 32.9 11.9
3 17 -2 56.19 14.1
-20 18 -2 5.4 11.2
-18 20 2 16.9 13.4
2 -20 -2 10.7 10.2
18 2 -2 0.2 12.5
20 -18 -2 13.2 10.4
-18 -2 -2 -0.3 10.2
-20 2 2 13.2 10.6
-2 20 -2 18.4 12.5
20 -2 2 6.9 11
2 18 2 15.2 12.1
-2 -18 -2 5.9 10.4
-18 -2 2 7.1 10.9
18 -20 -2 5.9 9.3
20 -2 -2 7.9 11
-2 20 2 14.1 13.3
-20 2 -2 7.5 10.3
2 18 -2 6.3 11.6
-20 18 2 3.3 12.9
-2 20 2 -3.8 9.7
-18 20 -2 12.9 11.9
1 19 2 1.6 11.1
-19 20 2 11.1 11.8
-20 19 -2 13 10.9
20 -19 -2 9.8 8.8
20 -1 2 13.8 10.7
-1 20 -2 -2.6 9.6
1 -20 -2 7.7 9.5
19 1 -2 9.7 11.4
-19 -1 -2 5.2 10.5
-20 1 2 6.4 10.1
-20 19 2 10.5 11.8
-19 20 -2 10.1 11.2
-1 20 2 -3.3 12.3
-19 -1 2 9.9 10.5
20 -1 -2 5.5 10.6
19 1 2 -1.1 10.9
19 -20 -2 1.2 8.8
1 19 -2 -1.3 10.3
-1 -19 -2 7.4 9.9
-20 1 -2 6.8 10.3
-1 20 2 3.6 10.5
0 -20 -2 14 8.9
20 0 -2 10.9 10.4
20 0 2 8.4 10.2
-20 0 -2 19.7 10.3
-20 20 2 7.3 10
-20 0 2 34.7 10.3
-20 20 -2 18.7 10.8
0 20 2 11.3 10.2
-10 21 -2 18.8 15
-21 11 -2 16.5 10.9
-11 21 2 26.9 15.2
10 11 2 16.1 12.6
-21 10 2 17.9 12
21 -11 -2 11.4 11.2
-21 11 -2 23.6 12.4
10 -21 -2 2.1 9.1
11 10 -2 20.5 12.2
21 -10 2 -6.6 9.5
-21 10 -2 -4.1 9.9
10 11 -2 14.7 12.2
11 -21 -2 2.4 9.2
-21 10 -2 23 11.5
21 -10 -2 9.4 11
-11 21 -2 32.7 14.3
11 10 2 26.7 13.3
-21 11 2 14 10.4
-21 11 2 23.4 12.6
-10 21 2 28.5 15.1
-9 21 -2 53.49 17.2
21 -12 -2 38.4 13.2
9 12 2 23.6 12.9
-21 12 -2 36.3 12.7
12 9 -2 39.6 12.9
21 -9 2 11.2 10.3
-12 21 2 49 15.6
-21 12 -2 31.5 12.1
-21 9 2 32.2 12.6
-21 9 -2 21.9 12.1
12 -21 -2 -1.6 9
9 12 -2 30.2 12
-12 21 -2 24.4 14.4
-9 21 2 19.3 15.1
12 9 2 3.9 12.1
21 -9 -2 18.8 12
-21 12 2 36.8 14
-8 21 -2 63.59 17
-21 8 2 42.1 12.4
-21 13 -2 39.2 12.5
8 13 2 55.39 14
8 -21 -2 9.9 9.1
-21 13 -2 28.1 11.3
21 -13 -2 40.1 12.8
21 -8 2 32 11.6
-13 21 2 52.09 15.9
13 8 -2 43.7 14
-21 8 -2 34.9 13
-8 21 2 37.6 16.3
-21 13 2 30.7 13.3
8 13 -2 20 11.8
21 -8 -2 30 12.4
-13 21 -2 13.7 13.3
13 8 2 3.1 11.3
7 -21 -2 10.2 9.4
-21 14 -2 12.1 9.6
21 -7 2 28.2 12.7
-21 7 2 14.2 11
21 -14 -2 28.9 11.4
-21 14 -2 35 12.7
14 7 -2 24.9 12.4
7 14 2 25.6 13
-7 21 -2 33.1 15.1
-14 21 2 3.6 12.4
-21 7 -2 22.7 11.5
7 14 -2 17.2 11.9
21 -7 -2 20.6 10.9
14 -21 -2 1.1 8.5
-14 21 -2 11.2 12.2
-21 14 2 17.3 13
-7 21 2 20.2 14.3
-21 15 -2 22.5 11.5
-21 6 2 20.6 10.8
-6 21 -2 36.4 15
15 6 -2 8.8 10.2
21 -6 2 13.2 12.1
6 -21 -2 11.6 9.3
21 -15 -2 29.3 10.9
6 15 2 21.2 12
15 -21 -2 1.5 8.1
6 15 -2 30.2 12.3
-6 -15 -2 7.8 11.3
-15 -6 2 -1.4 13.2
-21 15 2 11.9 12.4
21 -6 -2 17.8 11.1
-6 21 2 19.9 15
-21 6 -2 15.8 11.2
-5 21 -2 61.09 14.9
-21 5 2 60.29 13.4
21 -5 2 31 11.9
-21 16 -2 43.5 12.2
16 5 -2 60.59 16
21 -16 -2 37.9 11.3
5 16 2 58.69 13.7
21 -5 -2 56.89 13.4
-5 -16 -2 33.2 11.5
-21 16 2 59.09 14.6
-16 -5 2 30.8 11.7
5 16 -2 30.5 12
-5 21 2 59.59 15.9
-21 5 -2 51.29 12.3
16 -21 -2 2 8.7
21 -17 -2 35.2 10.7
17 4 -2 53.19 14.6
-17 21 2 20.7 10.4
4 -21 -2 11.4 9.3
21 -4 2 33 11.3
-21 17 -2 55.39 12.6
-21 4 2 64.29 12.5
4 17 2 45.4 12.4
-4 21 -2 32.3 12.5
-17 -4 2 43.5 11.9
4 17 -2 34.3 11.7
-4 -17 -2 43.1 11.2
-4 21 2 27.9 13
-21 4 -2 54.89 12.4
-21 17 2 73.49 14.9
21 -4 -2 45 12.3
21 -18 -2 31.4 9.8
-21 3 2 31.3 10.1
3 18 2 21.8 10.7
21 -3 2 34.3 11
-18 21 2 30 11
18 3 -2 48.1 14
-21 18 -2 27 10.8
-3 21 -2 42.6 12.2
-21 18 2 34.2 12.1
-18 -3 2 25.8 10.7
-21 3 -2 29.4 10.7
-3 -18 -2 26.9 10.2
21 -3 -2 28.4 11.4
-3 21 2 21.9 13.2
-18 21 -2 28.7 11
3 18 -2 29.9 11.4
2 19 2 49.5 11.6
19 2 -2 69.69 13.4
-21 19 -2 77.69 13.1
-19 21 2 76.99 12.5
21 -2 2 63.09 11.3
-21 2 2 81.59 12.4
-21 19 2 62.39 12.3
21 -2 -2 99.09 13.9
19 2 2 75.79 13.1
-2 21 2 40.7 12.4
-19 -2 2 95.09 13.3
-19 21 -2 53.59 11.4
2 19 -2 62.19 11.4
-2 -19 -2 49.99 10.4
-21 2 -2 52.29 11.4
20 1 -2 8.4 10.3
1 20 2 5.4 9.7
-20 21 2 7.1 9.8
-21 1 2 3.3 8
-21 20 -2 9.8 8.9
21 -1 2 4.2 9.5
-20 21 -2 9.4 9.5
-21 20 2 7.4 9.9
-20 -1 2 0.4 8.9
-21 1 -2 13.7 9.7
20 1 2 1.6 9.7
-1 -20 -2 -2.6 8.4
21 -1 -2 8.3 10.6
-21 0 -2 1.1 11.1
-21 0 2 37 9.7
-21 21 2 40.8 10.3
21 0 2 24 9.7
21 0 -2 62.19 13
-21 21 -2 32.4 10
11 11 -2 54.79 12.2
-11 22 2 67.99 15.8
22 -11 -2 76.39 13.6
-22 11 -2 42.9 11.5
11 11 2 70.39 13.5
-11 22 -2 61.79 14.7
-22 11 2 56.39 12
-22 12 -2 6.1 10
-22 10 2 -1.5 10.2
-12 22 2 -9.1 13.1
12 10 -2 6.4 10.8
10 12 2 5.7 10.9
22 -10 2 -5 12.5
22 -12 -2 -0.4 10.5
-10 22 -2 6.7 11.9
-22 12 -2 11.4 10.4
-22 10 -2 -0.2 9.7
-12 22 -2 8.6 11.9
12 10 2 3 11.2
22 -10 -2 -0.2 9.7
-10 22 2 12.7 13.5
10 12 -2 11.9 10.9
-22 12 2 11.3 10
9 13 2 42.8 12.1
22 -9 2 -8.8 9
-22 9 2 15.6 10.8
-22 13 -2 39.2 12
-13 22 2 22.8 14
13 9 -2 13.4 11
-9 22 -2 47.2 14.2
-22 13 -2 29.5 10.9
22 -13 -2 14 10.9
-22 13 2 20.5 10.8
-9 22 2 16.9 13.2
-22 9 -2 28.6 11.1
22 -9 -2 11.4 10.9
-13 22 -2 13.4 12.7
9 13 -2 22.2 10.6
13 9 2 9.4 10.8
-8 22 -2 37.2 14
8 14 2 17.7 11.6
-22 8 2 24 11.6
-22 14 -2 4.8 9.1
-22 14 -2 19.5 10.7
14 8 -2 24.6 11
22 -8 2 27.7 10.4
22 -14 -2 25 10.4
-14 22 2 16.9 12.2
-22 14 2 26.3 11.7
22 -8 -2 19.8 11.2
-8 22 2 26.7 13.3
8 14 -2 28.7 10.3
-14 22 -2 7.9 11.4
-22 8 -2 27.3 10.9
22 -7 2 9.7 9.6
15 7 -2 -9.4 9.7
-7 22 -2 -1 11.5
-22 15 -2 7.2 10.3
7 15 2 5.9 10.4
22 -15 -2 -6.2 8.9
-22 7 2 -1.8 10.1
-22 7 -2 8.3 10.3
22 -7 -2 11.4 10.1
-7 22 2 3.1 12.1
7 15 -2 11 9.8
-22 15 2 9 11.1
-15 22 -2 -3.8 11.1
22 -16 -2 5.3 9.5
-6 22 -2 2.6 11.3
-22 6 2 4.1 9.5
6 16 2 11.2 10
22 -6 2 -2.4 9.6
-22 16 -2 7.4 10.1
16 6 -2 4.1 12.8
-6 22 2 11.5 12.8
-22 16 2 15 11.2
-22 6 -2 15.5 10.5
6 16 -2 6.2 9.6
22 -6 -2 8.2 9.7
22 -5 2 3.1 10
5 17 2 9.5 9.6
-5 22 -2 11.1 10.7
17 5 -2 2.1 11.9
-22 17 -2 15.1 9.9
-22 5 2 11.1 9.8
22 -17 -2 12 9.2
-5 22 2 4.6 11.8
5 17 -2 1.3 9.7
-22 17 2 0.5 9.4
-22 5 -2 5.1 9.6
22 -5 -2 0 9.4
4 18 2 0.9 9.5
18 4 -2 12.8 12.6
22 -18 -2 4.1 8.2
-22 4 2 3.4 8.5
22 -4 2 6.9 10.1
-4 22 -2 9.7 10.2
-22 18 -2 9.6 9.5
-18 -4 2 2.4 8
4 18 -2 3.6 9.6
18 4 2 8.1 10.4
-22 18 2 11.1 10
22 -4 -2 6.2 9.7
-4 22 2 7.7 11.3
-22 4 -2 5.7 9.2
22 -3 2 44 10.5
-22 3 2 49.9 9.9
3 19 2 46.9 10.6
19 3 -2 44 11.5
-22 19 -2 45.7 10.4
-3 22 -2 20.8 9.1
-22 3 -2 23.3 9.8
-19 -3 2 41.8 9.4
19 3 2 33.8 10.6
22 -3 -2 38.1 10.5
3 19 -2 22.3 9.4
-3 22 2 39 11.2
-22 19 2 45.9 11.8
20 2 -2 -1.5 10.7
2 20 2 4.7 9.4
-22 20 -2 8.7 9.7
22 -2 2 2.8 9.2
-22 2 2 5.5 9.6
-20 22 2 -2.8 7.8
20 2 2 -3.6 9.1
-20 -2 2 -0.7 7.4
-22 20 2 2.6 9
-22 2 -2 7.2 9
22 -2 -2 3.2 9.4
-22 1 2 49.5 10.2
22 -1 2 42.5 10.4
21 1 -2 57.59 13
-22 21 -2 33.2 10.5
21 1 2 55.99 10.9
-22 21 2 47.1 11.9
22 -1 -2 47.2 11.9
-23 11 2 9.7 9.2
12 11 -2 26.9 10.3
-11 23 -2 12.8 11.6
11 12 2 10.7 10.3
23 -12 -2 24 10.1
-23 12 -2 14.2 9.7
-12 23 2 9.7 11.8
12 11 2 16.8 10.2
-11 23 2 12.4 11.9
-23 11 -2 30.7 10.1
23 -11 -2 24.8 10.4
11 12 -2 30.4 10.9
-12 23 -2 19.9 11.7
-10 23 -2 39.6 12.1
-13 23 2 34.9 12.6
13 10 -2 52.09 11.2
-23 13 -2 42.5 9.9
-23 13 -2 42.8 10.7
10 13 2 39 11
-23 10 2 46.2 10.9
23 -13 -2 39.6 10.3
-13 23 -2 25 11.3
10 13 -2 47 10.5
-23 13 2 30 9.4
13 10 2 28.2 9.5
-23 10 -2 36.7 10.2
23 -10 -2 25.8 10.4
-10 23 2 30.6 12.7
-23 14 -2 2 8.7
23 -14 -2 26.7 9.5
-23 14 -2 26.1 9.6
-14 23 2 6.4 10.3
14 9 -2 24.1 9.7
-9 23 -2 22.1 11.2
9 14 2 30.1 10.5
-23 9 2 26 9.7
-9 23 2 20.6 11.8
-14 23 -2 21.1 10.5
9 14 -2 14.7 9.9
23 -9 -2 8.6 8.8
-23 14 2 23.1 9.6
-23 9 -2 18.8 9.3
8 15 2 11.6 10
23 -8 2 -7.3 11.7
23 -15 -2 19.4 8.7
15 8 -2 17.5 12.5
15 8 -2 -7.7 7.9
-23 8 2 12.5 9.4
-23 15 -2 7.7 9.3
-8 23 -2 10.3 10.9
23 -8 -2 6.3 8.5
8 15 -2 6 9
-23 15 2 7.3 9.4
-23 8 -2 3.4 8.7
-8 23 2 7.7 11.7
-7 23 -2 17.6 10.6
23 -7 2 -3.5 7.7
7 16 2 35.9 9.9
-23 16 -2 19.5 9.4
16 7 -2 26.7 12.8
23 -16 -2 17.1 8.3
-23 7 2 34.3 10.1
-7 23 2 36.9 11.9
23 -7 -2 16.9 9.9
-23 7 -2 19.8 9.2
-23 16 2 19 10
7 16 -2 26.7 9.2
6 17 2 4.1 9.1
23 -17 -2 0.4 6.9
-6 23 -2 8.2 10.3
-23 17 -2 -1.5 9
-23 6 2 4.9 8.5
23 -6 2 -4.7 7
17 6 -2 -4.4 11.2
-6 23 2 7.6 10.6
-23 6 -2 3.7 8.7
23 -6 -2 5.7 9.8
6 17 -2 5.8 9
-23 17 2 5.6 9.6
-5 23 -2 24.6 9.7
5 18 2 46.8 11.1
18 5 -2 44.5 12.3
-23 18 -2 47.7 10.9
-23 5 2 33.6 9.4
23 -5 -2 51.89 11.3
5 18 -2 39.6 10.9
-23 18 2 63.39 12
-5 23 2 31.9 10.9
18 5 2 53.59 11.5
-23 5 -2 30.3 9.9
-23 4 2 -0.1 9.1
-23 19 -2 11.1 9.8
-4 23 -2 2 7.4
23 -4 2 -0.9 6
19 4 -2 -5.7 11.4
4 19 2 4.7 10
4 19 -2 6.2 7.8
-4 23 2 1.1 9.4
19 4 2 6.9 9.8
-23 4 -2 7.8 9.1
23 -4 -2 4.6 9.9
-23 19 2 4.4 10.7
12 12 -2 13.5 8.7
-24 12 -2 17.3 9.1
-12 24 -2 13.7 10
24 -12 -2 17.2 8.8
12 12 2 13.9 8.4
-12 24 2 8 11.3
-11 24 -2 19.7 10.7
24 -13 -2 32.2 8.9
-13 24 2 29.5 10.7
-24 13 -2 15.8 7.9
13 11 -2 25.8 8.9
11 13 2 20.7 8.5
24 -11 -2 16.7 9.9
13 11 2 -2.9 6.1
11 13 -2 11.4 8.2
-24 11 -2 25.5 9.3
-13 24 -2 7.4 9.3
-11 24 2 9.7 11
10 14 2 -0.1 8.6
-14 24 2 -3.9 12
-10 24 -2 14.5 10.6
-24 10 2 5.8 8.2
24 -14 -2 6.8 7.4
-24 14 -2 -1.5 6.8
14 10 -2 -0.2 8
-10 24 2 4.2 11
-14 24 -2 -3.2 8.7
24 -10 -2 6.3 8.9
10 14 -2 1.9 8.5
-24 10 -2 10 8.7
24 -15 -2 7 7.3
-9 24 -2 1.8 10.3
-24 9 2 10.4 8.9
9 15 2 15.6 8.3
-24 15 -2 11.6 8.2
15 9 -2 -3.7 11.8
24 -9 -2 5.6 9.4
-24 15 2 2.8 8.2
-9 24 2 9.7 11
-24 9 -2 -0.7 9.1
9 15 -2 3.2 8.5
16 8 -2 2 8.8
-24 16 -2 14.4 9.4
-24 8 2 14.3 9
8 16 2 5.4 9
-8 24 -2 14.6 10.6
8 16 -2 11.3 9.4
-24 16 2 5.4 9.4
-8 24 2 13.5 11.1
-24 8 -2 10.3 9.3
24 -8 -2 5.6 8.9
7 17 2 21 10.2
-7 24 -2 21.9 10.5
-24 17 -2 20.9 10.3
17 7 -2 2.9 8.3
-24 7 2 15.7 8.8
7 17 -2 11.9 9.3
24 -7 -2 20.1 9.9
17 7 2 32.9 11.3
-7 24 2 26.1 11.7
-24 7 -2 22.8 10.3
-24 17 2 17.7 11
-6 24 -2 4.4 10.3
-6 24 2 -3.2 11
-12 25 -2 -3 10.4
-13 25 -2 -1.2 8
-12 25 2 -2.6 9.3
0 0 -3 -2.3 7.3
0 0 3 2.9 7.3
0 0 -3 2.4 7
0 0 3 8.9 14.7
0 0 -3 0.1 7.9
0 1 -3 2.1 9.2
-1 0 -3 -0.2 8
0 1 -3 0.1 5.6
1 0 3 11.1 11.6
1 0 3 -11.2 7.4
1 0 -3 -3.8 8
0 -1 -3 3.1 6.1
0 1 3 11 13.3
-1 0 -3 -3.4 7.6
-1 0 3 0.7 6.2
-1 0 3 22.8 10.6
1 -1 -3 2.9 6.7
0 1 3 -3 5.5
1 -1 3 -10.2 5
0 -1 3 18.6 8.6
0 -1 3 2.4 7.3
-1 0 3 3.5 13.6
0 -1 3 5.3 14.4
1 -1 3 30.7 13.8
-1 1 3 35.3 10.9
0 1 3 15.3 6.8
0 1 3 8.5 9.1
-1 1 3 2.1 13.2
-1 1 -3 -1.5 7.2
1 0 3 2 7.8
-1 1 -3 6 10.4
-1 1 -3 2.3 5.1
1 0 -3 1.4 7.2
1 -1 3 -10.5 7.5
1 1 3 15.5 9.6
-2 1 3 42.6 16.5
-1 2 3 27.2 4.7
-1 2 3 52.69 11.8
1 1 -3 45.9 10.8
-2 1 -3 39.4 13.3
-1 -1 3 33.1 12.1
-1 2 3 57.09 15.9
1 1 -3 15.2 9
-1 2 -3 29.7 13.9
2 -1 3 37.4 12.3
1 1 3 29.2 8.8
-1 -1 3 37.5 17.3
2 -1 -3 29.1 5.1
1 -2 3 67.99 16.4
-1 -1 3 10.8 6.6
2 -1 3 29.6 8.4
1 1 3 41.2 13.5
-2 1 3 49.1 14.5
0 2 3 169.38 14.9
2 0 3 211.28 16.2
2 0 3 193.88 20.3
2 0 3 181.38 16.9
-2 0 3 191.08 23.4
0 2 -3 172.78 13.5
-2 2 3 214.88 21.5
0 2 3 187.28 17.8
-2 2 3 175.38 23.4
-2 2 -3 185.38 21
2 -2 3 175.28 10.5
0 2 3 188.38 21.8
-2 0 3 212.28 28.9
2 0 -3 170.78 13.9
0 2 -3 184.78 19
0 -2 3 224.18 26.5
2 -2 3 140.09 11.1
2 -2 3 206.48 23.4
1 2 3 111.29 16.4
-3 1 3 156.58 22.8
-3 2 -3 147.39 20.1
3 -2 -3 114.89 11.1
1 2 3 95.09 13.2
-3 1 3 122.29 18.9
-2 3 3 159.08 20.1
3 -1 3 99.19 14.7
-1 -2 3 136.29 23.5
-1 3 -3 118.79 18.4
1 2 3 136.49 19.5
2 1 -3 112.69 14.2
-2 3 3 122.49 12.2
-2 3 3 135.39 19.6
2 -3 3 165.08 22.9
3 -1 3 120.19 15.4
2 1 3 122.29 14.4
1 2 -3 126.89 17.2
2 1 3 121.19 17.3
3 -2 3 110.59 15.5
3 -1 -3 118.79 13.4
3 -2 3 115.29 12.9
-2 -1 3 157.88 24.2
-1 3 3 101.89 11.9
1 -3 3 167.78 27.8
-3 2 3 178.58 22.4
2 1 3 118.79 17.7
-2 -1 3 137.59 19.1
-1 3 3 161.88 20.4
-2 3 -3 176.08 22.4
-1 3 3 134.99 21
2 -3 -3 89.89 9.9
-3 2 3 169.78 23.7
-3 0 3 634.44 40.5
3 0 -3 632.94 34.7
3 0 3 616.94 37.1
0 3 3 635.84 38.8
0 3 3 550.94 33.3
-3 0 3 578.04 42.9
0 3 -3 621.24 32.3
3 0 3 606.94 35.7
-3 3 -3 602.74 38.8
-3 3 3 633.14 40.8
-3 3 3 605.84 39.8
3 0 3 616.14 35.6
0 3 3 585.54 40.3
3 -3 3 676.53 37.9
0 -3 3 594.94 46.5
0 3 -3 652.93 38.1
-2 4 3 118.99 18.9
2 2 3 115.29 17
-4 2 3 125.49 20.7
2 2 3 94.69 15.6
-2 -2 3 133.49 27
-2 4 3 98.59 18.5
-4 2 3 114.29 21.4
4 -2 -3 97.49 14.1
2 2 -3 87.89 14.7
2 2 3 110.29 18.2
-2 4 -3 96.79 10.7
-2 4 3 127.39 14.7
4 -2 3 89.99 13.7
-2 4 -3 104.69 18.6
2 -4 3 112.79 21.8
3 1 -3 530.25 32.4
-1 4 -3 537.65 36
4 -3 -3 535.05 29.2
-4 1 3 510.35 37.1
-4 1 3 508.65 39.9
-3 4 3 522.45 36.8
1 3 3 491.85 31.6
-4 3 -3 532.15 37.9
-3 4 3 531.55 36.4
1 3 3 534.25 34.5
4 -1 3 526.65 33.3
3 -4 3 605.44 38.3
-1 4 -3 495.65 27.6
4 -1 3 510.25 32.4
1 3 3 492.65 36.3
-3 4 3 471.45 29.3
-1 -3 3 522.55 45.9
-3 -1 3 629.24 42.3
-3 -1 3 652.03 49.1
-1 4 3 644.04 35.1
-4 3 3 643.24 42.6
-3 4 -3 665.73 41.8
4 -1 -3 672.73 36
3 1 3 611.74 36.2
1 -4 3 675.33 48.2
1 3 -3 655.03 35.6
-1 4 3 649.24 39.9
3 1 3 601.34 37.3
-4 3 3 624.44 42.4
3 1 3 632.74 39.6
4 -3 3 569.84 36
-3 4 -3 601.64 33.4
-1 4 3 618.34 40.8
1 3 -3 633.14 38.7
0 4 3 313.37 27.4
0 4 3 307.97 29.1
0 4 -3 338.47 28.9
4 0 -3 317.67 25.7
-4 0 3 328.67 37.4
-4 4 -3 305.37 24.7
4 0 3 307.47 26.4
-4 4 3 306.77 30
0 -4 3 315.57 37.2
4 0 3 295.87 24.6
-4 4 -3 307.17 29.2
4 0 3 301.67 25.2
0 4 3 299.57 22.8
-4 4 3 311.27 29.8
4 -4 3 393.46 26.7
-4 0 3 338.07 29.9
0 4 -3 320.77 22.4
-3 5 3 135.69 21.4
-5 2 3 113.69 23
2 3 3 122.09 20.4
5 -3 -3 144.49 18.3
-3 5 3 132.69 20.5
2 3 3 126.39 17.8
-2 5 -3 112.89 14.1
-3 5 3 131.19 18.5
3 2 -3 127.59 20.9
-2 -3 3 145.79 29.1
3 -5 3 120.59 22.2
5 -2 3 126.49 18
-5 2 3 182.68 26.9
-2 5 -3 156.58 23.8
2 3 3 156.78 23.2
-5 3 3 56.29 21.3
3 2 3 23.8 14
-3 5 -3 41.5 17.6
-3 -2 3 38.9 22.6
-2 5 3 38.7 16.5
3 2 3 26.9 11.6
5 -3 3 24.9 10.5
-2 5 3 49 17.1
5 -2 -3 43.3 12.6
3 2 3 38.9 16.5
-3 5 -3 18.1 10.3
2 -5 3 53.79 21.7
-2 5 3 53.09 12.9
2 3 -3 28.1 13.2
-5 3 3 19.7 17.5
4 -5 3 143.79 24.1
-1 5 -3 187.58 24.5
-1 5 -3 112.09 15
5 -1 3 127.09 19.9
5 -1 3 129.69 21.5
-5 1 3 149.59 25.9
5 -1 3 128.79 19.4
-4 5 3 138.49 18.6
-5 4 -3 128.09 19.2
-4 5 3 184.88 25.7
1 4 3 144.89 17.8
1 4 3 150.38 24.2
-5 1 3 156.68 26.4
-1 -4 3 140.69 28.4
-4 5 3 150.18 24.7
-5 4 -3 146.39 23.5
1 4 3 152.28 22.6
4 1 -3 126.29 20.7
4 1 3 131.49 19.5
4 1 3 144.79 21.4
-1 5 3 141.29 22
1 -5 3 149.99 28.8
-5 4 3 136.89 22.3
5 -4 3 160.88 15.9
-4 5 -3 139.79 22.7
-5 4 3 198.58 27.6
4 1 3 145.59 19.9
-1 5 3 137.99 22.4
-4 5 -3 134.09 20
5 -1 -3 137.69 20.1
-1 5 3 181.28 18.3
1 4 -3 162.38 18.9
1 4 -3 150.78 23.3
-4 -1 3 154.78 24
-4 -1 3 152.08 28.4
-5 5 3 1365.36 73.99
-5 5 3 1326.27 74.09
0 -5 3 1282.47 78.89
0 5 3 1323.27 71.69
5 0 -3 1448.36 69.79
5 0 3 1315.47 69.99
-5 0 3 1350.36 75.69
0 5 3 1289.07 73.19
5 0 3 1211.38 69.19
0 5 -3 1324.97 66.99
-5 5 -3 1305.77 68.49
5 0 3 1365.26 70.39
-5 5 3 1125.49 66.49
0 5 3 1218.48 67.59
-5 5 -3 1356.76 73.89
0 5 -3 1365.46 72.29
-5 0 3 1281.97 79.69
-3 6 -3 17 12.4
3 3 -3 17.9 16.5
-3 6 3 35.9 17.3
3 3 3 35.2 18.6
3 -6 3 9.7 17.4
-3 6 3 23.3 17.6
3 3 3 30.4 14
-6 3 3 12.6 18.1
6 -3 -3 13.9 12.6
3 3 3 10.4 15.1
-3 -3 3 27.1 25
-6 3 3 17.7 20.3
-3 6 3 33.1 13.8
-3 6 -3 13.5 16.7
6 -3 3 16.4 9.6
6 -2 3 1899.81 92.79
-4 6 3 1938.41 99.19
-4 6 3 1910.21 93.99
4 2 -3 2001.7 96.19
-6 2 3 1774.02 100.59
-2 6 -3 1803.42 91.09
2 4 3 1905.91 94.89
-2 6 -3 1826.52 97.19
6 -4 -3 2034.2 93.39
-6 4 -3 1733.23 95.99
2 4 3 1867.51 99.39
2 4 3 1810.82 96.99
6 -2 3 1819.62 95.59
-6 2 3 1858.31 99.59
-2 -4 3 1924.31 106.39
4 -6 3 1811.12 95.59
-4 6 3 1854.51 97.69
-2 6 3 2127.39 105.09
2 4 -3 2017.7 103.09
-4 6 -3 2069.79 99.59
-2 6 3 2009.6 105.09
2 -6 3 1861.31 107.29
-6 4 3 2057.49 106.49
4 2 3 1864.31 103.59
-4 -2 3 1928.11 111.99
2 4 -3 2070.49 100.79
-2 6 3 1947.21 100.39
-6 4 3 2175.18 108.39
-4 6 -3 2053.09 105.79
4 2 3 1955.9 102.99
4 2 3 1963.3 101.39
6 -2 -3 2111.39 101.29
-1 6 -3 578.74 40.6
-1 6 -3 563.54 34.4
-6 5 -3 572.54 44.5
1 5 3 548.55 42.7
-5 6 3 512.55 36.3
6 -1 3 554.44 38.3
6 -1 3 622.64 38.4
-1 -5 3 558.24 51.09
-6 1 3 559.24 43.3
1 5 3 616.34 37.8
-5 6 3 552.94 43.3
5 1 -3 588.34 40
-5 6 3 550.34 42.8
-6 5 -3 575.84 40.1
1 5 3 554.74 39.9
-6 1 3 578.54 48
6 -1 3 543.25 38.3
-5 6 -3 630.14 45.8
-1 6 3 637.44 46.2
5 1 3 638.04 42.7
1 -6 3 601.64 51.29
1 5 -3 661.53 43.5
-1 6 3 682.63 44.3
-5 -1 3 632.04 56.89
-1 6 3 646.84 41
1 5 -3 665.03 41
5 1 3 652.13 43.8
-6 5 3 639.54 46.3
-6 5 3 679.63 47.2
-5 6 -3 674.03 42.4
5 1 3 677.53 44.4
6 -1 -3 733.03 42.2
-5 -1 3 681.13 49.3
-6 6 -3 399.86 33.9
0 6 -3 397.86 35.9
6 -6 3 290.97 25
0 6 3 370.26 32.8
6 0 3 429.36 32.6
-6 6 -3 340.17 27.8
-6 0 3 363.96 40.2
6 0 3 354.26 32.6
-6 6 3 344.97 27.4
-6 6 -3 402.76 39.3
6 0 -3 395.06 32.3
-6 6 3 344.57 29.1
0 6 -3 384.86 28.7
-6 0 3 359.56 43.8
0 6 3 379.66 35.8
-6 6 3 347.67 36.4
-6 0 3 334.37 26.2
0 6 3 358.96 29
-6 6 3 340.87 36
0 -6 3 359.06 44.7
6 0 3 355.36 29.9
-4 7 3 337.27 29.4
-3 7 -3 274.47 24.9
4 -7 3 327.97 33.6
-3 7 -3 348.07 33
7 -4 -3 365.86 28.9
-4 7 3 323.97 33.3
3 4 3 407.66 31.2
3 4 3 340.17 30.6
7 -3 3 306.37 26.6
-7 4 -3 367.76 34.8
-7 3 3 302.77 38.5
4 -7 3 276.47 23.9
-7 4 -3 288.57 25.4
3 4 3 354.76 34.9
-7 3 3 338.57 36.5
4 3 -3 336.27 29.8
-3 -4 3 358.76 50.09
-4 7 3 330.87 34
3 -7 3 369.86 26.9
4 3 3 409.06 34.5
-3 7 3 434.86 32
7 -3 -3 450.25 31.5
3 4 -3 413.76 32.5
-4 -3 3 329.37 26.4
-4 7 -3 345.57 29.2
-3 7 3 418.16 37.4
-4 -3 3 442.06 48.2
-7 4 3 386.46 40.4
4 3 3 428.96 37.1
7 -4 3 367.36 29.4
3 4 -3 463.85 33.1
3 -7 3 413.76 40.3
-7 4 3 451.15 43.8
-4 7 -3 397.76 37
-3 7 3 417.26 36.2
4 3 3 430.86 32.7
-7 2 3 281.47 42.3
-2 7 -3 277.87 24.5
-7 5 -3 288.57 33.9
-7 5 -3 311.57 35
2 5 3 376.06 29.7
2 5 3 336.47 35.4
2 5 3 317.67 33.6
-2 -5 3 323.97 44.6
5 2 -3 351.56 32.3
5 -7 3 298.07 25.2
7 -2 3 309.57 26.8
-5 7 3 340.97 34.7
-7 2 3 350.56 38.8
-2 7 -3 338.97 33.2
7 -2 3 321.27 29.9
-5 7 3 328.67 36.1
-5 7 3 309.27 28.7
-7 5 -3 312.77 27.1
7 -5 3 293.77 25.9
5 2 3 309.77 33.4
-7 5 3 259.47 35
-5 -2 3 277.77 23.7
2 5 -3 332.07 28.3
-5 -2 3 320.87 45
-2 7 3 327.97 33.5
5 2 3 320.57 30.8
-2 7 3 327.17 32.8
5 2 3 307.87 31
2 -7 3 321.57 40.5
-5 7 -3 295.17 28.9
7 -2 -3 367.56 30.9
2 5 -3 334.77 33.6
-7 5 3 342.37 39.2
-7 5 3 281.57 25.5
-5 7 -3 335.07 35.7
-2 7 3 350.26 29.3
2 -7 3 268.77 22.3
-1 7 -3 1868.01 94.99
-6 7 3 1668.03 87.69
1 6 3 1835.12 95.29
-7 6 -3 1781.32 93.49
-6 7 3 1825.32 97.59
6 1 -3 1847.02 93.29
7 -1 3 1704.93 92.59
-7 1 3 1804.22 102.49
1 6 3 1839.72 92.09
1 6 3 1859.91 99.19
-7 1 3 1555.64 86.99
6 -7 3 1651.03 86.79
-7 1 3 1742.73 97.49
-7 6 -3 1864.91 98.09
-1 7 -3 1701.53 88.49
-6 7 3 1641.44 93.89
-1 -6 3 1631.84 102.19
-6 7 3 1654.93 90.29
-7 6 -3 1697.33 88.49
7 -1 3 1828.82 91.39
7 -1 3 1718.03 93.19
6 1 3 1637.74 90.39
1 -7 3 1596.94 82.89
-7 6 3 1629.74 84.79
-1 7 3 1710.13 93.39
7 -1 -3 1875.61 89.39
-1 7 3 1746.03 91.29
-6 -1 3 1698.33 101.59
1 -7 3 1591.94 96.49
-6 7 -3 1575.44 84.59
6 1 3 1677.83 89.09
-6 7 -3 1542.65 87.99
-7 6 3 1803.72 94.89
-6 -1 3 1579.14 84.09
7 -6 3 1610.84 84.29
-7 6 3 1563.64 90.49
1 6 -3 1859.61 92.79
6 1 3 1656.43 90.09
-6 7 -3 1754.02 94.19
1 6 -3 1735.63 87.19
-1 7 3 1663.03 87.69
-7 7 3 298.47 38.2
0 7 3 326.67 37.5
-7 7 3 313.07 35.6
0 -7 3 288.37 43.4
0 7 3 339.17 36
7 -7 3 310.47 25.4
-7 0 3 304.17 40.6
0 -7 3 287.37 24.6
0 7 3 343.27 31.8
-7 7 -3 281.97 28
0 7 -3 306.27 27.5
-7 7 -3 320.07 37.4
7 0 3 309.47 32.9
7 0 3 359.96 32.9
-7 0 3 296.87 24.2
-7 0 3 271.77 46
-7 7 3 320.97 28.7
0 7 -3 306.37 34.2
7 0 -3 345.97 33.5
-7 7 3 266.27 28.2
7 0 3 256.27 30.9
-7 7 -3 242.58 32.5
4 4 3 168.18 25.2
4 4 -3 135.89 23.9
-4 8 3 117.29 22.2
-4 8 -3 140.39 27.7
-4 -4 3 170.88 38.2
-8 4 3 106.59 27.7
4 4 -3 145.49 23.6
-8 4 3 183.48 32.8
8 -4 3 142.09 23.7
-4 8 3 154.48 28.8
-4 -4 3 113.29 17.8
4 -8 3 127.59 19.6
4 4 3 137.29 25.3
4 4 3 123.29 26
8 -4 -3 171.38 24.5
-8 4 3 135.49 21.3
4 -8 3 99.39 22.6
-4 8 3 154.48 24.9
-8 4 -3 139.29 18.8
-5 8 3 371.56 39.5
3 5 3 422.76 38.2
-5 8 3 373.96 33.8
-3 -5 3 347.77 47.1
-5 8 3 419.06 39
5 3 -3 383.06 34.1
-3 8 -3 405.36 38.2
-5 -3 -3 295.67 24.7
8 -3 3 394.96 34.2
-3 -5 3 341.17 26.5
8 -5 -3 425.26 31
-8 3 3 367.96 45.6
-8 5 -3 366.36 37.6
-8 5 -3 353.56 30
-8 3 3 390.96 45.2
5 -8 3 379.86 28.2
3 5 3 369.66 39.8
3 5 3 447.86 34.7
-8 3 3 335.07 26.3
5 3 3 251.27 34.3
-5 -3 3 250.67 41.7
-8 5 3 229.58 37.4
-5 -3 3 200.38 21.4
-8 5 3 232.78 25.5
5 3 3 236.38 28.9
3 -8 3 205.38 20.9
-3 8 3 230.08 29.2
3 5 -3 250.87 28.2
3 5 -3 221.08 29.2
-8 5 3 154.88 28.4
8 -5 3 204.68 25.4
5 3 3 198.88 31.5
3 -8 3 182.48 31.5
-3 8 3 266.17 35.4
-3 8 3 220.28 31.2
8 -3 -3 241.18 27.7
-5 8 -3 262.97 35.8
-6 8 3 633.94 40
6 -8 3 605.74 37.5
-8 2 3 639.84 52.39
-2 -6 3 651.93 62.39
8 -2 3 667.63 47.1
-6 8 3 520.05 42.4
-2 -6 3 542.55 35.6
-8 2 3 616.64 38.5
2 6 3 643.34 46.3
-6 8 3 700.53 54.29
2 6 3 677.43 45
-8 2 3 615.84 55.09
2 6 3 648.64 51.19
-8 6 -3 594.14 40.3
-6 8 3 670.43 48.9
-2 8 -3 657.03 49.9
-8 6 -3 661.53 48.7
6 2 -3 662.03 47.4
8 -6 3 743.33 45.6
-2 8 3 846.32 56.89
-6 8 -3 764.52 46.4
-8 6 3 722.13 54.39
6 2 3 761.82 55.19
-8 6 3 811.02 58.79
-2 8 3 785.42 51.29
-8 6 3 780.62 47.7
-2 8 3 841.42 55.29
6 2 3 839.02 55.79
2 -8 3 759.42 61.99
2 6 -3 812.92 51.69
2 6 -3 884.31 56.59
6 2 3 799.42 51.79
-6 -2 3 789.22 46.2
8 -2 -3 877.81 52.69
-6 -2 3 829.52 68.99
-6 8 -3 890.41 58.99
2 -8 3 766.52 44.3
-1 -7 3 590.24 57.39
-8 1 3 656.93 63.79
7 1 -3 717.23 49.1
-7 8 3 566.94 48
-8 1 3 675.93 56.49
1 7 3 665.53 48.9
-8 1 3 593.04 38.6
-8 7 -3 643.44 50.29
-1 -7 3 647.24 37.9
8 -1 3 626.94 47.6
-7 8 3 625.24 40.8
-7 8 3 619.64 51.49
1 7 3 601.74 51.19
-1 8 -3 704.43 51.59
1 7 3 637.64 45.4
8 -1 3 630.74 44.8
7 -8 3 614.44 38.4
-8 7 -3 598.64 40.4
-7 8 3 509.45 42.3
-8 7 3 543.95 52.69
-8 1 -3 543.65 37.2
-1 8 3 568.44 41.6
-1 8 3 597.34 48.4
1 7 -3 483.25 40
8 -1 -3 621.04 44.1
-7 8 -3 550.34 38
7 1 3 565.44 44.3
1 -8 3 556.74 35.3
-8 7 3 534.85 36.8
7 1 3 584.54 43
7 1 3 603.64 44.8
1 -8 3 546.05 53.19
8 -7 3 544.15 37.2
-7 8 -3 560.84 48.4
-7 -1 3 563.34 59.49
1 7 -3 550.54 44.4
-7 -1 3 570.54 36.6
-1 8 3 557.44 44.4
-8 8 3 991.5 68.69
0 8 3 948.81 60.59
-8 0 3 979.6 54.99
-8 0 3 984.5 69.69
-8 0 -3 885.31 55.39
8 0 3 1059.19 64.69
0 8 3 1047.8 69.49
8 0 -3 1016.6 63.49
-8 8 -3 992.8 57.19
-8 8 -3 1009 68.99
-8 8 3 946.61 56.09
8 -8 3 1039.9 55.69
0 8 -3 1165.38 69.59
0 -8 3 982.2 74.29
8 0 3 1048.2 66.79
0 -8 3 1021.4 54.89
-8 0 3 1008.4 77.89
0 8 3 1077.89 65.29
-4 9 -3 1485.25 86.79
4 5 3 1581.54 86.49
-9 5 -3 1359.76 86.09
-4 -5 3 1449.35 75.59
-9 4 3 1338.97 88.69
5 4 -3 1636.94 86.19
-9 4 3 1369.66 76.19
5 -9 3 1520.25 75.99
-9 4 3 1557.94 92.59
-4 -5 3 1600.84 101.69
-4 -5 3 1496.15 75.49
-5 -4 -3 1435.96 74.79
4 5 3 1498.75 91.49
4 5 3 1590.24 83.39
-5 9 3 1638.64 88.79
5 4 -3 1553.74 83.89
9 -5 -3 1221.08 78.69
-9 4 3 1478.75 76.19
-9 5 -3 1356.66 75.99
9 -4 3 1463.45 82.89
-5 9 3 1427.46 84.09
9 -4 3 1501.75 77.99
-5 9 -3 1796.62 96.59
-5 -4 3 1669.03 84.49
4 5 -3 1724.83 92.49
5 4 3 1697.93 98.29
-4 9 3 1698.53 95.09
5 4 3 1738.03 95.49
-4 9 3 1755.92 95.59
-5 -4 3 1676.43 83.69
-4 9 3 1392.26 87.89
-4 -5 -3 1555.04 82.99
-5 -4 3 1558.54 104.19
4 5 -3 1698.23 90.79
5 4 3 1749.62 92.29
-9 4 -3 1676.73 84.79
-9 5 3 1794.02 98.79
-9 5 3 1645.64 85.39
4 -9 3 1713.03 84.39
9 -5 3 1616.04 84.99
9 -4 -3 1449.26 87.99
-9 3 3 591.94 38.5
-6 9 3 718.83 56.99
3 6 3 625.64 49.6
-6 9 3 604.64 39.9
-3 -6 3 638.74 63.69
6 -9 3 615.94 38.7
-9 6 -3 634.14 40.7
-9 3 3 547.15 57.29
-9 3 3 597.14 53.29
9 -3 3 622.54 46
-6 9 3 554.44 46.7
-3 9 -3 577.54 49.1
3 6 3 617.54 46.6
-3 -6 3 582.64 37.7
3 6 3 599.04 52.49
6 3 -3 676.23 49.3
-9 3 -3 470.95 32.8
3 6 -3 529.15 41.4
-3 9 3 492.35 41.3
-9 6 3 636.34 56.09
6 3 3 590.34 45.9
-6 -3 3 555.24 33.8
-6 9 -3 547.15 35.7
-6 -3 3 579.94 36.2
9 -3 -3 480.75 40.1
6 3 3 517.15 41
-3 9 3 580.54 46.7
-6 -3 3 475.25 55.49
3 6 -3 533.85 44.9
6 3 3 507.65 47.9
3 -9 3 399.16 46.4
-9 6 3 542.85 37.2
-3 9 3 566.84 47
-3 -6 -3 447.36 32.3
3 -9 3 540.95 34.9
-6 9 -3 653.53 52.99
9 -6 3 580.34 37.6
7 -9 3 1500.25 76.99
-2 -7 3 1544.95 98.99
7 2 -3 1475.05 84.39
9 -2 3 1436.56 84.79
2 7 3 1588.54 88.39
-2 9 -3 1578.74 88.29
-9 7 -3 1466.95 78.79
-2 -7 3 1480.65 76.19
2 7 3 1553.54 85.49
-7 9 3 1617.44 93.49
-9 2 3 1462.55 90.99
-9 2 3 1480.55 77.79
2 7 3 1492.15 91.69
-7 9 3 1412.26 77.69
-9 2 3 1360.46 96.69
-7 9 -3 1715.33 83.99
2 -9 3 1446.86 97.59
7 2 3 1591.94 91.49
-2 9 3 1763.02 97.39
2 7 -3 1658.93 91.99
2 -9 3 1613.24 81.69
-9 7 3 1665.93 84.19
-7 -2 3 1654.53 82.59
7 2 3 1619.54 90.69
-7 -2 3 1721.23 110.49
-7 9 -3 1622.84 94.69
7 2 3 1565.44 92.99
-9 7 3 1654.33 95.89
-2 9 3 1351.16 87.59
-2 9 3 1692.33 93.19
9 -2 -3 1405.86 87.89
-7 -2 3 1462.25 80.39
9 -7 3 1726.83 83.79
8 1 -3 319.17 40.6
-9 8 -3 406.96 47.5
-8 9 3 403.86 33.1
-9 8 -3 377.36 32.2
1 8 3 394.86 40
8 -9 3 412.06 30
1 8 3 378.26 45.4
-9 1 3 366.46 29.4
1 8 3 316.37 37.7
-8 -1 -3 398.46 30.7
-1 9 -3 446.96 43.1
9 -1 3 387.56 41.9
-8 9 3 417.86 49.6
-1 -8 3 425.36 58.99
-1 -8 3 402.06 29.1
9 -1 3 415.96 38.3
-9 1 3 390.56 45.6
-9 1 -3 421.66 32.6
-9 8 3 356.06 46.1
-8 -1 3 405.26 30.5
8 1 3 392.16 43.7
1 -9 3 362.06 52.89
-8 9 -3 408.86 45.6
1 -9 3 381.86 28.2
-8 9 -3 381.16 30.7
8 1 3 410.96 41.8
-1 9 3 385.96 40
1 8 -3 393.36 41.9
-9 8 3 360.26 30.6
-8 -1 3 356.66 61.99
9 -8 3 401.36 30.4
-1 9 3 392.06 44.3
0 9 3 120.99 30.7
-9 0 3 179.68 22.2
-9 9 -3 123.19 32.6
0 9 -3 130.49 31
0 -9 3 149.39 20.9
-9 9 3 166.68 24.6
0 -9 3 107.39 33
-9 9 3 94.89 31.4
-9 9 -3 165.88 24.9
9 -9 3 159.18 24.4
9 0 3 142.19 30.5
-9 0 -3 144.79 23.8
0 9 3 174.68 32.3
9 0 3 189.58 31.1
-10 5 -3 3.2 13.5
-5 10 -3 5.7 25.4
10 -5 3 13.7 21.4
5 5 3 15.1 24.3
-10 5 3 16.7 27.2
-5 -5 3 6 30.5
-5 10 3 2.7 21.8
-10 5 3 14.2 14.8
-5 10 3 -2 24.9
5 -10 3 16.3 13.5
-5 10 3 8.6 27.4
5 5 3 7.8 20.4
-5 -5 3 16 13.7
-10 5 3 9 12.7
-5 -5 -3 1.1 12
10 -5 -3 1.3 28.5
-5 -5 3 7.9 12.3
5 5 3 10.5 22.9
5 5 -3 1.5 24.2
10 -5 3 11.6 15.7
5 5 -3 2.8 19.9
4 6 3 47.7 23.3
-6 10 3 47.4 16.2
-4 -6 3 39 14.4
-10 6 -3 8.8 47.9
-10 4 3 48.5 15.6
4 6 3 20.7 26.2
-10 4 3 24.3 28.4
-4 -6 3 27.6 31
-6 -4 -3 40.6 14.7
-4 10 -3 30.7 25.9
10 -4 3 54.49 18.9
6 4 -3 30.9 22.4
10 -4 3 35.1 21.9
-4 -6 3 35.9 13.9
6 4 -3 33 20.3
-10 6 -3 62.59 17.6
6 -10 3 57.19 15.8
-10 4 3 39.5 15.1
4 6 3 42.8 23.4
-6 10 3 -0.3 20.6
-6 10 3 52.49 29.3
-4 -6 -3 71.19 15.9
-4 10 3 41.6 21.4
4 6 -3 39.2 24.4
-6 10 -3 8.5 11.8
10 -4 -3 2.5 23
-10 4 -3 74.69 16.6
-4 10 3 72.09 29.4
6 4 3 40.6 26.3
-10 6 3 42.9 15.4
6 4 3 65.09 25.6
-6 -4 3 71.39 17.4
6 4 3 66.19 25
4 6 -3 -6.7 19.8
4 -10 3 84.29 16.9
10 -6 3 81.49 18.4
-4 10 3 1.1 23.1
-6 -4 3 38 32.4
-6 -4 3 67.79 15.6
-6 10 -3 42 28.3
-10 6 3 32.5 12
-10 6 3 67.19 30.6
-3 -7 3 312.27 26.8
-10 7 -3 306.77 27.9
3 7 3 219.28 35.6
3 7 3 317.37 49.4
3 7 3 346.47 41.9
-3 -7 3 335.27 52.99
-7 10 3 333.07 30.2
-10 3 3 314.57 45.5
-7 10 3 299.17 41.7
-3 10 -3 314.97 40.9
7 -10 3 302.57 25.6
10 -3 3 347.67 40.3
-10 3 3 290.77 25.6
-3 -7 3 265.57 23.8
7 3 3 212.18 34.7
-10 7 3 239.48 27.2
-3 10 3 134.69 29
-7 10 -3 230.78 26
3 7 -3 156.38 30.4
3 -10 3 208.98 21.7
7 3 3 215.48 30.9
-7 -3 3 241.58 24.9
-3 -7 -3 226.38 23
10 -7 3 235.18 26.3
-7 -3 3 148.89 38.4
-10 7 3 213.48 39.7
-7 10 -3 236.48 38.1
-10 3 -3 191.68 21.1
-3 10 3 230.48 36.9
-7 -3 3 229.88 23.2
-8 10 3 34.4 16.1
-2 -8 3 45.1 36
-10 2 3 53.89 33.4
-10 8 -3 97.79 20.3
-2 10 -3 33 26.6
8 2 -3 4.1 22.7
-8 10 3 24.5 30.8
2 8 3 58.19 31.8
2 8 3 41.7 23.6
8 -10 3 53.59 15.2
10 -2 3 33 21.7
-10 2 3 64.59 16.3
2 8 3 -3.5 20.1
-2 -8 3 79.69 15.9
-8 -2 -3 44.1 15.2
-10 8 3 80.89 19.1
-2 10 3 32.1 24.9
-2 10 3 21.9 24.5
-8 -2 3 47.6 13.5
10 -8 3 68.89 17.4
8 2 3 42.7 22.5
2 -10 3 64.99 15.1
-8 -2 3 29.7 33.1
-8 -2 3 51.89 14.7
-2 -8 -3 54.59 14.2
2 8 -3 20.9 26.9
-10 8 3 46 30.2
8 2 3 31.7 23.6
-8 10 -3 87.59 18.9
-8 10 -3 67.39 33
1 9 3 248.78 43.3
1 9 3 231.38 36.3
-10 9 -3 230.98 40.3
1 -10 -3 205.68 21.4
10 -1 3 245.08 37.5
-1 10 -3 199.98 37.8
-10 9 3 133.59 33.2
-9 10 -3 180.28 35.7
1 9 -3 56.19 27.2
-1 10 3 159.98 31.6
9 1 3 121.39 27.2
-11 5 3 71.19 32.1
11 -5 3 94.79 26.9
-5 11 -3 61.89 30.4
-6 11 3 92.49 17.1
-6 11 3 18.3 32.8
5 6 3 88.59 26.7
-5 -6 3 52.59 35.6
5 6 3 72.19 32
-6 -5 3 59.69 33.9
-6 11 -3 68.79 35.6
11 -6 3 68.59 25.1
6 5 3 57.29 25.9
-11 6 3 70.69 35.6
-5 11 3 18.9 27
5 6 -3 -4.3 25.7
6 5 3 0.3 26
6 5 3 -1.1 26
-11 4 3 47.2 32.6
-4 11 -3 29.5 28.4
4 7 3 40.8 29.8
-4 -7 3 39.5 34.6
4 7 3 43.4 25.3
-7 11 3 6.3 30.7
11 -4 3 20.6 24.1
4 7 3 0.4 39.8
4 7 -3 -12.3 27.3
-4 11 3 -6.7 28.4
7 4 3 23.1 29.2
-11 7 3 49.7 12.7
-7 11 -3 24.8 27.1
7 4 3 11.9 26.3
-7 -4 3 20.4 34.9
-11 7 3 37 31.4
-11 3 3 3.2 31.5
3 8 3 0.2 32
3 8 3 1.6 26.8
-8 11 3 90.59 18.5
-3 -8 3 12.6 11.5
-3 11 -3 0.1 29.1
-3 -8 3 10.1 34.8
11 -3 3 5.8 22.6
-8 11 3 -22.1 29.7
-8 -3 3 107.59 18.5
8 3 3 2.5 29.8
-11 8 3 117.59 21
-8 11 -3 1 29.4
-8 11 -3 98.09 19.6
-11 8 3 3.7 30.6
8 3 3 -0.6 25.7
3 8 -3 -10.4 28.5
-8 -3 3 16.8 41.8
-11 3 -3 57.39 13.8
-3 -8 -3 83.49 16.1
-8 -3 3 111.29 18
3 -11 3 117.49 17.9
-9 11 3 175.88 24
9 -11 3 153.78 24.6
-11 2 3 141.99 20.8
-9 -2 -3 114.29 19.8
-11 9 -3 161.38 23
-2 -9 3 136.29 22.1
-11 9 3 200.58 25.7
2 -11 3 135.19 20.6
-9 11 -3 175.98 24.7
-9 -2 3 123.19 22.5
11 -9 3 167.68 22.7
-2 -9 -3 157.88 23.1
10 -11 3 83.49 18.5
-10 11 3 182.58 25.2
-10 -1 -3 109.89 19.9
-1 -10 3 131.09 21.2
1 -11 -3 129.79 19.8
-11 10 -3 170.68 24.3
-11 1 3 134.79 21
11 -10 3 186.48 23.9
-10 -1 3 172.78 23.4
1 -11 3 122.69 20.3
-1 -10 -3 123.49 20
-11 10 3 128.19 21.9
-10 11 -3 112.19 21.8
-11 11 3 68.09 20.6
0 -11 -3 73.09 18.7
-11 0 -3 58.89 18.9
11 -11 3 97.49 20.9
-11 11 -3 53.09 20.2
0 -11 3 68.89 17.4
-11 0 3 52.29 17.6
-6 -6 3 19.9 15.5
6 -12 3 22.1 14.5
-12 6 -3 20.3 16.4
-12 6 3 20.2 16.7
-12 6 3 23.6 14.2
-6 -6 3 30.7 15
12 -6 3 30.9 17.8
-6 -6 -3 23.5 15
7 -12 3 38.7 14.7
12 -5 3 55.69 18.1
-12 5 3 38.2 16.9
-7 12 3 31 16.7
-5 -7 3 42.9 14.9
-12 7 -3 54.69 19.1
-12 5 3 33.5 15.2
-5 -7 3 36.2 16.1
12 -7 3 15.4 15.2
-12 7 3 21.8 16.1
5 -12 3 38.5 15.5
-12 5 -3 24.6 15.7
-5 -7 -3 23.2 14.4
-7 -5 3 20.9 12.7
-7 -5 3 26.7 15.5
-12 7 3 15.6 13.6
-7 12 -3 3.1 13
-12 4 3 168.68 24.1
12 -4 3 180.38 28
-4 -8 3 144.59 23.2
-4 -8 3 132.09 22.6
-8 12 3 198.48 27.9
8 -12 3 178.58 25.1
-12 8 -3 171.88 27.4
-12 4 3 161.68 23.6
-4 -8 -3 152.48 21.3
4 -12 3 141.69 22.8
12 -8 3 200.48 25.5
-12 8 3 146.99 22.5
-8 -4 3 109.29 18.9
-8 12 -3 114.39 20.3
-12 4 -3 129.59 21.8
-8 -4 3 128.59 19.1
9 -12 3 42.9 16.2
-3 -9 3 47.1 15.2
3 -12 -3 10.6 13.7
-9 -3 -3 15.6 14.5
-9 12 3 56.49 19.5
-12 9 -3 52.19 19.8
-12 3 3 49.3 17.6
-12 3 -3 2.2 12.5
-9 12 -3 29 18.6
-9 -3 3 29.2 15.1
12 -9 3 42.5 17
-3 -9 -3 38.9 16.2
3 -12 3 38.2 16
-9 -3 3 13.2 13.5
-12 9 3 35.3 18.1
10 -12 3 57.39 18.5
2 -12 -3 53.99 17.5
-10 12 3 49.2 18.3
-12 10 -3 79.99 20.9
-2 -10 3 60.89 17.7
-10 -2 -3 43.2 17.3
-12 2 3 65.89 18.6
10 -12 3 1.6 19.7
-12 10 3 76.59 20.6
12 -10 3 72.39 20.1
2 -12 3 55.69 17.1
-10 12 -3 57.69 20.6
-10 -2 3 50.79 16.1
-2 -10 -3 51.89 17.3
-12 11 -3 510.25 40.7
1 -12 -3 498.05 37.8
-11 12 3 513.25 40.6
-11 -1 -3 467.15 38.6
-12 1 3 515.65 38.4
-1 -11 3 486.45 36.7
11 -12 3 487.15 36.8
-1 -11 -3 525.95 38.4
12 -11 3 518.75 39.3
1 -12 3 490.55 36.6
-12 11 3 482.25 39.1
-11 -1 3 511.85 38.1
-11 12 -3 466.35 40.2
-12 0 3 287.77 30.2
-12 12 3 266.27 33.2
12 -12 3 301.07 31.8
0 -12 3 296.67 28.6
0 -12 -3 332.07 31.5
-12 12 -3 281.97 35.4
12 -12 3 249.78 30.3
-13 6 3 37.6 15.4
13 -6 3 42.6 19.2
-7 13 3 0.2 14.5
-13 6 3 30.1 17.4
-13 7 -3 40.2 18.2
-6 -7 3 23.9 16
-7 -6 -3 46.3 16.7
7 -13 3 40.6 17.3
-6 -7 3 45.9 16.1
13 -7 3 49 18.3
-13 7 3 31.5 15.1
-6 -7 -3 42.4 15.3
-13 6 -3 45.5 17.3
-13 7 3 48.6 18.5
-7 -6 3 35.9 16.4
-7 -6 3 50.39 16.2
6 -13 3 46.5 15.5
-8 13 3 11.7 17.6
-13 8 -3 36.4 17.9
-13 5 3 33.3 17.4
-5 -8 3 29.7 14.3
-5 -8 3 26.4 16
13 -5 3 34.4 17.6
-13 5 3 27.4 15.8
8 -13 3 27.6 16.4
-13 8 3 19.1 13.4
13 -8 3 22.1 16.7
5 -13 3 30.6 14.4
-13 5 -3 39.9 17.4
-8 13 -3 18.9 15.6
-8 -5 3 18.2 14.6
-8 -5 3 29.3 16
13 -5 -3 1 21.8
-13 8 3 39.1 17.4
-5 -8 -3 25.4 15.5
-13 4 3 150.18 25
9 -13 3 228.68 27.7
-4 -9 3 173.88 22.8
-13 9 -3 173.78 28
-9 13 3 115.79 23.1
-4 -9 -3 107.39 19.3
13 -9 3 159.58 24.3
-13 4 -3 85.49 17.9
-13 9 3 87.59 19.6
-9 -4 3 130.09 20.4
4 -13 3 125.69 19.7
-9 13 -3 133.69 22.7
-9 -4 3 144.19 22.3
-10 13 3 78.19 21.1
-13 3 3 95.39 19.8
3 -13 -3 81.59 19
13 -3 3 103.19 21.7
-13 10 -3 120.39 23.5
-3 -10 3 96.39 17.6
-10 -3 -3 53.09 17.7
10 -13 3 133.29 21.8
3 -13 3 143.19 21.8
-10 13 -3 118.49 22.6
-13 10 3 142.69 24.6
-3 -10 -3 114.59 21
-10 -3 3 87.89 19.3
13 -10 3 157.38 25.6
-11 -2 -3 125.09 23.2
-13 11 -3 114.89 22.8
-13 2 3 149.39 23
-11 13 3 139.89 25
2 -13 -3 151.78 23.5
11 -13 3 193.58 26.4
-2 -11 3 168.58 23.6
-11 13 -3 175.48 27.5
-13 11 3 170.08 29.1
-11 -2 3 152.98 26.1
2 -13 3 157.18 25.4
-2 -11 -3 128.69 21.8
-13 1 3 109.39 22.6
-1 -12 3 62.39 17
1 -13 -3 64.39 19.8
12 -13 3 105.09 23.4
-13 12 -3 95.49 24
-12 13 3 50.19 20.7
1 -13 3 108.59 20.7
-13 12 3 60.69 19.7
-12 13 -3 88.09 23.9
13 -12 3 74.59 21.4
-1 -12 -3 75.29 19.8
-12 -1 3 75.29 19.6
-13 13 -3 259.77 35
0 -13 3 246.98 29.4
0 -13 -3 231.48 32.4
-13 0 3 251.37 30.5
-13 13 3 215.18 33.3
13 -13 3 235.88 29.1
-14 7 -3 160.28 24.5
-7 -7 3 134.09 22.6
-7 -7 -3 106.89 19.4
7 -14 3 114.19 19.8
-14 7 3 89.29 19.2
-14 7 3 138.39 23.7
14 -7 3 153.48 25.3
-7 -7 3 136.29 21.2
-6 -8 3 57.89 18.3
-14 6 3 73.79 18.6
-14 6 3 75.99 20.3
-14 8 -3 88.69 22.2
8 -14 3 115.09 22
14 -6 3 104.29 23.6
-6 -8 3 72.19 17.8
-14 6 -3 61.89 19.4
-14 8 3 51.29 16.7
6 -14 3 93.49 20.1
-8 -6 3 58.79 18.3
-8 -6 3 60.89 18.3
14 -8 3 96.49 22.8
-6 -8 -3 47.6 17.2
-14 8 3 91.09 21.3
-9 14 3 121.49 23.6
-14 5 3 92.89 19.2
-14 5 3 85.99 19.6
-5 -9 3 111.59 18.6
9 -14 3 169.48 24.8
-9 -5 3 106.49 20.5
-14 9 3 131.49 24.3
-14 5 -3 86.49 19.2
14 -9 3 118.69 23.5
5 -14 3 143.49 22.7
-9 -5 3 140.09 23.9
-9 14 -3 87.09 20.6
-5 -9 -3 100.59 20.5
-14 10 -3 159.78 26.6
10 -14 3 143.79 22.9
-10 14 3 120.59 24.4
-4 -10 3 137.19 22.4
-14 4 3 152.98 24.1
14 -4 3 204.98 30.4
4 -14 3 162.28 23.1
-10 -4 3 159.68 24.5
14 -10 3 138.69 23.3
-10 14 -3 119.99 23.6
-4 -10 -3 129.39 22.5
-14 10 3 153.28 25.4
3 -14 -3 28.2 18
14 -3 3 73.39 23.8
-14 11 -3 75.09 21
-14 3 3 58.59 18.1
11 -14 3 71.79 21
-11 14 3 44.7 20.8
-3 -11 3 54.69 16.8
3 -14 3 36.4 16
-3 -11 -3 48 18.9
-11 14 -3 39.6 20.6
14 -11 3 31.7 18.1
-11 -3 3 34.4 18
-14 11 3 50.99 20.4
-2 -12 3 239.78 29.7
-12 14 3 256.77 34.8
2 -14 -3 225.68 31
-14 12 -3 281.77 34.9
12 -14 3 274.17 32.2
-14 2 3 257.57 30.6
-2 -12 -3 252.87 31.7
2 -14 3 259.97 28.4
-12 14 -3 297.97 37
14 -12 3 288.27 32
-14 12 3 272.97 34
-12 -2 3 316.57 32.5
-13 14 3 208.78 32.9
1 -14 -3 258.67 33.7
-1 -13 3 223.98 30.3
-14 1 3 250.97 31
13 -14 3 246.38 31.3
-14 13 -3 258.77 34.1
14 -13 3 39.6 18.8
-14 13 3 84.79 14.8
-14 0 3 99.79 15.5
-14 14 -3 155.38 27.3
14 -14 3 108.79 23
0 -14 -3 134.79 24.7
-14 14 3 120.69 18.3
-14 14 3 117.29 25.2
0 -14 3 121.79 22.3
0 -14 -3 70.89 12.9
-14 0 3 129.29 23.8
-15 8 -3 128.09 23.4
-7 -8 3 95.09 20.8
-7 -8 3 177.18 25.9
-15 7 3 151.28 24
-15 7 3 170.88 26.9
15 -7 3 156.38 24.5
-15 8 3 132.99 22.9
-15 8 3 175.88 26.5
-8 -7 3 169.28 26.3
15 -8 3 161.88 25.4
-8 -7 3 178.88 25.2
-7 -8 -3 153.78 25.5
7 -15 3 166.58 27
-15 7 -3 162.28 25.7
9 -15 3 41.1 19.6
15 -6 3 34 18.6
-15 9 -3 36.2 19.4
-15 6 3 30.1 18
-6 -9 3 32 16.5
-9 15 3 -2.9 18.4
-15 6 3 22.8 16.9
6 -15 3 37.1 16.7
-15 6 -3 36.7 18.6
-9 -6 3 27.2 16.6
15 -9 3 49.99 21.3
-6 -9 -3 36.6 17.5
-15 9 3 3.8 15.1
-9 -6 3 30.9 19.8
-15 9 3 33.1 17.9
-5 15 -3 -14.6 22.1
10 -15 3 33.3 18.4
15 -5 3 33.5 21.6
-15 10 -3 35.1 19
-5 -10 3 34.6 17
-10 15 3 16.7 20.3
-15 5 3 30.1 17.4
-10 15 -3 15 17.9
15 -10 3 24 19.3
-15 5 -3 -3.5 15.6
-5 -10 -3 16.2 18
-5 -10 -3 -2.8 12.6
-15 10 3 24.2 17.9
15 -5 -3 2.7 26.8
-5 15 3 2.8 16
-15 5 -3 0.1 12.4
5 -15 3 25 18.1
-10 -5 3 15.1 18.7
11 -15 3 7.9 18.3
-4 15 -3 -11.5 17.6
-15 11 -3 3.4 18.9
-15 11 -3 -5.7 11.2
15 -11 -3 -10.6 10.1
-15 4 3 13.1 17.5
15 -4 3 -0.2 18.1
4 -15 -3 -0.5 17.8
-4 -11 3 7.8 16.4
-11 15 3 8 20.3
15 -11 3 37 20.4
-4 15 3 0.6 14.1
4 -15 3 21.1 17.2
-11 15 -3 21.7 20.4
-4 -11 -3 21.3 17.8
-15 4 -3 3.1 10.4
-4 -11 -3 3.7 9
-15 11 3 20.7 19.4
-15 11 3 0 12.1
-11 -4 3 22.4 18.2
15 -4 -3 5.7 19.7
15 -4 -3 -2.2 10.5
3 -15 -3 0 12.1
15 -12 -3 6.7 10.8
3 -15 -3 -0.6 18.9
12 -15 3 12.9 19.9
-3 15 -3 -12.7 19.4
-15 12 -3 1.8 12.6
15 -3 3 28.8 20.1
-15 3 3 5.6 10.9
-3 -12 3 15.8 17.3
-15 12 -3 19.7 20
-15 3 3 16.9 18.6
-12 15 3 2.9 19.4
-3 -12 -3 20.2 10.7
-12 15 -3 12.7 20.5
-15 12 3 19.3 18.2
-15 12 3 18.8 13.9
3 -15 3 13.4 16.5
-12 -3 3 15.8 19.2
-15 3 -3 -0.4 10.4
-3 -12 -3 -1.1 18.1
15 -3 -3 13.2 12.5
15 -12 3 21.2 21.1
-3 15 3 14.3 15.8
-15 13 -3 36.7 20.4
15 -13 -3 11.2 11.7
2 -15 -3 2.4 18.8
13 -15 3 16.8 18.5
15 -2 3 20.7 22.8
2 -15 -3 13.7 10.9
-13 15 3 35.6 21.3
-15 2 3 21.6 17.7
-15 2 3 25.3 12.9
-15 13 -3 13.5 12.9
-2 -13 3 21.1 17.6
13 -15 -3 0.9 10.4
-2 -13 -3 51.89 19.9
-15 13 3 34.5 15.1
-15 2 -3 18.7 11
-2 -13 -3 35.1 11.9
-15 13 3 61.29 21.3
-2 15 3 27.6 16.3
-13 -2 3 31.6 11.7
-13 -2 3 73.39 22.1
15 -2 -3 41 15.1
2 -15 3 74.29 20.4
15 -13 3 57.69 21.4
-13 15 -3 40.1 22.3
-1 -14 3 206.88 27.9
-15 1 3 140.49 19.6
1 -15 -3 134.09 18.8
-15 14 -3 155.28 21.1
14 -15 3 171.58 26.9
-15 1 3 184.18 29.8
15 -14 -3 105.39 15.4
-14 15 3 98.99 23.8
-15 14 -3 160.58 26.9
-14 15 3 172.48 20.7
-14 -1 3 182.58 30
-14 15 -3 153.38 26.6
15 -1 -3 127.79 19.3
14 -15 -3 107.39 15.2
-1 15 3 81.69 18.5
-14 -1 3 133.79 19.4
-1 -14 -3 141.79 25.1
-14 15 -3 136.89 20.5
1 -15 3 190.28 30.2
-15 14 3 200.48 22.5
-1 -14 -3 121.99 18.2
15 -14 3 196.18 32
-15 14 3 144.09 25.3
-15 0 3 16.5 18.2
0 15 3 4.6 15.8
-15 15 3 36.7 17.1
15 0 -3 9.5 15.9
-15 0 3 43.9 13.8
-15 15 -3 51.49 23.8
-15 15 3 35.3 21.8
0 -15 -3 22.9 11.7
15 -15 -3 25.6 12.5
-15 0 -3 6.8 11.9
0 -15 3 19.9 18.4
0 -15 -3 -1.4 21.5
15 -15 3 16 19.2
-15 15 -3 22.1 14.8
-8 -8 3 -3.2 17.8
-16 8 3 43.9 18.9
16 -8 -3 36.6 13.5
-8 -8 -3 33.4 12.1
-8 -8 3 58.79 18.4
8 8 -3 45.1 16.9
-16 8 -3 28.7 12.5
-8 16 3 12.9 14.7
-16 8 3 37.2 19
-8 16 -3 13.7 15.9
16 -8 3 75.29 23
-16 8 -3 74.39 22.7
8 -16 3 72.49 20.5
-16 9 -3 7.1 19.1
-7 -9 3 16.9 16.1
9 7 -3 5.5 14.8
9 -16 3 25.2 18.7
-16 7 3 20.9 18.4
-7 16 -3 14.8 17.6
-16 7 3 7.1 18.6
-9 -7 -3 18.7 12.2
-16 9 -3 -1.9 12
16 -9 -3 2.9 11.8
16 -7 3 20.8 21.4
7 9 -3 23.1 15.9
-16 7 -3 30.5 12.8
-16 7 -3 27.1 19.4
16 -7 -3 10.3 13.4
-16 9 3 17.5 16.7
-9 16 -3 -0.2 14.3
-7 -9 -3 15.6 18.4
-7 -9 -3 15.5 11.3
16 -9 3 35.1 21.5
-16 9 3 22 18.3
-9 -7 3 29.9 18.1
-9 -7 3 9.6 19.6
7 -16 3 41.5 18.7
-7 16 3 17.5 15.6
-10 -6 -3 59.39 14
-16 10 -3 57.69 20.7
16 -10 -3 58.89 14.5
-16 6 3 84.89 20.8
16 -6 3 77.79 23.6
-6 -10 3 76.99 20
-6 16 -3 59.39 19.3
10 -16 3 62.89 19.1
-6 16 3 47 17.9
-6 -10 -3 41.1 18.7
-16 6 -3 84.89 14.9
-6 -10 -3 48.4 12.3
16 -6 -3 42.3 13.6
16 -10 3 97.89 25.2
-16 10 3 83.69 22.6
6 10 -3 57.79 16.4
-16 6 -3 3.8 17.2
-10 -6 3 54.59 20.7
6 -16 3 97.39 22.3
-5 16 -3 55.49 19.3
16 -5 3 77.69 25.4
-16 5 3 35.3 13
-5 -11 3 56.09 19.1
5 -16 -3 6.7 10.3
-11 16 3 41.7 20.8
11 -16 3 77.29 23.5
-16 11 -3 28 13.1
-16 5 3 70.79 21.1
-16 11 -3 92.69 24
16 -11 -3 23.6 12.3
5 11 -3 63.39 16.8
-11 16 -3 0.6 18.3
16 -11 3 71.09 22.1
16 -5 -3 38.4 12.9
-11 -5 3 74.59 22.6
-5 -11 -3 44 12.3
-5 16 3 37 17.5
-5 -11 -3 56.29 20.4
-16 11 3 51.39 14.8
5 -16 3 69.79 20.6
-16 11 3 74.19 22.7
-16 5 -3 50.79 13.8
-16 4 3 24.7 13.2
16 -4 3 35.9 24.4
-4 -12 3 27.7 17.6
-16 4 3 17.9 18.3
16 -12 -3 19.5 13.6
-16 12 -3 20.7 12.7
-16 12 -3 31.1 20.6
12 -16 3 24.6 20.6
-4 16 -3 41.5 20.1
-12 16 3 28.5 20.8
4 -16 -3 15.5 11.2
-12 -4 3 29 19.9
-12 -4 3 -2.2 10.8
12 -16 -3 14 11.2
-16 12 3 32.5 19.4
16 -4 -3 31.1 14.5
-4 16 3 48.9 19.4
-4 -12 -3 45.2 21.6
-12 16 -3 39 21.8
4 -16 3 48.4 19.3
4 12 -3 21.8 15.1
-16 4 -3 24.6 12.8
-4 -12 -3 38.8 12.8
16 -12 3 48.8 22.5
-16 12 3 29 15
-3 -13 3 295.97 33.2
-13 16 3 293.87 37.4
-16 3 3 285.17 33.2
-16 13 -3 324.07 36.5
-16 13 -3 222.78 24.3
16 -13 -3 226.58 24.7
3 -16 -3 230.08 22.4
16 -3 3 341.47 40.5
-16 3 3 246.58 24.2
-3 16 -3 245.88 30.5
3 13 -3 194.88 25.6
-3 16 3 259.57 27.8
-3 -13 -3 277.17 35.2
-13 -3 3 212.18 21.7
16 -3 -3 216.98 26
-16 13 3 249.28 35
-13 16 -3 283.07 38.5
13 -16 -3 197.88 20.8
-13 -3 3 260.37 33.7
-16 13 3 198.58 24
-16 3 -3 211.78 22.5
-3 -13 -3 212.18 21.8
3 -16 3 283.47 31.7
16 -13 3 316.37 36.8
2 -16 -3 22.6 12.1
-16 2 3 40.6 19.9
-16 2 3 21.8 13.3
-16 14 -3 34.8 21.4
-14 16 3 26.3 16.1
-14 16 3 24.2 22.5
-2 -14 3 19.6 18.9
16 -2 3 29.4 24.7
16 -14 -3 33.9 13.1
-2 16 -3 14.5 17.4
-16 14 -3 22.8 13.4
14 -16 3 24.9 22.2
-2 -14 -3 12.2 12.1
-2 16 3 20.6 18
16 -2 -3 26.6 15.3
2 14 -3 14.6 15
-2 -14 -3 21.9 19.9
-14 16 -3 6.4 14.3
16 -14 3 9.6 20.4
-14 -2 3 16.9 20
-16 14 3 17.8 15.5
2 -16 3 14.9 18.9
14 -16 -3 22.4 12.3
-16 2 -3 21.4 12.7
-16 14 3 19.7 20.2
-14 16 -3 9.7 22.1
-14 -2 3 14.1 13.2
-16 15 -3 33.7 22.6
-1 -15 3 19.4 18.4
-1 16 -3 13 16.6
16 -15 -3 38.1 13.5
1 -16 -3 21.6 11.8
-15 16 3 33.3 16.7
-16 15 -3 17.3 13.8
16 -1 3 26 25.2
-15 -1 -3 -0.4 10.7
-15 16 3 10.5 20.3
-16 1 3 21.6 13.4
15 -16 3 18.9 21
-16 1 3 30.3 20.1
16 -15 3 33.6 22.5
-16 15 3 37.9 17.2
-15 16 -3 20.1 14.6
-15 16 -3 21.3 22.4
16 -1 -3 24.4 16.5
-1 -15 -3 19.3 11.5
15 -16 -3 29.4 13
-16 15 3 27.2 20.6
1 15 -3 -7.3 13
-16 1 -3 16.9 14
-15 -1 3 25.7 19.8
-1 16 3 23.7 18
-15 -1 3 25.5 13.5
-1 -15 -3 1.8 21.1
1 -16 3 18.1 19.9
-16 0 3 106.69 17.4
-16 0 -3 45.2 14.2
16 -16 3 92.49 24.2
-16 16 3 88.89 19.1
-16 0 3 58.99 21
-16 16 3 83.79 24.5
0 -16 3 102.89 24.1
16 0 -3 56.89 17.8
16 -16 -3 71.59 14.6
0 16 3 84.09 19.8
-16 16 -3 105.69 18.3
0 -16 -3 68.49 14
-16 16 -3 73.49 24.2
-17 9 -3 -2.5 11.8
9 8 -3 18.7 16.7
-17 8 3 23.4 19
-9 17 3 44.9 18.4
-9 -8 -3 29.9 13
-17 9 -3 51.19 22
8 -17 -3 18.3 10.6
-17 8 3 37.7 19.5
-8 17 -3 40.1 19.2
-8 -9 3 23 17.8
9 -17 3 28.2 18.7
17 -9 -3 29.8 13.5
17 -8 3 19.3 20.2
-17 9 -3 25.5 13.7
9 -17 -3 12.4 11
8 9 -3 22.9 16.7
17 -8 -3 18.4 14.4
-17 9 3 4.5 16.8
-8 -9 -3 20.2 12.5
-17 9 3 12.1 19
-17 8 -3 21.2 13.3
-9 17 -3 31.2 18.3
-17 8 -3 13.5 19.6
8 -17 3 12.2 17.5
-8 17 3 -2.3 17.3
17 -9 3 28.2 22.9
-9 -8 3 16.4 16.5
17 -10 -3 75.89 15.9
-17 10 -3 49.99 13.9
-17 10 -3 114.49 25.1
-7 -10 3 82.99 21.4
-17 10 -3 85.99 16.1
10 7 -3 84.09 18.4
-7 17 -3 102.79 21
17 -7 3 110.49 26.6
7 -17 -3 65.79 13
-10 17 3 18.6 15.8
10 -17 3 94.49 23.1
-17 7 3 43.7 13.4
-17 7 3 61.89 20.5
17 -10 3 123.49 27.3
-17 10 3 49.3 14.7
-7 -10 -3 89.29 15.3
17 -7 -3 88.39 16.9
-7 17 3 109.79 22.1
-10 17 -3 71.89 18.2
-17 10 3 87.49 22.7
7 -17 3 111.09 23.2
-17 7 -3 109.59 16.8
7 10 -3 119.99 20
11 -17 3 198.08 32.8
-6 -11 3 159.58 24.2
-17 6 3 181.78 31.3
-17 6 3 143.99 20.2
-17 11 -3 106.29 15.4
-6 17 -3 218.38 25.8
11 6 -3 146.19 19.5
17 -6 3 178.28 28.1
17 -11 -3 137.79 17.4
6 -17 -3 139.29 20.2
-17 11 -3 141.29 20.3
-17 11 -3 225.28 31.4
11 -17 -3 136.79 17
17 -6 -3 135.49 18.5
-17 6 -3 132.29 19.6
17 -11 3 191.68 30
6 11 -3 185.18 23
-6 -11 -3 136.29 20.1
-6 17 3 171.28 24.4
-11 -6 3 116.09 24.5
-6 -11 -3 168.88 26.2
-17 11 3 149.39 21.6
6 -17 3 181.48 27
-17 11 3 123.99 24.6
5 -17 -3 53.19 13.4
-17 5 3 93.09 16.6
17 -12 -3 74.49 15.7
-5 17 -3 85.19 20.6
12 -17 3 130.99 26.9
-17 12 -3 62.79 14.7
12 5 -3 35.2 14.4
17 -5 3 84.69 25
-17 5 3 102.39 23.9
-5 -12 3 84.89 21.6
-17 12 -3 103.29 24.9
-5 -12 -3 48.8 21.9
-5 17 3 68.19 20.8
5 12 -3 63.79 17.8
5 -17 3 46.5 18.9
12 -17 -3 61.09 13.6
-12 -5 3 43.6 21.3
17 -5 -3 78.49 16.5
-17 12 3 67.29 22.5
-17 5 -3 66.29 14.8
-5 -12 -3 73.29 14.2
17 -12 3 36.2 21
-17 12 3 57.99 16.4
-17 4 3 13.5 13.8
4 -17 -3 12.1 11.7
-17 4 3 4.4 18.4
13 4 -3 -6.8 11
17 -4 3 26.9 24.4
-4 17 -3 17.3 19
17 -4 3 -1.9 11.5
-17 13 -3 6.4 12.5
-13 17 3 4.2 19.3
-17 13 -3 13 21
17 -13 -3 10.9 13.7
13 -17 3 5.4 20.2
-4 -13 3 6 18.2
4 13 -3 12.3 16.1
-17 4 -3 6.4 12.7
-4 -13 -3 13.2 20.7
13 -17 -3 6.5 11.6
-13 -4 3 7.9 20.2
-17 13 3 -7.9 18.4
-4 17 3 13.6 18.7
-4 -13 -3 4.1 11.7
4 -17 3 16.6 17.9
17 -13 3 3.4 21.3
-13 17 -3 3.6 21.2
-13 -4 3 10.8 12.8
-17 13 3 -1 15.6
17 -4 -3 2.2 13.3
-14 17 3 120.79 19.7
-17 14 -3 138.69 27
-3 17 -3 172.58 23.5
-14 17 3 145.79 27.4
-17 3 3 186.88 21.1
14 -17 3 178.48 30.3
17 -14 -3 129.19 17.5
-17 3 3 170.58 30.7
-3 -14 3 165.98 26.7
-17 14 -3 184.58 20.9
3 -17 -3 95.49 15.2
17 -3 3 118.19 27.7
-14 -3 3 140.49 18
-17 3 -3 163.48 19.3
-14 17 -3 101.69 24.4
-3 17 3 135.69 23.2
17 -3 -3 95.49 17
3 -17 3 170.38 27.5
3 14 -3 121.09 19.6
17 -14 3 93.69 24.5
14 -17 -3 108.29 16.4
-3 -14 -3 64.89 21.8
-14 17 -3 69.69 15.8
-17 14 3 127.09 25.7
-17 14 3 170.28 21.9
-14 -3 3 97.89 23.3
-3 -14 -3 94.49 15.2
-2 -15 3 36.9 20.5
-15 17 3 15.8 21.3
-2 17 -3 45.1 18.2
-15 17 3 25.3 16.4
17 -15 -3 26.4 12.5
2 -17 -3 17.2 11.9
-17 15 -3 39.4 14.4
-17 15 -3 5.5 21.4
15 -17 3 16.6 22.2
-17 2 3 14.2 19.3
17 -2 3 2.6 24.2
-17 2 3 30.3 14.6
2 -17 3 3.6 19
15 -17 -3 10.1 12.6
-17 2 -3 16.1 13.9
17 -15 3 9.4 21.6
-17 15 3 5.7 15
-15 17 -3 7.4 14.3
-2 -15 -3 19 12
-2 17 3 19.5 18.1
-15 -2 3 23.6 20.2
-15 17 -3 21.9 21.4
2 15 -3 16.4 16.3
17 -2 -3 27.4 15.3
-17 15 3 4.3 20
-15 -2 3 3.5 13.5
16 -17 3 4 21.2
16 1 -3 6.5 16.3
-1 17 -3 16 15.2
1 16 3 -11.4 13.7
-16 17 3 3.1 19.6
-17 16 -3 18.8 13.6
-17 1 3 18.1 18.4
-17 16 -3 9.2 20.3
-17 1 3 18 14.4
-1 -16 3 13.8 19.7
17 -16 -3 14.2 12.4
1 -17 -3 4.4 11
-16 17 3 18.4 15.2
17 -1 3 21.5 26
-16 -1 -3 8.4 12
-1 -16 -3 19.7 11.7
-17 16 3 9.7 20.6
-17 1 -3 22.8 13.8
-17 16 3 26.5 16.4
-16 17 -3 26.1 15.2
-16 -1 3 28.6 19.6
-16 17 -3 21.9 20.9
-16 -1 3 30.5 14.7
1 -17 3 21.2 20.6
-1 17 3 24.9 17.3
1 16 -3 11 14.8
16 -17 -3 24.6 12.7
17 -16 3 25.1 20.7
17 -1 -3 27.6 16.1
0 17 -3 -8.2 11.1
-17 0 3 5.8 18
17 0 -3 12.1 15.3
-17 0 -3 13.1 13.1
-17 17 -3 15.2 19.9
17 -17 3 20 22.7
-17 17 3 26.4 16
17 0 3 9.7 24
17 -17 -3 14.8 12.5
-17 0 3 25.9 14.5
-17 17 -3 17.2 14.4
-17 17 3 10.5 18.9
0 -17 3 8.7 19.2
0 -17 -3 18.6 12
0 17 -3 -10.4 12.8
0 17 3 17.1 15.9
-18 9 -3 6.6 19.1
18 -9 3 17.1 23.4
-18 9 -3 11.8 13.4
-18 9 3 -6 15.4
-18 9 3 0.5 18.1
9 -18 3 21.1 19.2
-9 18 3 8.6 18.5
-9 -9 -3 -2.1 12.9
9 9 -3 14.1 16.3
9 -18 -3 3.5 10.9
-9 -9 3 9.1 17.2
-18 9 -3 5 12.4
18 -9 -3 1.9 12.7
-9 18 -3 13.5 18
-18 9 3 2 17.1
-18 10 -3 63.19 14.3
8 -18 -3 50.59 13
-10 18 3 48.8 18.4
-18 8 3 63.79 15
-8 18 -3 64.49 19.5
-8 -10 3 74.59 22.3
10 -18 3 85.89 23.4
-18 10 -3 57.79 22.1
10 8 -3 63.49 17.2
18 -8 3 47 22.2
18 -10 -3 46.1 14.9
-18 8 3 38.4 19.4
-18 10 -3 54.59 15.2
8 -18 3 45.5 21.2
-18 10 3 33.3 20.3
-18 10 3 31.7 15.1
8 10 -3 29.4 16.3
-8 18 3 21.4 18.1
18 -10 3 30.5 22.3
-10 18 -3 27.9 17.1
10 -18 -3 25.1 11.6
-8 -10 -3 41.3 14.1
-18 8 -3 34.9 14
18 -8 -3 32.8 14.1
11 7 -3 21.5 15.6
7 -18 -3 14.4 12
-7 -11 3 12.3 18.2
-18 7 3 13 19.8
-18 11 -3 26.6 13.4
11 -18 3 24.5 20.7
-18 7 3 13.9 14.1
-11 18 3 3.5 16.5
-18 11 -3 26.9 20.6
-7 18 -3 30.3 19.5
18 -7 3 37.8 23.8
-18 11 -3 6.5 11.8
18 -11 -3 -8.2 11.5
-7 18 3 37.3 19.9
18 -11 3 21.9 21.9
-11 18 -3 35.7 16.4
-18 11 3 12.8 19.5
7 -18 3 21.1 19.1
7 11 -3 27.2 16.4
-7 -11 -3 30.7 13.3
-18 11 3 39.9 16.8
11 7 3 0.5 12.2
11 -18 -3 23 11.8
18 -7 -3 31.5 14.7
-18 7 -3 24.5 12.9
-18 6 3 7.3 13.5
18 -12 -3 -0.8 13
-12 18 3 -13 14.2
-18 12 -3 15.4 13.4
-6 18 -3 0.9 18.2
6 -18 -3 6.8 12.2
-6 -12 3 6.4 17.6
-18 12 -3 11.6 21
-18 6 3 13.1 19.5
12 6 -3 -3.3 14.1
-18 12 -3 3.4 11.5
12 -18 3 21.5 20.7
18 -6 3 5 22.8
-18 6 -3 9.7 12.5
-18 12 3 11.1 20
-6 18 3 11.9 18
-18 12 3 15.7 15.9
12 -18 -3 11.4 12.5
6 -18 3 17.6 18.6
6 12 -3 7.6 15.5
18 -12 3 6.6 21.4
-6 -12 -3 7.3 18.3
-12 -6 3 -1.5 19.6
-12 18 -3 9.1 13.9
-6 -12 -3 1.3 11.8
18 -6 -3 9.5 13.4
-12 -6 3 -0.2 11.8
-18 5 3 68.29 22.6
18 -13 -3 79.49 15.9
-18 5 3 109.19 17.1
18 -5 3 50.99 23.9
-5 -13 3 90.99 22.6
-5 18 -3 85.99 19.9
-18 13 -3 56.49 14.3
5 -18 -3 87.19 14.6
13 -18 3 90.09 24.1
-18 13 -3 96.89 24.2
13 5 -3 74.09 15.7
-5 -13 -3 56.59 21.4
-13 -5 3 35.4 20.8
-5 18 3 79.89 21
5 -18 3 71.19 20.6
-18 13 3 105.49 18.8
-18 5 -3 100.89 16.2
-5 -13 -3 72.89 13.8
-18 13 3 44 21
18 -5 -3 99.69 16.9
13 -18 -3 75.99 14.5
18 -13 3 77.19 23.6
5 13 -3 82.09 17.8
-13 -5 3 77.29 15.3
-4 -14 3 15.8 18.6
14 -18 3 30.6 23.1
4 -18 -3 20 11.5
-18 14 -3 27.8 21.9
18 -14 -3 31 13.1
-18 4 3 26.9 13.6
18 -4 3 16.7 13.2
-4 18 -3 29.8 17.9
-18 4 3 10 18.9
18 -4 3 13.6 24.7
-18 14 -3 32.7 14.1
-14 18 3 18 15
14 4 -3 -1.6 11.6
-4 18 3 15.6 17
-18 14 3 6.8 15.4
-14 -4 3 -0.3 18.5
4 14 -3 6 15.3
-4 -14 -3 1.9 23.3
18 -4 -3 7.4 12.6
-4 -14 -3 2.2 11.2
-14 18 -3 -3.3 13.5
-14 -4 3 4.5 13.8
4 -18 3 6 19.9
14 -18 -3 7.5 12
-18 4 -3 7.6 12.2
18 -14 3 13.1 22.3
-18 14 3 7.5 21.4
18 -3 3 -5.3 24.9
18 -3 3 8.3 13.9
3 -18 -3 11.9 11.6
15 -18 3 15.5 22.8
-3 18 -3 21.7 16.6
-18 3 3 3.8 19.3
-18 15 -3 13.4 12.5
-15 18 3 -5.1 25.4
-3 -15 3 -6 18.2
18 -15 -3 8.3 11.6
-18 15 -3 20.3 20
-18 3 3 12.3 13.2
-15 18 3 15.8 16
18 -15 3 17 21.2
3 15 -3 18.7 15.3
-15 18 -3 20.8 14.8
-15 -3 3 4.4 19.1
3 -18 3 17.7 20.9
-3 18 3 3.4 16.4
15 -18 -3 3.4 12
18 -3 -3 6 14.1
-18 3 -3 8.4 12.2
-15 -3 3 16.5 14.1
-18 15 3 15.7 16.2
-3 -15 -3 17.2 11.7
-18 15 3 8.8 20.7
16 -18 3 6.1 20.9
-18 16 -3 18.9 19.7
16 2 -3 18.1 16.5
18 -16 -3 15.7 12.2
-16 18 3 9.6 16.4
-18 16 -3 28.6 13.5
-2 18 -3 6.3 14.8
-2 -16 3 5.4 18.4
-18 2 3 12.1 13.2
-16 -2 -3 -0.6 11.4
-16 18 3 -3.8 21.2
-18 2 3 3.3 19.6
18 -2 3 6 13.9
18 -2 3 20.2 25.5
2 -18 -3 16.9 11.1
-18 16 3 5.7 15.1
-18 2 -3 4.2 12.1
18 -2 -3 6 13.1
-2 -16 -3 11.3 11.2
2 -18 3 15.2 20.4
2 16 -3 7.1 14.6
16 -18 -3 6.4 12
-16 -2 3 5.5 13.7
18 -16 3 1.7 20.1
-2 18 3 22 17.4
-18 16 3 3.2 18.9
-16 -2 3 6.1 18
-16 18 -3 17.7 14.6
1 17 3 -15.5 12.4
17 -18 3 -2.8 21.5
-17 -1 -3 13.7 12.5
18 -1 3 1.8 13.4
1 -18 -3 4.6 11.6
18 -1 3 19.1 24.5
-1 -17 3 -1.1 18.6
18 -17 -3 6.8 11.8
-18 1 3 17.8 12.9
17 1 -3 3.4 14.9
-18 17 -3 2.8 18.5
-18 17 -3 -0.3 13.1
-17 18 3 7.5 15.3
-1 18 -3 18.8 13.8
-18 1 3 -1.2 18.1
18 -17 3 -2.8 21.3
17 -18 -3 -2.7 11.9
-18 17 3 14.5 15.2
17 1 3 17.2 23.8
-1 18 3 19.7 15.6
-18 17 3 -7.6 19.7
18 -1 -3 13.6 13.6
-18 1 -3 9 12.2
-1 -17 -3 9.2 11.3
-17 18 -3 4.2 14
1 17 -3 10.3 14.1
-17 -1 3 4.6 17.9
-17 -1 3 18.5 14.1
1 -18 3 -0.6 18.3
-18 18 3 22.4 14.8
18 -18 -3 26.3 11.8
0 18 -3 -5.6 12.9
0 18 -3 -4.8 10.9
-18 0 3 47.1 13.6
0 -18 3 1.3 18
0 -18 -3 35.4 11.6
18 0 3 1.7 25.6
-18 18 -3 23.2 13.5
0 18 3 30.1 15
18 0 -3 29.8 14.3
-18 0 -3 21 12.3
9 -19 -3 10.4 11
10 -19 3 10.8 19.6
19 -9 3 19.3 23.8
-9 19 -3 32.7 18.3
-10 19 3 17.8 17.1
19 -10 -3 7.5 12.7
-19 10 -3 3.5 22.9
-19 9 3 21.2 13
-9 -10 3 10.8 18.3
10 9 -3 24.1 14.5
-19 10 -3 -2 13.2
-19 10 -3 10.1 11.8
-19 10 3 -1.9 13
10 -19 -3 19.1 11.4
-19 10 3 29 14.3
-19 9 -3 1.4 12.5
-19 9 -3 19 12.7
-10 19 -3 25.4 16.8
19 -10 3 39.2 23.1
-9 -10 -3 23.3 13.6
9 10 -3 19.1 14
-9 19 3 25.5 16.8
19 -9 -3 25.7 13
9 -19 3 21.1 21
-19 11 -3 8.5 11.5
-8 19 -3 8.6 16.6
11 8 -3 18.6 14.6
19 -11 -3 0.9 11.8
8 -19 -3 13 11.6
19 -8 3 23.2 22.7
-19 8 3 3.6 18.2
-19 11 -3 14.8 19.2
11 -19 3 33.2 19.7
-8 -11 3 10.9 17.6
-19 8 3 13.4 13.9
-19 11 -3 33.5 14.6
-11 19 3 16.2 17.1
19 -11 3 13.4 22.5
11 8 3 10.2 13.1
-19 11 3 25.8 15.7
-11 19 -3 15.4 14.8
-19 11 3 -5.8 19.1
8 11 -3 24.6 14.5
-19 8 -3 14.6 12.4
-8 19 3 24.4 17.7
-8 -11 -3 30.7 12.7
19 -8 -3 13.3 12.5
11 -19 -3 18.8 11
8 -19 3 16.2 18.9
-19 7 3 52.79 14.8
-19 12 -3 57.09 14.8
-7 -12 3 41 19.4
-19 7 3 35.7 19.3
-19 12 -3 63.49 21.1
19 -7 3 70.59 24.9
12 -19 3 58.69 21.5
19 -12 -3 44.2 14.1
12 7 -3 50.09 15
-12 19 3 49.7 16.7
-19 12 -3 40.8 12.7
-7 19 -3 54.29 18.3
7 -19 -3 40 12.7
-19 7 -3 73.89 15.1
-7 -12 -3 51.99 13.4
7 -19 3 52.29 21.9
-19 12 3 58.39 22.2
7 12 -3 50.29 15.4
-19 12 3 48.8 16.5
19 -12 3 41.7 23
12 -19 -3 57.69 13.5
19 -7 -3 64.29 14.7
-7 19 3 61.99 19.1
-12 19 -3 49.99 15.4
-19 13 -3 120.59 17.7
-6 19 -3 82.49 18.7
-19 6 3 77.09 22.1
-19 13 -3 90.79 24
19 -13 -3 102.29 16.2
13 6 -3 78.39 15.9
-19 13 -3 109.39 15.1
-6 -13 3 112.99 23.3
13 -19 3 91.19 24.6
-19 6 3 82.59 15.4
6 -19 -3 72.19 13.7
19 -6 3 116.19 28.3
-19 6 -3 144.39 18
-13 -6 3 83.29 14.8
-19 13 3 91.79 24
19 -6 -3 150.18 19.3
-13 19 -3 67.89 16
19 -13 3 107.99 25.5
-6 19 3 106.69 20.8
6 13 -3 125.59 19
-19 13 3 84.99 18.1
13 -19 -3 74.99 14
-6 -13 -3 101.09 15.7
6 -19 3 105.89 24.2
19 -5 3 31.8 12.5
-19 5 3 26.5 19.2
-5 19 -3 30.9 16.7
-19 14 -3 47.6 14.4
19 -14 -3 31.3 13.1
19 -5 3 30.2 23.4
-19 14 -3 1.6 9.9
14 5 -3 28.8 13.3
-19 5 3 25.5 12.8
-19 14 -3 21 19.7
-5 -14 3 23.7 18.2
-14 19 3 -4.8 14
14 -19 3 26.8 20.7
5 -19 -3 21.5 11.3
-19 14 3 34.4 20.9
14 -19 -3 33.3 13.3
19 -14 3 23.8 21.5
5 14 -3 40.5 15.2
-14 -5 3 41.2 14.6
-5 19 3 41.1 17.3
5 -19 3 38.2 20.8
-19 5 -3 35 13.1
19 -5 -3 54.49 15.1
-5 -14 -3 33.1 12.8
-19 14 3 53.99 17.1
19 -15 -3 58.89 12.8
4 -19 -3 49.2 12.9
19 -4 3 54.79 14.5
-19 4 3 38.6 20.8
-15 19 3 62.89 16
-19 15 -3 49.9 14.2
-19 15 -3 38.1 20
-19 4 3 64.49 15.1
19 -4 3 58.49 23.7
-4 -15 3 39.9 19.2
15 -19 3 10.7 20
-4 19 -3 50.99 15.7
15 -19 -3 38.1 12.8
-4 19 3 47.1 17.8
-15 19 -3 8 12.7
19 -15 3 15 20.8
-19 15 3 62.39 16.9
19 -4 -3 56.29 14.4
-19 15 3 39.2 22.7
4 15 -3 30.1 14.3
4 -19 3 20 21
-4 -15 -3 31.2 12.5
-15 -4 3 38.6 14.8
-19 4 -3 56.49 13.9
-3 19 -3 19.8 14.6
19 -16 -3 14.7 11.4
-3 -16 3 1 17.3
-19 3 3 8.5 18.4
19 -3 3 11.1 12.9
16 3 -3 13.3 16.2
-19 3 3 12.1 12.4
16 -19 3 -2.4 30.6
-16 19 3 17.3 14.9
-19 16 -3 23.4 13.4
3 -19 -3 11.2 10.6
19 -3 3 -0.8 22.6
-19 16 -3 6.2 18.1
3 -19 3 -2.5 18.9
-16 -3 3 25.8 15
-19 3 -3 33.5 12.7
-3 19 3 14.2 15.3
3 16 -3 14.7 13.8
-3 -16 -3 16.6 11.2
16 -19 -3 27.7 12.1
19 -3 -3 10 12.4
-16 19 -3 20.6 14.3
-19 16 3 52.29 16.8
-19 16 3 5.5 20
17 2 -3 9.2 14.5
-2 19 -3 4.9 13.1
2 -19 -3 3.3 10.9
-19 17 -3 8.2 11.8
-19 2 3 6.2 12.1
19 -17 -3 10.3 11.5
19 -2 3 9.7 12.4
19 -2 3 5.2 38.4
-17 -2 -3 -0.3 10.5
-17 19 3 15.1 14.6
-2 -17 -3 10.8 11
-2 19 3 0.3 14.4
2 17 -3 6.8 13.2
17 -19 -3 4.8 11
-17 19 -3 0.7 12.9
-19 17 3 5.3 14.4
-19 2 -3 5 11.7
-17 -2 3 17.3 12.1
19 -2 -3 5.3 11.9
1 -19 -3 38.4 11
19 -1 3 24.3 13
-18 19 3 46.8 15.1
-1 19 -3 30.6 12.5
19 -18 -3 31.7 11.9
-19 18 -3 50.79 13.7
18 1 -3 32.9 14
-18 -1 -3 28.2 12.2
-19 1 3 31.3 11.8
-19 18 3 31.5 14.8
-18 -1 3 31.1 12.1
-18 19 -3 36.9 13.8
18 -19 -3 41.9 11.4
1 18 -3 17.3 12.1
-1 -18 -3 20.9 11.4
19 -1 -3 36.2 12.8
-19 1 -3 29 12
-1 19 3 33.4 14.9
-19 19 3 44 14
0 19 3 19.3 12.4
19 0 -3 26.6 13.2
19 -19 -3 17.7 10.4
-19 0 3 21.3 10.9
-19 19 -3 32.4 12.2
-19 0 -3 29.4 12.2
0 -19 -3 15.4 10.6
19 0 3 20 12.1
10 -20 -3 5.1 10.9
10 -20 3 2.3 19.1
-10 20 -3 10.1 14.6
20 -10 -3 6.2 11.4
10 10 -3 15.2 13
-20 10 3 -1.3 11.1
-20 10 -3 7.8 11.4
20 -10 3 12.1 22.2
-20 10 -3 -2.4 11.7
-20 10 3 6.2 12.1
-10 20 3 5.6 15.5
10 10 3 3.5 12.7
11 -20 3 1.9 18.7
-9 20 -3 22.9 16
-20 9 3 17.4 12.4
11 9 -3 17.2 12.7
9 11 3 22.7 13.8
9 -20 -3 9 11
-11 20 3 25.1 16.4
-20 11 -3 23.4 12.9
20 -11 -3 11.5 12
20 -9 3 5.6 22.4
-20 11 -3 11.8 11.5
-11 20 -3 37.9 15.9
20 -9 -3 23.8 12.9
9 -20 3 9.8 18.8
11 -20 -3 18 11
-9 20 3 34.1 16.3
-20 9 -3 30.1 12.1
11 9 3 13.2 13.1
9 11 -3 22.1 12.9
-20 11 3 23.8 14.4
20 -11 3 22.9 22.6
12 -20 3 4.8 18.9
-8 20 -3 28.9 15.9
20 -12 -3 34.5 13.1
12 8 -3 24.9 14.1
-20 12 -3 13.7 12.8
-12 20 3 32.7 16.1
-20 12 -3 25 12.1
8 -20 -3 19.4 11.8
20 -8 3 19.5 21.8
-8 -12 3 -0.4 16.1
-20 8 3 3.6 13
8 -20 3 8.6 19.2
12 -20 -3 21.5 11.2
8 12 -3 21.3 12.7
20 -8 -3 27.3 12.5
12 8 3 13.2 12.6
-12 20 -3 18 14.4
-20 8 -3 23.9 12.4
20 -12 3 4 20.3
-8 -12 -3 26.3 12.8
-8 20 3 25.6 16
-20 12 3 28.9 15.1
-7 20 -3 112.89 19.1
-13 20 3 58.29 16.1
-20 7 3 105.39 17.1
-20 13 -3 53.79 13.1
20 -13 -3 95.09 15.4
-20 13 -3 4.7 27.9
7 -20 -3 50.29 12.2
-20 13 -3 73.69 15.1
20 -7 3 40.1 22.1
13 7 -3 74.89 15.3
13 -20 3 2.7 19.3
-20 7 -3 115.59 16.7
13 -20 -3 68.39 13.1
-7 -13 -3 95.69 15.3
20 -7 -3 79.29 14.1
-13 20 -3 93.19 16.6
7 13 -3 121.59 17.5
-20 13 3 87.99 16.9
-7 20 3 65.59 17.3
-20 14 -3 3.9 22.2
20 -6 3 63.59 12.9
20 -14 -3 63.19 13.2
6 -20 -3 48.6 11.6
14 6 -3 55.29 13.7
20 -6 3 5.7 21.7
-20 14 -3 63.19 13.7
-6 20 -3 69.69 16.7
-20 6 3 62.29 14.4
-20 14 -3 44 12.1
-20 6 -3 77.89 14.4
6 14 -3 56.39 14.4
-6 20 3 111.89 20
20 -6 -3 87.59 14.8
-14 20 -3 34 13.2
-20 14 3 73.79 16.5
-14 -6 3 78.99 15.8
14 -20 -3 53.79 12.8
-6 -14 -3 86.99 14.7
5 -20 -3 6.7 10.8
15 5 -3 -1.6 10.9
-5 20 -3 6.4 14.5
20 -5 3 -1.8 10.8
-15 20 3 -4.6 12.3
-20 5 3 7.1 12.9
20 -15 -3 -1.2 10.5
-20 15 -3 7.7 11.8
-20 5 -3 24.6 12.8
-15 -5 3 5.6 14.2
-5 -15 -3 11.7 11.4
15 -20 -3 6.9 10.7
-20 15 3 10.6 14.7
20 -5 -3 3.8 12
-5 20 3 12.9 15.3
5 15 -3 24.1 13.1
-20 4 3 20.7 11.4
20 -4 3 20.2 11.8
-4 20 -3 20.5 13.6
20 -16 -3 26.9 11.7
4 -20 -3 13.9 10.8
-16 20 3 36.2 14.2
16 4 -3 27.9 16
-20 16 -3 30.3 12.8
-4 20 3 34.3 15.3
-20 4 -3 29.9 12.7
-4 -16 -3 21.8 11.5
20 -4 -3 43.1 13.4
16 -20 -3 19.1 11.1
-20 16 3 38.6 15.2
-16 20 -3 4.5 11.3
4 16 -3 24.7 12.7
-16 -4 3 34.6 12.9
20 -17 -3 9.6 10.9
20 -3 3 -4.8 10.7
-20 3 3 -2.9 10.2
-20 17 -3 7.8 11.5
17 3 -3 -6.3 13.6
3 -20 -3 0.9 10.7
-17 20 3 2.5 13.1
-3 20 -3 15.1 12.9
-3 20 3 23 14.5
-17 -3 3 8.1 11.5
3 17 -3 6.8 12
17 -20 -3 4.3 11
-3 -17 -3 6.3 10.8
-20 17 3 7.8 13.2
20 -3 -3 5 12.3
-20 3 -3 4.1 11.2
-17 20 -3 3.8 12.1
20 -18 -3 5.8 10
18 2 -3 1.6 12.8
2 18 3 11.7 11.2
2 -20 -3 0.6 9.4
20 -2 3 7.1 10.9
-2 20 -3 6.7 11.7
-20 2 3 1.1 10.5
-20 18 -3 6.4 11.4
-18 20 3 -3.4 12
-20 2 -3 6.2 11.1
-2 20 3 9.4 12.7
-20 18 3 10.9 13.2
-18 -2 3 2.1 10.8
-2 -18 -3 -0.4 10.3
2 18 -3 3.1 11.2
-18 20 -3 9 11.7
20 -2 -3 6.6 10.6
18 -20 -3 10 10.7
-2 20 3 10.2 11.3
-20 1 3 4.7 10.3
-19 20 3 9.5 11.7
-19 -1 -3 1.4 9.9
19 1 -3 5.6 11.9
-1 20 -3 -3.3 10.4
20 -19 -3 -1.6 9.1
1 19 3 -1.4 10.7
20 -1 3 -1.3 10.1
-20 19 -3 5.2 10.1
1 -20 -3 7.7 9.8
1 19 -3 -6.5 12.6
-19 -1 3 6.2 9.4
-19 20 -3 0.4 11
19 -20 -3 6.1 9.8
-20 19 3 10.7 12.2
-20 1 -3 0.9 10.8
-1 -19 -3 2.6 9.6
-1 20 3 3.7 11.6
20 -1 -3 6.8 11
19 1 3 5.2 10.8
-1 20 3 4.4 10.2
20 -20 -3 25.8 8.8
0 -20 -3 21.5 9.8
0 20 3 35.6 11.1
20 0 -3 35 12.1
-20 0 3 34.4 10.2
-20 20 -3 42.6 11
20 0 3 31.7 10.9
-20 0 -3 26.6 9.1
-20 20 3 38.4 11.2
11 10 -3 4 12
-21 10 3 7.8 11.4
-21 11 -3 4.3 10.7
-11 21 3 8.6 14.4
21 -11 -3 -3.8 11.1
10 -21 -3 5 10.5
-10 21 -3 0.7 14
10 11 3 9.5 11.9
-21 11 -3 10.9 11.3
-21 10 -3 -2.6 9.7
-21 11 3 -1.4 10.4
10 11 -3 -4.4 11.5
-10 21 3 21 14.7
-21 10 -3 -5.8 11
21 -10 -3 6.9 11
-11 21 -3 16.9 14.1
11 -21 -3 7.6 10.8
11 10 3 -0.8 11.9
-21 11 3 8.1 12.2
-21 12 -3 17.5 12
12 9 -3 14.4 12.2
-21 9 3 19.2 11.7
9 12 3 7.1 11.8
-9 21 -3 16.6 13.3
-12 21 3 15.6 14.6
9 -21 -3 7.8 10.1
-21 12 -3 18.6 11.4
21 -12 -3 13.4 11.8
21 -9 -3 4.3 11.1
12 -21 -3 10.3 10.6
9 12 -3 12.1 11.4
-21 9 -3 13.9 11
-9 21 3 10.4 14
12 9 3 -2.8 11.9
-21 12 3 24.5 13.5
-12 21 -3 6.4 13
-13 21 3 105.79 17.2
-21 13 -3 118.09 17.1
-21 13 -3 95.99 14.5
13 8 -3 83.79 14.8
21 -13 -3 153.08 16.6
-8 21 -3 110.79 16.5
8 -21 -3 117.59 16.7
-21 8 3 103.09 15
8 13 3 143.89 18
-21 8 -3 111.09 14.9
-13 21 -3 92.79 15.6
8 13 -3 154.78 17.3
-21 13 3 119.79 16.9
13 -21 -3 93.79 13.4
14 7 -3 30.3 12.4
-21 7 3 25.6 11.4
21 -7 3 -2.6 9
21 -14 -3 31.8 11.7
-21 14 -3 25 10.9
7 14 3 26.4 11.9
-7 21 -3 46 14.5
-21 14 -3 29.2 11.9
7 -21 -3 24 10.4
-7 21 3 25.1 14.3
-21 14 3 30.1 13.4
7 14 -3 21 11.1
-14 21 -3 32.9 12.8
14 -21 -3 12.8 10.2
21 -7 -3 22.5 11.6
-7 -14 -3 32.1 12.2
-21 7 -3 35.6 12
21 -15 -3 15.6 10.4
6 15 3 19.4 11.6
15 6 -3 17.5 15.2
-21 6 3 14.1 11.6
6 -21 -3 17.9 10.3
21 -6 3 11.2 10.5
15 6 -3 21.1 11.3
-21 15 -3 22.9 11.6
-6 21 -3 20.5 12.8
-6 -15 -3 20.1 11.7
-15 -6 3 13 11
-6 21 3 26 14.5
21 -6 -3 7.9 10.9
-15 21 -3 -2.6 11.5
-21 6 -3 7.4 11
6 15 -3 20 11
15 -21 -3 5.2 9.4
-21 15 3 4.8 13.1
5 16 3 35.7 11.7
-21 5 3 53.89 12.6
-21 16 -3 46.1 12.3
21 -5 3 38.2 11.5
16 5 -3 27.7 15.2
5 -21 -3 19.4 10.4
21 -16 -3 35.5 11.2
-5 21 -3 24.4 13.3
21 -5 -3 60.69 12.9
16 -21 -3 33.1 10.9
-5 -16 -3 50.59 11.9
-21 5 -3 56.89 12.8
-16 -5 3 69.99 13.7
-5 21 3 59.79 15
-21 16 3 73.39 15.6
5 16 -3 42.1 12.1
4 -21 -3 29.2 10.6
17 4 -3 29.6 14
21 -4 3 16.4 10.1
-21 17 -3 33 11.1
-21 4 3 38.2 11.4
-4 21 -3 39.6 13.5
21 -17 -3 31.8 10.7
4 17 3 40.2 12.1
-17 21 3 21.2 11.1
4 17 -3 26.5 11.3
-4 -17 -3 34.4 11
-4 21 3 33.4 13
21 -4 -3 46.9 11.8
17 -21 -3 31.2 10.3
-21 17 3 47.6 14
-17 -4 3 41.8 12
-21 4 -3 42.8 11.9
21 -18 -3 7.3 9.6
-21 18 -3 12 10.4
-18 21 3 10.4 10.3
3 -21 -3 6.8 9.1
18 3 -3 13.7 12.3
-3 21 -3 3.3 10.9
3 18 3 9.4 10.6
21 -3 3 12.1 9.8
-21 3 3 13.5 10.4
18 -21 -3 7 8.8
-3 -18 -3 12.2 9.7
-18 21 -3 10.2 10.3
3 18 -3 7.9 10.3
-3 21 3 2.9 11.7
21 -3 -3 -4.2 10.9
-21 3 -3 6.5 10.1
-18 -3 3 7.7 9.9
-21 18 3 12.7 11.9
-2 21 -3 0 9.4
21 -2 3 14.7 9.4
-19 21 3 20.4 10.6
-21 19 -3 13.1 9.8
-21 2 3 19 9.5
2 19 3 13.5 10.3
21 -19 -3 14 8.5
19 2 -3 11.1 11.3
2 -21 -3 17.5 9.1
-2 21 3 -1.3 12.1
-21 19 3 6.5 11.1
-19 -2 3 14.5 10
-2 -19 -3 7.2 9.4
-21 2 -3 15.9 10
19 2 3 12.5 10.1
21 -2 -3 12.8 11.4
-19 21 -3 15.6 9.8
2 19 -3 -4.4 9.3
19 -21 -3 2.9 8.2
1 20 3 10.8 9.4
-20 21 3 5 9.3
1 -21 -3 8.9 7.9
21 -1 3 2.8 8.4
-21 20 -3 7.1 9.4
-21 1 3 3.6 8.9
21 -20 -3 0.6 8.4
20 1 -3 0.5 10.7
-20 21 -3 3.9 9
-21 20 3 11.1 9.6
-20 -1 3 10.4 9.5
-1 -20 -3 8.1 8.7
20 1 3 4 9.4
-21 1 -3 4.6 8.7
21 -1 -3 13.6 11.4
-21 0 3 6.6 8.8
21 0 -3 9.4 12.1
-21 21 -3 8.6 9.4
21 0 3 5.1 7.9
-21 21 3 6.3 9.7
11 11 -3 11.8 10.7
-22 11 3 -1.3 8.8
-22 11 -3 -4.8 8.7
-22 11 -3 11.9 10.6
11 11 3 18.7 11.2
-11 22 3 18.8 13
11 -22 -3 15.5 10
22 -11 -3 20.1 11.7
-11 22 -3 7.3 11.9
-22 12 -3 37.1 11.2
-22 12 -3 30 11
12 10 -3 37.8 11.8
-12 22 3 24.3 13.2
-10 22 -3 32.1 13
-22 10 3 39.9 11.5
10 -22 -3 28.4 9.9
10 12 3 40.1 11.9
22 -12 -3 46.1 12.4
-22 10 -3 51.89 12
10 12 -3 53.59 12.4
22 -10 -3 44 11.6
12 10 3 31.1 11.8
-10 22 3 31.2 13
-12 22 -3 34.8 12.7
12 -22 -3 34.5 10.7
-22 12 3 35.7 11.6
-9 22 -3 9.6 12.3
9 13 3 5.2 10.7
13 9 -3 7.2 10.2
-22 9 3 4.9 11.2
-22 13 -3 6.5 10.4
22 -13 -3 -0.8 9.8
-22 13 -3 6.8 10.1
-13 22 3 -8.1 13.1
9 -22 -3 2.5 8.6
13 9 3 -4.5 9.2
22 -9 -3 -6.6 9.4
-13 22 -3 2.1 11.5
-22 9 -3 5.3 9.9
-9 22 3 -8.2 12.7
13 -22 -3 9.4 9.5
9 13 -3 5.9 10.5
-22 13 3 8.7 12.6
22 -14 -3 37.3 10.7
8 14 3 69.29 13
8 -22 -3 42 10.6
14 8 -3 59.09 12.1
-22 8 3 41 11.2
-8 22 -3 50.39 13.3
-22 14 -3 33.9 10.4
-22 14 -3 64.89 12.6
8 14 -3 53.79 11.4
-22 14 3 44.1 12.6
-14 22 -3 33.9 11.7
14 -22 -3 29.7 9.8
-22 8 -3 50.69 11.9
-8 22 3 80.89 15.6
22 -8 -3 62.49 12.6
7 15 3 26.8 10.7
-22 15 -3 34 10.5
15 7 -3 32.8 10.9
-7 22 -3 45.5 13.1
7 -22 -3 26.8 9.5
22 -15 -3 27 9.8
-22 7 3 36.7 11.1
15 7 -3 39.1 13.9
7 15 -3 22.7 10.1
-22 15 3 34.5 12.1
15 -22 -3 12.2 8.6
22 -7 -3 39.2 11.7
-22 7 -3 39.3 10.3
-7 22 3 35.2 12.6
-6 22 -3 12.2 11.4
22 -6 3 -3.8 7.9
6 -22 -3 9.8 8.7
-22 6 3 14.6 9.4
-22 16 -3 8.1 9.6
6 16 3 8.4 9.8
22 -16 -3 12.6 9.3
16 6 -3 15.9 13.1
16 -22 -3 1.8 7.7
-22 16 3 25.2 11.7
6 16 -3 22.1 10.3
22 -6 -3 20.8 10.5
-6 22 3 17.1 11.7
-22 6 -3 26.1 10.1
17 5 -3 10.6 12.7
5 -22 -3 -2.2 8.4
-22 5 3 7.3 9
-5 22 -3 9.2 11
5 17 3 18.2 9.9
22 -5 3 -4.9 8.5
22 -17 -3 5.5 9.1
-22 17 -3 13.6 9.9
-22 17 3 15.7 11.6
-17 -5 3 4.9 8.2
17 -22 -3 0.6 13.5
22 -5 -3 16.1 9.7
5 17 -3 7.6 10.5
-5 22 3 2.7 11
-22 5 -3 6.1 9.5
22 -18 -3 33.3 9.5
18 4 -3 43.9 12.6
-4 22 -3 30.6 10.4
-22 4 3 46.4 10.1
4 18 3 34.9 10.2
-22 18 -3 47.4 10.8
22 -4 3 13.2 8.6
-22 18 3 63.79 12.7
-4 -18 -3 30.3 10.1
-4 22 3 35.9 11.9
4 18 -3 39.9 10.5
-18 -4 3 32.1 9.8
-22 4 -3 37.8 10.2
22 -4 -3 31.2 10.5
18 4 3 32.4 11
-22 3 3 12.3 8.5
22 -19 -3 4.5 6.9
19 3 -3 7.1 11.5
3 19 3 10.4 9.8
22 -3 3 -2.3 7.4
-3 22 -3 -1.8 7.7
-22 19 -3 13.4 9.5
-3 -19 -3 17.7 8.9
19 3 3 7 9.7
-22 19 3 13.4 10.1
3 19 -3 -2.4 7.2
22 -3 -3 14.1 10.4
-3 22 3 9 10.2
-19 -3 3 9.1 8.6
-22 3 -3 10.3 9.6
-22 2 3 7.6 8.9
-22 20 -3 7.3 10.7
2 20 3 5.2 9.4
20 2 -3 9.4 12
22 -2 3 -2.3 8.4
22 -2 -3 2.7 10.6
-22 20 3 7.2 10.7
-22 2 -3 2.8 7.9
-20 -2 3 0.6 8.5
20 2 3 2.6 8.9
-23 12 -3 3.9 9.3
-12 23 3 22.6 12.7
23 -12 -3 17.2 9.5
12 11 -3 12.1 9.3
-11 23 -3 5.8 11
11 12 3 8.2 10
-12 23 -3 4.8 10.8
-23 11 -3 3.9 9.3
12 11 3 6.3 9.5
23 -11 -3 15.5 10
11 12 -3 12.8 9.1
-11 23 3 19.6 12.4
13 10 -3 5.4 9.1
-10 23 -3 -2.8 10.6
-23 10 3 7.9 8.6
23 -13 -3 12.6 9.1
-13 23 3 16.5 11.9
-23 13 -3 18.3 9.8
10 13 3 10.1 9.6
-23 13 -3 18 8.8
23 -10 -3 9.1 10
13 10 3 -6.5 8.2
-13 23 -3 9.6 9.5
-10 23 3 -0.7 11
-23 10 -3 1 9
10 13 -3 14.6 9.4
-23 13 3 4.5 7.8
23 -14 -3 18.4 8.9
9 14 3 9.7 9.1
-14 23 3 -8 11.5
-23 9 3 11.8 9.1
-23 14 -3 10.5 9.1
-9 23 -3 7.5 10.8
14 9 -3 14.2 9.1
-23 14 3 12.6 9.2
-23 9 -3 19 9.7
9 14 -3 8.8 10.1
-14 23 -3 8.8 9.9
-9 23 3 9.8 11.4
23 -9 -3 9.4 9.5
15 8 -3 -1 11.1
8 15 3 5.7 8.9
-23 8 3 7 9.2
23 -15 -3 5.5 8.4
15 8 -3 8.1 7.8
-23 15 -3 15.9 9.4
-8 23 -3 10.2 10.7
8 15 -3 13.9 9.3
-23 8 -3 5.6 8.9
23 -8 -3 10 9
-8 23 3 4.6 11.3
-23 15 3 19.4 10.1
7 16 3 8 9.3
16 7 -3 3 9.5
-23 7 3 7 8.6
-23 16 -3 2.8 8.9
-7 23 -3 11.8 10.2
23 -16 -3 6.7 8.5
-7 23 3 4.5 10.9
23 -7 -3 -4.7 8.7
-23 16 3 6.6 9.7
-23 7 -3 15.1 9.4
7 16 -3 9.4 9.1
-23 17 -3 12.2 9.2
6 17 3 16.7 9.5
23 -17 -3 11 8
17 6 -3 16.2 10.1
-23 6 3 7.7 9.3
-6 23 -3 15.9 10
23 -6 -3 16.7 9.9
6 17 -3 11.7 9.5
-23 17 3 14.6 10
-23 6 -3 17.5 9.7
-6 23 3 11.7 11
-23 18 -3 12.2 10.2
23 -18 -3 0.4 7.4
-5 23 -3 6.4 9.5
5 18 3 19.6 9.9
18 5 -3 -1.3 9.7
-23 5 3 0.8 9.3
-5 23 3 3.7 10.7
5 18 -3 12.5 9.6
-23 18 3 0.8 9.9
-23 5 -3 10.4 10
18 5 3 -0.7 9.9
23 -5 -3 6.1 10.1
-23 19 -3 38.5 11.5
-23 4 3 27.2 10.1
19 4 -3 4.5 8.1
4 19 3 24.1 11.2
-23 4 -3 15.1 10.4
23 -4 -3 31.3 11.5
-23 19 3 25.9 11.3
19 4 3 35.6 10.8
-4 23 3 13.5 8.9
12 12 -3 4.2 8.1
-12 24 3 13.5 11.5
12 12 3 6.1 7.2
-12 24 -3 12.1 9.4
24 -12 -3 25.6 9
-24 12 -3 24.3 9
13 11 -3 13.9 8.6
24 -13 -3 10.2 8.4
11 13 3 4.4 8.3
-13 24 3 -1.1 9.9
-11 24 -3 1.8 10
11 13 -3 4.4 8.7
-11 24 3 -0.7 11.1
-24 11 -3 -0.2 8.7
-13 24 -3 11.8 10.4
24 -11 -3 2 8.7
10 14 3 11.8 9
14 10 -3 5.3 7.9
-10 24 -3 18.8 10.9
24 -14 -3 11.5 8.2
10 14 -3 12.6 9
-10 24 3 6.3 11.1
-14 24 -3 5.8 8.4
-24 10 -3 13.9 9.5
24 -10 -3 7.5 10
-24 9 3 0.1 7.4
-24 15 -3 -0.1 7.2
9 15 3 2.9 8.8
24 -15 -3 4.5 8.6
-9 24 -3 2.7 9.2
-24 9 -3 1.1 9.5
9 15 -3 3.8 8.8
-9 24 3 -2.9 11.1
24 -9 -3 4.1 10
-24 15 3 -1.7 7.1
-24 16 -3 11.9 9.7
-24 8 3 10.8 8.3
24 -16 -3 4.9 7.2
-8 24 -3 11.1 11
8 16 3 -0.3 9.3
24 -8 -3 7 10.5
-8 24 3 8.5 11.4
-24 16 3 2.1 9.1
8 16 -3 1.9 9.1
-24 8 -3 1.4 10
-24 17 -3 30.9 10.5
7 17 3 22.2 10.9
-24 7 3 20 9.4
-7 24 -3 29.5 11.8
-7 24 3 25.7 12
7 17 -3 24.2 9.9
-24 17 3 12.4 10.2
-24 7 -3 41.4 11.1
24 -7 -3 34.7 11.1
0 0 4 16.3 10.4
0 0 4 11.4 17.4
1 0 4 60.19 16.5
0 1 4 35.7 6.9
1 0 4 15.7 9.5
1 -1 4 24.4 8
-1 0 4 45.4 17.8
0 1 -4 44.4 12.6
1 -1 4 66.49 17.8
-1 1 4 76.39 14.8
1 0 -4 32.4 7.8
0 1 4 33.5 11
-1 0 4 35.6 12.6
0 -1 4 41.4 9.4
0 -1 4 50.09 18.2
-1 1 4 48.5 18.5
-1 1 -4 53.19 13.6
0 1 4 38.6 17.1
1 1 4 6 10.4
-2 1 4 12 16.7
2 -1 4 9.3 12.5
1 1 -4 4.3 10.7
-1 -1 4 22.5 18
-1 2 -4 14.7 13.9
-2 1 4 22.9 14.7
1 1 4 12 8.4
-1 2 4 8.8 16.5
-1 -1 4 7 11.7
1 -2 4 27.1 17.5
1 1 4 13.8 15
2 -1 4 10.9 8.2
-1 2 4 27.9 11.6
0 2 -4 4.7 12.7
2 0 -4 7.7 8.8
0 2 4 8.3 11.9
2 0 4 -4.1 9.8
0 2 4 22.6 16.7
-2 0 4 1.1 6
2 0 4 25.7 10
2 0 4 5.2 11.6
0 2 4 8.4 7.6
-2 0 4 20.8 18.3
0 2 -4 -3.5 4
-2 2 4 11.5 16.5
-2 0 4 15.3 14.7
0 2 4 0.4 6.5
-2 2 -4 17.5 14.1
0 -2 4 17.9 17.6
3 -1 4 1279.17 65.39
1 2 4 1208.08 70.59
2 1 -4 1264.07 65.19
2 -3 4 1398.66 71.99
1 2 4 1197.68 64.39
-3 1 4 1344.57 70.39
-3 2 -4 1245.38 69.49
3 -1 4 1362.56 69.59
1 2 4 1311.87 67.79
-3 1 4 1365.66 75.89
-2 3 4 1342.57 72.99
-1 -2 4 1277.17 74.39
-2 3 4 1285.07 68.89
-1 3 -4 1351.06 69.29
2 1 4 1253.17 64.79
1 2 -4 1300.27 65.19
-2 -1 4 1229.88 65.89
-1 3 4 1099.49 59.59
3 -1 -4 1201.78 60.19
2 1 4 1222.18 63.49
3 -2 4 1320.37 66.99
-2 -1 4 1236.38 72.29
-3 2 4 1337.77 69.29
1 -3 4 1302.37 72.09
-1 3 4 1342.07 67.19
-1 3 4 1265.47 69.39
-2 3 -4 1338.47 68.29
2 1 4 1208.18 67.59
-3 2 4 1289.77 71.29
3 -2 4 1126.89 60.59
3 0 4 139.79 21.2
-3 3 -4 154.68 22.9
3 0 4 141.09 18.3
-3 0 4 152.48 27.3
-3 3 4 138.39 22.8
-3 3 4 162.48 25.9
0 -3 4 172.18 27.8
3 0 -4 117.99 15
3 0 4 146.19 17.9
0 3 -4 118.69 11.7
0 3 4 143.69 22.1
3 -3 4 149.29 22.1
-3 0 4 136.99 20.9
0 3 4 153.18 19.4
0 3 4 98.09 13
0 3 -4 147.89 20.2
2 -4 4 1144.99 64.89
4 -2 4 995.5 54.59
2 2 4 1132.39 58.89
-2 4 4 1105.39 61.19
-4 2 4 1120.79 61.69
-2 4 -4 1112.49 60.79
4 -2 -4 1054.59 52.39
2 2 -4 1052.59 57.19
-2 4 4 987.1 52.19
4 -2 4 1019.8 58.19
-2 -2 4 1095.39 67.09
-2 4 4 1020.4 61.79
2 2 4 1088.99 62.09
-4 2 4 1124.09 65.09
2 2 4 1033.3 55.79
3 -4 4 121.19 20.8
1 3 4 84.49 14.4
-4 3 -4 140.19 22.5
-4 1 4 117.39 22.8
-3 4 4 128.19 23.2
4 -1 4 101.29 17.4
3 1 -4 95.99 15
1 3 4 131.19 19
4 -1 4 122.59 18.6
1 3 4 143.59 22.5
-1 -3 4 119.69 27.5
4 -3 -4 83.49 9.4
-4 1 4 119.69 26.9
-3 4 4 119.49 21.7
4 -1 4 113.59 16.8
-1 4 -4 125.69 21.5
-3 -1 4 157.08 22.6
-3 -1 4 149.49 27.8
1 -4 4 172.48 28.4
3 1 4 135.39 17.8
1 3 -4 142.09 15.3
3 1 4 140.29 19
4 -1 -4 133.29 15.1
-1 4 4 115.99 14.2
4 -3 4 119.19 18.6
-4 3 4 168.68 25.2
3 1 4 156.08 23
-1 4 4 173.58 24.1
1 3 -4 114.99 19.2
-3 4 -4 136.29 22.8
-1 4 4 134.99 21.9
4 -3 4 132.39 13.9
-4 3 4 172.88 25.4
-4 4 -4 393.16 34.6
0 4 4 377.16 30.1
0 4 -4 309.37 21.2
4 0 4 361.66 29.5
0 4 4 309.97 24.1
4 -4 4 414.76 31.3
0 -4 4 342.17 38.9
0 4 4 338.47 31.8
-4 4 4 330.67 34.5
-4 4 4 376.06 34.8
4 0 4 373.96 27.9
4 0 -4 358.46 25.4
-4 0 4 390.16 33.5
4 0 4 344.37 27.6
0 4 -4 382.56 31.8
-4 0 4 331.57 41
-3 5 4 978.1 55.29
2 3 4 1104.59 61.49
-3 5 4 1095.89 64.49
-5 2 4 1096.19 69.69
5 -2 4 1048.2 59.69
3 2 -4 1128.49 59.89
5 -3 -4 1116.29 55.79
-2 -3 4 1088.19 70.89
-2 5 -4 1138.39 63.39
5 -2 4 1092.19 58.79
-3 5 4 1140.79 66.19
3 -5 4 1219.08 66.99
2 3 4 1088.99 64.09
2 3 4 1094.89 58.39
-5 2 4 1144.29 66.79
2 -5 4 1247.68 72.39
5 -2 -4 1250.37 59.49
3 2 4 1100.39 63.59
5 -3 4 1022.3 59.39
3 2 4 1192.78 66.79
-2 5 4 1149.78 67.29
-3 5 -4 1298.67 69.49
-5 3 4 1151.78 67.59
3 2 4 1163.18 62.19
-2 5 4 1139.69 58.99
-5 3 4 1126.29 69.49
-3 -2 4 1135.19 73.29
5 -3 4 1092.49 61.09
2 3 -4 1196.78 63.49
-2 5 4 1210.68 66.09
1 4 4 40.1 12.7
-5 1 4 56.69 22
-5 4 -4 35.7 12.6
1 4 4 56.49 16.8
-4 5 4 50.49 21.3
5 -4 -4 48.3 10.5
-4 5 4 50.59 19.7
1 4 4 49.3 18.3
-4 5 4 37.9 9.7
-1 -4 4 41.6 25.1
-1 5 -4 65.19 20
4 1 -4 76.59 16.3
5 -1 4 52.09 16.1
-5 4 -4 70.09 21.6
5 -1 4 54.39 15.9
-5 1 4 46.1 22.5
5 -1 4 59.79 14.6
4 -5 4 63.59 19.2
4 1 4 84.39 18.1
-1 5 4 104.59 15.6
-5 4 4 57.69 21.4
-5 4 4 78.99 21.7
-4 -1 4 58.09 25.1
1 4 -4 81.29 19.2
-4 5 -4 79.69 20.9
1 -5 4 79.29 27.3
1 4 -4 67.59 12.9
4 1 4 87.29 17.6
5 -1 -4 95.09 15.9
-1 5 4 95.49 22
4 1 4 69.99 15.1
-4 -1 4 70.19 21.6
-1 5 4 77.99 20
5 -4 4 44 14.3
5 0 -4 262.27 23.8
-5 5 4 231.38 30.3
0 5 4 224.78 29.1
-5 5 -4 238.18 33.1
-5 0 4 205.28 32.9
-5 5 4 199.08 21.3
0 5 4 235.38 26.8
0 5 4 209.38 20.7
-5 0 4 195.18 20.1
5 0 4 236.68 22.5
5 0 4 242.88 24.7
-5 0 4 210.78 30.3
5 0 4 227.48 26.1
0 -5 4 206.08 35.5
0 5 -4 175.08 17.8
-5 5 4 226.88 34.3
5 -5 4 167.48 23.7
0 5 -4 227.38 29.2
-5 5 -4 213.68 22.1
-3 6 4 12.3 16.6
3 3 4 15.3 14.9
-6 3 4 2.8 20.3
-6 3 4 8.9 22.5
6 -3 -4 12.5 12.1
-6 3 -4 15 11.8
-3 6 -4 6.9 20.6
3 3 4 10.8 13.1
6 -3 4 -6 11.4
-3 6 4 19.1 18.1
3 -6 4 18.8 21.8
6 -3 4 18 12.8
3 -6 4 -1.5 8.2
3 3 4 11.8 16.8
-3 -3 4 2.9 24.8
-6 3 4 9 9
-3 6 4 6.1 11
-3 -3 4 15.2 9.8
3 3 -4 -3.2 14.8
2 4 4 35 18.6
6 -2 4 14.5 14.6
-4 6 4 13.9 10.6
6 -2 4 29.4 13.3
-4 6 4 19.5 19.1
-6 2 4 29.5 24.4
-4 6 4 23.6 19.6
-6 2 4 -1.6 8
4 2 -4 16.8 15.5
4 -6 4 22.4 18.8
-6 2 4 39.9 21.7
-2 6 -4 14.1 18
-6 4 -4 18.3 12
-2 -4 4 27 11.5
-4 6 4 11.9 10.6
6 -4 -4 20.7 10.7
-2 -4 4 34.4 28.5
6 -2 4 29.4 14.3
2 4 4 38 18.5
4 -6 4 11.9 9.8
4 -6 4 0.3 7
2 4 4 12.3 13.6
-4 6 -4 1.7 9.2
4 2 4 17.6 13.6
2 4 -4 6.3 12.4
6 -4 4 1.4 8.8
-4 6 -4 1 20.1
-6 4 4 5.4 19.5
6 -4 4 -10.6 9
-2 6 4 6.4 16.5
-6 2 -4 1.6 7.2
4 2 4 8.3 14.3
-6 4 4 0.8 11.5
4 2 4 17.4 16.7
-4 -2 4 4.7 24.2
2 4 -4 1.6 16.2
2 -6 4 13.2 24.2
-2 6 4 29 13.1
-4 -2 4 5.5 10.2
-2 6 4 6.4 16.8
6 -2 -4 20.9 13.9
-6 4 4 -5.8 22.1
2 -6 4 3.9 7.4
1 5 4 155.58 26
-1 6 -4 184.08 29.7
-6 1 4 154.18 30.8
-6 1 4 147.29 19.1
1 5 4 173.38 21.9
-5 6 4 170.78 30.8
-6 1 4 211.78 30.5
-5 6 4 142.69 24.8
6 -1 4 160.88 23.2
-6 5 -4 157.28 22
-5 6 4 152.38 20.2
5 -6 4 147.49 19.6
1 5 4 175.88 25.3
6 -1 4 187.38 25.2
6 -1 4 170.28 24
-1 -5 4 158.98 33.5
-1 -5 4 122.59 16
-6 5 -4 195.78 29.7
5 1 -4 190.68 24.4
-5 -1 4 212.98 35.7
6 -1 -4 239.88 25.4
-6 5 4 182.98 22.2
-6 5 4 230.88 32.7
1 5 -4 193.48 22.1
-1 6 4 192.38 28
-5 6 -4 180.58 20.1
-1 6 4 208.68 29.9
5 1 4 209.98 24.8
5 1 4 207.28 24.8
-1 6 4 240.88 23
1 5 -4 210.28 27.3
-5 -1 4 199.88 21.2
-6 5 4 192.98 29.9
-5 -1 4 234.08 33.1
1 -6 4 193.28 35.4
5 1 4 226.68 28.7
-5 6 -4 214.58 30.7
0 6 -4 522.15 41.9
-6 6 4 477.15 45.1
0 -6 4 461.45 50.59
-6 0 4 447.16 31.3
6 0 4 485.75 37.8
-6 0 4 502.85 42.5
0 6 4 457.15 41.5
6 0 -4 539.75 36.9
-6 6 4 486.35 43.4
-6 6 4 447.46 32.8
6 -6 4 444.56 31.8
0 6 4 474.25 33.2
-6 0 4 438.46 49.5
6 0 4 495.35 36.6
6 0 4 467.55 36.8
0 6 4 494.55 39.1
-6 6 -4 447.96 33
-6 6 -4 490.35 42.7
7 -3 4 144.99 22
4 -7 4 125.59 18.1
4 3 -4 161.68 24.1
-3 -4 4 150.38 35.7
-7 3 4 207.08 32.6
3 4 4 201.88 30.6
-7 3 4 154.18 31.4
3 4 4 181.48 24
4 -7 4 104.09 22.7
-3 -4 4 129.79 17.4
-4 7 4 166.18 28.4
-4 7 4 171.58 30.1
4 -7 4 167.28 19.4
3 4 4 180.78 29.2
-7 3 4 121.49 17.9
-7 4 -4 150.58 19.5
-3 7 -4 192.28 30.1
-4 7 -4 248.38 35.5
3 -7 4 199.68 33.6
4 3 4 219.88 27.7
7 -4 4 161.48 20.2
-7 3 -4 158.58 21.1
-7 4 4 141.89 28.6
-4 -3 4 207.78 38.4
-3 7 4 141.19 21.5
3 4 -4 186.58 26.4
-4 -3 4 177.78 20.7
4 3 4 201.98 30.2
-7 4 4 229.18 35.6
-3 7 4 206.18 30.2
3 4 -4 177.98 24.2
-7 4 4 155.78 21.3
7 -3 -4 162.18 23.6
-3 7 4 202.28 30.4
3 -7 4 165.78 19.6
4 3 4 211.48 24.9
7 -2 4 208.28 25.7
-7 2 4 213.78 22.2
2 5 4 227.68 29.5
-5 7 4 248.08 38.9
-2 -5 4 220.78 39.4
-7 2 4 213.68 36.4
-7 2 4 264.27 36.1
-2 -5 4 194.78 19.2
-7 5 -4 202.88 22.1
-2 7 -4 234.58 31.5
2 5 4 234.18 36.6
5 -7 4 187.88 21.7
7 -2 4 247.38 29.3
-5 7 4 221.08 36.2
2 5 4 217.08 25.3
5 2 -4 263.37 29.5
-5 7 4 193.38 22.8
5 -7 4 196.08 21.8
-5 -2 4 245.28 41.9
-5 -2 4 239.08 22
-2 7 4 258.77 32.9
7 -5 4 247.58 24.6
-5 7 -4 218.38 23.1
5 2 4 286.67 32.6
-7 5 4 246.58 35.9
5 2 4 284.97 34.3
5 2 4 314.87 30.4
-5 7 -4 287.07 33.8
-7 5 4 255.67 36.2
2 5 -4 252.67 25.3
-2 7 4 231.28 26.4
7 -2 -4 278.37 27.2
2 5 -4 288.07 30.5
2 -7 4 262.67 22.7
2 -7 4 238.98 39.7
-7 5 4 249.08 25
-2 7 4 288.17 36.3
-7 1 4 167.48 32.9
-6 7 4 144.39 22.8
-6 7 4 147.59 29.3
-6 7 4 144.99 29.4
-1 7 -4 169.78 28.9
7 -1 4 158.98 24.5
7 -1 4 102.49 19.9
-7 6 -4 144.89 23.1
6 -7 4 155.28 21
-1 -6 4 138.29 19.2
7 -1 4 168.18 26.2
1 6 4 141.49 27.5
-7 6 -4 134.19 30.1
1 6 4 204.08 24.9
1 6 4 139.89 25.3
-7 1 4 162.58 36.6
-1 -6 4 132.09 35.9
6 -7 4 158.88 19.6
-7 1 4 153.78 21.3
6 1 -4 153.28 24.2
6 1 4 183.68 28.9
-6 -1 4 178.98 20.8
-6 7 -4 160.18 22.6
7 -1 -4 180.08 27.4
-1 7 4 171.38 27.8
-7 6 4 124.29 26.4
7 -6 4 129.59 19.8
1 -7 4 145.89 17.7
-1 7 4 153.68 27.6
-6 -1 4 142.79 36.2
1 6 -4 178.68 29
-6 -1 4 159.28 28.9
-6 7 -4 189.68 33.4
6 1 4 138.89 23.9
-7 6 4 187.98 31.6
6 1 4 178.28 24.6
-7 6 4 192.28 23.3
-1 7 4 164.38 23.8
7 -7 4 650.33 39.3
0 -7 4 639.54 38.3
-7 7 4 666.43 52.89
7 0 -4 614.44 45.5
-7 7 4 610.54 51.39
-7 7 -4 650.33 41.1
0 7 4 573.74 43
-7 0 4 658.93 51.39
0 7 4 697.73 49
-7 0 4 682.93 40.7
0 7 4 701.43 53.29
-7 7 4 641.04 39.8
7 0 4 631.44 44.9
0 -7 4 682.63 59.19
7 0 4 734.53 48.3
-7 7 -4 663.13 52.89
0 -7 4 568.34 37.8
-7 0 4 619.34 61.19
0 7 -4 694.03 51.49
7 0 4 603.54 46.2
-4 -4 4 600.94 64.89
-8 4 -4 560.04 37
4 4 -4 541.35 40.2
4 4 4 584.24 42.4
-4 8 4 655.13 51.39
-4 8 -4 594.94 51.79
4 -8 4 584.64 36.3
-8 4 4 569.14 37.1
-4 -4 4 540.05 35.9
8 -4 4 517.05 36.4
4 4 4 611.94 46.6
-8 4 4 606.94 53.89
-8 4 4 501.05 51.79
4 4 4 573.84 47.5
4 4 -4 566.54 44.3
-4 8 4 594.14 47.3
-5 8 4 14.9 20.1
-8 3 4 44.6 28.6
-5 8 4 41.5 14.6
3 5 4 50.29 18.5
-3 -5 4 50.79 13.8
-5 8 4 -1 14.4
5 -8 4 48.3 14.1
-8 3 4 42.4 13.9
8 -3 4 46.2 21.3
-8 5 -4 42.9 15.7
3 5 4 27 21.1
3 5 4 42.5 23.3
-5 8 4 42.1 26
5 -8 4 35.3 13.5
-3 8 -4 23.9 23.1
-3 -5 4 24 32.1
-8 3 4 29 13.4
-8 3 4 12.1 25.5
5 3 -4 48.3 21.7
8 -3 4 56.29 17.3
-3 8 4 42.7 23.2
-8 5 4 36.2 14.3
5 3 4 37.3 20.4
-8 5 4 64.09 28.5
-5 8 -4 31.4 27.7
-5 -3 4 43.3 12.9
3 5 -4 24.1 15.9
3 -8 4 16.1 24.3
5 3 4 44.6 21.6
-5 8 -4 46.7 13.6
-3 8 4 5 14.8
3 -8 4 49.1 13.3
8 -5 4 42.2 14.6
-5 -3 4 46 32.3
-3 8 4 42.6 23.5
-8 3 -4 45.1 14.1
3 5 -4 35 22.4
8 -3 -4 3 17.1
-8 5 4 50.59 27.5
3 -8 4 22.5 9.9
5 3 4 76.49 20.8
2 6 4 97.99 25.8
-2 -6 4 62.49 12.6
-6 8 4 105.19 18.9
-2 -6 4 89.19 15.3
-8 2 4 79.99 33.7
6 -8 4 90.39 16.5
-8 2 4 111.29 18
-8 6 -4 83.49 17.1
2 6 4 91.79 26.3
-2 8 -4 95.39 28.2
6 -8 4 100.49 17.1
2 6 4 98.89 20.8
6 2 -4 69.29 20.8
-6 8 4 83.79 30.9
-6 8 4 74.19 26.3
-2 -6 4 95.69 34.6
-8 2 4 90.79 28.7
8 -2 4 67.29 20.7
8 -2 4 100.79 23.1
-8 6 4 55.99 15.3
-8 6 4 72.09 30.2
6 2 4 85.09 23.4
6 2 4 53.39 22.1
-8 6 4 32.3 22.9
-2 8 4 68.39 25.9
-6 -2 4 89.59 34.2
-2 8 4 84.89 25.4
-6 8 -4 89.29 17.3
6 2 4 88.19 25.6
2 -8 4 33.5 26.5
2 6 -4 89.99 25.4
8 -6 4 73.89 16.6
-6 -2 4 76.09 14.7
-6 8 -4 82.39 28.6
2 -8 4 72.39 14.7
-1 -7 4 112.59 18.4
-1 -7 4 111.69 37.4
-8 7 -4 134.19 32.4
-8 1 4 119.79 39.1
7 -8 4 119.49 18.4
-7 8 4 57.29 25.3
-7 8 4 140.79 21
-1 -7 4 124.09 17.2
1 7 4 102.79 28.4
7 -8 4 132.59 18.2
-8 7 -4 123.59 18.7
-7 8 4 115.79 32.9
-8 1 4 131.09 34.4
1 7 4 121.49 28.2
-1 8 -4 108.69 28.1
8 -1 4 80.89 23.2
8 -1 4 108.39 24.9
-8 1 4 129.49 18.8
1 -8 4 121.49 16.9
-7 8 -4 110.09 18.6
-7 -1 4 78.39 35.5
-1 8 4 99.59 25.9
1 -8 4 33.4 29.2
8 -7 4 125.19 19.7
7 1 4 52.79 21.9
-1 8 4 89.79 28.6
7 1 4 81.99 22.7
1 7 -4 90.39 27.3
-8 7 4 99.99 32.5
1 -8 4 67.29 13.7
7 1 4 88.89 22.7
-7 8 -4 87.69 29
-7 -1 4 128.59 19.4
8 0 4 141.49 27.6
-8 8 -4 150.08 32.9
-8 0 4 130.69 21.5
-8 8 -4 148.79 20.1
8 -8 4 131.29 20.5
0 8 4 114.09 26.7
-8 8 4 87.19 29.7
0 -8 4 77.99 34.3
8 0 4 120.19 26.4
-8 0 4 83.59 28.4
0 -8 4 125.79 18.9
0 8 -4 108.29 27.8
0 8 4 126.39 30.3
-8 0 4 115.09 40.2
0 -8 4 124.59 20.2
9 -4 4 676.33 42.2
-4 9 -4 747.13 57.59
-9 5 -4 679.23 42.1
9 -4 4 681.83 50.59
5 -9 4 549.15 38.7
4 5 4 699.13 55.39
4 5 4 600.54 46
-5 9 4 729.33 56.09
5 -9 4 695.23 41
-9 4 4 724.93 60.49
-9 4 4 629.94 41.6
-5 9 4 620.34 40.6
-4 -5 4 643.14 39.3
-5 9 4 722.23 55.79
-4 -5 4 670.53 40.8
-4 -5 4 659.73 62.49
-9 4 4 682.93 41
4 5 4 712.43 53.59
-9 4 -4 647.44 40.9
-4 9 4 674.83 55.29
-9 5 4 645.24 42.1
-5 -4 4 679.33 40.8
5 4 4 602.04 48.8
4 -9 4 638.94 39.2
-4 9 4 637.44 52.79
9 -5 4 653.93 40.9
-5 -4 4 699.33 68.19
4 5 -4 575.24 50.09
-5 9 -4 744.83 55.79
-9 5 4 715.03 60.09
5 4 4 659.03 48.2
5 4 4 624.84 52.99
6 -9 4 227.08 23.7
-6 9 4 113.79 29
3 6 4 196.58 33.8
-9 3 4 197.78 22.5
-3 9 -4 197.18 35.5
9 -3 4 212.98 34
3 6 4 220.88 33.1
3 6 4 124.99 24.6
9 -3 4 185.98 23.8
-9 3 4 185.58 22
-6 9 4 195.48 24.9
-3 -6 4 164.68 38.6
-3 -6 4 193.38 22.2
-6 9 4 236.58 38.2
-3 -6 4 190.78 22
-9 3 4 182.08 34.8
-9 6 -4 195.78 25.3
6 -9 4 163.18 22.8
-3 9 4 260.67 40.9
-6 -3 4 231.78 23.7
6 3 4 214.58 33.8
-3 9 4 224.28 37
-9 6 4 231.28 38.7
-6 -3 4 219.98 44.6
-9 6 4 251.27 28
-9 3 -4 234.98 24.1
6 3 4 238.28 35.1
-6 9 -4 255.77 25.1
-6 9 -4 238.08 37.1
3 -9 4 252.27 24.5
9 -6 4 252.17 26.7
3 6 -4 213.28 33.7
6 3 4 231.18 29.2
-9 7 -4 149.09 24
7 -9 4 135.79 22.6
-2 -7 4 150.98 20.5
7 -9 4 153.78 20.4
9 -2 4 153.68 27.4
-7 9 4 158.28 25.1
-9 2 4 48.7 32.5
-9 2 4 141.09 19.2
2 7 4 144.29 32.1
2 7 4 150.18 28.1
-2 9 -4 126.79 29.4
-2 -7 4 141.99 20
-9 2 4 102.99 32
-7 9 4 137.09 33.2
-2 -7 4 111.69 37.9
-7 9 -4 190.08 24.1
9 -7 4 177.78 24.7
-9 2 -4 131.09 17.8
2 -9 4 181.88 22.2
7 2 4 164.18 28.2
7 2 4 146.39 28.4
-2 9 4 153.28 31
-7 -2 4 148.59 39.6
-7 9 -4 197.88 37.9
-9 7 4 152.48 33.6
-7 -2 4 199.98 23.7
-2 9 4 192.48 33.2
2 7 -4 120.59 27.6
-9 7 4 183.78 26.6
-8 9 4 56.09 16.4
-9 1 4 1 34
9 -1 4 37.9 20.8
-8 9 4 41.2 29
1 8 4 29.8 23.1
-1 9 -4 44.8 27.3
1 8 4 60.99 31
-9 8 -4 54.59 28.5
-1 -8 4 86.49 15.5
9 -1 4 2.1 25.2
-9 1 4 66.79 15.6
-1 -8 4 79.09 15
-9 8 -4 72.99 17.6
-1 -8 4 54.19 35.2
8 -9 4 74.69 17.2
-9 1 4 52.69 27.9
8 -9 4 67.19 16.5
1 -9 4 12.9 31.4
8 1 4 55.39 25.8
-9 8 4 110.39 19.5
9 -8 4 88.79 17.2
-1 9 4 57.89 26.2
-8 9 -4 106.19 18.9
8 1 4 38.9 25.3
-8 9 -4 71.69 29.8
-1 9 4 65.89 29.4
-9 8 4 88.69 34.2
1 8 -4 41.5 26.8
-8 -1 4 45.5 33.6
1 -9 4 27.8 11.5
-9 0 4 3.8 37.2
0 9 -4 -8.8 25.9
-9 9 4 30.2 29.5
0 9 4 55.79 25
-9 9 -4 24.8 26.7
0 9 4 37.3 27.9
9 0 4 10.6 24.5
0 -9 4 70.99 13.3
-10 5 4 494.55 56.89
10 -5 4 498.95 37.5
5 5 4 492.05 48.2
-10 5 4 533.25 36.2
-10 5 4 604.44 38.4
5 -10 4 529.55 34.5
5 5 4 383.56 48.5
10 -5 4 514.35 47.6
-5 10 -4 486.95 51.19
-5 10 4 529.65 51.89
-10 5 -4 563.94 37.2
-5 -5 4 551.24 35
-5 -5 4 587.04 36.4
-5 -5 -4 590.14 35.5
-5 -5 4 490.75 60.49
-6 10 4 162.58 25.8
-10 4 4 163.68 23.9
-4 -6 4 107.69 36.8
-10 6 -4 161.38 23.4
-4 -6 4 165.18 21.9
10 -4 4 117.49 28.5
-4 10 -4 90.99 32.3
-6 10 4 124.49 34.1
10 -4 4 171.58 25.6
-4 -6 4 164.78 21.2
-10 4 4 148.19 22.6
-10 4 4 99.39 32.3
4 6 4 77.79 28.9
6 -10 4 146.69 20.7
4 6 4 100.89 29.3
6 -10 4 170.18 21.7
-10 6 4 154.88 25.1
-4 -6 -4 148.49 20.7
-6 10 -4 137.39 21.4
-10 4 -4 134.19 22
-6 -4 4 148.89 22
6 4 4 95.69 28.4
-4 10 4 116.69 30.2
-6 -4 4 136.39 19.4
4 -10 4 132.99 19.8
10 -6 4 129.89 20.9
-10 6 4 95.79 32.7
-6 -4 4 104.19 34.8
-6 10 -4 100.69 34.7
3 7 4 50.29 28.6
-10 3 4 74.89 16.2
-7 10 4 29.6 28.8
3 7 4 32 27.1
-3 10 -4 13.4 25.6
-3 -7 4 67.59 15.4
7 -10 4 74.69 16.6
-10 7 -4 93.99 18.9
-3 -7 4 90.49 17.5
-7 10 4 88.79 19.5
-3 -7 4 29.1 31.6
10 -3 4 84.69 19.6
7 -10 4 72.69 15.2
-10 3 4 55.39 15.1
10 -3 4 27.8 22.5
-10 3 4 23 32.8
-10 7 4 14.9 30.8
-3 10 4 17.5 26.2
-10 3 -4 46.3 14.6
-10 7 4 52.99 17.6
-3 -7 -4 28.5 12
-7 10 -4 21.1 29.5
10 -7 4 53.09 15.3
7 3 4 0.5 25
7 3 4 -1.1 20.8
3 7 -4 -9.8 23.9
-3 10 4 0.9 26.2
-7 -3 4 36.5 12.5
3 -10 4 54.69 14.4
-7 -3 4 26.7 30.8
3 -10 4 1.5 10.8
-7 10 -4 48 15.7
-7 -3 4 65.29 17
2 8 4 31.6 24.3
-2 10 -4 1.4 29.5
2 8 4 40.8 29.1
-8 10 4 14.9 29.5
-10 2 4 12.9 35.8
10 -2 4 0.2 21.1
-2 -8 4 15.2 34.9
2 8 -4 -4.4 31.7
2 -10 4 0.3 13.1
-10 2 -4 27.8 10.5
-2 10 4 17.8 26.5
-8 10 -4 23.9 31.4
-2 10 4 2.4 29.6
-8 -2 4 15 36.2
-2 -8 -4 0.2 11.4
-10 8 4 28 30.2
8 2 4 -2.8 39.2
-8 -2 4 46.6 11.7
-1 -9 4 45.2 14
-9 10 4 47.6 16.6
-9 10 4 -6.1 32.7
-10 9 -4 9.2 44.4
-10 9 -4 47.8 17.2
9 -10 4 55.29 17
1 9 4 -2.3 27
-10 1 4 64.39 16.1
1 9 4 -1 31.2
-1 -9 4 27.8 12.1
9 -10 4 58.69 16.1
-10 9 4 4.4 33.4
-9 10 -4 39.9 16.3
1 -10 4 33.4 14.8
-9 -1 4 61.79 16.7
10 -9 4 47.5 17.8
-1 -9 -4 -1.1 16.8
-10 9 4 45.4 18.1
-1 10 4 -8 28.5
-10 10 4 19.8 17
0 -10 4 0.5 12.8
10 -10 4 12.9 15.6
-10 0 4 8.7 13.4
-10 10 -4 18.6 15.7
0 -10 4 22.8 13.8
10 -10 4 18.2 16.1
-6 11 4 -12.8 39.8
6 -11 4 63.89 16.4
-5 -6 4 49.9 15.1
-5 -6 4 34.8 14.4
-11 5 4 39.4 14.8
-11 5 4 43 17.1
-5 -6 4 11.5 37.1
11 -5 4 44.7 16.1
-6 11 4 36.8 16
-11 6 -4 62.09 17.2
-11 5 -4 42.7 15.8
-6 -5 4 8.5 38.3
11 -6 4 51.39 17.4
-6 -5 4 66.29 17.2
-11 6 4 54.99 17
-5 11 4 -10.9 30.8
5 -11 4 62.89 15.5
-6 -5 4 46.9 14.6
-5 -6 -4 48.1 14.6
-11 6 4 60.79 15.8
-4 -7 4 227.18 24.2
-11 4 4 221.88 25.4
-11 4 4 208.38 25.7
-7 11 4 217.68 27.2
11 -4 4 207.08 25.8
-11 7 -4 220.78 27.1
-4 -7 4 217.18 24.8
7 -11 4 242.98 25.6
-7 -4 4 197.68 22.5
-11 4 -4 207.28 24.6
11 -7 4 188.18 26.2
-4 -7 -4 212.98 23.7
-7 -4 4 195.18 24.3
4 -11 4 195.48 23.9
-11 7 4 194.88 26.7
-7 11 -4 192.88 25.2
-3 -8 4 52.29 15.6
11 -3 4 84.29 20.7
-8 11 4 67.39 17.9
8 -11 4 79.09 16.7
8 -11 4 70.99 17.1
-3 -8 4 76.89 17.5
-11 8 -4 98.69 20.2
-11 3 4 97.09 18.6
-8 11 -4 94.99 19.3
3 -11 4 91.39 17.6
-8 -3 4 84.19 17.7
-3 -8 -4 73.19 16.3
-8 -3 4 58.19 15
11 -8 4 103.69 20.8
-11 8 4 86.29 18.5
-11 3 -4 50.59 14.5
-11 2 4 104.29 18.5
9 -11 4 161.38 22.3
9 -11 4 99.59 19.4
-9 11 4 91.39 20.4
-2 -9 4 117.69 19.1
-2 -9 4 91.49 17.4
-11 9 -4 101.09 19.5
2 -11 4 101.09 18
11 -9 4 123.49 21.2
-2 -9 -4 83.29 17.1
-9 -2 4 105.29 19.1
-11 9 4 97.59 19.2
-9 11 -4 83.89 18.9
10 -11 4 25.8 16.4
-10 11 4 27.3 16.2
10 -11 4 32.1 15.4
-1 -10 4 31.5 14.5
-1 -10 4 -1.3 13.1
-11 1 4 47.4 17
-11 10 -4 26.5 15.8
-10 11 -4 24.5 16
-10 -1 4 31.8 14.5
11 -10 4 64.19 18.6
1 -11 4 34.9 13.9
-11 10 4 50.19 18.7
-1 -10 -4 7.3 14
0 -11 4 162.08 22.2
11 -11 4 222.48 27.4
11 -11 4 146.49 23.9
-11 11 4 176.58 25.6
-11 0 4 130.89 23.9
-11 11 -4 196.98 26.7
-6 12 4 -0.9 13.5
12 -6 4 -8.8 15.6
6 -12 4 14 15.8
-6 -6 4 -5.3 15.3
-12 6 4 2.6 13.4
-12 6 4 5.9 15.3
-12 6 -4 5.3 14.7
-6 -6 4 6.9 14.4
-7 12 4 102.99 20.4
12 -5 4 181.98 25.5
7 -12 4 176.08 22.7
-5 -7 4 131.49 20.9
-12 5 4 109.09 20.5
-5 -7 4 128.29 19.8
-12 5 4 103.09 19.2
-12 7 -4 138.39 22.3
-12 7 4 110.69 20
-12 5 -4 151.98 21.8
-5 -7 -4 100.79 17.9
-7 -5 4 143.19 23.6
12 -7 4 148.19 22.9
5 -12 4 181.38 23
-12 7 4 169.18 23.3
-7 -5 4 125.59 19.1
12 -4 4 109.29 21
-4 -8 4 129.79 23.1
-12 8 -4 138.79 22.1
-8 12 4 131.99 22.8
-12 4 4 136.69 21.7
-4 -8 4 139.89 20.9
8 -12 4 141.09 21.6
-12 4 4 82.59 18.7
4 -12 4 144.79 21.8
-8 -4 4 170.48 24.2
-4 -8 -4 151.98 24.4
12 -8 4 237.58 28
-12 4 -4 146.99 23.5
-12 8 4 167.68 26.2
-8 12 -4 154.18 24.6
-8 -4 4 134.99 20.2
9 -12 4 17.1 14.1
-12 9 -4 2.4 16.6
9 -12 4 7.3 15.2
-3 -9 4 10.9 14.4
-12 3 4 14.6 13.9
-3 -9 4 0.3 13.8
-9 12 4 9.7 16
12 -3 4 0.4 16.1
-3 -9 -4 10.7 15.3
12 -9 4 34.7 18.5
-12 3 -4 4 12.6
3 -12 4 22.9 15.9
-12 9 4 2 16.1
-9 -3 4 12.5 14.3
-9 -3 4 20.7 14.9
-9 12 -4 32.7 17.5
10 -12 4 77.09 19.1
-2 -10 4 59.99 17.7
-10 12 4 60.89 20
-12 2 4 54.39 16.8
-12 10 -4 70.59 20.8
10 -12 4 43.1 17.4
-10 12 -4 36.3 18.2
-10 -2 4 41 16.5
-12 10 4 40.7 18.5
-2 -10 -4 21 15.7
2 -12 4 26.6 15.7
12 -10 4 29 16.6
-12 1 4 251.17 29.1
-12 11 -4 258.47 31.1
11 -12 4 245.58 29.4
-11 12 4 254.47 31.7
11 -12 4 273.77 28.4
-1 -11 4 260.77 28.7
-1 -11 -4 193.88 29
-11 12 -4 270.27 32.5
-11 -1 4 286.97 29.6
12 -11 4 317.27 30.3
1 -12 4 306.17 29
-12 11 4 266.87 31.6
0 -12 4 24.8 15.4
-12 0 4 14.5 15.9
0 -12 -4 1.2 15.5
12 -12 4 14.4 17
-12 12 -4 25.3 19.6
12 -12 4 14.9 17.7
-12 12 4 23.5 19.9
-6 -7 4 30.4 15.7
-13 6 4 29.7 17.8
-13 7 -4 33 17.5
-13 6 4 18.5 15.5
13 -6 4 38.6 18.4
-6 -7 4 29 17.2
7 -13 4 49.8 18.7
-7 13 4 8.1 15.9
13 -7 4 27 17.8
-7 -6 4 9.8 15.6
-13 6 -4 17.5 16.6
-13 7 4 -2.5 13.5
6 -13 4 9.1 15.4
-7 -6 4 7.6 14
-13 7 4 12.3 16.4
-6 -7 -4 6.5 15.3
-13 8 -4 114.99 22.1
-8 13 4 101.49 21.5
-13 5 4 83.19 19.6
-5 -8 4 92.99 20.4
-13 5 4 80.29 18.6
13 -5 4 126.59 24
-5 -8 4 73.19 16.5
8 -13 4 125.69 21.8
-5 -8 -4 86.89 19
-8 -5 4 83.49 17.9
-13 8 4 123.09 22.4
-8 13 -4 48.5 16.8
-13 5 -4 75.09 18.5
-8 -5 4 47.1 16.3
13 -8 4 87.89 20.5
5 -13 4 89.29 18.8
-9 13 4 153.58 24.7
-4 -9 4 155.98 22.4
13 -4 4 230.08 30
-13 4 4 144.89 25.5
-4 -9 4 133.49 22
9 -13 4 172.58 27.3
-4 -9 -4 113.29 20.6
-9 13 -4 142.99 22.9
-9 -4 4 89.59 18
4 -13 4 166.38 22.4
13 -9 4 141.69 23
-13 9 4 159.18 26.7
-9 -4 4 149.99 24.2
-13 4 -4 109.39 19.3
13 -3 4 301.87 35.2
-13 3 4 340.17 33
-13 10 -4 335.97 33.6
-10 13 4 327.87 34.6
-3 -10 4 323.87 29.1
10 -13 4 325.67 33
-13 10 4 367.46 36.6
-10 -3 4 397.06 34.5
-3 -10 -4 398.06 34
-10 13 -4 375.76 37
3 -13 4 433.46 34.7
13 -10 4 406.16 34.7
-11 13 4 24.1 18.7
11 -13 4 28.2 17.2
-2 -11 4 45.6 17.3
-13 2 4 48.4 18.9
-13 11 -4 43.7 19.5
11 -13 4 3 16.7
-2 -11 -4 39.6 18
-11 -2 4 25.7 16
13 -11 4 29.5 17.1
-11 13 -4 27.6 19
2 -13 4 35.1 17.5
-13 11 4 51.29 20.9
-13 1 4 147.59 26.6
-13 12 -4 202.58 29.5
-1 -12 4 151.48 24.6
12 -13 4 207.28 27.9
-12 13 4 123.19 24.4
1 -13 4 188.38 27.4
-12 13 -4 218.38 30.5
-13 12 4 149.99 25.5
13 -12 4 162.28 26.9
-12 -1 4 178.28 27.4
13 -12 4 178.88 28.2
0 -13 -4 -1 8.9
13 -13 4 15.4 16.7
-13 13 4 5.6 18.6
13 -13 -4 -4.7 11.2
-13 13 -4 24.6 20.4
0 -13 4 23.6 17.2
-13 0 4 -2.2 10
0 -13 -4 0.8 22.7
-13 0 4 12.1 17
13 -13 4 8.6 18.8
7 -14 4 7.4 16.2
-7 -7 4 7.7 14.3
-7 -7 4 12 17
-14 7 4 0 15.2
-14 7 -4 10.4 17.5
-14 7 4 14.5 17.4
14 -7 4 -9.2 15.9
-14 6 4 180.08 27.6
-14 8 -4 212.38 30.9
-14 6 4 176.28 25.9
-6 -8 4 207.28 29.2
-6 -8 4 207.58 26.5
8 -14 4 195.48 29
14 -6 4 202.48 30.7
-8 -6 4 187.68 28
-14 6 -4 160.48 27.8
14 -8 4 174.28 28.8
-8 -6 4 155.08 26
-14 8 4 180.48 29.1
-6 -8 -4 196.18 27.4
-14 8 4 129.49 23.6
6 -14 4 172.88 26.3
-9 14 4 167.08 25.9
-14 9 -4 200.28 29.2
-5 -9 4 159.78 27.2
9 -14 4 185.18 28.6
-14 5 4 170.68 26.6
14 -5 4 185.18 30.4
-5 -9 4 180.68 25.8
-9 14 -4 217.38 28.6
-5 -9 -4 262.27 29.2
-14 5 -4 235.18 28.5
-9 -5 4 261.87 29.5
14 -9 4 256.87 29.9
-9 -5 4 228.88 28.9
5 -14 4 264.47 29.6
-14 9 4 259.17 31.7
-14 4 4 210.88 29.3
14 -4 4 215.28 33.5
-10 14 4 221.08 33.1
-14 10 -4 220.08 30.7
-4 -10 4 213.28 28.4
10 -14 4 205.08 30.6
-10 14 -4 196.58 30.6
-10 -4 4 188.28 27.5
4 -14 4 216.78 28.5
14 -10 4 217.68 31.5
-4 -10 -4 191.98 29
-14 10 4 186.28 29.8
-14 11 -4 260.37 33.9
-11 14 4 254.87 35
-3 -11 4 286.27 30.3
-14 3 4 272.47 32
11 -14 4 298.87 33.2
14 -3 4 291.77 33.4
14 -11 4 311.27 35.2
-3 -11 -4 292.17 32.3
-11 14 -4 285.27 35
-11 -3 4 289.87 32.7
3 -14 4 293.67 31.5
-14 11 4 313.67 35
-12 14 4 16.8 21.1
-14 2 4 -2.1 9.8
-14 2 4 16.3 17.7
12 -14 4 13.4 18.3
2 -14 -4 0.7 9.4
-14 12 -4 2.4 11
14 -2 4 17.8 20.2
-14 12 -4 9.4 19.2
14 -12 -4 3.2 10.2
-2 -12 4 11.1 17.3
-12 -2 4 22 16.9
-14 12 4 13.4 13.6
-12 -2 4 -4.6 9.6
-2 -12 -4 5.2 9.4
12 -14 -4 -1 9.5
-12 14 -4 27.7 19.8
2 -14 4 11.2 15.8
14 -12 4 16 18.1
-2 -12 -4 9 18.2
-14 12 4 30.1 20.4
13 -14 4 119.59 23.6
1 -14 -4 71.09 13.1
14 -13 -4 97.49 14.4
-14 13 -4 116.39 17.4
-14 1 4 128.49 23.1
-1 -13 4 121.49 22.7
-14 1 4 122.59 15.8
-14 13 -4 109.89 23.4
-13 14 4 110.89 24.4
1 -14 4 88.39 19.5
14 -13 4 105.49 24
14 -13 4 114.99 22.4
13 -14 -4 76.19 13.4
-1 -13 -4 79.89 13.5
-14 13 4 76.59 16.1
-13 14 -4 85.69 22.8
-13 -1 4 139.39 25.3
-14 13 4 117.69 25
-13 -1 4 87.99 14.5
-14 14 4 31.1 21.2
0 -14 -4 25.5 11.3
14 -14 -4 24.1 12.5
-14 0 4 43 19.3
-14 14 -4 32.7 19.9
0 -14 4 20.3 17.8
-14 14 -4 28.1 14.1
-14 0 4 28.3 12.4
14 -14 4 28.5 20
-14 14 4 24.7 15
14 0 -4 -3.5 12.9
-15 8 -4 45.5 19.4
-7 -8 4 29.6 18.3
-15 7 4 52.79 18.7
-7 -8 4 36.2 17.4
15 -7 4 53.79 19
-8 -7 -4 -0.1 13.5
-15 8 -4 3.6 15.9
8 7 -4 -4.5 14
-7 15 -4 -3.2 14.5
-15 7 4 65.89 20.7
8 -15 4 45.3 18.3
15 -8 4 25.5 18.9
-8 -7 4 24 17.6
-15 7 -4 -0.5 10.2
7 -15 4 15.5 15.6
-8 -7 4 14 16.5
-15 7 -4 20.8 18.5
15 -7 -4 -10 10.2
-7 -8 -4 2.5 10.2
7 8 -4 -5.8 13.3
-15 8 4 15.5 16
-15 8 4 34.6 19.6
15 -6 4 30 19.4
-15 6 4 27.9 18.2
-15 6 4 29.8 17.8
9 6 -4 -5.7 16.8
-6 15 -4 0.5 15.2
-6 -9 4 43.4 17.8
15 -9 -4 -5.3 10.6
9 -15 4 29.5 17.7
6 -15 -4 1.4 10.2
-15 9 -4 32 19.7
-9 15 4 -1.9 17.7
-6 -9 4 13.2 16.4
-9 -6 4 44.6 17.5
-15 9 4 37.9 20.1
-6 -9 -4 46.8 19.1
-6 15 4 -0.7 13.2
15 -9 4 58.19 22.1
-9 -6 4 25.1 18.2
6 -15 4 47.5 18.9
-15 6 -4 41.3 19
10 -15 4 169.78 27.2
-15 5 4 94.99 21.5
-5 15 -4 53.59 17.3
-15 10 -4 137.19 25.3
15 -5 4 143.09 27.8
-10 15 4 104.89 24
-5 -10 4 113.99 21.8
-5 15 4 54.79 16.1
-10 15 -4 19 17
-15 10 4 2.2 18.1
-15 5 -4 63.69 13.1
-5 -10 -4 63.39 11.7
15 -4 4 80.69 25.3
-15 11 -4 85.19 23.2
11 -15 4 74.99 21.6
-4 15 -4 49.6 18
-15 4 4 86.89 22
-4 -11 4 86.19 21.2
15 -11 -4 50.49 13.4
-11 15 4 80.99 23.2
-15 4 -4 33.2 11.7
-4 -11 -4 49.6 12.3
15 -11 4 66.79 21.7
-15 11 4 87.09 23.2
-15 11 4 49.1 14.6
15 -4 -4 32.3 12.8
-4 15 4 61.79 18.1
-11 15 -4 74.79 22.3
11 -15 -4 34.1 11.4
-4 -11 -4 77.89 21.5
4 -15 4 78.19 20.1
-15 12 -4 94.59 23.7
3 -15 -4 48.4 12.6
-12 15 4 73.49 23.2
-15 3 4 51.59 20.2
15 -12 -4 65.89 14.6
-15 12 -4 37.8 13.3
-15 3 4 50.79 13
-3 15 -4 36.2 16.9
-3 -12 4 73.59 20.4
15 -3 4 91.09 26
12 -15 4 86.09 24
-15 3 -4 14.2 11.6
-12 -3 4 20.2 10.9
-12 15 -4 67.99 22.1
3 -15 4 48.1 18.3
-3 -12 -4 24.6 19.6
15 -3 -4 38.8 13.1
-15 12 4 32.9 15.3
12 -15 -4 32.4 11.8
15 -12 4 51.29 22.3
-3 -12 -4 42.3 11.7
-3 15 4 53.19 17.5
-12 -3 4 48.8 19.9
-15 12 4 63.19 22.6
-2 -13 4 82.79 20.8
-13 15 4 76.09 16.2
15 -2 4 75.59 24.3
15 -13 -4 70.59 14.4
-15 13 -4 103.79 17.3
13 -15 4 108.59 25
-15 2 4 107.69 16.1
-13 15 4 100.99 25
-15 2 4 85.39 20.7
-15 13 -4 107.19 24.4
2 -15 -4 61.89 13.1
-2 15 4 94.99 19.6
2 -15 4 116.69 23.5
15 -13 4 99.69 24.7
13 -15 -4 81.59 14.7
15 -2 -4 85.99 17.6
-15 13 4 94.29 23.9
-13 15 -4 101.99 25
-2 -13 -4 91.19 14.5
-13 -2 4 64.79 14.2
-13 -2 4 119.19 24.9
-15 13 4 119.99 19.3
15 -13 4 82.79 24.5
-1 15 -4 -9.2 22.3
-14 15 4 17.5 15.1
-15 1 4 13.5 12.8
-15 14 -4 36.1 21.5
14 -15 4 36.9 21.5
14 1 -4 12.6 15.3
-15 14 -4 14.5 15.2
-15 1 4 6.3 17.1
-14 15 4 20.5 21.8
-1 -14 4 16.1 18.9
15 -14 -4 19.2 12.3
15 -1 4 31 23.5
1 -15 -4 15.5 11.2
-14 -1 4 22.2 13.3
-1 15 4 4.5 16.7
-1 -14 -4 12 11.2
1 -15 4 15 19.1
-15 14 4 7.5 21.5
14 -15 -4 11.1 12.4
-14 15 -4 1.3 14.8
-14 15 -4 15.9 21.1
-15 1 -4 7.1 11.4
-15 14 4 20.9 15.3
-14 -1 4 5.7 17.8
15 -1 -4 22 15.6
15 -14 4 12 18.7
-15 15 4 23.2 15.4
0 15 4 33.9 16.8
0 -15 -4 27.1 12.4
0 -15 4 23.3 18.4
-15 15 -4 29.3 15.9
-15 15 -4 7.2 20.5
-15 0 4 31 19
15 0 -4 27.7 17.6
-15 0 -4 -1.7 11.7
-15 15 4 19.8 20.9
15 -15 4 27.5 20.7
15 -15 -4 23.8 12.7
-15 0 4 23.5 12.7
-8 -8 -4 19 11.9
8 -16 -4 13 10.6
-16 8 -4 13.2 19.7
-16 8 -4 17.2 13.7
-8 16 4 20.1 15.4
-8 -8 4 12.4 17.5
-16 8 4 22.1 18.4
8 -16 4 22.2 18.5
-16 8 4 12.7 17.2
16 -8 4 6.7 19.4
16 -8 -4 10.3 12.4
8 8 -4 24.3 16.1
-8 16 -4 13.1 16.7
-8 -8 4 13.7 18.7
-16 7 4 188.48 30.3
-16 7 4 207.18 30.9
16 -7 4 251.97 34.3
-16 9 -4 249.38 33.2
-7 -9 4 205.78 29.2
-16 9 -4 168.68 20.4
9 -16 4 273.47 32.1
7 -16 -4 181.38 19.3
16 -9 -4 173.58 22.2
-9 -7 -4 177.68 21.8
-7 16 -4 201.08 24.6
9 7 -4 179.78 24.8
16 -7 -4 180.28 22.4
-16 7 -4 181.18 22.5
-9 -7 4 231.28 29.5
-7 16 4 179.68 25.7
7 9 -4 193.38 24.4
-16 9 4 255.57 32.5
-9 -7 4 227.98 31.1
-9 16 -4 180.68 21.6
-16 7 -4 259.37 32.4
7 -16 4 284.07 31.8
9 -16 -4 172.78 20.2
16 -9 4 261.27 34.2
-7 -9 -4 171.38 20.6
-10 -6 -4 55.59 13.8
-16 10 -4 77.89 23.5
10 6 -4 44.9 15.6
10 -16 4 88.69 22.5
16 -10 -4 52.29 14.1
6 -16 -4 29.5 10.9
-16 6 4 53.79 20.5
-6 16 -4 78.69 19.8
-16 10 -4 35.4 12.1
16 -6 4 44.2 20.2
-16 10 -4 39.6 14.5
-16 6 4 -3.1 16.3
-6 -10 4 44.9 17.9
-16 10 4 31.2 12.5
16 -6 -4 65.49 15.5
16 -10 4 69.89 23.1
-6 16 4 69.79 19.2
-16 10 4 42.6 20.5
-6 -10 -4 52.69 13.1
6 -16 4 87.09 22.4
10 -16 -4 54.79 13.2
-10 -6 4 60.29 21.3
6 10 -4 70.69 18.3
-16 6 -4 64.49 15.5
11 -16 4 385.06 37.6
11 5 -4 239.88 25.8
16 -5 4 345.47 38.8
16 -11 -4 263.97 25
-16 11 -4 248.88 24.7
-5 -11 4 361.76 34.4
-16 5 4 276.07 24
-11 16 4 285.07 36.8
-5 16 -4 283.37 28.7
-16 11 -4 362.56 37.6
5 -16 -4 282.97 24
-16 5 4 338.57 36
-11 -5 4 350.66 35.8
5 -16 4 337.07 34.2
11 -16 -4 217.08 22.6
-16 11 4 305.97 36.4
-5 -11 -4 310.17 32.9
-5 -11 -4 243.28 23.4
16 -5 -4 242.58 25
-16 11 4 227.78 23.6
5 11 -4 256.47 27.5
-5 16 4 251.57 28.5
-16 5 -4 258.67 23.7
-4 -12 4 270.37 32.2
12 -16 4 328.67 35.7
-16 4 4 221.28 23.1
-4 16 -4 220.78 27.2
-16 12 -4 297.47 35.1
16 -4 4 288.77 37.8
-16 12 -4 208.78 24.2
-12 16 4 252.77 35.9
4 -16 -4 227.48 23.4
16 -12 -4 223.48 24.8
-16 4 4 253.07 33.2
-16 4 -4 200.28 21.7
16 -4 -4 200.98 23.6
-16 12 4 193.08 22.7
4 12 -4 206.38 25
-4 -12 -4 193.58 21.5
-12 16 -4 217.58 33.4
-4 16 4 214.38 25.1
4 -16 4 245.48 31.5
-12 -4 4 186.28 20.1
-12 -4 4 229.98 33.7
12 -16 -4 173.28 21.5
-16 12 4 258.77 34.7
16 -12 4 260.27 35.2
-13 16 4 29.4 21.6
13 -16 4 68.89 23.4
-13 16 4 34.8 14.9
-3 -13 4 36.1 19.7
-16 13 -4 65.69 16.9
16 -3 4 47.5 25
16 -13 -4 45.1 14.1
-16 3 4 48.1 14.1
-3 16 -4 22.8 17.1
-16 3 4 22 18.2
-16 13 -4 44.2 20.3
3 -16 -4 33.1 12.4
3 -16 4 69.49 20.5
-3 -13 -4 64.69 14.4
13 -16 -4 66.09 14.1
-13 -3 4 72.39 15.1
16 -3 -4 77.79 16.7
-16 3 -4 54.09 14.4
16 -13 4 60.29 21.8
3 13 -4 63.29 17.2
-3 16 4 51.49 18.7
16 -13 4 38.6 21.1
-16 13 4 84.59 24.7
-13 -3 4 68.09 22.6
-16 13 4 75.99 18
-3 -13 -4 0.9 22.3
-13 16 -4 62.89 22.9
-14 16 4 138.59 26.5
-16 14 -4 154.88 22.8
14 2 -4 129.29 21.1
-16 2 4 184.28 31.8
2 -16 -4 152.58 20.3
-16 2 4 162.98 20.7
14 -16 4 236.48 32.2
-14 16 4 153.68 23.2
16 -14 -4 156.88 21.9
-16 14 -4 217.58 33.7
-2 16 -4 146.09 20.6
-2 -14 4 218.08 29.1
2 14 -4 115.09 19
16 -14 4 173.98 28.9
-16 14 4 182.18 21.3
-16 2 -4 129.89 19.8
-16 14 4 93.49 23.4
2 -16 4 170.88 26.3
14 -16 -4 136.59 16.9
-2 16 4 142.29 22.6
-14 -2 4 161.88 26.9
16 -2 -4 153.58 20.1
-14 16 -4 102.89 18.6
-2 -14 -4 158.18 17.7
-14 16 -4 183.38 29.8
-14 -2 4 137.19 19.9
-16 1 4 8.5 19.3
15 -16 4 6 21.4
-15 16 4 18.9 15.9
16 -1 4 15.9 23.4
16 -15 -4 14.7 12.2
-1 -15 4 9.3 18.4
-15 16 4 9.6 20.7
1 -16 -4 0.7 11.4
-16 1 4 2.9 13
-16 15 -4 11.4 14.6
-1 16 -4 6.2 14.3
1 15 4 10.9 15
15 1 -4 23.9 17.3
-16 15 -4 13.3 20.8
-15 -1 4 8.5 17.6
-15 -1 4 21.8 13
-16 15 4 12.7 15.5
16 -1 -4 11.9 15.1
-16 1 -4 9.3 12.7
15 -16 -4 6.4 12.3
1 -16 4 -3.4 18.8
-15 16 -4 9.4 15.1
-1 16 4 13.7 17.7
16 -15 4 20.9 21.2
-16 15 4 3.4 21.5
-1 -15 -4 11.3 11.4
-15 16 -4 7.9 22.2
1 15 -4 -11.6 12.8
0 -16 -4 17.4 11
0 16 -4 -4.6 16.3
0 16 4 29.3 17.6
-16 16 4 32.7 16.1
16 -16 -4 25.3 12.7
-16 16 4 34.6 22.8
16 -16 4 20 20.4
-16 0 4 24.2 19.9
-16 16 -4 29.5 21.4
16 0 -4 33.7 17.5
-16 0 4 25.9 12.7
16 0 4 26.3 25.1
-16 16 -4 23.1 14.6
0 -16 4 19.5 19.9
-16 0 -4 26.7 13.1
-17 9 -4 16 20.7
-17 9 -4 41.8 13.9
-17 9 -4 14 12.9
-8 -9 4 27.8 19.2
9 -17 4 52.19 20.9
-8 17 -4 35.9 16.7
9 8 -4 50.99 16.9
-17 8 4 20 19.4
17 -9 -4 29.5 14.3
-9 17 4 34.4 18.3
8 -17 -4 31.5 11.9
17 -8 4 34.4 21.4
-9 -8 -4 36.2 14.2
-17 8 4 19.4 17.8
-17 9 4 32.5 20.3
-17 8 -4 34.5 14.3
-17 8 -4 9.4 19
-9 17 -4 43.6 16.7
8 -17 4 32.3 19.3
-8 17 4 37.6 18.2
9 -17 -4 36 12.4
17 -9 4 56.49 23.8
-8 -9 -4 26.5 12.6
-17 9 4 -1.2 13
-17 9 4 2.5 27.9
17 -8 -4 32.3 13.9
8 9 -4 45 16.8
-9 -8 4 23.9 18.5
-9 -8 4 -3.2 20.2
-17 10 -4 18.1 20.6
-10 17 4 16.5 16.5
10 7 -4 23.3 15.5
7 -17 -4 9.3 11.5
-7 -10 4 13.2 18.3
-17 10 -4 7 12.1
17 -10 -4 12 12.3
-17 7 4 2.9 12.3
-7 17 -4 27.2 17.2
-10 -7 -4 21.2 13.5
10 -17 4 24 18.8
-17 7 4 15.4 19.7
-17 10 -4 9.7 13.9
17 -7 4 21.4 21.6
-10 17 -4 23.3 15.5
-17 10 4 20.5 13.5
-17 10 4 6.5 18.8
7 -17 4 20.5 19
17 -10 4 21.3 21.2
-17 7 -4 5.9 21.7
-7 -10 -4 9.8 12.4
7 10 -4 27.5 16.7
-10 -7 4 8.4 18.1
17 -7 -4 8.6 13.4
-17 7 -4 26.4 14.4
10 -17 -4 18.2 11.2
-7 17 4 15.8 16.9
11 -17 4 49.1 20.9
6 -17 -4 57.89 13.7
11 6 -4 42.7 16.1
-6 17 -4 37.3 17.8
-17 11 -4 41 15.4
-11 17 4 3.6 16.6
-17 6 4 44.8 14.4
17 -6 4 34.6 21.5
-6 -11 4 59.59 20.5
-17 11 -4 37.2 13.2
-17 6 4 51.49 21.4
17 -11 -4 19.8 13.5
-17 11 -4 23.2 19.8
6 -17 4 75.29 21.8
-17 11 4 77.99 17.1
11 -17 -4 77.29 14.7
6 11 -4 79.49 17.8
-17 6 -4 80.69 15.7
-17 11 4 68.49 22.2
-11 17 -4 39.8 15.1
-6 17 4 72.49 18.6
-11 -6 4 71.99 23.2
17 -6 -4 97.59 17.2
-6 -11 -4 93.69 15
17 -11 4 84.69 24
12 -17 4 24.5 20.5
-5 -12 4 26.8 19.2
-17 12 -4 20.1 14.4
-5 17 -4 39.7 18.3
17 -5 4 38.8 22.8
-17 5 4 27.3 19.4
17 -12 -4 34.2 14.9
5 -17 -4 28 12.6
-17 12 -4 21.4 12.3
12 5 -4 23.4 14.7
-17 5 4 35.4 14.6
-17 12 -4 36.6 22.1
-17 12 4 33.9 20.3
12 -17 -4 35.7 12.8
5 12 -4 55.19 17.2
-5 17 4 63.19 18.8
-12 -5 4 30.5 20.8
-12 -5 4 46 14
-17 5 -4 55.09 15
-12 17 -4 7.8 13.1
17 -5 -4 51.79 14.7
-5 -12 -4 69.79 14.6
5 -17 4 58.49 19.5
-5 -12 -4 3.7 18.3
-17 12 4 58.19 16.1
17 -12 4 64.19 22.8
-17 4 4 55.39 20.9
4 -17 -4 51.29 13.6
17 -4 4 75.29 26.4
13 -17 4 80.59 25.2
-13 17 4 17 19.8
-4 17 -4 39.3 16.6
13 4 -4 47.4 14.1
-17 4 4 51.29 15
-17 13 -4 57.89 15.7
-4 -13 4 42.2 19.5
-17 13 -4 69.89 23.4
-17 13 -4 26.8 11.8
17 -13 -4 51.49 14.4
-17 4 -4 29.9 13.3
17 -13 4 17.7 20.2
4 13 -4 32.1 16.2
-13 -4 4 36.8 13.7
-4 17 4 33.6 18
13 -17 -4 45.6 13.1
17 -4 -4 57.69 16.1
-17 13 4 51.09 22.4
-13 -4 4 44.6 22
17 -13 4 68.99 24.4
4 -17 4 44.2 19.4
-17 13 4 43.6 16.9
-4 -13 -4 50.19 13.4
-17 3 4 52.49 21.5
3 -17 -4 45.5 12.8
-17 14 -4 36 20.8
-3 -14 4 36.4 20.1
-14 17 4 36.5 15.7
17 -3 4 2.2 13
-3 17 -4 39.8 16.5
17 -14 -4 59.09 13.8
17 -3 4 44.8 25.7
-17 14 -4 62.69 16.1
-14 17 4 30.9 20.9
-17 3 4 48.5 14.8
14 -17 4 39.8 21.7
17 -3 -4 37.5 15
3 14 -4 43.3 16.5
-3 17 4 36.9 18.3
17 -14 4 31.3 21.8
14 -17 -4 15.9 13
3 -17 4 30.6 20.9
-17 14 4 25.6 22.5
-3 -14 -4 27.4 12.4
-17 14 4 30.3 16.7
-14 17 -4 5.1 19.7
-14 -3 4 36.2 13.6
-17 3 -4 35.5 14.1
-14 -3 4 15.6 19.2
-14 17 -4 16.9 14.3
2 -17 -4 15 11
17 -15 -4 8.5 12
-17 15 -4 28.7 21.8
-17 15 -4 27.3 14
-2 17 -4 32.5 15.9
-17 2 4 25.8 19.8
-15 17 4 22.9 21
-15 17 4 27.6 16.2
15 2 -4 33 18.1
-17 2 4 34.6 13.9
17 -2 4 24.6 25.1
15 -17 4 19.1 20.9
-2 -15 4 19.1 20.5
2 15 -4 30.1 15.6
-17 2 -4 35.2 14.3
-2 17 4 22.2 17.3
2 -17 4 32.7 20.2
15 -17 -4 26.9 13
-17 15 4 29.8 22
-15 17 -4 27.7 15.7
-2 -15 -4 25.6 11.7
-15 17 -4 14.2 21
-15 -2 4 37.8 13.6
-17 15 4 22.8 15.5
-15 -2 4 33 19.6
17 -15 4 35.5 21.7
17 -2 -4 14 14.8
-1 -16 4 11.8 19.2
17 -1 4 6.5 24
-16 17 4 8 19.4
-17 1 4 3.3 13.9
-1 17 -4 17.5 14.2
-17 16 -4 3.2 19.6
17 -16 -4 -3.7 11.7
1 -17 -4 4.8 10.5
-16 -1 -4 2 12.2
-17 1 4 4 18.3
16 1 -4 15.8 16.6
-17 16 -4 -0.8 13.4
1 16 4 8.6 16.7
16 -17 4 3 21.8
-16 17 4 8 14.5
16 -17 -4 9.2 11.9
1 16 -4 -4.5 13.7
-16 17 -4 0.4 19.3
-1 -16 -4 17.1 11.6
-16 17 -4 6.8 14.1
-16 -1 4 18.2 19.1
-17 16 4 1.4 19.8
-16 -1 4 5.8 12.5
-17 16 4 9.2 15.1
-17 1 -4 12.1 13.2
-1 17 4 9.3 16.9
1 -17 4 8.2 19.7
17 -1 -4 9.7 14.2
16 1 4 22.3 24.7
17 -16 4 -8 20.4
-17 17 4 -5.4 18.3
-17 17 4 5.4 14.4
17 0 4 9 24.5
-17 0 -4 5.4 12.6
0 -17 -4 4 10.9
0 17 4 -2.3 15.3
-17 17 -4 8.3 19.4
17 -17 4 -2.1 20.6
-17 17 -4 13.2 13.5
17 -17 -4 2.4 12
17 0 -4 4.7 14.6
0 17 -4 -4.8 11.1
0 -17 4 -1.9 18.2
-17 0 4 5.6 18.3
-17 0 4 0.5 12.9
-9 18 4 79.99 20.1
-9 -9 4 81.49 21.2
9 -18 -4 84.49 14.1
18 -9 -4 70.99 15.7
-9 -9 -4 74.19 14.9
-18 9 -4 62.89 14.2
-18 9 4 -2.9 28.1
9 -18 4 74.19 22.1
-9 18 -4 64.79 17
-18 9 -4 64.39 14.8
18 -9 4 83.09 24.2
9 9 -4 99.49 17.8
-18 9 -4 30.6 19.5
10 -18 4 157.38 27.6
18 -10 -4 158.28 19.1
18 -8 4 175.68 30.8
-8 -10 4 103.29 23.5
-8 18 -4 130.39 20.5
-18 10 -4 163.08 19
-18 8 4 107.49 16.5
-18 10 -4 143.59 26
-10 18 4 107.79 21.6
8 -18 -4 105.09 15.1
10 8 -4 119.99 18.5
-18 10 -4 92.59 17
8 -18 4 165.38 28.1
-18 8 -4 111.69 17
18 -10 4 178.38 30.6
10 -18 -4 81.99 14.2
-18 10 4 82.99 22
-8 18 4 81.99 19.6
-8 -10 -4 141.79 17.6
18 -8 -4 111.09 17.2
-18 10 4 85.89 16.8
8 10 -4 125.49 18.6
-10 18 -4 85.69 17.8
-11 18 4 39.3 18.6
-18 7 4 39.5 20.5
11 -18 4 56.59 22.7
18 -11 -4 24.8 13.3
7 -18 -4 38.2 12.3
-7 -11 4 46.1 21
18 -7 4 44.8 24.6
-18 7 4 30.7 13.8
-7 18 -4 52.49 17.4
11 7 -4 47.1 16.5
-18 11 -4 44.5 22.2
-18 11 -4 42.7 13.9
-18 11 -4 54.29 14.8
18 -11 4 82.89 25.3
-18 11 4 86.09 17.8
18 -7 -4 69.19 15.3
11 -18 -4 61.19 13.5
-11 18 -4 76.99 17.4
-7 18 4 93.69 21.1
-18 11 4 57.79 22.4
-7 -11 -4 74.19 15
-18 7 -4 82.39 16.3
7 11 -4 79.89 17.3
7 -18 4 94.39 22.9
-18 6 4 64.69 22.8
-18 12 -4 82.99 24.6
-6 -12 4 68.19 21.5
-6 18 -4 49.8 16.5
-18 12 -4 83.09 16.7
18 -6 4 83.89 27.7
-18 12 -4 68.99 15.1
12 6 -4 60.09 16
12 -18 4 60.99 23.2
-18 6 4 91.39 16.7
6 -18 -4 52.99 13.4
18 -12 -4 76.49 15.5
18 -12 4 66.19 23.1
6 12 -4 79.49 17.5
-12 18 -4 57.79 16
6 -18 4 65.39 21.1
12 -18 -4 67.49 14.6
-18 12 4 58.59 23.1
-12 -6 4 54.49 14
18 -6 -4 71.89 16.2
-6 18 4 55.89 18.7
-18 6 -4 79.29 16.3
-6 -12 -4 77.99 15
-18 12 4 87.79 17.7
-18 5 4 122.09 25.8
-18 13 -4 103.79 24.6
13 -18 4 93.59 23.7
-5 18 -4 95.79 19
-5 -13 4 79.19 21.3
-18 13 -4 66.99 14.1
18 -13 -4 89.69 15.4
-18 13 -4 88.89 15.8
18 -5 4 69.19 24.5
5 -18 -4 69.49 13.3
13 5 -4 106.69 17.1
-18 5 4 86.09 16
-5 -13 -4 93.39 15.1
-18 13 4 114.89 18.8
18 -5 -4 137.79 19
-18 5 -4 147.29 18.9
5 13 -4 110.19 18.4
-13 -5 4 52.49 20.5
-18 13 4 72.39 22.6
18 -13 4 114.59 25.4
5 -18 4 110.19 22.4
-5 18 4 103.29 21.2
-13 18 -4 75.59 15.7
13 -18 -4 98.09 15.4
-13 -5 4 95.09 16
-14 18 4 41.8 15.3
-18 14 -4 42.6 14.9
-18 14 -4 44.6 21.9
4 -18 -4 41.9 12.1
18 -4 4 48.9 25.4
14 -18 4 32.6 21.9
-4 18 -4 50.49 16.7
-4 -14 4 41.5 20.2
18 -14 -4 60.29 13.6
14 4 -4 40.8 13.5
-18 4 4 23.5 19.8
-18 4 4 51.09 15.1
-14 -4 4 23.9 19.1
-14 -4 4 65.99 15.1
-18 4 -4 51.29 14
-4 -14 -4 44.6 13.3
-18 14 4 73.39 18.1
18 -4 -4 66.99 16.1
14 -18 -4 47.5 13.3
4 14 -4 70.79 16.6
-18 14 4 37.5 22
18 -14 4 69.79 23.9
4 -18 4 55.89 21.4
-4 18 4 44.6 18.2
3 -18 -4 32.7 12.4
-3 -15 4 20.3 19.2
15 -18 4 36.1 22.7
18 -15 -4 27.1 12.5
18 -3 4 16.8 24
-18 15 -4 19.8 20
-18 3 4 27.5 19.3
18 -3 4 22.9 13.4
15 3 -4 -5.8 9.7
15 3 -4 51.39 18.5
-18 3 4 29.4 13.9
-18 15 -4 42.2 14.4
-3 18 -4 37.2 16.3
-15 18 4 43.2 16
-15 -3 4 29.4 19.7
18 -3 -4 47.8 14.6
18 -15 4 45.5 22.7
-15 -3 4 48.3 13.7
-18 15 4 67.29 17.7
3 -18 4 47.7 22.4
-3 -15 -4 50.89 13.7
-18 3 -4 38.3 13.6
-18 15 4 21.2 21
15 -18 -4 24.9 12.2
-15 18 -4 29.7 15.1
-3 18 4 61.39 18.8
3 15 -4 36.7 15.4
2 -18 -4 1.8 10.4
16 2 -4 14.8 16.2
-2 -16 4 5.2 17.8
-2 18 -4 31.1 14.9
-18 2 4 4.1 18.1
-16 18 4 14.5 15.2
18 -16 -4 10.3 11.6
18 -2 4 9.3 13.1
-18 2 4 21.5 13.3
-18 16 -4 9.9 19.3
18 -2 4 19.9 22.1
16 -18 4 -2.2 20.5
-18 16 -4 20.8 13.2
-18 16 4 12.7 15.3
-16 18 -4 8.6 13.9
2 16 -4 -7.2 13.7
16 -18 -4 0.9 11.1
-2 18 4 18.7 16.5
2 -18 4 -0.6 19.4
-16 -2 4 6.5 18.3
-16 -2 4 7.3 12.7
-18 2 -4 2.7 12.2
18 -2 -4 -0.6 13.5
-2 -16 -4 8.5 11.2
-18 16 4 -7.6 20.2
18 -16 4 -3.3 19
-17 -1 -4 22.6 12.5
-17 18 4 43.7 16
18 -1 4 27.7 13.6
17 -18 4 -4.7 19.6
-18 17 -4 2.3 26.6
17 1 -4 45.1 16.3
18 -17 -4 43.7 13
-18 1 4 66.39 15.6
-18 17 -4 43.5 14.5
1 17 4 16.5 14.1
-18 1 4 -1.7 17.3
18 -1 4 5.7 22.8
1 -18 -4 40.5 12.4
-1 18 -4 22.4 13.4
-1 -17 4 0.6 17.4
-17 -1 4 33.4 13.5
-17 18 -4 40.2 14.9
-1 18 4 28.8 15.6
-18 1 -4 21.4 13.2
18 -1 -4 44.2 14.9
-18 17 4 36.9 15.4
-17 -1 4 -0.1 20.9
17 -18 -4 32.1 12.6
17 1 4 0.9 24.4
1 17 -4 24.2 13.3
-18 17 4 -5.1 18.4
1 -18 4 -0.2 17.6
18 -17 4 -2.1 20.7
-1 -17 -4 33.8 11.7
0 -18 -4 1.5 10.7
-18 18 4 6.2 14.8
-18 18 -4 4.9 12.5
-18 0 4 15.6 12.3
-18 0 -4 3.3 12.4
0 18 4 6.4 14.2
0 18 -4 -4.8 16.1
18 0 -4 -3.7 13.9
18 -18 -4 3 11.2
10 -19 4 41.3 22.1
-9 19 -4 54.79 17.8
10 9 -4 41.4 14.7
-10 19 4 23.5 17.2
9 -19 -4 46.7 12.6
-19 9 4 20.7 12.5
-19 10 -4 47.1 13.7
19 -10 -4 41.3 13.5
19 -9 4 41.7 22.9
-9 -10 4 2.3 17.9
-19 10 -4 29.1 13.6
-9 19 4 26.4 17.4
9 -19 4 35.9 22.2
19 -10 4 38.6 23.3
-9 -10 -4 78.69 15.7
-19 9 -4 25.7 12.8
10 -19 -4 33.2 11.7
-10 19 -4 49.1 17.3
9 10 -4 52.69 15.8
-19 10 4 51.89 15.1
-19 9 -4 40.9 13.1
19 -9 -4 46.3 14.3
8 -19 -4 105.69 15.1
-11 19 4 153.28 21.5
19 -8 4 108.49 25.9
-8 19 -4 112.89 18.5
-19 11 -4 171.78 19.2
-19 8 4 110.39 16.6
-19 11 -4 108.89 16
-8 -11 4 58.89 19.3
11 8 -4 125.49 18.2
11 -19 4 157.48 26.6
19 -11 4 142.29 29.2
-19 8 -4 132.69 19.5
8 -19 4 117.79 24.4
-8 19 4 208.48 25.1
-19 11 4 174.28 21.1
-8 -11 -4 198.88 20.3
-11 19 -4 147.09 22.3
8 11 -4 159.48 22
11 -19 -4 139.79 19
19 -8 -4 214.68 21.3
7 -19 -4 44.6 12.8
12 -19 4 54.39 22
19 -12 -4 55.99 15.3
-7 -12 4 18.9 18.3
-19 12 -4 54.49 15
-12 19 4 64.89 17.5
-7 19 -4 66.29 17.4
-19 7 4 4.3 21.7
-19 12 -4 58.19 14.3
19 -7 4 33.2 22
-19 7 4 45.9 14.6
12 7 -4 40.6 14.4
-19 12 -4 27.3 18.9
19 -12 4 63.09 23.5
-19 12 4 4 18.9
-12 -7 4 44.2 13.2
-12 19 -4 55.19 16
-19 7 -4 60.59 14.5
7 -19 4 43.4 21.3
-7 -12 -4 57.79 13.9
7 12 -4 76.39 15.6
-7 19 4 82.39 20.4
19 -7 -4 66.09 14.2
12 -19 -4 46.8 12.9
-19 12 4 63.59 16.5
13 -19 4 28.4 20.5
-19 6 4 1.6 18.1
-13 19 4 -12.1 13.9
-6 -13 4 -0.6 17.7
-19 13 -4 20.4 14.2
-19 13 -4 18.7 19.9
19 -13 -4 26.3 12.7
-6 19 -4 15.5 15.3
-19 13 -4 18.2 12.2
13 6 -4 19.2 13.6
19 -6 4 15.9 23.9
6 -19 -4 13.8 10.9
-19 6 4 28 13.8
-19 13 4 13.8 14.8
6 -19 4 2.6 18.5
-19 6 -4 9.5 12.6
-6 19 4 30.4 17.6
13 -19 -4 11.8 11.3
-19 13 4 2.7 19.6
6 13 -4 36.5 14.5
19 -13 4 0.2 20.7
-13 -6 4 17.2 12.8
19 -6 -4 27.2 13.5
-13 19 -4 17.2 14
-6 -13 -4 15.9 12.6
-5 -14 4 1.5 17.5
-14 19 4 -4 12.2
-19 14 -4 19.7 19.9
5 -19 -4 23.1 11
-5 19 -4 -2.6 14.5
19 -14 -4 18.5 11.6
-19 5 4 -2.5 18.6
-19 5 4 10.6 13.3
14 -19 4 12.6 20.6
19 -5 4 17.3 22.2
-19 14 -4 19.4 13.8
14 5 -4 16.7 13
14 -19 -4 19 12.6
-14 19 -4 5.2 11.6
-19 14 4 -2.3 19
19 -14 4 -0.6 20.1
-19 5 -4 -1.9 12.3
19 -5 -4 16.5 13.4
5 -19 4 7.1 19.7
-19 14 4 12.2 14.4
-5 19 4 24.2 17.3
5 14 -4 24.4 13.8
-5 -14 -4 9.4 12.2
-14 -5 4 13.1 12.3
15 4 -4 113.99 20.1
15 4 -4 62.49 13.7
-4 19 -4 90.29 17.1
4 -19 -4 96.29 14.5
-19 15 -4 155.28 18.5
-19 4 4 86.79 15.2
19 -15 -4 112.89 15.4
19 -4 4 41.4 22.3
-15 19 4 89.79 16.9
-15 -4 4 83.09 15.2
-4 -15 -4 96.69 15.1
15 -19 -4 79.39 14.5
-15 19 -4 41 13.4
4 15 -4 62.79 15.2
-4 19 4 94.69 18.9
-19 15 4 126.19 19.6
4 -19 4 46.3 21.1
-19 4 -4 81.19 15.2
19 -4 -4 102.89 16.6
19 -3 4 4.6 23.4
-19 3 4 51.99 13.6
3 -19 -4 43.4 11.7
-19 16 -4 75.89 15.4
16 3 -4 59.59 17.4
-19 16 -4 1.9 21
-3 19 -4 54.89 15.5
19 -16 -4 53.49 13.1
-19 3 4 0.6 26.8
19 -3 4 31.3 13.1
-16 19 4 55.99 15.9
16 -19 -4 40.7 12.4
19 -3 -4 65.59 15.5
-19 3 -4 63.59 14.6
-3 -16 -4 39.2 12.7
-19 16 4 66.89 16.5
3 -19 4 1.6 19.3
-16 -3 4 56.39 14.4
3 16 -4 44.5 14.4
-19 16 4 -4.1 18.8
-3 19 4 52.39 15.9
-16 19 -4 48.5 15
19 -17 -4 16.2 11.5
-19 17 -4 49.3 13.6
-17 19 4 29.6 14.7
-2 19 -4 23.8 13.8
19 -2 4 21.1 12.1
2 -19 -4 18.8 11.4
17 2 -4 26 15.1
-19 2 4 26 12.4
-19 17 4 23.3 15.5
19 -2 -4 25.2 13.3
-2 -17 -4 18.8 11.5
-17 -2 4 15.4 13.1
17 -19 -4 14.5 11.2
2 17 -4 10.6 13
-17 19 -4 5.4 13
-19 2 -4 12.5 12.1
-2 19 4 10.8 14.4
18 1 -4 2.9 13.2
-19 18 -4 8.7 11.9
19 -1 4 10.3 11.7
-18 19 4 10.7 13.4
-18 -1 -4 -1.1 10.3
1 18 4 -11.6 11
-1 19 -4 -1.3 10.9
19 -18 -4 3 10.8
-19 1 4 4.6 11.2
1 -19 -4 3.1 10.2
-1 -18 -4 10.6 10.5
18 -19 -4 14.4 10.6
-18 -1 4 7.6 11.1
-18 19 -4 8 12.6
-1 19 4 8.2 13.5
-19 18 4 22.9 14.5
-19 1 -4 13.5 12
19 -1 -4 11.7 12.7
1 18 -4 -10 10.9
-19 19 -4 19.6 12.1
-19 0 -4 18.6 10.7
19 0 4 7.2 11.1
0 19 4 8.2 11.7
19 -19 -4 8 9.6
-19 0 4 20.5 10.8
0 -19 -4 14.1 10.6
19 0 -4 13.4 13
-19 19 4 12.4 13.1
20 -10 4 57.09 23.6
-20 10 -4 129.69 18.2
10 -20 -4 83.39 13.6
10 10 4 85.19 15.1
-20 10 4 80.19 14.9
10 -20 4 50.99 20.7
-20 10 -4 120.49 17
-20 11 -4 114.89 16.2
11 9 -4 152.98 18.8
-20 9 4 149.49 17.8
9 -20 -4 132.09 16.6
-9 20 -4 200.88 22.6
-20 11 -4 118.59 18.6
-11 20 4 172.58 22.2
-9 20 4 209.08 23.8
-20 9 -4 139.39 18.7
-20 11 4 132.89 18.6
20 -9 -4 137.79 19.5
9 11 -4 209.18 20.5
11 9 4 134.69 17.7
11 -20 -4 135.69 18.4
-11 20 -4 179.58 20.6
-8 20 -4 83.19 17.1
20 -8 4 17.7 24
-20 12 -4 129.09 16.5
-20 12 -4 115.29 16.5
12 8 -4 99.89 16.1
20 -12 -4 140.39 17.5
-12 20 4 77.99 17.5
8 -20 -4 67.49 13.7
-20 8 4 80.29 15.7
-8 -12 -4 88.89 15.5
-20 12 4 84.79 16.8
12 -20 -4 50.39 12.4
-12 20 -4 66.79 15.6
20 -8 -4 77.49 15
-20 8 -4 83.39 14.8
8 12 -4 113.99 16.5
-8 20 4 73.69 17.3
-20 7 4 26.6 13.7
7 -20 -4 28.6 11.5
13 7 -4 18.4 12.7
13 -20 4 -0.8 20.1
-20 13 -4 29 12.4
20 -13 -4 25.8 12.3
-20 13 -4 26.2 12.3
-13 20 4 19.9 14.7
20 -7 4 1.6 20.6
-7 20 -4 38.9 15.4
-20 13 4 34.1 15.2
-13 20 -4 15.1 13.4
20 -7 -4 30.5 12.7
-7 -13 -4 31.8 12.9
13 -20 -4 19 10.9
7 13 -4 21.1 12.3
-7 20 4 35 16.1
-20 7 -4 23.8 11.6
-13 -7 4 19 11.7
7 -20 4 -1.4 17.2
20 -13 4 -0.3 20.2
14 6 -4 26.6 12.6
6 -20 -4 24.3 11.1
-20 14 -4 50.79 13.6
14 6 -4 53.19 16.9
20 -14 -4 36.7 12.6
-20 6 4 36.8 13.5
-6 20 -4 68.89 17.3
20 -6 4 4.4 25.5
6 14 -4 60.79 13.9
-20 6 -4 72.59 14.1
-6 20 4 53.29 16.6
-20 14 4 71.99 16.5
6 -20 4 1.2 29.2
20 -6 -4 70.39 14.5
-14 20 -4 45.9 13.4
-6 -14 -4 78.99 14.2
14 -20 -4 40.1 12.4
-14 -6 4 69.19 14.6
-5 20 -4 20.5 14.6
15 5 -4 28.5 16.4
-20 5 4 24.7 13.3
-15 20 4 -5.8 11.8
15 5 -4 11.8 11.2
5 -20 -4 24.6 11
20 -15 -4 27 11.5
-20 15 -4 30.9 12.3
20 -5 4 -1.8 10.6
-20 5 -4 7.2 10.8
-20 15 4 18.6 14.5
-5 -15 -4 13 11.6
-5 20 4 13.2 14.5
20 -5 -4 0.9 11
15 -20 -4 9.4 10.8
-15 -5 4 19.9 13
5 15 -4 14.7 12.6
16 4 -4 -3.3 8.9
-4 20 -4 13 13.2
20 -16 -4 20.7 11.4
4 -20 -4 16.6 10.4
-20 4 4 19.1 11.5
-16 20 4 12.2 13
20 -4 4 -2.3 9.3
16 4 -4 13.5 15.2
-20 16 -4 22.7 12.5
-4 20 4 9.9 13.8
20 -4 -4 18.4 11.9
16 -20 -4 17.6 10.9
-20 16 4 23.7 14.4
-20 4 -4 12.6 10.8
4 16 -4 23.9 12.2
-16 20 -4 -4.3 11
-16 -4 4 20.4 13
-4 -16 -4 19.8 11
-20 17 -4 18 12.2
-3 20 -4 25 12.9
-20 3 4 22.9 11
3 -20 -4 26.1 11
17 3 -4 23.7 14.4
20 -3 4 4.6 10.1
20 -17 -4 15.6 11
-17 20 4 13.7 12.9
20 -3 -4 13.4 12.5
-17 20 -4 11.3 11.9
-20 17 4 13.8 13.7
-20 3 -4 10.2 11.1
-17 -3 4 14.7 11.6
17 -20 -4 6.3 10.9
3 17 -4 7.5 12.6
-3 20 4 11.4 13.7
-3 -17 -4 7.5 10.8
18 2 -4 21.1 13.2
20 -2 4 21.6 10.5
20 -18 -4 28 11
-20 2 4 55.89 11.5
-18 20 4 32.8 13.2
2 -20 -4 34 10.8
-20 18 -4 59.29 12.8
-2 20 -4 40.2 12
-2 -18 -4 29.6 10.9
20 -2 -4 33.2 13.7
-2 20 4 21.6 12.9
-18 -2 4 40 12.1
-20 2 -4 24.4 11.2
18 -20 -4 24.1 11.1
-20 18 4 36.5 13.5
2 18 -4 10.4 11
-18 20 -4 27.3 12.2
1 -20 -4 12.9 9.7
1 19 4 14.2 10.6
-20 19 -4 18.9 10.6
20 -19 -4 9.4 9.6
-19 20 4 10.1 11.8
19 1 -4 13 12.4
20 -1 4 14.5 9.8
-20 1 4 15.2 10.2
-20 1 -4 15 10.1
20 -1 -4 11.4 12.3
-20 19 4 18.1 12.1
19 1 4 12.8 10.9
-19 -1 4 8.6 10
-1 20 4 14.2 11.3
-1 -19 -4 6 9.6
19 -20 -4 11.9 10.1
-19 20 -4 15.9 10.9
0 -20 -4 4.3 9.1
0 20 4 -1.7 9.8
20 -20 -4 1.2 9.1
-20 0 4 4.8 9.2
-20 20 4 7.2 11
20 0 -4 2.5 11.9
-20 20 -4 7.3 10
20 0 4 2.7 8.6
-10 21 -4 59.09 14.9
21 -11 -4 68.19 14.3
10 -21 -4 39.4 11.7
11 10 -4 38.3 12.4
-21 11 -4 54.99 12.6
10 11 4 23.9 12.4
-11 21 4 43.1 15.5
-21 11 -4 47.3 13
-11 21 -4 41 14.1
-21 10 -4 50.79 13
21 -10 -4 73.09 13.4
-10 21 4 62.69 15.7
11 10 4 40.1 12.7
11 -21 -4 36.4 11.4
10 11 -4 79.89 14
-21 10 -4 9.2 10.1
-21 11 4 39.8 12.7
-9 21 -4 51.59 15.8
9 12 4 42.9 13.4
-12 21 4 46.4 15.7
12 9 -4 31.8 12.5
9 -21 -4 46.6 12.4
21 -12 -4 37.8 12.7
-21 12 -4 25.4 11.5
-21 12 -4 44.6 12.6
-21 9 4 33.1 11.9
-21 12 4 35.1 13.8
-12 21 -4 52.19 14.7
-9 21 4 53.39 15.5
12 9 4 18.4 11
-21 9 -4 56.29 12.9
12 -21 -4 37.6 11.2
9 12 -4 69.89 13.9
21 -9 -4 54.09 12.8
-13 21 4 74.89 15.7
-21 8 4 89.79 14.2
21 -13 -4 84.79 13.4
-21 13 -4 77.59 14
8 -21 -4 55.49 11.6
13 8 -4 58.39 13.3
-21 13 -4 64.39 12.8
8 13 4 91.79 14.6
-21 13 4 129.29 17.5
13 -21 -4 90.59 13.4
-21 8 -4 126.69 16.2
-8 21 4 69.69 16.1
21 -8 -4 102.09 15.1
-13 21 -4 104.19 15.9
8 13 -4 113.59 15.7
14 7 -4 -2.9 12.5
-21 7 4 23.5 12.3
7 14 4 25.9 11.5
14 7 -4 32.7 11.9
7 -21 -4 29 10.3
-7 21 -4 40.7 14
-21 14 -4 44.4 12
21 -14 -4 45.8 11.8
-14 21 -4 23.9 12
-21 14 4 55.19 14.8
-7 -14 -4 61.09 13.1
-7 21 4 54.99 15.7
-21 7 -4 63.19 13.3
7 14 -4 69.19 13.4
21 -7 -4 60.29 13
14 -21 -4 28.5 10.8
-6 21 -4 25.2 14.1
21 -15 -4 5.9 10.1
15 6 -4 23.7 13.9
6 -21 -4 11.4 10.2
-21 6 4 11.9 11.2
15 6 -4 6.5 10.4
-21 15 -4 13.6 10.8
6 15 4 5 11.5
21 -6 -4 3 10.5
-15 -6 4 21.9 12.6
15 -21 -4 5.6 9.4
-6 -15 -4 8.6 11
-15 21 -4 -3.4 9.5
-21 6 -4 11.8 10.5
-21 15 4 17.4 13.7
-6 21 4 11.2 13.3
6 15 -4 15.8 11.9
5 16 4 41.4 11.9
5 -21 -4 52.39 11.5
-5 21 -4 68.99 14.7
16 5 -4 71.69 16.1
-21 16 -4 71.39 13.1
-21 5 4 85.89 14
21 -16 -4 61.79 11.8
-21 16 4 84.69 14.9
-5 -16 -4 53.09 12.7
-16 -5 4 57.99 12.7
5 16 -4 61.39 13.1
-5 21 4 63.49 14.5
-21 5 -4 54.19 12.1
21 -5 -4 80.69 13.7
16 -21 -4 42.6 11.1
17 4 -4 103.29 16.9
-21 17 -4 126.59 14.8
-4 21 -4 105.99 15.1
21 -17 -4 92.89 13.4
4 17 4 109.79 14.7
-21 4 4 136.99 15.5
4 -21 -4 114.69 13.9
-21 17 4 127.49 17.2
-4 -17 -4 83.09 13
-21 4 -4 59.49 11.4
4 17 -4 84.39 13.3
-17 -4 4 64.99 12.2
17 -21 -4 73.99 12.1
-4 21 4 67.29 13.6
18 3 -4 11.9 11.9
3 18 4 8.4 10.2
21 -18 -4 1.7 9.4
3 -21 -4 4.7 8.8
-21 18 -4 18.9 10.5
-18 21 4 -1.5 10.2
-21 3 4 6.5 9.4
21 -3 4 -2.5 11.6
-3 21 -4 14.5 11.1
21 -3 -4 5.9 9.8
-18 -3 4 16.4 10.2
-3 21 4 10.6 10.9
-3 -18 -4 12.4 9.6
3 18 -4 8.6 9.7
-21 3 -4 2.2 9.8
-18 21 -4 -4.2 9.8
-21 18 4 13.1 12.1
18 -21 -4 9 9.1
-21 19 -4 61.19 11.7
-21 2 4 69.09 11.9
2 19 4 32.2 10.9
-19 21 4 59.99 12.3
2 -21 -4 43.2 10
19 2 -4 60.39 12.9
21 -19 -4 51.69 10.2
-19 -2 4 47.4 10
21 -2 -4 43.2 11.2
-2 21 4 38.2 11.1
-2 -19 -4 49.6 10.1
19 -21 -4 35.7 9.5
19 2 4 33.8 10.6
-19 21 -4 36.3 8.9
-21 2 -4 42.1 10.9
-21 19 4 38.8 12.1
1 20 4 15.9 9.9
1 -21 -4 12.5 8.6
-21 20 -4 14.8 10.1
-21 1 4 3.2 9.2
21 -1 4 -0.6 10.2
20 1 -4 16 12.6
21 -20 -4 6.2 8.3
-20 21 4 17.1 10.2
21 -1 -4 1.7 10.2
20 1 4 8.5 8
-21 20 4 8.1 10.7
-20 21 -4 6.1 7.5
-20 -1 4 4.4 9.3
-1 -20 -4 14.4 8.9
20 -21 -4 4.9 7.5
-21 21 4 49.7 11
21 0 -4 71.59 12.7
-21 0 4 86.89 12.4
-21 21 -4 51.39 8.9
11 11 -4 24.4 10.5
11 11 4 26.4 11
-22 11 -4 1.7 8.2
-22 11 -4 25.3 10.9
-11 22 -4 27.6 12.3
-11 22 4 35.1 13.5
22 -11 -4 40.1 11.9
11 -22 -4 25.4 10.2
-10 22 -4 -3.1 12.2
-22 10 4 0.3 8.8
22 -12 -4 -4.9 10.2
12 10 -4 9.2 10.4
-12 22 4 -0.9 12.4
10 -22 -4 1.9 8.7
10 12 4 -5.1 10.1
-22 12 -4 -1.2 10.2
-22 12 -4 1.3 9.7
12 -22 -4 10.3 9.6
-22 10 -4 0.7 10.3
10 12 -4 14.5 10.2
-12 22 -4 12.8 12.1
-10 22 4 9.5 12.7
22 -10 -4 0.1 10.6
12 10 4 7.1 9.7
-22 12 4 4.5 10.3
22 -13 -4 39.6 10.6
-22 9 4 33.2 10.8
9 -22 -4 28.6 10
13 9 -4 38.4 11.3
-13 22 4 48.8 13.4
-22 13 -4 44.9 11.3
-9 22 -4 64.79 13.9
9 13 4 40.8 11.6
-22 13 -4 39.9 11.1
9 13 -4 56.89 11.4
-22 9 -4 49.6 11.6
-22 13 4 63.09 13.1
22 -9 -4 82.49 12.8
-13 22 -4 66.59 13.2
13 -22 -4 39.9 10.7
-9 22 4 70.59 14.2
14 8 -4 42.7 11.5
-8 22 -4 52.89 13.5
8 14 4 33.5 11
-22 8 4 40.2 11
-22 14 -4 28.6 10.6
8 -22 -4 41.4 10.7
22 -14 -4 36.3 10.4
-14 22 -4 39.2 11.7
-22 14 4 56.99 13.4
-22 8 -4 52.89 11.7
8 14 -4 71.59 12
-8 22 4 60.59 13.6
22 -8 -4 66.29 11.9
14 -22 -4 38.7 10.3
22 -15 -4 6.8 8.9
-22 15 -4 9.1 9.4
15 7 -4 16.9 9.4
7 15 4 14.5 9.3
-22 7 4 7.3 9.5
-7 22 -4 16.9 11.7
7 -22 -4 17.9 9.4
-15 22 -4 -4.4 10.2
15 -22 -4 17.3 9.1
7 15 -4 30 10.4
22 -7 -4 25.3 10.7
-22 15 4 31.3 12.4
-22 7 -4 23.8 10.1
-7 22 4 25.2 12
16 6 -4 -2.4 11.1
-6 22 -4 32.5 11.7
6 -22 -4 25.3 9.4
-22 16 -4 58.39 11.3
22 -16 -4 35.8 10.3
6 16 4 38.6 10.5
-22 6 4 44.1 10.3
22 -6 -4 53.99 11.8
16 -22 -4 38.2 9.7
6 16 -4 33.4 10.3
-22 16 4 66.49 13.3
-16 -6 4 20.3 9.6
-22 6 -4 38.5 10.2
-6 22 4 46.3 12.3
5 -22 -4 21.9 9.3
-22 17 -4 19.9 9.3
-22 5 4 20.1 9.2
17 5 -4 12.4 10.7
-5 22 -4 36.5 11.2
5 17 4 46.7 11
22 -17 -4 29.7 9.4
-5 -17 -4 43.4 11.1
-17 -5 4 37.3 10.1
-22 5 -4 34.5 10.2
17 -22 -4 37.9 9.3
-5 22 4 27.4 11.5
5 17 -4 35.9 10.3
-22 17 4 43.4 12.6
22 -5 -4 38.1 11.4
-22 18 -4 14.9 9.8
4 18 4 7.3 9.6
22 -18 -4 12.2 9
18 4 -4 4.8 9.9
-22 4 4 2.8 8.4
4 -22 -4 13.2 8.7
-4 22 -4 12.8 9.7
18 4 4 8.9 9.6
4 18 -4 11.3 9.1
-18 -4 4 13.1 8.8
-22 18 4 8.4 11.7
-4 -18 -4 17.3 9.4
-4 22 4 -1.2 10.2
-22 4 -4 5.1 9.5
18 -22 -4 7.1 7.2
22 -4 -4 4.9 10.3
3 19 4 45.9 10.9
22 -19 -4 41.3 8.7
-22 3 4 50.39 9.8
19 3 -4 25.4 11.1
3 -22 -4 31.9 8.5
-22 19 -4 59.69 11.8
-22 19 4 63.99 12.1
19 3 4 45.5 10
-22 3 -4 40.3 10.4
-3 22 4 29.4 10
22 -3 -4 51.19 11.9
-19 -3 4 61.49 11.3
-3 -19 -4 37.3 10
-22 20 -4 3.2 9.3
20 2 -4 -3.3 8.5
2 20 4 10 9.7
-22 2 4 2.1 9.3
20 2 4 -2 6.1
-22 20 4 17.8 11.3
-2 -20 -4 11.9 8.7
-20 -2 4 12.6 9.5
22 -2 -4 21.3 12
11 12 4 13.5 9.2
11 -23 -4 24.2 8.6
23 -12 -4 22.9 9
-23 12 -4 29.8 10.3
-12 23 4 14.1 11.9
12 11 -4 19.9 9.1
-11 23 -4 16.9 10.9
12 -23 -4 15.3 8
23 -11 -4 29.7 10.3
12 11 4 4.3 8.1
-12 23 -4 17.7 10.9
-11 23 4 20.7 11.6
11 12 -4 23.2 9.4
-23 11 -4 32.1 10.2
-10 23 -4 23.3 11.7
-23 13 -4 10.8 7.7
13 10 -4 19.8 9.3
10 -23 -4 20.5 8.1
23 -13 -4 9.6 8.2
10 13 4 14.6 9.2
-13 23 4 22 11.4
-23 13 4 -2.4 13.7
-23 10 -4 19.5 9.4
10 13 -4 29.9 9.8
13 -23 -4 16.8 8.3
-10 23 4 30.5 11.4
23 -10 -4 28.2 10.5
-13 23 -4 19.2 10.8
-23 9 4 7.2 7.9
9 -23 -4 7.1 7.9
-23 14 -4 6.5 8.5
23 -14 -4 2.2 8
-9 23 -4 14.6 10.8
9 14 4 3.4 9
14 9 -4 4.4 8.6
14 -23 -4 8.6 7.7
-23 9 -4 22.5 9.9
-14 23 -4 10.4 9.9
-9 23 4 12.7 11.5
-23 14 4 15.6 9.9
9 14 -4 16.1 9
23 -9 -4 15.9 10.3
15 8 -4 14.2 8
23 -15 -4 26.9 9.3
8 15 4 25.6 9.9
-8 23 -4 18.8 10.5
-23 15 -4 20 9.6
-23 8 4 18.6 9.1
8 -23 -4 15.4 7.9
-23 8 -4 31.7 9.6
-8 23 4 23.6 11.3
8 15 -4 33.8 9.9
23 -8 -4 36 10.6
-23 15 4 39.7 11.2
7 -23 -4 1.8 7.4
-23 16 -4 13.9 9.3
-23 7 4 14.6 9.7
7 16 4 17.6 9.4
23 -16 -4 17.5 8.9
-7 23 -4 14.8 10.9
-23 7 -4 18.5 9.4
23 -7 -4 2.4 9.6
-7 23 4 11.5 11.2
7 16 -4 0.8 9.1
16 -23 -4 1.1 10
-23 16 4 9.8 11
6 17 4 8 9.4
23 -17 -4 4.3 8.6
-23 6 4 3.5 8.2
-6 23 -4 11.9 10.1
-23 17 -4 4.4 8.7
6 -23 -4 0.1 10.3
-6 23 4 7 11.2
23 -6 -4 -3.1 9.7
-23 17 4 3.7 10.2
6 17 -4 2.3 9.1
-23 6 -4 8.6 9.6
5 18 4 20.4 9.9
23 -18 -4 13.1 8.7
-23 5 4 3.2 8.8
-23 18 -4 23 9.7
-5 23 -4 11.9 9.1
23 -5 -4 9.4 10.5
-5 23 4 6.4 10.7
-23 5 -4 10.2 10.6
18 5 4 15.1 9.6
5 18 -4 8.4 7.5
-23 18 4 8.9 10.8
24 -12 -4 3.3 9
-12 24 4 -7.2 10.8
12 12 -4 8.8 8.8
-12 24 -4 6.2 10.6
13 11 -4 13.5 8.8
11 13 4 8.3 7.2
24 -13 -4 4.6 8.7
-13 24 4 -9.1 9.8
-11 24 -4 7.1 10.7
-11 24 4 1 11.4
-24 11 -4 13.3 9.4
-13 24 -4 15.5 10.9
24 -11 -4 12.9 9.4
11 13 -4 14.8 9.4
-10 24 -4 11.7 11
10 14 4 7.6 8.4
24 -14 -4 0.4 7.9
14 10 -4 6.7 7.5
-24 10 -4 13.1 10
10 14 -4 7.3 9.6
-10 24 4 4.7 11.7
24 -10 -4 12.5 9.9
-14 24 -4 -0.8 7.5
24 -15 -4 20.5 9.5
-9 24 -4 16.4 11.5
-24 15 -4 0.9 6.5
9 15 4 18.4 9.5
24 -9 -4 41.9 11.5
-9 24 4 46.3 13.2
-24 9 -4 36.3 11.1
9 15 -4 24.7 10
-8 24 -4 5.9 11.1
24 -16 -4 3.9 9
8 16 4 17.9 10.2
-24 16 -4 12.7 9
24 -8 -4 4.5 11.2
-8 24 4 9.5 12.4
-24 16 4 1.6 6.6
-24 8 -4 11.7 11.1
8 16 -4 1.6 9.7
0 0 5 27 11.8
0 0 5 -6.8 17
-1 0 5 23.2 13.3
0 -1 5 23.4 9.5
1 -1 5 20.9 8.2
-1 1 -5 17.3 12
0 1 5 21.9 11.8
1 -1 5 33.1 17.5
0 -1 5 19.5 18.7
-1 1 5 7.2 20
-1 0 5 13.1 19.6
0 1 -5 19.5 11.3
-1 1 5 40.6 14.6
1 0 5 18.4 9.6
0 1 5 10 5.3
0 1 5 22.6 19.5
1 0 5 39.6 17.7
1 1 5 239.68 18.9
1 1 -5 264.07 21.8
-1 2 5 252.27 31.5
-1 2 5 309.27 25.3
1 -2 5 286.17 34.6
2 -1 5 305.57 31.4
-1 -1 5 251.67 22.6
-2 1 5 268.87 32.6
-2 1 5 291.57 27.6
1 1 5 271.07 30.4
-1 2 -5 264.27 25.2
-1 -1 5 264.47 36.7
1 1 5 212.88 22.1
0 -2 5 -1.3 6.3
-2 2 5 9.2 19
2 0 -5 5.4 7.9
0 2 5 15.1 17.9
-2 0 5 10.8 19.9
0 2 -5 19.3 15.5
0 2 5 29.8 12.7
0 -2 5 7 21.9
2 0 5 -14.8 9.6
-2 2 -5 7.4 13.8
-2 0 5 23.3 15.8
2 0 5 26 11.7
-2 2 5 5.4 7.2
-2 2 5 30.3 14.7
0 2 5 12.7 5.8
2 0 5 21 15
2 -2 5 24.3 18.7
2 1 -5 123.49 18.7
-1 -2 5 126.89 26.7
1 2 5 143.19 15.3
-3 1 5 119.79 20.8
3 -1 5 149.29 24.7
-1 3 -5 159.08 24.9
1 2 5 147.79 25.2
1 2 5 149.09 19.9
-2 3 5 162.98 22.3
-3 1 5 171.88 28.6
2 -3 5 161.98 26.2
-2 3 5 152.28 25.1
3 -1 5 119.59 15.3
1 2 -5 128.99 21.3
3 -2 5 165.08 26
1 -3 5 168.38 27.9
-1 3 5 141.29 24.6
-2 -1 5 123.09 18.7
-2 -1 5 163.38 28.7
2 1 5 132.79 17.2
-2 3 -5 140.39 21.7
2 1 5 93.69 16.1
2 1 5 179.68 26.7
-3 2 5 154.88 27.1
-1 3 5 152.58 22.5
-3 2 5 135.79 22.5
-3 3 -5 57.79 19.4
3 -3 5 35.8 12.6
3 0 5 61.89 14.2
0 3 -5 63.79 17.6
-3 0 5 49.5 18
-3 3 5 45 21.5
3 0 -5 20.2 10
0 3 5 60.79 16.5
3 -3 5 47.5 18.4
0 -3 5 33.8 11.9
0 3 5 11.4 8
0 3 5 62.39 20.4
3 0 5 22.5 14.2
0 -3 5 68.39 25.6
-3 0 5 50.59 23.8
-3 3 5 32.7 13.1
3 0 5 33.2 12.8
-3 3 5 48.3 19.2
2 2 5 343.17 34.7
-2 -2 5 271.77 23.7
2 -4 5 348.47 38.1
-2 4 5 309.07 30.9
-4 2 5 330.07 37.8
-4 2 5 285.37 32.6
-2 -2 5 304.07 42.5
2 2 -5 318.37 26.8
-2 4 5 297.27 34.8
4 -2 5 263.57 30.5
2 2 5 310.17 26.7
2 2 5 307.17 24.1
2 -4 5 281.17 24.2
-2 4 -5 332.97 33.9
-1 -3 5 15.2 22.7
3 1 -5 20.4 12.8
4 -1 5 9.9 15.4
-1 -3 5 20 12.6
1 3 5 18.2 11.1
-4 3 -5 19 18.1
4 -1 5 33.4 12.4
3 -4 5 23.9 13.4
-3 4 5 9.7 11.4
1 3 5 34 17.7
-4 1 5 24.7 19.4
1 3 5 49.7 16.5
4 -1 5 30.5 13.2
3 -4 5 27.7 20.1
-4 1 5 26.4 22.2
-3 4 5 32.2 19.3
-3 4 5 20.3 19.5
-1 4 -5 33.3 19.6
-1 4 5 39.2 17.4
3 1 5 23.6 15.1
-1 4 5 28.9 18.2
4 -3 5 24.1 12.5
1 -4 5 41.5 23.1
-4 3 5 28.5 20.1
-3 -1 5 47.7 26.4
3 1 5 28.2 13.5
-3 -1 5 11.1 10.2
1 -4 5 31 12.2
1 3 -5 23.6 16.8
-3 4 -5 17.2 18.5
-4 3 5 31.3 13.7
3 1 5 9 13
-3 -1 5 37.7 18.3
-4 3 5 30.8 19.6
4 -3 5 24.7 16.3
0 4 5 519.85 41.4
4 0 5 550.84 35.2
0 4 5 578.34 40.1
-4 4 5 477.45 32.2
4 -4 5 549.95 41
0 -4 5 504.05 48.6
0 4 -5 579.74 39.6
-4 4 -5 520.15 40.1
-4 0 5 422.06 31.3
-4 0 5 518.25 40.9
0 -4 5 470.25 31.9
-4 4 5 552.84 43
4 0 5 562.54 39.7
-4 0 5 530.35 51.19
4 -4 5 514.55 33.8
4 0 5 548.45 35.5
-4 4 5 554.04 45.1
-3 5 5 939.71 58.49
2 3 5 980.1 61.49
2 3 5 994.8 56.39
2 3 5 920.91 51.59
3 -5 5 1019.8 63.69
-3 5 5 927.61 61.59
-2 5 -5 1031.2 60.79
-2 -3 5 918.71 67.19
3 -5 5 883.31 51.69
3 2 -5 974.5 53.59
-2 -3 5 894.21 51.19
-5 2 5 1010.9 61.59
-3 5 5 873.81 50.89
-5 2 5 923.01 64.59
5 -2 5 924.81 55.79
-3 5 -5 1072.79 61.29
3 2 5 1017.7 54.09
-5 3 5 1001.1 60.89
-5 3 5 899.81 51.89
-3 -2 5 873.51 51.99
3 2 5 949.71 55.49
3 2 5 968.1 59.69
5 -3 5 863.51 55.09
-3 -2 5 1031.5 71.39
-2 5 5 977.6 61.59
2 -5 5 959.1 67.79
-5 3 5 1015.1 68.09
2 -5 5 917.51 52.79
2 3 -5 1049.4 56.59
-2 5 5 1005.8 60.59
5 -1 5 448.06 33.3
-1 -4 5 402.26 29
1 4 5 476.75 42
5 -1 5 448.36 34.9
-1 5 -5 534.65 40.1
4 -5 5 437.06 31.1
-5 1 5 450.65 45.7
-4 5 5 457.15 41.5
1 4 5 457.15 35.3
5 -1 5 473.35 33.5
-4 5 5 423.06 30.2
-5 1 5 430.66 40.5
-4 5 5 469.15 42.3
4 1 -5 363.06 30.3
-5 1 5 364.76 28.4
-5 4 -5 475.15 37.7
4 -5 5 434.26 40.4
-1 -4 5 434.36 49.1
1 -5 5 461.85 50.69
5 -4 5 407.26 31
-5 4 5 405.16 30
-4 -1 5 474.05 38.3
4 1 5 516.65 39.8
1 -5 5 418.36 30
-4 -1 5 463.75 48.1
-4 -1 5 398.96 29.8
4 1 5 418.56 33.9
-4 5 -5 488.65 41.8
1 4 -5 460.75 37.9
-5 4 5 465.95 44.3
4 1 5 468.15 32.8
-1 5 5 436.76 39.3
-5 4 5 424.26 39
-1 5 5 482.15 39.5
0 5 -5 147.39 26.2
-5 5 5 137.89 20.8
0 5 5 120.29 24.5
5 0 5 137.99 21.8
5 0 5 89.29 18.9
-5 0 5 147.69 34
5 0 5 115.99 21.3
-5 5 5 124.89 27.6
5 -5 5 117.79 20.2
-5 0 5 120.99 19.5
0 -5 5 128.59 19.7
0 5 5 123.09 23.1
-5 0 5 152.38 28.1
-5 5 -5 135.99 22.1
0 -5 5 126.69 35
-5 5 -5 149.99 29.6
-5 5 5 124.39 28.1
3 3 5 7.9 17.4
3 -6 5 6.1 24.4
3 3 5 -5.8 13.5
3 3 5 10.9 20.2
-3 6 5 -10.4 19.1
-3 6 5 3.2 18.4
6 -3 5 -14.1 12.8
-6 3 5 2.4 11.1
3 -6 5 1.5 12.5
-6 3 5 2.6 23.3
-3 -3 5 -1.2 11.6
-3 6 -5 12.3 25.2
-3 6 5 3 11.5
-3 -3 5 2.8 27
3 3 -5 7.8 17.3
6 -3 5 4.5 11.2
-6 3 5 4.8 24
-2 -4 5 123.29 17.7
-2 -4 5 95.19 36.5
4 -6 5 37.2 22.3
-4 6 5 90.19 25.1
-6 2 5 76.49 14
-2 6 -5 85.29 23.9
6 -2 5 49.6 15.9
2 4 5 112.09 21.1
-6 2 5 81.59 26.5
4 2 -5 81.19 18.9
6 -2 5 78.19 17.7
4 -6 5 87.19 16.7
-6 4 -5 111.19 18.1
-4 6 5 110.89 26.8
2 4 5 68.29 15.9
2 4 5 103.59 25.2
-6 2 5 77.39 14.5
-6 2 5 82.39 30.7
-4 6 5 109.29 16.7
2 4 -5 84.09 21.4
-6 4 5 66.09 26.7
-6 4 5 60.99 24.2
-2 6 5 80.09 25
2 -6 5 68.59 30.8
-4 -2 5 98.79 16.3
4 2 5 92.79 22.6
2 -6 5 73.09 15.5
-2 6 5 85.09 24.5
-4 6 -5 76.39 26.2
4 2 5 70.89 17.4
4 2 5 67.39 18.7
-4 -2 5 86.89 34.2
-6 4 5 94.29 16.8
6 -1 5 572.04 41.2
-1 6 -5 681.53 49.1
-5 6 5 623.94 38.8
-1 -5 5 584.24 36.7
1 5 5 589.44 44.1
-6 1 5 603.84 59.29
-6 5 -5 700.03 51.09
1 5 5 614.34 48.2
6 -1 5 547.05 43.1
6 -1 5 580.94 40.9
-1 -5 5 612.84 63.59
-5 6 5 605.64 50.89
-6 1 5 596.44 49.2
5 -6 5 611.84 38.8
-6 1 5 588.94 36.6
-6 5 -5 595.64 37.7
-5 6 5 701.03 54.29
-6 5 5 631.84 54.59
1 -6 5 677.13 62.19
5 1 5 626.34 44.7
-6 5 5 662.03 40.5
1 -6 5 609.84 39.6
5 1 5 630.54 47.2
-5 -1 5 619.34 48.4
-5 -1 5 673.33 63.29
-5 -1 5 676.33 40.3
1 5 -5 717.53 48.4
-5 6 -5 646.54 50.09
-1 6 5 697.73 53.99
5 1 5 656.93 43.4
-6 5 5 670.13 53.69
-5 6 -5 676.33 41.5
-1 6 5 670.73 48.2
0 6 5 28.5 22.4
6 0 5 14.2 16.7
-6 6 -5 15.5 25.6
6 0 5 8.1 17.4
-6 0 5 20.7 28.2
-6 0 5 22.4 14.3
-6 6 5 20.6 14.5
0 6 -5 29.4 22.5
6 0 5 5.3 17.8
6 -6 5 11.6 12
6 -6 5 22.9 13.7
-6 6 -5 17.8 13.8
0 6 5 29.8 23.4
0 -6 5 20.3 13.2
6 0 -5 -1.3 16.4
0 6 5 -5 12.4
-6 6 5 -10.7 22.9
-6 0 5 31.6 25.3
0 -6 5 25.4 33.4
-6 6 5 -3.2 22.4
4 -7 5 278.57 25.3
-3 -4 5 283.07 24.2
3 4 5 336.37 33
4 -7 5 298.37 23.8
7 -3 5 268.07 25.1
3 4 5 245.78 26.9
4 3 -5 204.48 30.5
-7 3 5 265.27 24.1
7 -3 5 258.07 29.1
-3 7 -5 320.27 37.7
-7 4 -5 299.37 26.4
-7 3 5 324.87 43.2
-7 3 5 229.08 23.2
-4 7 5 290.37 40.9
-3 -4 5 303.27 50.29
3 4 5 307.97 40.3
-4 7 5 317.17 40.7
-4 7 5 294.97 26.1
-7 3 5 240.78 42.5
7 -4 5 340.37 27.9
-3 7 5 359.46 40.8
-3 7 5 336.67 26
-4 7 -5 381.46 40.7
3 -7 5 332.77 27.2
-4 -3 5 358.96 57.79
4 3 5 373.16 33.7
-3 7 5 384.66 43.3
-7 4 5 324.17 48.1
4 3 5 377.66 41.5
-7 4 5 395.36 46.4
3 4 -5 307.27 32.9
-7 4 5 367.06 28.6
4 3 5 320.17 29.9
3 -7 5 328.47 25.1
-4 -3 5 336.27 27
-7 3 -5 331.77 28.1
-2 -5 5 39.9 14.2
7 -2 5 -0.2 15.9
5 2 -5 -4.5 15.7
-7 2 5 28.8 27.3
7 -2 5 8.2 19.1
2 5 5 35.1 22.1
5 -7 5 31.8 15.2
-5 7 5 31.8 14.6
-7 2 5 11.5 11.1
-7 5 -5 36.8 15.4
-5 7 5 2.2 21.8
5 -7 5 32.1 13.3
-7 2 5 31.9 13.4
7 -2 5 30.4 14.8
-7 2 5 18.5 27.2
-2 -5 5 44 34.3
2 5 5 2.5 14.9
2 5 5 32.9 21.9
-2 7 -5 16.5 23.6
-5 7 5 24.4 28.6
5 2 5 19.4 18.2
-2 7 5 -0.5 9.5
-5 -2 5 7.9 30.6
2 -7 5 13.1 12.3
2 -7 5 19.3 11.1
5 2 5 10.5 17.6
2 -7 5 19.5 28
-5 7 -5 20.2 22.8
-2 7 5 7.7 22.7
7 -5 5 4.9 13.7
-5 -2 5 17.9 12.4
-7 5 5 28.8 14.2
-7 5 5 26.4 24.4
-2 7 5 12.7 21.3
-7 5 5 0 24
-5 7 -5 25.7 15.3
2 5 -5 12.3 20.2
5 2 5 16.6 20.9
6 -7 5 872.91 49.3
-7 1 5 797.62 70.79
-1 -6 5 807.42 47.9
-6 7 5 829.32 48.6
-7 6 -5 819.42 59.69
-1 -6 5 792.72 70.19
-7 1 5 858.11 48.6
1 6 5 871.81 61.09
-6 7 5 887.81 64.19
-7 1 5 863.41 62.99
7 -1 5 819.62 54.59
6 -7 5 842.02 47.7
-1 7 -5 837.82 56.79
-7 6 -5 787.62 47.7
1 6 5 787.92 56.09
-6 7 5 827.82 63.99
-7 6 5 857.81 65.69
-7 6 5 852.41 48.9
-1 7 5 834.92 59.79
6 1 5 750.32 55.49
-6 -1 5 887.31 48.1
-6 7 -5 893.11 49
-6 -1 5 650.13 56.19
7 -6 5 860.61 47.9
6 1 5 807.42 51.69
-1 7 5 796.32 57.09
1 -7 5 847.62 47.7
6 1 5 787.52 54.69
1 -7 5 703.43 44.5
-6 -1 5 801.92 69.39
1 -7 5 862.01 71.09
-7 6 5 858.01 60.99
1 6 -5 836.42 56.79
-6 7 -5 917.01 61.49
0 7 5 253.37 37.7
0 -7 5 218.28 21
-7 7 5 246.18 39.6
7 -7 5 220.98 22.5
-7 7 -5 243.98 25.8
-7 7 -5 224.08 37.2
0 7 -5 204.98 32.1
-7 0 5 193.68 40.2
-7 0 5 135.69 31.6
0 -7 5 236.18 23.9
-7 0 5 227.28 24
7 0 5 212.48 30.9
0 7 5 244.78 37.3
0 -7 5 203.48 43.7
-7 7 5 237.08 26.3
7 -7 5 228.08 25.2
-8 4 5 648.64 63.09
-4 -4 5 813.02 45.7
-4 8 5 777.82 58.09
8 -4 5 764.82 46
-4 8 -5 803.12 62.69
4 -8 5 815.92 44.9
4 4 5 790.02 53.89
-4 -4 5 737.63 69.69
4 4 5 746.03 57.29
-4 8 5 696.13 44.6
-4 8 5 770.72 57.39
-8 4 5 756.02 45.3
-8 4 -5 785.72 45.9
4 -8 5 790.62 45.6
-8 4 5 770.92 59.49
-8 5 -5 167.68 21.1
-8 3 5 139.79 20.7
8 -3 5 104.49 23.6
-8 3 5 83.79 34
8 -3 5 118.49 18.8
3 5 5 123.09 27.6
-8 3 5 117.89 33.3
-3 -5 5 135.59 20.5
-3 8 -5 116.09 31.9
-5 8 5 106.79 27.7
-8 3 5 132.39 20.9
-5 8 5 133.49 22.2
-3 -5 5 112.59 37
-5 8 5 137.89 34.5
5 -8 5 135.69 21.7
3 5 5 121.59 28.3
5 -8 5 128.09 20.9
-5 8 -5 105.29 17.4
-8 5 5 63.59 30.7
-8 5 5 138.29 23.4
3 -8 5 133.69 18.2
-3 8 5 125.19 28.4
3 -8 5 128.49 20.1
-8 5 5 132.29 35.8
8 -5 5 143.19 20.2
-5 -3 5 124.49 20.8
5 3 5 128.79 28.4
-8 3 -5 132.99 18.4
5 3 5 139.29 26.3
-5 8 -5 75.99 26.4
5 3 5 65.59 21
-3 8 5 114.99 29.6
-5 -3 5 144.49 42.5
2 6 5 785.42 59.29
-6 8 5 594.94 58.59
-6 8 5 724.13 58.49
-2 8 -5 700.33 57.49
-2 -6 5 763.62 70.29
-6 8 5 793.12 46
8 -2 5 685.93 52.09
2 6 5 770.12 54.49
-8 2 5 682.73 66.99
8 -2 5 728.53 45.2
6 -8 5 799.52 44.9
-8 6 -5 754.12 46.1
-8 2 5 803.72 45.5
6 -8 5 800.32 46.2
-2 -6 5 815.12 44.8
-8 2 5 671.83 59.49
-8 6 5 759.22 60.99
-8 6 5 820.72 48.1
2 -8 5 813.82 45.7
-6 8 -5 852.51 47.9
-6 -2 5 797.82 45.8
8 -6 5 740.23 45.7
-6 8 -5 796.82 62.99
-2 8 5 773.22 57.49
2 -8 5 798.82 46.8
-6 -2 5 731.33 71.19
-2 8 5 783.02 60.29
7 -8 5 197.08 23.2
1 7 5 193.28 36.4
-8 1 5 111.19 37.3
-1 -7 5 208.88 22.5
-1 -7 5 154.38 39.1
-7 8 5 195.08 25.1
7 -8 5 194.68 23.6
-8 7 -5 112.99 30.8
1 7 5 157.28 28.7
-8 7 -5 177.58 22.1
-1 -7 5 199.28 20.7
-7 8 5 195.28 38.3
-8 1 5 198.58 23.5
8 -1 5 111.09 25.5
-8 7 5 188.98 35.4
-8 7 5 252.07 26.8
-7 -1 5 206.88 23.4
-7 8 -5 151.98 33.7
1 -8 5 231.18 23.2
-7 -1 5 179.58 45.2
-7 8 -5 215.58 25.4
1 -8 5 222.08 24.2
-1 8 5 218.68 37.9
-1 8 5 144.29 30.3
8 -7 5 230.48 25.7
8 0 5 0.4 22.5
0 8 5 38.6 23.6
0 8 -5 -1.3 24.7
-8 8 -5 71.39 17.2
0 -8 5 7.2 31
-8 8 5 78.69 19.1
0 8 5 28.1 26.5
-8 8 5 28.1 28.4
8 -8 5 72.29 17.7
-8 8 -5 11.5 26.3
8 -8 5 60.59 16.5
-8 0 5 14.9 32.8
-9 4 5 501.75 36
-4 -5 5 534.15 35.2
-5 9 5 481.35 54.99
-4 -5 5 452.75 61.89
5 -9 5 504.45 34.4
4 5 5 413.46 51.79
-9 5 -5 495.15 34.5
-9 4 5 533.05 34.8
5 -9 5 526.45 35.3
-5 9 5 511.85 35.3
9 -4 5 486.55 34.9
-5 -4 5 520.25 70.19
4 -9 5 629.74 38.2
-9 5 5 623.34 40.3
-9 5 5 466.45 55.79
9 -5 5 587.04 39.8
-9 4 -5 595.54 38.6
4 -9 5 600.54 38.1
-4 9 5 570.94 37.3
-4 9 5 533.15 55.59
-5 -4 5 647.24 39
-9 6 -5 443.86 33.7
9 -3 5 428.86 34.2
-3 -6 5 337.97 59.39
-6 9 5 354.76 52.79
-6 9 5 447.56 33.4
-9 3 5 440.66 31.9
3 6 5 359.16 45.8
-9 3 5 435.26 32
6 -9 5 471.85 33
6 -9 5 415.76 31.4
-3 -6 5 418.26 30.7
-3 -6 5 404.16 29.3
9 -6 5 448.96 33.2
-6 9 -5 473.85 33.3
-9 3 -5 437.86 32
-9 6 5 462.25 34.3
-9 6 5 340.57 46.9
-6 -3 5 481.25 32.3
-3 9 5 312.47 47.3
3 -9 5 462.05 32.1
-6 -3 5 370.06 64.89
-3 9 5 330.57 44.1
3 -9 5 453.75 30.2
-2 -7 5 18.2 35.1
-9 2 5 11.9 11.3
-7 9 5 35.3 31.6
-9 2 5 6.2 35.3
2 7 5 40.7 22.7
-9 2 5 4.8 33.4
-2 9 -5 -1.9 28.1
9 -2 5 -1.1 21.8
2 7 5 69.89 29
2 -9 5 139.69 21.8
2 -9 5 144.59 20.9
-2 9 5 63.69 29.3
-7 -2 5 138.69 21.8
9 -7 5 159.68 23.5
-9 7 5 55.49 31
-7 9 -5 147.39 23.1
-9 7 5 176.28 22.9
-9 1 5 171.58 23.1
8 -9 5 149.19 23.2
-1 -8 5 161.08 22
-1 -8 5 164.98 21.8
-8 9 5 167.48 23
8 -9 5 170.58 24.1
-9 8 -5 177.08 25.1
-8 9 -5 3.6 36.6
-8 -1 5 3.1 39.3
9 -8 5 151.38 23.5
-8 9 -5 152.18 22.5
-9 8 5 0.4 29.1
-9 0 5 844.92 49.9
-9 9 -5 742.43 49.7
9 -9 5 792.42 49.3
-9 9 5 862.21 51.69
0 -9 5 760.52 48.2
9 -9 5 811.92 50.89
0 -9 5 892.41 48.6
-5 -5 5 150.28 22.2
-10 5 5 139.79 21.4
-10 5 5 168.38 25.8
10 -5 5 176.58 23.4
-5 10 5 157.48 24.7
-10 5 -5 149.19 23.2
5 -10 5 153.48 22.4
5 -10 5 169.68 21.9
10 -4 5 84.39 19.7
-10 4 5 94.89 19
6 -10 5 77.89 16.8
-6 10 5 -13.7 37.2
6 -10 5 87.59 18
-6 10 5 88.79 19.2
-4 -6 5 73.79 16
-10 6 -5 89.59 18.8
-10 4 5 72.69 17.3
-4 -6 5 90.69 17.6
-4 -6 5 10.1 38.7
-10 4 -5 61.89 16.2
-6 -4 5 -1.1 37
4 -10 5 57.59 14.9
-6 10 -5 58.29 15.6
4 -10 5 51.49 14.7
-10 6 5 82.39 19.7
-4 10 5 -9.4 28.3
10 -6 5 50.19 16.6
-6 -4 5 71.49 16.9
-3 -7 5 157.98 22.4
10 -3 5 176.48 27.6
-10 7 -5 182.58 23.4
7 -10 5 172.08 23.7
7 -10 5 188.98 25.1
-10 3 5 188.28 23.8
-10 3 5 189.18 24.1
-7 10 5 175.18 26.6
-3 -7 5 198.38 22.9
-7 10 -5 196.78 24.3
10 -7 5 156.98 25.1
3 -10 5 171.88 23.1
-10 7 5 204.28 27.5
-7 -3 5 197.08 24.1
-10 3 -5 185.98 23.2
3 -10 5 175.88 23.3
-10 8 -5 490.85 36.1
-2 -8 5 500.85 33.8
-8 10 5 449.95 36.6
-10 2 5 447.06 33.9
8 -10 5 474.65 36.5
-2 -8 5 420.26 33.2
10 -2 5 468.75 37.1
8 -10 5 445.96 32.8
-8 10 -5 414.46 33.7
2 -10 5 405.36 31.8
-8 -2 5 406.26 32.6
10 -8 5 404.86 33.9
-10 8 5 436.36 35.8
2 -10 5 412.46 32.1
-9 10 5 200.48 27.8
9 -10 5 192.58 26.3
-10 9 -5 175.38 25.1
9 -10 5 174.78 22.9
-1 -9 5 189.08 23.3
-10 1 5 200.38 24.3
-1 -9 5 187.58 21.6
-9 -1 5 214.98 25.2
-9 10 -5 201.88 26
10 -9 5 173.58 23.9
1 -10 5 201.08 24.9
-10 9 5 196.38 26.2
1 -10 5 181.68 23.8
10 -9 5 221.08 27.6
-10 10 -5 219.88 28
-10 0 5 228.78 26.2
10 -10 5 232.38 28.2
10 -10 5 215.68 28.8
-10 10 5 223.78 28.8
0 -10 5 234.38 24.4
0 -10 5 246.88 26.1
-11 6 -5 321.47 30
-11 5 5 319.67 29.1
6 -11 5 301.37 27
11 -5 5 318.87 31.3
6 -11 5 296.67 28.7
-5 -6 5 293.27 27.3
-5 -6 5 309.97 27.8
-11 5 5 322.87 30.7
-6 11 5 310.97 31.6
-6 -5 5 276.67 26.8
-11 6 5 291.27 27.9
5 -11 5 345.77 29.5
-11 6 5 349.37 31.4
-6 -5 5 377.36 29.8
-11 5 -5 325.17 29.4
11 -6 5 357.36 31.9
5 -11 5 310.47 27.9
11 -4 5 228.78 29.8
-4 -7 5 219.98 26.1
-11 4 5 251.17 28.9
-4 -7 5 246.58 26
-11 4 5 256.97 27.9
7 -11 5 247.18 26.7
-7 11 5 263.87 28.9
7 -11 5 226.48 24.9
-11 7 -5 245.58 27.8
-7 11 -5 313.67 28.8
4 -11 5 324.37 28.6
-11 7 5 317.27 31.4
-11 4 -5 294.57 28.6
4 -11 5 298.27 27.9
-7 -4 5 310.47 29.1
11 -7 5 278.37 30.5
-11 3 5 307.07 29.3
11 -3 5 300.77 32.2
-11 8 -5 300.77 30.7
-3 -8 5 315.67 28.6
-3 -8 5 323.77 29.1
-8 11 5 283.17 31.1
8 -11 5 307.07 29.6
8 -11 5 311.27 29.1
3 -11 5 354.56 29.7
11 -8 5 342.07 30.2
-11 8 5 359.66 32.8
3 -11 5 302.17 28.8
-8 -3 5 356.76 30.6
-8 11 -5 334.47 30.7
-11 9 -5 262.17 29.7
-2 -9 5 278.87 27.4
9 -11 5 286.37 30
-11 2 5 283.87 28.4
9 -11 5 318.57 29.6
-9 11 5 289.87 30.5
11 -2 5 300.67 32.6
-2 -9 5 290.47 28.1
-9 11 -5 268.47 30.4
2 -11 5 260.07 27.1
2 -11 5 291.97 26.3
-11 9 5 293.67 31.6
11 -9 5 290.87 30.6
-9 -2 5 292.57 28.6
-11 10 -5 28 16.3
-11 1 5 11.6 15.4
10 -11 5 13.8 15.8
-1 -10 5 21.6 15.6
-10 11 5 3.3 16.1
10 -11 5 6.8 16.7
-1 -10 5 14.6 14.2
-10 11 -5 29.5 16.5
11 -10 5 41.4 18.3
-11 10 5 42.6 19.1
-10 -1 5 26.8 14.1
11 -10 5 36.9 17.5
1 -11 5 27.9 15.3
1 -11 5 7.2 13
11 -11 5 37.1 19
-11 0 5 33 16.4
0 -11 5 34.9 16.2
11 -11 5 32.3 18
0 -11 5 9 13.4
-11 11 5 41.9 19.7
-11 11 -5 37.4 18.4
-6 12 5 23.7 16.1
-12 6 5 25.8 17
-6 -6 5 20.2 15.7
-12 6 -5 32.7 16.4
6 -12 5 28.4 16.4
-6 -6 5 20.2 14.7
12 -6 5 20.1 17.2
-12 6 5 18.5 15
6 -12 5 13.8 13.8
-12 7 -5 87.59 19.1
-5 -7 5 95.89 19.1
12 -5 5 130.89 23.2
7 -12 5 74.09 17.7
-5 -7 5 84.69 16.8
-12 5 5 96.49 20.3
-12 5 5 88.49 18.8
-7 12 5 87.79 19.1
7 -12 5 98.69 18.4
-12 7 5 81.49 20.5
-12 5 -5 70.49 17.4
-7 12 -5 63.19 17
-7 -5 5 58.39 15.6
-7 -5 5 72.79 18.3
5 -12 5 82.29 18.4
12 -7 5 66.89 17.8
8 -12 5 170.48 25.5
-12 8 -5 192.18 26.9
-4 -8 5 177.28 25
-4 -8 5 158.48 24.9
-12 4 5 196.88 26.2
12 -4 5 173.88 29.2
-12 4 5 146.99 25.6
-8 12 5 185.68 27.7
8 -12 5 186.48 27.1
12 -8 5 154.98 24.5
4 -12 5 139.09 22.9
-12 4 -5 111.99 19.6
-12 8 5 116.59 21.4
-8 -4 5 144.79 24.4
-8 12 -5 139.59 21.7
12 -3 5 34.1 19.9
9 -12 5 23.6 16.9
9 -12 5 14 16.6
-9 12 5 19.1 17
-12 9 -5 36.1 17.3
-3 -9 5 31.7 15.9
-12 3 5 19 15.7
-3 -9 5 25 15.2
3 -12 5 21.4 15.5
3 -12 5 -0.3 17
-9 -3 5 24.1 15
-12 9 5 28.1 18.2
-9 12 -5 26.6 17.4
12 -9 5 29.9 16.8
10 -12 5 105.39 21.9
-12 2 5 128.09 21.1
-10 12 5 128.99 23.7
12 -2 5 132.69 24.4
10 -12 5 139.49 22.2
-12 10 -5 151.88 23
-2 -10 5 87.69 18.6
-2 -10 5 118.09 20.1
12 -10 5 113.19 21.8
-12 10 5 139.49 23.6
2 -12 5 170.08 24.1
-10 -2 5 176.88 25
-1 -11 5 268.17 27.6
11 -12 5 287.27 33.3
-11 12 5 251.17 31.6
-12 1 5 266.37 30.3
-12 11 -5 253.57 32.3
11 -12 5 277.57 31.4
12 -11 5 265.17 29.1
1 -12 5 240.38 26.3
12 -11 5 254.87 32.3
-11 12 -5 277.57 32.6
-11 -1 5 233.38 28.9
-12 11 5 254.87 31.9
-12 12 -5 1.5 17.8
0 -12 5 -1.6 15.6
-12 0 5 5.4 16.3
12 -12 5 -5.5 15.2
12 -12 5 4.3 18.6
-12 12 5 10.5 18.4
-6 -7 5 73.49 19.1
7 -13 5 95.69 20.9
-13 6 5 79.79 19.2
-7 13 5 42.6 17.6
-13 7 -5 59.29 18.7
13 -6 5 73.19 21.3
-6 -7 5 55.59 17.5
-13 6 5 73.99 20.2
6 -13 5 109.29 20.1
-13 7 5 54.39 17.8
13 -7 5 80.59 19.9
-13 6 -5 64.59 18.2
-7 -6 5 66.09 18.2
-13 7 5 54.09 16.5
-7 -6 5 67.19 16.8
13 -5 5 190.48 27.8
-13 5 5 127.69 22.2
-5 -8 5 112.99 19.9
8 -13 5 199.28 25.9
-5 -8 5 125.79 22.2
-13 5 5 105.59 20.9
-8 13 5 141.79 23.4
-13 8 -5 154.18 24.1
5 -13 5 194.08 23.9
-13 5 -5 153.38 25.8
-8 -5 5 149.99 23.8
-8 13 -5 108.49 19.7
-13 8 5 153.88 26.7
13 -8 5 197.48 29.6
-4 -9 5 148.79 23.2
-13 4 5 120.09 21.9
-4 -9 5 141.69 23
9 -13 5 216.78 27.5
13 -4 5 193.28 28.9
-13 9 -5 157.08 24.6
-9 13 5 173.28 25.6
-13 9 5 181.28 28.7
-9 13 -5 187.38 27.5
13 -9 5 193.88 30
-9 -4 5 199.08 27
4 -13 5 176.28 24.6
-10 13 5 171.58 28.6
10 -13 5 166.58 27.4
13 -3 5 130.79 24
-3 -10 5 164.58 26.7
-3 -10 5 121.69 21.3
10 -13 5 164.38 27.3
-13 3 5 176.48 27
-13 10 -5 241.48 30.3
-13 10 5 177.78 29.2
-10 13 -5 190.28 29.1
-10 -3 5 185.38 27.1
13 -10 5 197.98 27.8
3 -13 5 186.68 25.4
-2 -11 5 31.8 18
-13 2 5 25.1 16.3
-13 11 -5 36.1 19.8
11 -13 5 24.6 19
13 -2 5 13.1 19.2
-11 13 5 37.8 20.5
11 -13 5 47 19.1
-2 -11 5 -2.7 15.1
13 -11 5 7.1 19.8
-11 -2 5 5 15.4
-13 11 5 2.4 17.9
-11 13 -5 10.9 18.9
2 -13 5 14.8 15.4
13 -11 5 15.9 17.7
13 -1 5 54.09 21.9
-13 1 5 80.79 21.4
12 -13 5 67.39 20
-13 12 -5 55.49 21.2
12 -13 5 53.49 21.2
-1 -12 5 57.29 19.8
-12 13 5 55.39 21.4
1 -13 5 70.79 18.8
-13 12 5 64.29 20.8
13 -12 5 82.09 23
13 -12 5 107.19 24
-12 13 -5 49.3 20.5
-12 -1 5 64.39 19.5
-13 13 -5 20.2 13
-13 0 5 69.09 21.2
13 -13 5 40.2 21.3
13 -13 5 89.29 23
-13 0 5 33 12.3
-13 13 5 69.89 22.9
13 -13 -5 40.4 11.5
0 -13 -5 45.7 11.6
-13 13 -5 61.39 22
-13 13 5 46.3 15.2
0 -13 5 54.09 19.4
7 -14 5 10.3 16.9
-14 7 5 4.8 16.2
-7 -7 5 15.4 17.3
-7 -7 5 9.4 15.5
-14 7 -5 3.5 16.8
-14 7 5 12 18.6
14 -7 5 8.7 19
-14 6 5 -5.2 16.3
-14 6 5 -5.4 17.1
14 -6 5 0.7 19.1
-6 -8 5 6.3 15.6
-14 8 -5 8.2 17
-8 14 5 -1.7 16.7
-6 -8 5 7 17.5
8 -14 5 -4.7 16
14 -8 5 6.7 18
-14 8 5 -1.2 13.9
-14 8 5 15.5 18.2
-8 -6 5 0.1 15.4
6 -14 5 12.4 16.3
-14 6 -5 -2.6 16.2
-8 -6 5 18.1 16.7
14 -5 5 47.5 20.9
-14 5 5 3.9 16.5
-9 14 5 43.5 20
5 -14 -5 0.9 10.9
-14 9 -5 25.9 17.8
-5 -9 5 23.4 18.4
9 -14 5 43.9 19.3
-5 -9 5 35.7 16.7
-14 5 5 31.8 18.2
5 -14 5 44.6 18.3
-5 14 5 -5.3 17.4
-9 -5 5 26.1 16.4
-9 14 -5 20 16.4
-14 9 5 27.8 18.9
-9 -5 5 31.4 16
-14 5 -5 42.2 18.4
14 -9 5 46.7 20
4 -14 -5 3.3 8.6
-14 10 -5 -6 10.5
-14 4 5 13.6 17.8
-10 14 5 11.6 18.7
14 -4 5 16.9 19.9
10 -14 5 -2 17.4
-4 -10 5 -0.6 16.3
-14 10 -5 2.9 18
14 -10 -5 -7 9.4
-4 -10 5 -1.2 16.9
-14 10 5 29.1 20.7
-10 -4 5 0.6 14.8
14 -10 5 22.8 19.8
-4 14 5 -4.5 13
-10 14 -5 24.4 18
10 -14 -5 -3.4 10.1
-14 10 5 1 15.7
4 -14 5 14.7 15.2
-4 -10 -5 1.3 9.4
-4 -10 -5 3.9 15.4
-14 11 -5 93.29 16.2
-11 14 5 159.98 27.3
-14 11 -5 113.39 22.3
3 -14 -5 79.89 13.3
14 -11 -5 66.69 13.9
-14 3 5 144.69 25.9
14 -3 5 101.19 23.8
-3 -11 5 118.39 22
-3 -11 -5 67.49 11.6
-14 11 5 64.89 13.9
-3 14 5 57.79 15.3
11 -14 -5 89.09 12.9
-14 2 5 21.4 12.4
-2 -12 5 16.8 17.4
-14 12 -5 19.7 13.2
-14 12 -5 42.6 20.2
14 -2 5 31 22.4
12 -14 5 40.3 20.2
-12 14 5 26.6 20.8
-14 2 5 32.4 19.3
14 -12 -5 24.5 12.7
2 -14 -5 36.1 12.6
12 -14 5 -0.5 17.5
12 -14 -5 13.1 11.3
-14 12 5 8.5 20.6
14 -12 5 14.7 20.4
-12 -2 5 22.8 17.9
-2 -12 -5 11.1 10.3
2 -14 5 21.8 17.9
14 -12 5 35.7 20
-2 14 5 3.7 14
-14 12 5 11.3 14.3
-12 -2 5 16.4 11.3
-12 14 -5 10.8 19.6
1 -14 -5 49.8 12.9
-14 1 5 62.39 21.8
13 -14 5 4.1 19.2
14 -1 5 40.4 22.8
-14 1 5 47.1 13.5
-13 14 5 39 14.6
-14 13 -5 44.8 15.6
-13 14 5 47.7 21.3
-1 -13 5 56.29 20.9
13 -14 5 47 20.1
-14 13 -5 55.89 21.4
14 -13 -5 42 12.5
1 -14 5 80.89 22
-13 14 -5 60.39 21.9
-13 -1 5 75.69 14.2
14 -13 5 114.49 24.8
13 -14 -5 69.79 14.1
-1 14 5 64.39 17.6
-14 13 5 90.59 24.2
14 -13 5 61.69 23
-1 -13 -5 72.09 13.8
-13 -1 5 68.49 19.6
-13 14 -5 55.89 15.2
-14 13 5 60.99 16
-14 14 -5 -4.4 14.1
14 -14 5 -2.1 17.6
-14 14 5 9.6 14.8
0 -14 -5 -5 10.7
-14 0 5 7.9 18.2
-14 14 5 12 20.8
-14 0 5 17.5 12.8
0 -14 5 -3.3 18.9
0 14 5 8.7 14.8
14 -14 5 5.8 20.6
-14 14 -5 -10.8 19.4
14 -14 -5 1 12.2
14 0 -5 -2.2 18.1
8 7 -5 23.8 15.4
8 -15 5 46.9 19.3
-7 -8 5 36.5 18.6
-7 -8 5 24.1 17.5
-8 15 5 -3.4 18.7
-15 8 -5 40.7 19.4
-15 7 5 29.5 19.3
-8 -7 -5 -2.6 10.5
-15 8 -5 24.3 13.1
7 -15 -5 19.7 10.5
-7 15 -5 19.4 15
15 -8 -5 11.8 11.6
-15 7 5 22.3 17.5
15 -7 5 38.3 21.3
-8 -7 5 17.6 17
-15 7 -5 14.2 12.2
-7 15 5 -3.8 12.8
8 -15 -5 13.9 11.3
-7 -8 -5 3.6 9.6
-15 8 5 -1.1 14.9
-15 8 5 34.1 19.9
7 8 -5 40.4 16
15 -8 5 28.6 21.2
-8 -7 5 24.4 17.9
7 -15 5 31.1 17.8
-8 15 -5 10 13.7
15 -7 -5 2.1 10.6
-15 7 -5 24.4 18.3
-15 9 -5 6.2 18.9
9 -15 5 13.3 16.6
6 -15 -5 3.9 9.7
-15 9 -5 -2.6 11.2
-9 -6 -5 1.4 12.2
-15 6 5 6.2 17.5
-6 -9 5 5.4 15.9
-9 -6 -5 -0.1 2.9
15 -6 5 12.3 19.8
9 6 -5 1.6 14.5
-15 9 -5 -1.8 11.5
15 -9 -5 -1.3 10.7
-6 -9 5 11.3 17.7
-15 6 5 3.6 17.8
-6 15 -5 9.3 14.9
-9 15 5 6.3 17.6
-15 9 5 5.7 18.2
15 -6 -5 -11.2 11.1
-6 -9 -5 4.5 10.4
-9 -6 5 2.9 17
-6 15 5 6.1 15
-15 6 -5 -7.9 17.5
6 9 -5 10.2 14.8
-15 6 -5 9.8 13.1
6 -15 5 7.3 15.4
9 -15 -5 3.5 11.1
-9 -6 5 2.5 16
-9 15 -5 3.7 12.8
15 -9 5 3.8 20.2
-5 -10 5 42.6 18.8
-15 5 5 47.2 20.3
-5 -10 5 -0.3 16.6
-10 15 5 20.5 19.8
10 -15 5 53.09 21.7
-15 10 -5 22.3 13.4
5 -15 -5 41.1 12
15 -10 -5 24.6 11.8
-5 15 -5 29.8 15.4
15 -5 5 40.4 22.1
10 5 -5 21.8 13.3
-15 10 -5 31.7 21
-15 10 -5 18.5 12
-5 -10 -5 27.3 11.3
10 -15 -5 47.8 12.3
-15 10 5 47.3 20.7
15 -10 5 62.69 22.5
-5 15 5 36.7 16.5
-15 5 -5 53.09 14.8
-10 -5 5 41.6 18.8
15 -5 -5 8.2 12.3
-15 10 5 23 12.7
-10 15 -5 6.3 16.9
5 -15 5 76.79 20.9
5 10 -5 32.3 15
11 4 -5 48.3 13.7
-15 11 -5 113.49 17.7
-4 15 -5 115.79 19.4
15 -4 5 111.29 26
-11 15 5 75.99 22.6
-4 -11 5 87.09 19.9
11 -15 5 163.88 26.3
-15 4 5 101.09 22.2
15 -11 -5 79.49 14.8
-15 4 5 66.59 14.1
4 -15 -5 82.99 13.7
-15 11 -5 106.89 23.2
4 -15 5 84.29 19.9
-15 11 5 110.29 18.5
11 -15 -5 101.09 15
-4 15 5 99.89 19.2
-15 4 -5 96.89 16.6
-11 -4 5 80.09 14.4
-15 11 5 105.29 24.9
-4 -11 -5 76.69 14
-11 -4 5 113.19 23.5
-11 15 -5 84.09 21.7
4 11 -5 46.2 15.1
15 -11 5 71.69 21.3
15 -12 -5 82.59 15
3 -15 -5 113.99 16.4
-12 15 5 69.09 23.4
-15 12 -5 106.39 23.3
-15 3 5 92.49 22.3
12 -15 5 155.58 27.6
15 -3 5 115.99 28.2
-15 3 5 101.79 15.5
-15 12 -5 107.19 17.8
-3 15 -5 75.29 17.3
-3 -12 5 77.69 20.7
-15 3 -5 65.89 14.6
-15 12 5 115.39 18.7
15 -12 5 151.28 27.2
12 -15 -5 94.59 15.4
3 -15 5 137.29 24.6
-15 12 5 125.59 27.3
15 -12 5 124.99 27.6
-12 -3 5 103.59 22.9
-12 -3 5 111.29 16.3
-3 -12 -5 105.79 15.2
-12 15 -5 128.19 25.4
-3 15 5 77.89 18.4
-15 13 -5 49 15.2
13 -15 5 51.79 20.9
-15 2 5 74.69 15.1
-15 2 5 62.39 22.2
-13 15 5 76.19 24.8
-2 15 -5 36.8 15.3
-15 13 -5 89.39 24.5
-13 15 5 68.09 17.1
2 -15 -5 43.9 12.8
-2 -13 5 73.39 21.8
15 -2 5 39.5 22.9
15 -13 -5 74.79 14.6
-15 2 -5 61.59 14.1
-2 -13 -5 86.09 14.7
13 -15 -5 64.89 14.1
-15 13 5 87.19 17.9
2 -15 5 87.59 21.2
-2 15 5 57.99 18.9
15 -13 5 57.99 21.4
15 -13 5 68.59 24.2
-13 15 -5 90.39 24.5
-13 -2 5 91.79 15.2
-13 15 -5 47.7 15
-15 13 5 62.29 22.5
15 -2 -5 43.6 14.8
-13 -2 5 47.4 19
1 -15 -5 64.99 13.6
15 -1 5 51.49 24.6
-14 15 5 78.29 25.6
-15 1 5 86.79 23.4
-15 14 -5 43.1 15.1
-15 14 -5 66.59 22.4
-14 15 5 65.09 16.8
15 -14 -5 62.29 14.1
-15 1 5 80.09 15.1
-1 -14 5 69.69 22.4
14 -15 5 57.49 22.1
-15 14 5 65.39 25.2
15 -1 -5 45.5 15.4
1 -15 5 36.7 19.7
15 -14 5 2.6 22.3
-14 -1 5 33.4 13
-1 -14 -5 53.29 12.6
-14 15 -5 41.9 21.7
14 -15 -5 46.1 13.4
-14 -1 5 50.29 21.7
-14 15 -5 38.1 15.5
-1 15 5 50.89 17.7
15 -14 5 70.69 23.2
-15 14 5 62.59 17
-15 1 -5 19.6 12.8
-15 15 -5 159.98 28.1
-15 15 -5 105.49 18.2
15 0 -5 110.59 19.3
-15 15 5 147.89 20.1
0 -15 -5 138.49 17.6
-15 15 5 166.68 30.3
0 15 5 125.39 21.2
15 -15 -5 110.59 16.4
-15 0 5 148.79 18.2
15 0 5 110.29 27.1
0 -15 5 121.19 25.3
-15 0 5 92.39 22.4
15 -15 5 105.69 23.7
-16 8 5 21.1 19.7
-8 -8 5 34.1 18.5
-8 16 5 37.8 17
8 -16 5 52.39 19.8
-8 -8 5 36.4 19.2
8 -16 -5 30.1 12.2
-16 8 5 -2.5 15.6
-16 8 -5 33.3 19.5
-16 8 -5 46.1 14.2
-8 -8 -5 38.2 13
16 -8 5 46.6 22.7
16 -8 -5 26.7 13.7
-16 8 -5 -4 12.2
-8 16 -5 33.5 16.3
8 8 -5 49.7 16.6
7 -16 -5 3.6 11
-16 7 5 8 17.2
-7 16 -5 19 16.6
-16 7 5 -2.1 18.5
16 -9 -5 12.7 12.3
-7 -9 5 3.2 17.7
-16 9 -5 9.1 19.4
-9 16 5 2.5 14.9
16 -7 5 8.1 19.6
-9 -7 -5 0.2 3.8
-16 9 -5 16.9 13.3
-9 -7 -5 24.1 13
-7 -9 5 9.5 17.8
-16 9 -5 11.2 12.4
9 7 -5 15 15.9
9 -16 5 22.3 19.4
7 -16 5 10.5 18.3
-16 7 -5 16.5 13.3
16 -7 -5 20.2 12.8
7 9 -5 15.2 15.6
16 -9 5 6.2 20.7
9 -16 -5 14.6 12.1
-9 -7 5 7.2 18.2
-7 -9 -5 8.9 12
-16 7 -5 3.1 18.9
-9 16 -5 11.3 16.3
-16 9 5 2 12
-7 16 5 23.8 17.4
-9 -7 5 0.4 16.5
-16 9 5 7.2 19.5
6 -16 -5 49.4 12.9
-16 6 5 39.3 20.2
-16 10 -5 45 14.9
10 -16 5 37.8 19.8
-16 6 5 -3.5 12.3
-6 16 -5 35.6 16.3
-10 -6 -5 41 13.4
16 -6 5 51.19 23.3
16 -10 -5 24.6 13.2
-16 10 -5 38.9 20.4
10 6 -5 21.1 14.5
-6 -10 5 34.8 18.8
-16 10 -5 28.9 14.2
-6 -10 -5 27.9 12.4
-6 16 5 38.1 17.6
6 -16 5 44.4 20.1
-10 -6 5 10.9 10.9
-10 -6 5 34.6 19.8
6 10 -5 42.2 16.3
16 -10 5 47 21.8
-16 10 5 13.4 20.1
-10 16 -5 29.1 14.8
-16 6 -5 34.2 14.2
10 -16 -5 29.1 13.6
-16 10 5 25 14.1
16 -6 -5 26.2 13.8
-5 -11 5 34.9 18.6
11 -16 5 24.5 19.4
-16 11 -5 26.3 14.7
16 -5 5 53.09 24.1
-16 5 5 42.7 13.8
-16 11 -5 48.2 22.2
-5 16 -5 44.7 17.1
16 -11 -5 29.2 13.3
11 5 -5 36 15.3
-11 16 5 14.3 20.8
-16 11 -5 41.2 14.3
5 -16 -5 41.2 12.9
-16 5 5 38 20.3
-11 -5 5 64.69 22
11 -16 -5 45.5 13.6
-11 -5 5 46.2 12.9
5 11 -5 68.89 17.3
-16 5 -5 83.39 16.8
-16 11 5 39.7 15.5
-5 16 5 58.99 18.6
-11 16 -5 23.2 14.1
16 -5 -5 42.2 15
-5 -11 -5 49 13.2
16 -11 5 52.09 22.8
5 -16 5 62.29 21.6
-16 11 5 71.29 23.1
12 -16 5 45.7 22
-16 12 -5 33.5 13.9
-12 16 5 56.69 22.8
4 -16 -5 30.2 12.3
-4 16 -5 38.4 16.8
-4 -12 5 43.4 18.3
12 4 -5 46.8 14.9
16 -12 -5 38 13.8
-16 4 5 41 13.9
-16 4 5 62.99 22.6
-16 12 -5 25.1 12.8
16 -4 5 44.2 24.7
-12 16 5 0.6 14.7
-16 12 -5 58.49 21.8
-16 12 5 40.3 16.1
12 -16 -5 36.9 12.9
16 -12 5 49 23.1
16 -4 -5 40.1 14.5
-16 12 5 21.8 21.1
-12 16 -5 8.6 20
-4 16 5 46.7 18.5
-16 4 -5 38.1 14.8
-12 -4 5 36.4 20.1
-4 -12 -5 48.1 13.3
4 -16 5 33.7 19
4 12 -5 52.09 16.6
-12 -4 5 20.2 12.1
16 -12 5 48 24.6
-13 16 5 174.38 29.3
16 -3 5 151.08 28.3
16 -13 -5 145.79 17.5
-16 13 -5 192.78 29.4
13 3 -5 109.09 16.9
-3 -13 5 181.68 27.7
-3 16 -5 157.38 21.6
13 -16 5 231.58 31.9
-16 3 5 117.09 24.4
3 -16 -5 147.79 19.8
-16 13 -5 138.59 19.1
-13 16 5 175.98 20.9
-16 3 5 135.79 20.2
-16 3 -5 139.89 19.1
3 -16 5 180.38 26.4
-13 -3 5 114.49 16.6
-16 13 5 126.59 27
16 -13 5 123.39 26.7
13 -16 -5 147.99 17.8
-13 -3 5 158.98 26.9
3 13 -5 137.69 19.6
-13 16 -5 120.79 25.3
16 -3 -5 140.49 19.5
-3 16 5 165.08 22.9
-3 -13 -5 178.18 18.8
16 -13 5 151.58 27.4
-16 13 5 193.28 22.3
-2 16 -5 42.3 16.3
-16 2 5 60.39 14.2
14 -16 5 105.09 26.3
-16 14 -5 46.4 20.8
14 2 -5 11.7 15.4
-16 14 -5 90.09 17.6
2 -16 -5 64.99 13.1
-14 16 5 56.89 23
-14 16 5 62.79 16.2
-16 2 5 63.19 22.4
-2 -14 5 73.89 21.9
16 -2 5 57.99 24.6
16 -14 -5 82.99 14.8
14 -16 -5 40.1 13.3
-14 16 -5 33.5 21.5
-16 2 -5 46.8 15.1
2 14 -5 41.8 14.9
-16 14 5 57.29 23.2
-14 -2 5 62.69 22.2
16 -2 -5 31.2 14.7
-14 -2 5 45.1 13.3
-16 14 5 37.9 15.1
16 -14 5 4.8 30.4
-14 16 -5 35.6 15.6
-2 -14 -5 55.89 13.8
16 -14 5 50.29 21.6
-2 16 5 35.6 17.5
2 -16 5 51.29 20.7
16 -15 -5 47.3 13.3
-15 16 5 56.79 16.3
1 -16 -5 67.49 13.7
-15 16 5 36.3 21.5
1 15 5 31.7 16.2
15 1 -5 50.09 18
-16 1 5 66.99 22.9
-1 16 -5 41.5 15.3
-16 15 -5 61.49 15.7
15 -16 5 52.49 24.8
-16 15 -5 37 20.9
-16 1 5 65.09 14.6
16 -1 5 47.5 24.3
-1 -15 5 40.7 21.3
-16 1 -5 60.99 15.1
-15 -1 5 66.79 21.9
15 1 5 40.5 25.2
-16 15 5 67.59 17
16 -15 5 53.69 23.4
-15 16 -5 57.59 16.2
-1 -15 -5 36 12.4
16 -1 -5 60.69 17.7
-15 -1 5 84.89 15.6
15 -16 -5 60.09 13.9
-1 16 5 32.3 17.8
1 -16 5 65.69 22.8
-16 15 5 41.3 21.6
-15 16 -5 40 21.7
-16 0 -5 41.8 14.4
-16 16 5 28.6 21
16 -16 5 40.6 21.5
16 -16 -5 45.3 13.2
-16 16 -5 45.5 14.7
16 0 -5 45.5 16.8
-16 16 -5 37 21.1
0 -16 5 40 19.1
16 0 5 28.5 24.1
-16 0 5 49.5 13.5
0 16 5 25.3 16.8
-16 16 5 53.59 15.6
-16 0 5 39.5 20.3
0 -16 -5 32.4 11.7
-17 9 -5 31.6 14
8 -17 -5 31.2 11.8
17 -9 -5 35.5 13
-17 9 -5 18.3 13.3
-8 17 -5 28.5 16.8
-17 8 5 -2.6 20.4
-8 -9 5 24.4 18.6
-17 9 -5 37.5 21.3
-9 17 5 41.9 17.9
9 -17 5 32.8 19.3
-9 -8 -5 38.5 14.6
17 -8 5 26.6 21.4
9 8 -5 42.9 17.2
-17 8 -5 30.8 20.7
-9 -8 5 -2.2 16.5
17 -8 -5 33.6 14.4
-17 9 5 19 19.3
-17 8 -5 -6.3 10.8
-8 -9 -5 25.2 13
-17 9 5 8.4 12.5
-17 8 -5 15.2 13
-9 -8 5 8.7 19.2
8 -17 5 35.2 20.4
8 9 -5 21.6 15.5
-9 -8 5 8.7 17.7
-8 17 5 4 17.3
-9 17 -5 29.1 16.2
9 -17 -5 29.2 12.3
17 -9 5 20.9 22.4
-17 10 -5 31.9 20.5
-17 7 5 -1.4 11.5
7 -17 -5 11.3 11
-17 7 5 5.2 17.8
17 -7 5 27.7 22.5
-10 17 5 27.9 16.6
10 -17 5 26 20
-7 -10 5 24.2 18.8
-17 10 -5 29.4 14.1
10 7 -5 26.9 14.9
-17 10 -5 17.7 13.4
17 -10 -5 6.3 12.5
-7 17 -5 24.3 17
-10 -7 -5 21.9 13.6
-17 10 5 17.5 19.8
-10 -7 5 6.2 19.5
17 -10 5 -8.1 20.6
7 -17 5 25.3 20.5
17 -7 -5 17.3 13.5
-10 17 -5 11.3 16.1
-7 17 5 16.2 17.7
10 -17 -5 9.8 11.2
-10 -7 5 11.3 11.5
-17 10 5 14.9 14
-7 -10 -5 11 12.5
7 10 -5 22.3 15.4
-17 7 -5 12.9 13.1
6 -17 -5 55.19 13.4
11 -17 5 77.39 23.3
-17 11 -5 60.19 15.2
17 -6 5 63.09 24.3
-6 17 -5 66.09 19.1
-17 11 -5 71.49 23.4
-17 6 5 42.3 14.6
-17 6 5 40.4 21.1
-17 11 -5 47.1 14.4
11 6 -5 63.89 16.7
-6 -11 5 32.4 18.9
-11 17 5 11 14.5
17 -11 -5 63.69 15.1
-11 17 -5 47.1 16.7
-6 -11 -5 32.1 12.8
-17 6 -5 54.19 14.7
-11 -6 5 33.4 20.7
-17 11 5 31 20.8
17 -6 -5 37.8 14.6
-17 11 5 46.2 15.5
11 -17 -5 43.4 13.7
-6 17 5 49.3 19
-11 -6 5 49.1 13.8
17 -11 5 47.7 21.9
6 -17 5 64.49 22.2
6 11 -5 38.3 16.2
12 5 -5 10.5 14.3
-17 12 -5 12.4 18.7
-5 -12 5 12.3 17.8
17 -5 5 19.9 21.9
5 -17 -5 8 11.5
-17 5 5 8.1 19
-17 12 -5 20.5 13.4
12 -17 5 26.9 20.3
-17 12 -5 18.7 14.2
17 -12 -5 15.4 13.8
-17 5 5 22.7 14.2
-5 17 -5 24.4 16.6
-5 17 5 9.9 17.1
5 -17 5 13.7 19.6
-12 17 -5 10.2 15
-17 12 5 0.6 14.5
-17 5 -5 17.2 13.9
-12 -5 5 32.3 21
17 -12 5 28.4 23.1
-5 -12 -5 13.7 12.7
5 12 -5 26.1 15.4
17 -5 -5 26.4 15.5
-17 12 5 13.2 20.6
12 -17 -5 0.1 11.6
-12 -5 5 25.5 12.9
17 -12 5 19 20.6
-17 4 5 12.9 12.8
17 -4 5 15.8 22.5
-17 13 -5 7.3 19.5
13 -17 5 -5 21.5
-17 13 -5 6 13.5
-13 17 5 14.2 14.1
13 4 -5 13.3 13.7
4 -17 -5 12.7 10.8
-4 17 -5 20.7 16.6
17 -13 -5 0.9 12.4
-17 4 5 5.6 19.5
-4 -13 5 14.4 19.2
-13 17 5 -3.4 19
-13 -4 5 10.3 19.6
-13 -4 5 20.9 13
17 -13 5 19.7 20.2
-17 13 5 14.1 20.2
4 13 -5 23.4 15.2
17 -13 5 16.1 21.1
-13 17 -5 -5.4 13.3
4 -17 5 15.5 18
13 -17 -5 17.3 12
-17 4 -5 22.8 14.2
-4 -13 -5 12 12.1
17 -4 -5 26.1 15.1
-4 17 5 19.1 16.6
-17 13 5 27.9 15.2
-17 3 5 67.29 23.1
17 -14 -5 80.19 14.7
14 3 -5 51.19 13.3
-14 17 5 18.7 20.4
-17 14 -5 66.49 15.2
-17 14 -5 69.89 21.8
17 -3 5 59.79 24.4
-17 3 5 73.39 15.4
14 -17 5 70.49 23.3
3 -17 -5 66.29 13.5
14 3 -5 22.7 16.4
-14 17 5 39.2 15.8
-3 17 -5 78.49 18.2
-3 -14 5 52.19 20
-17 14 5 45.9 21.9
-14 -3 5 89.59 15.8
-3 -14 -5 78.99 14.7
-14 -3 5 46.1 20.9
14 -17 -5 76.29 13.9
17 -3 -5 80.29 17.4
-14 17 -5 44.9 15.3
3 14 -5 73.29 16.6
-17 3 -5 43.8 14.6
-3 17 5 51.39 18.5
-17 14 5 65.99 16.9
3 -17 5 66.99 21.5
17 -14 5 109.79 25.5
-2 17 -5 34.7 15.6
-15 17 5 41.9 16.4
15 2 -5 65.99 18.7
17 -15 -5 57.29 13.8
-17 2 5 50.79 13.9
-2 -15 5 32 19
-17 15 -5 73.29 15.8
-17 2 5 42 21.4
2 -17 -5 44 12.3
15 -17 5 34.7 22
2 15 5 7.3 13.5
-15 17 5 12.7 19.8
17 -2 5 48.9 24.3
-17 15 -5 22.5 19.4
2 -17 5 20.3 20.5
-17 15 5 30.2 16
-2 -15 -5 49.1 13.1
-17 2 -5 34.2 14.2
-15 17 -5 8.1 21.4
15 -17 -5 30.3 12.8
-17 15 5 30.4 22.9
2 15 -5 27.8 14.6
-15 17 -5 33.9 15.4
-15 -2 5 40.8 14.1
17 -2 -5 28.9 15
-2 17 5 36 18.2
17 -15 5 35.4 22.2
-15 -2 5 23.4 18.6
-17 16 -5 147.19 18.8
1 -17 -5 119.59 15.3
-17 1 5 84.59 22.7
16 1 -5 160.98 20.8
17 -1 5 64.59 25.5
-17 16 -5 73.79 21.7
17 -16 -5 124.49 16.5
16 -17 5 111.39 25.9
-1 17 -5 102.39 17.2
1 16 5 66.89 18.2
-16 17 5 145.99 19.6
-16 -1 5 119.29 16
16 -17 -5 108.89 15.3
17 -1 -5 96.49 17.7
-1 -16 -5 144.39 17.2
-16 17 -5 81.49 16.8
-1 17 5 84.99 19.8
-16 -1 5 61.49 20.7
-17 1 -5 91.19 16.5
1 -17 5 53.89 19.6
17 -16 5 56.39 21.5
-17 16 5 92.89 18
-17 16 5 67.69 24
16 1 5 15.8 24
17 0 -5 101.79 17.6
0 17 5 68.29 17.6
17 -17 5 29 21.7
-17 0 -5 87.09 14.4
-17 0 5 135.29 19.7
-18 9 -5 37.3 14.2
9 9 -5 30.8 14.5
-18 9 -5 22 13.1
-9 18 5 26.6 17.2
18 -9 -5 32.7 13.3
18 -9 5 27.8 22
-9 18 -5 23.9 15.8
-9 -9 -5 33.7 13.2
-18 9 5 10.4 12.5
9 -18 5 21.1 21.2
9 -18 -5 22.5 11.2
-8 -10 5 2.6 18.1
10 8 -5 17.8 13.3
18 -8 5 29.5 22.5
-10 18 5 28.6 17.5
-8 18 -5 23.4 16.8
10 -18 5 14.7 20.6
18 -10 -5 26.4 13.5
-18 10 -5 8.2 12.7
-18 10 -5 22.4 14.1
-18 8 5 -1 11.9
8 -18 -5 7.9 10.4
-18 10 -5 14.3 20.5
-10 18 -5 33.2 16.1
-18 10 5 -8.4 19.3
8 10 -5 17.9 14.8
-8 -10 -5 16.3 12.7
18 -10 5 24.2 23.5
8 -18 5 21.2 19.8
-18 10 5 21.8 14.2
-18 8 -5 22.3 13.4
-8 18 5 32.2 18
-18 8 -5 4 11.7
18 -8 -5 19.2 13.4
10 -18 -5 21.4 11.4
-10 -8 5 0.7 10.7
7 -18 -5 57.59 13.2
-18 7 5 43.9 14.6
-18 11 -5 66.29 23.5
-7 18 -5 58.19 17.1
18 -7 5 45.2 21.9
18 -11 -5 65.19 15.1
11 -18 5 74.99 23.1
-18 11 -5 51.89 14.9
-7 -11 5 -1.2 18.6
-18 11 -5 59.69 15
-11 18 5 49.6 17.9
-18 7 5 2.7 21.5
11 7 -5 43.2 14.4
-7 18 5 29.3 16.8
-18 11 5 34.1 20.1
-11 -7 5 41.2 13.2
7 -18 5 42.3 19.8
-11 18 -5 49.9 16.1
-11 -7 5 0.2 24
7 11 -5 55.59 16.1
18 -11 5 43.4 22.3
18 -7 -5 51.09 14.4
-18 7 -5 45.7 14.4
-18 11 5 44.1 15.4
11 -18 -5 47.1 12.6
-7 -11 -5 61.89 14.5
18 -6 5 10.7 20.9
6 -18 -5 12.6 11
-12 18 5 -1.9 15.6
-18 12 -5 4.9 19.2
-18 6 5 -8 18
-6 -12 5 1.3 17.8
-18 6 5 7.5 13.8
-18 12 -5 33.2 14.2
12 -18 5 13.9 21.6
-6 18 -5 10.9 15.3
12 6 -5 17 13.9
18 -12 -5 15.5 13.6
-18 12 -5 19.4 13.4
6 -18 5 16.4 19.5
18 -12 5 7.6 21.9
18 -12 5 11.7 21.2
-12 -6 5 19.5 12.9
-12 -6 5 -0.6 20
18 -6 -5 5.4 12.9
-6 18 5 14.4 17
-18 6 -5 10.1 12.6
-18 12 5 0 19.4
-12 18 -5 11.9 14.5
12 -18 -5 13.7 11.6
-6 -12 -5 17.5 12.6
-18 12 5 23.3 14.5
6 12 -5 20.8 14.8
-18 5 5 58.69 15.6
-5 18 -5 56.49 16.9
-18 13 -5 52.99 22
18 -5 5 70.99 25.7
-18 5 5 33.3 20
13 -18 5 51.79 21.4
18 -13 -5 60.59 14.2
13 5 -5 42.7 14.8
5 -18 -5 43.4 12
-18 13 -5 63.59 15.4
18 -13 5 40.3 22.2
-5 18 5 56.09 18.5
5 13 -5 63.49 16.3
18 -5 -5 52.49 14.5
-13 -5 5 68.89 14.4
-18 5 -5 81.09 15.5
5 -18 5 36.3 19.8
13 -18 -5 61.19 13.7
-5 -13 -5 57.49 13.6
-18 13 5 55.39 16.5
-13 -5 5 15.5 18.8
-18 13 5 65.39 23.8
18 -13 5 4.6 25.4
-13 18 -5 60.19 15.2
18 -4 5 126.19 27.3
4 -18 -5 105.09 15.3
-4 18 -5 142.49 20.8
-14 18 5 128.39 18.9
-18 14 -5 160.58 19.7
-18 14 -5 70.89 22.7
14 4 -5 122.89 16.8
14 -18 5 98.69 25.1
18 -14 -5 137.39 17.2
-18 4 5 142.09 18.8
4 -18 5 43.8 20.2
-14 -4 5 93.89 15.3
4 14 -5 54.19 15.6
-4 18 5 75.79 18.6
-18 14 5 70.69 23.4
-14 -4 5 27.9 19.4
-18 14 5 59.89 16.5
18 -4 -5 81.19 17
-18 4 -5 68.09 14.1
14 -18 -5 59.49 13.1
-4 -14 -5 81.89 14.6
18 -14 5 47 21.4
15 3 -5 171.78 22.1
-18 15 -5 125.59 24.5
15 -18 5 86.19 24.1
3 -18 -5 198.38 19.2
-15 18 5 157.78 19.4
-18 3 5 145.59 21
15 3 -5 125.09 17.9
-3 18 -5 122.79 18.6
-18 3 5 78.79 22.2
-18 15 -5 138.49 19.9
18 -3 5 115.79 26.2
18 -15 -5 148.89 20.6
-3 18 5 106.49 19.1
18 -15 5 64.49 21.4
15 -18 -5 109.29 15
-18 3 -5 96.29 15.4
-18 15 5 161.38 20.4
-15 18 -5 146.99 19
3 15 -5 162.78 19.5
-15 -3 5 133.49 19
-18 15 5 103.39 25.2
3 -18 5 68.89 20.8
18 -2 5 0.7 10.4
18 -2 5 2.3 23.7
16 2 -5 24.5 16.5
-16 18 5 20.3 14.8
2 16 5 -4 13.2
18 -16 -5 23.4 12.4
2 -18 -5 26.5 11
-2 18 -5 18.1 13.9
-18 2 5 33.2 13.8
-18 16 -5 31.7 13.5
-18 16 -5 6.1 18
16 -18 5 -1.4 19.9
-18 2 5 -2.2 17.9
2 -18 5 -0.2 18.4
-16 -2 5 23.4 12
2 16 -5 20.5 14.2
-18 16 5 -4.8 18.8
-16 18 -5 27 14.4
-18 16 5 27.2 15
-16 -2 5 -0.6 20.4
-2 -16 -5 12.9 11.8
-2 18 5 24.8 16
18 -16 5 -2.8 18.7
18 -2 -5 22.9 15.7
-18 2 -5 22.2 12.4
16 -18 -5 17.6 11.3
1 -18 -5 22.2 11.9
-1 18 -5 10.3 12.5
-18 1 5 23.7 13.3
17 1 -5 23.8 14.9
-18 17 -5 17.6 12.6
-17 18 5 15.6 14.1
18 -17 -5 17.2 12
1 17 5 11.3 13.8
18 -1 5 13.5 11.8
18 -1 -5 7.4 14.7
17 -18 -5 7.8 11.6
-1 18 5 19.7 15.8
-18 1 -5 10.9 12.2
-18 17 5 13.7 14.7
-1 -17 -5 3.4 10.8
1 17 -5 -8.2 11.3
-17 -1 5 13.6 12.4
-17 18 -5 18.6 14
0 18 5 32.7 14.5
18 0 5 31.7 12.4
-18 18 5 32 14.5
0 -18 -5 49.3 12.3
-18 0 -5 24.2 11.2
18 -18 -5 43.8 12.7
-18 18 -5 30.2 12.9
18 0 -5 38.4 15.4
-9 19 -5 0.2 15.6
-19 10 -5 -1.7 12.4
-10 19 5 8.7 17.2
-19 9 5 -3.8 12.5
10 -19 5 2.9 19.4
19 -9 5 1.5 21.5
-10 -9 -5 -1 3.2
9 -19 -5 -3.6 10.1
19 -10 -5 4.9 12.5
-19 9 5 -2.6 10.9
-19 10 -5 14 12.8
10 9 -5 3.1 12.7
9 10 -5 12 13.5
-9 -10 -5 15.1 13.2
-10 -9 5 -4.5 18.6
-19 9 -5 9.2 13.2
-19 10 5 16 13.7
19 -10 5 -1 21.7
10 -19 -5 18.8 11.2
-19 9 -5 10.4 12.4
-10 19 -5 9.9 15.5
9 -19 5 17.2 20.4
19 -9 -5 9 12
-9 19 5 28.8 17.1
-19 11 -5 70.09 14.9
19 -11 -5 77.89 15.3
-11 19 5 59.39 18.7
19 -8 5 51.99 22.7
11 -19 5 46.6 20.9
-19 8 5 66.49 14.8
-8 19 -5 55.59 16.3
11 8 -5 59.29 15.3
-19 11 -5 48.2 13.7
8 -19 -5 54.49 12.8
19 -11 5 39.4 23.8
-11 -8 5 59.69 13.7
-8 -11 -5 81.99 15.5
-8 19 5 45.5 17.1
8 -19 5 42.3 21.5
-19 8 -5 39 13.4
-11 19 -5 57.29 15.8
19 -8 -5 85.09 16
11 -19 -5 70.69 13.2
8 11 -5 78.79 16.1
-19 11 5 42.4 15.4
7 -19 -5 52.49 12.7
12 -19 5 47.4 20.9
12 7 -5 41.6 13.8
19 -12 -5 75.29 15.3
-19 12 -5 38.7 13.4
-7 19 -5 57.99 16.5
-19 12 -5 49.9 14.1
-19 7 5 60.99 15.1
-12 19 5 41.3 16.7
19 -7 5 42.5 23.4
-19 12 -5 9.1 19.9
7 12 -5 45.4 14.7
-12 -7 5 34.8 13
-19 7 -5 48.2 14.3
7 -19 5 29.1 19.9
19 -12 5 22.3 21.1
-7 -12 -5 43.4 13.5
-19 12 5 33.6 14.7
19 -12 5 3.9 23.8
-7 19 5 19 16.1
19 -7 -5 33.1 13.4
-12 19 -5 36.2 15
12 -19 -5 24.8 11.4
19 -13 -5 10.7 12
19 -6 5 3.2 20.3
13 -19 5 11 20.2
-6 19 -5 13 15
-13 19 5 -13.7 14
6 -19 -5 0.9 10
-19 13 -5 6.3 19.2
-19 13 -5 14.7 12.8
-19 6 5 11.2 12.9
13 6 -5 10.1 13
19 -13 5 -9.1 19.6
-19 13 5 -5.8 20
-19 13 5 6.6 14.2
6 -19 5 7.9 17.4
6 13 -5 18.2 14.2
19 -6 -5 14.4 12.2
-6 19 5 18.7 16.6
-19 6 -5 14.6 11.9
-6 -13 -5 17.9 12
-13 -6 5 21.4 12.5
13 -19 -5 17 11.4
-13 19 -5 14.8 13.4
19 -14 -5 21.9 12
-19 14 -5 21.9 12.7
-19 5 5 17.9 12.9
-5 19 -5 25.3 14.8
14 5 -5 -1.1 14.6
5 -19 -5 13.6 10.5
19 -5 5 2.7 20.7
-14 19 5 3.9 11.9
-19 14 -5 7.4 19
14 5 -5 14.4 12.3
14 -19 5 8.1 19.4
19 -5 -5 10.7 12
-14 19 -5 9.2 12
-14 -5 5 10.3 12.5
-5 19 5 7.4 15.3
14 -19 -5 7.8 11.1
5 -19 5 1.4 17.5
19 -14 5 -6.6 18.9
-19 5 -5 6 12.1
-19 14 5 -3.2 19.6
-5 -14 -5 13.2 11.8
5 14 -5 13.4 13.8
-19 14 5 30.1 15.4
-19 15 -5 21 12.2
-19 4 5 21.3 13.3
-15 19 5 15.5 14.2
-4 19 -5 8.8 13.7
19 -15 -5 4.9 11
15 4 -5 8.9 11.2
15 -19 5 -0.7 22.1
-19 15 -5 5.9 22.5
4 -19 -5 17 10.8
15 4 -5 3.9 15.5
-19 15 5 23.3 15.1
-19 4 -5 9.8 11.9
-15 -4 5 8.2 11.5
-19 15 5 -4.7 26.6
-4 -15 -5 14.7 12.3
19 -15 5 -7 29.6
-15 19 -5 6.5 12.4
-4 19 5 23.9 15.7
15 -19 -5 6.7 11.5
4 15 -5 12.1 13.5
19 -4 -5 8.4 12.4
-19 3 5 136.79 17.3
3 -19 -5 109.69 14.7
19 -16 -5 141.49 16.8
-16 19 5 141.39 19
-19 16 -5 134.89 17.4
-3 19 -5 130.09 18.2
16 3 -5 133.29 19.5
-16 -3 5 99.19 15.1
19 -3 -5 53.49 14.5
-3 -16 -5 95.59 14.4
-3 19 5 74.09 16.7
-16 19 -5 81.99 15.8
-19 16 5 133.49 19.6
-19 3 -5 96.39 14.9
3 16 -5 70.19 15
16 -19 -5 83.79 14.3
-2 19 -5 36.2 13.3
-19 17 -5 66.19 14.2
2 -19 -5 54.39 12.5
17 2 -5 48.9 15.3
-19 2 5 80.89 14.8
19 -17 -5 58.49 13
-17 19 5 36.2 14.8
-19 2 -5 45.8 13.2
-19 17 5 57.29 16
-17 -2 5 73.89 14.4
2 17 -5 27.1 12.3
-2 19 5 34.9 14.8
19 -2 -5 62.29 16.2
17 -19 -5 50.69 12
-17 19 -5 39.8 14.1
-2 -17 -5 50.09 12.2
-18 19 5 15.1 13.1
18 1 -5 4.6 14.1
19 -18 -5 10.9 10.9
-1 19 -5 -4.6 9.6
1 18 5 -8.1 10.5
19 -1 5 2.8 9.3
-19 1 5 18.4 10.9
1 -19 -5 12.5 10.8
-19 18 -5 7.9 11.1
-18 -1 5 24.7 12.4
-1 19 5 8.1 13.6
-19 18 5 10 12.8
18 -19 -5 16.4 10.3
-18 19 -5 25.1 13.2
18 1 5 7.7 11
-19 1 -5 10 11.2
-1 -18 -5 8.1 10.6
19 -1 -5 13.5 14.1
19 0 5 4.6 9.7
19 -19 -5 6.3 9.7
0 19 5 -8 11.5
19 0 -5 3.8 13.5
-19 19 5 10.9 12.5
-19 0 5 3.9 10
-19 19 -5 6.8 11.2
0 -19 -5 -4.7 9.4
10 -20 -5 62.49 12.8
20 -10 5 6.3 21.9
-10 20 5 48.6 16.4
10 10 -5 85.29 15.5
-20 10 -5 61.19 14.1
20 -10 -5 84.79 15.6
-10 20 -5 53.99 15.1
-20 10 -5 81.29 14.4
9 -20 -5 45.2 11.9
20 -9 5 4.5 22.9
-11 20 5 40.9 15.7
20 -11 -5 54.69 14.5
11 -20 5 1.4 29.4
-20 11 -5 47.4 13.4
-20 11 -5 25.5 12.4
11 9 -5 44.3 13.4
-20 9 5 19.6 11.6
-9 20 -5 55.69 15.8
20 -11 5 7.4 22.9
-11 20 -5 34.4 14.4
-20 9 -5 2.1 10.4
-9 20 5 43 16
11 -20 -5 34.4 11.2
9 11 -5 28 12.7
11 9 5 28.9 12.6
-20 9 -5 28.2 12.5
9 -20 5 -0.8 30
-20 11 5 30.7 14
20 -9 -5 48.3 13.5
8 -20 -5 12.6 10.7
-8 20 -5 22 14.1
-20 8 5 11.6 12.9
-20 12 -5 25.2 12.3
-20 12 -5 16.1 11.9
12 8 -5 21.5 12.4
-12 20 5 2.4 15.2
20 -12 -5 18.5 12.4
-20 8 -5 27.4 12.5
12 -20 -5 18.2 10.6
-8 -12 -5 26.6 12.5
12 8 5 -3.3 10.3
-12 20 -5 12.7 13
20 -12 5 2.8 34.5
-20 12 5 15.2 14.2
-8 20 5 -0.7 14.1
-12 -8 5 9 11
8 12 -5 22.9 12.8
20 -8 -5 8.5 11.5
-7 20 -5 68.09 15.7
-20 13 -5 59.09 13.4
-13 20 5 24.7 14.3
-20 7 5 60.29 14.1
7 -20 -5 69.99 12.7
13 7 -5 72.09 14.6
20 -13 -5 107.49 15.2
-13 20 -5 40.6 13.8
-20 13 5 50.09 15.1
13 -20 -5 45 11.5
-7 20 5 48.8 15.5
20 -7 -5 55.99 13.7
-13 -7 5 56.79 13.3
-7 -13 -5 84.29 14.9
-20 7 -5 86.59 14.7
7 13 -5 53.39 13.3
-20 14 -5 1.4 11.1
-20 6 5 1.9 11.8
14 6 -5 7.9 11.6
20 -14 -5 8.4 10.6
-6 20 -5 5.9 15.1
6 -20 -5 1.6 9.8
-6 20 5 0.8 14.2
14 -20 -5 1 9.9
-20 6 -5 -7.7 10.7
20 -6 -5 3.1 11.6
-14 20 -5 -1.1 11.5
6 14 -5 7.4 11.7
-14 -6 5 7.4 11.2
-6 -14 -5 2.4 11.1
-20 14 5 9.5 14.4
15 5 -5 83.59 13.6
-20 15 -5 132.99 16.4
-5 20 -5 104.09 17.6
-20 5 5 71.49 13.8
5 -20 -5 82.09 13.3
20 -15 -5 93.19 14.6
15 -20 -5 81.19 13.4
-5 20 5 107.59 18.9
5 15 -5 99.69 15.3
-15 -5 5 95.29 15.4
-20 15 5 89.79 16.7
-20 5 -5 102.99 15.3
20 -5 -5 96.09 15.2
-5 -15 -5 103.99 15.3
-20 16 -5 122.59 17.2
-16 20 5 121.19 18.5
-20 4 5 157.88 18
-4 20 -5 141.29 18.6
20 -16 -5 140.69 18.8
4 -20 -5 125.29 17
16 4 -5 114.59 17
-4 20 5 114.69 17.5
20 -4 -5 132.79 19.1
-20 4 -5 111.89 16.8
-20 16 5 131.19 17.9
-16 -4 5 124.79 17.7
-4 -16 -5 125.29 17.7
16 -20 -5 100.09 14.1
4 16 -5 135.09 18.3
-17 20 5 37.4 13.6
17 3 -5 22.9 13.6
3 -20 -5 23.4 10.2
-20 3 5 34.7 11.4
-20 17 -5 23.3 10.9
-3 20 -5 21.5 12.3
20 -17 -5 18.3 11
3 17 -5 16.5 11.6
-17 20 -5 10.7 10
-17 -3 5 26.5 11.8
-20 3 -5 27.5 11.7
-20 17 5 28.2 14
-3 20 5 16.6 13
17 -20 -5 24.5 11
20 -3 -5 18 11.8
-3 -17 -5 21.7 10.8
20 -18 -5 63.09 11.7
-2 20 -5 49.2 11.5
-20 2 5 44.3 11.2
-18 20 5 54.79 13.7
-20 18 -5 71.19 12.4
18 2 -5 77.09 15.5
2 -20 -5 54.29 11.4
20 -2 -5 60.89 13
18 -20 -5 69.99 13
-2 -18 -5 63.79 12
-2 20 5 26.3 12.3
-18 20 -5 47.9 11.1
18 2 5 41.5 11.7
-18 -2 5 90.49 13
-20 2 -5 51.19 12
-20 18 5 84.09 15.3
20 -19 -5 38.4 10.2
-20 19 -5 42.1 10
19 1 -5 34.2 13.8
1 -20 -5 33 9.9
-20 1 5 36.1 10.3
-19 20 5 37.7 12.1
20 -1 -5 28.7 11.2
-20 19 5 42.8 12.7
-20 1 -5 0.8 9.6
-1 -19 -5 21.2 9.9
-19 -1 5 31.5 10.6
-1 20 5 16.5 10.5
-19 20 -5 17.8 9.2
19 1 5 17.2 8.5
19 -20 -5 25.7 10.3
-20 20 5 9.9 10.6
20 -20 -5 5.8 9.2
0 20 5 14.4 9.9
-20 0 5 2.3 9.2
-20 20 -5 2.8 8.4
0 -20 -5 0.8 9
20 0 -5 -3.4 9.8
-11 21 5 72.89 16.1
10 11 5 70.79 13.9
10 -21 -5 79.79 13.4
-21 11 -5 78.49 13.4
21 -11 -5 105.09 15.4
-10 21 -5 63.19 14.8
-21 11 -5 114.69 15.8
11 10 -5 109.19 15
-10 21 5 75.49 16.3
10 11 -5 78.09 13.5
21 -10 -5 119.59 16.4
-21 11 5 41.9 12.7
-21 10 -5 111.19 15.7
11 10 5 60.09 12.9
-11 21 -5 72.59 14.6
11 -21 -5 92.59 13.7
9 12 5 72.09 13.4
12 9 -5 103.49 14.8
-12 21 5 96.79 17.1
21 -12 -5 124.99 14.5
9 -21 -5 115.39 16.7
-21 12 -5 92.09 14.1
-21 9 5 89.29 13.1
-21 12 -5 113.39 16.5
-21 12 5 85.19 15.2
-9 21 5 114.19 17.3
21 -9 -5 126.79 15.9
12 -21 -5 106.89 15.7
-21 9 -5 120.59 15.3
-12 21 -5 103.99 16
9 12 -5 109.69 14.7
-13 21 5 3.9 13
-8 21 -5 3.7 12.8
-21 8 5 3.7 11
21 -13 -5 -0.6 9.9
13 8 -5 4.8 11.2
-21 13 -5 8 10.9
8 -21 -5 6.2 9.6
-8 21 5 6.3 13.6
13 -21 -5 2.2 9.3
-13 21 -5 10.2 11.8
8 13 -5 12 10.8
-13 -8 5 -4.7 9.5
21 -8 -5 -1.2 10.1
-21 8 -5 6.4 10.6
-21 13 5 4.8 12.5
-7 21 -5 35.5 14.6
14 7 -5 19.1 10.7
-21 7 5 18.1 11.6
7 -21 -5 17.9 9.9
-21 14 -5 21.3 11.4
21 -14 -5 32.6 10.5
-7 -14 -5 6.7 11
-21 7 -5 13.1 10.6
14 -21 -5 7.2 9.7
-14 -7 5 12.1 11.3
-14 21 -5 12.2 11.4
-21 14 5 17.7 13
21 -7 -5 8.6 10.7
7 14 -5 27.2 11.4
-7 21 5 15.5 13.5
-21 6 5 27.6 11.8
21 -15 -5 36.9 11.1
-6 21 -5 40.4 13.4
-21 15 -5 26.8 10.9
15 6 -5 21.9 10.2
6 -21 -5 32.6 9.9
-21 6 -5 19.2 10.5
-21 15 5 18.7 13.4
-6 -15 -5 28.7 11
-6 21 5 18.8 13
21 -6 -5 25.1 11.6
15 -21 -5 14.5 9.5
-15 -6 5 32.7 12.3
6 15 -5 23.5 11.1
-15 21 -5 -2.7 9.2
-21 5 5 4.1 10.3
16 5 -5 -1.8 8.3
5 -21 -5 9.9 9.1
21 -16 -5 12.7 9.9
-21 16 -5 13.7 10.1
-5 21 -5 6 12
-21 5 -5 7.1 10.2
16 -21 -5 5.8 9
21 -5 -5 -5.5 11
5 16 -5 7.6 10.7
-5 -16 -5 1.9 10.6
-5 21 5 10.1 12
-21 16 5 11.5 12.6
-16 -5 5 7.8 11.1
-4 21 -5 37 11.8
4 -21 -5 46.3 10.5
-21 4 5 36.9 10.7
-21 17 -5 56.39 11.8
21 -17 -5 37.6 10.5
-4 21 5 17.5 12
-17 -4 5 35.1 10.9
17 -21 -5 43.7 10.6
-21 4 -5 25.5 10.1
21 -4 -5 37.7 12.2
-21 17 5 64.99 15.1
-4 -17 -5 45 10.7
4 17 -5 38.3 11.3
3 -21 -5 17.3 9.4
21 -18 -5 18.7 9.9
-21 18 -5 17.3 8.9
3 18 5 11.2 10
-21 3 5 16.1 9.5
-18 21 5 12.9 10.1
18 3 -5 -3.1 15.1
-3 21 -5 9.8 9.7
18 3 5 12.7 9.8
18 -21 -5 28.1 9.6
3 18 -5 -4.4 9.2
-18 -3 5 19.8 10.2
-21 18 5 18.8 12
21 -3 -5 32.7 12.1
-21 3 -5 5.4 9.9
-3 21 5 11 11.1
-3 -18 -5 19.3 9.4
2 19 5 3.8 8.8
19 2 -5 -4.6 8.6
2 -21 -5 -1.1 8.6
21 -19 -5 -0.9 8.4
-19 21 5 5.3 9.4
-21 2 5 -5.2 10
-21 19 -5 -4.1 8.1
-21 19 5 -2.5 11
19 2 5 0 7.3
-19 -2 5 9.2 9.4
-21 2 -5 2.5 7.8
-2 -19 -5 0.4 8.9
-2 21 5 -1.3 9.5
21 -2 -5 -6.2 10.6
19 -21 -5 3.8 8.6
-19 21 -5 -0.5 7.3
-21 20 -5 9.7 8.5
-21 1 5 20.7 10.8
1 20 5 13.7 10.3
1 -21 -5 6.7 8.8
21 -20 -5 7.6 9.2
-20 21 5 11 10
-21 20 5 22.2 12.2
-1 -20 -5 12.6 10.1
-20 21 -5 -0.9 7
21 -1 -5 5.8 10.1
-20 -1 5 13.7 10.7
20 -21 -5 9.4 8.6
-11 22 5 146.49 17.4
-11 22 -5 98.19 14.5
11 -22 -5 127.09 15.9
11 11 5 84.49 12.8
-22 11 -5 111.69 16.1
11 11 -5 144.39 14.8
22 -11 -5 122.69 17.7
10 12 5 6.4 10
-12 22 5 -6.1 11.7
-22 12 -5 3 9.2
22 -12 -5 3.8 9
12 10 -5 2.4 9.5
10 -22 -5 13.6 8.9
-10 22 -5 15.2 11.6
10 12 -5 12.8 10
22 -10 -5 5.2 10.9
-10 22 5 4.5 11.9
-22 12 5 1.8 10
12 10 5 -6.3 8
12 -22 -5 6.3 9.2
-12 22 -5 10.2 11
-22 10 -5 10.2 9.9
13 9 -5 37.2 10.2
-13 22 5 15 11.8
-9 22 -5 35.5 12.2
-22 13 -5 41.7 10.5
9 13 5 29.3 10.4
9 -22 -5 32.4 9.4
22 -13 -5 43.9 10.6
-9 22 5 52.89 13.6
-22 13 5 50.99 12.7
13 -22 -5 38.3 10.7
22 -9 -5 50.79 12.1
9 13 -5 48.4 11
-13 22 -5 37.2 11.7
-22 9 -5 43.8 11.3
8 14 5 26 10.1
8 -22 -5 41.7 10.2
-22 8 5 32 10.3
14 8 -5 31.8 9.6
22 -14 -5 29.5 9.9
-22 14 -5 39.3 9.9
-8 22 -5 46 12.5
-14 22 -5 25.6 10.5
-22 8 -5 39.6 11
22 -8 -5 39.2 11.4
-22 14 5 48.8 12.4
-8 22 5 39.8 13.3
8 14 -5 37.3 10.6
14 -22 -5 18.3 9.3
-7 22 -5 2.5 11
22 -15 -5 4.4 8.9
-22 15 -5 2.6 8.7
7 15 5 -3.1 8.8
-22 7 5 0 8.9
7 -22 -5 0.3 8.4
15 7 -5 7.8 8.7
15 -22 -5 7.3 8.6
-22 7 -5 4.8 9.6
-7 22 5 13.9 11.6
22 -7 -5 -2.5 9.4
-22 15 5 8.2 11.5
-15 -7 5 -2.9 10.3
7 15 -5 12 9.7
6 16 5 61.99 11.2
-6 22 -5 45 11.5
6 -22 -5 51.09 10.1
-22 16 -5 51.09 10.2
22 -16 -5 45.5 10.2
-22 6 5 41.8 9.9
-6 22 5 42.4 12.1
-22 16 5 89.49 14.4
22 -6 -5 64.99 11.2
-22 6 -5 67.49 11.6
16 -22 -5 71.49 11
6 16 -5 52.59 10.9
-16 -6 5 45.6 10.1
-5 22 -5 7.1 9.3
5 -22 -5 18.6 8.8
-22 5 5 12.2 8.7
5 17 5 15.6 9.4
-22 17 -5 8.3 8.5
22 -17 -5 11.3 8.8
17 -22 -5 18 8.5
-22 17 5 18.4 11.9
-17 -5 5 20.2 10
-5 22 5 15.1 11
-22 5 -5 15.9 9.6
22 -5 -5 16 10.6
5 17 -5 15.8 9.7
-5 -17 -5 20.8 9.9
22 -18 -5 9.6 8.9
-22 4 5 0.4 8.6
4 18 5 11.5 9.8
-4 22 -5 -3 8.6
-22 18 -5 4.4 8.8
4 -22 -5 -0.6 8.4
-22 4 -5 6.7 10.2
18 -22 -5 3.9 7.7
-18 -4 5 7 9.6
18 4 5 9.5 8.4
-4 22 5 3.9 10.3
22 -4 -5 1.2 10.4
-22 18 5 1.9 11.5
-4 -18 -5 -1 9.6
3 -22 -5 31.5 9.3
22 -19 -5 23.3 9.3
-22 3 5 25.5 10.1
-22 19 -5 33.7 10.4
3 19 5 41.3 10.7
19 -22 -5 4.2 6.5
22 -3 -5 16.9 11
-22 19 5 16.8 12.7
-19 -3 5 20.4 10.1
-3 -19 -5 12.4 10.1
-3 22 5 0 8.1
-12 23 5 29 11.2
23 -12 -5 50.89 10.5
11 -23 -5 43.3 9.3
-11 23 -5 45.5 11.4
11 12 5 24.8 8.3
12 11 -5 42 9.4
-12 23 -5 51.29 11.2
-11 23 5 38.3 12
23 -11 -5 63.29 10.5
11 12 -5 44.3 10
12 -23 -5 48.5 9.5
13 10 -5 34.8 8.9
-10 23 -5 54.59 11.7
10 -23 -5 39.1 9.1
23 -13 -5 63.89 10.5
10 13 5 39.1 9.7
-23 13 -5 15.2 8
13 -23 -5 52.29 10
10 13 -5 48 10.2
-13 23 -5 40.8 10.9
-10 23 5 35.3 12.3
23 -10 -5 65.69 11.6
-23 10 -5 42.2 10.2
23 -14 -5 14.8 8.9
-23 14 -5 16.6 9
9 14 5 10.3 8.5
-9 23 -5 14.4 10.6
9 -23 -5 13.7 8.1
14 9 -5 8.3 8
9 14 -5 13.4 9.2
-23 14 5 13.8 8.9
23 -9 -5 24.4 10.5
14 -23 -5 20.2 8.6
-9 23 5 14.1 10.8
-14 23 -5 14 9.3
-23 9 -5 19 8.8
23 -15 -5 39 9.8
-23 15 -5 34 9.8
-8 23 -5 59.39 12.6
8 -23 -5 46.1 9.1
15 8 -5 34.6 8.1
8 15 5 47 9.8
-8 23 5 42.7 12.1
-23 8 -5 35.3 10.3
23 -8 -5 48 11.7
8 15 -5 40.3 10.2
15 -23 -5 25.9 8.5
-23 15 5 21.3 10.9
-7 23 -5 12.1 10.5
7 16 5 6.2 9.3
23 -16 -5 13 9.3
7 -23 -5 12.4 8.1
-23 7 5 14.2 7.8
-23 16 -5 15.9 10
16 -23 -5 12.9 7.7
-23 7 -5 5.2 9.9
23 -7 -5 17.2 11.4
-23 16 5 15.3 11.5
7 16 -5 16.4 9.8
-7 23 5 6.7 11.3
23 -17 -5 12.6 9.8
-23 17 -5 9.4 9.8
6 -23 -5 5.5 7.1
-6 23 -5 8.7 10.1
-23 6 5 3.4 8.5
6 17 5 19.2 10
17 -23 -5 -0.1 7.5
-23 17 5 13.9 11.9
-6 23 5 7.4 11.6
-23 6 -5 29.7 11.5
6 17 -5 10.6 9.6
23 -6 -5 21.2 12.2
-5 23 -5 -0.4 6.8
-12 24 -5 27.6 11.6
24 -13 -5 18.8 10
-11 24 -5 2 11
13 11 -5 -1.4 8.3
-11 24 5 7.7 12.6
-13 24 -5 9.5 9.7
24 -11 -5 11.2 9.6
11 13 -5 5.4 9.1
-10 24 -5 23.2 11.3
-10 24 5 27.2 13.2
0 0 6 4834.92 239.78
0 0 6 5359.56 249.78
-1 1 6 477.95 32.1
0 1 6 540.25 45
-1 0 6 544.95 47.1
-1 0 6 408.46 32.9
-1 1 6 512.85 44.9
0 -1 6 605.04 50.09
-1 1 6 515.15 35.7
-1 0 6 521.75 34.1
1 -1 6 593.24 45.9
1 0 6 611.14 47.1
0 1 6 478.65 32.1
0 1 6 547.95 35.1
-1 2 6 388.36 30.6
-1 2 -6 264.27 26.7
-1 -1 6 308.67 25.1
-1 -1 6 358.76 40.8
-1 2 6 335.47 38.3
-1 -1 6 285.97 24.6
1 1 6 391.96 39.6
-2 1 6 360.06 31.3
2 -1 6 418.76 38.1
1 1 6 271.67 25.5
1 -2 6 302.97 25.7
-1 2 6 311.47 25.3
-2 1 6 328.57 26.7
1 -2 6 387.96 41.4
-2 1 6 351.76 41.3
-2 2 6 223.38 22.1
0 2 6 274.07 24.6
-2 2 6 262.57 36.3
2 -2 6 296.87 37.6
0 2 6 261.87 33.3
0 2 6 243.58 24.4
-2 2 6 278.07 28.1
-2 0 6 239.38 42.1
2 -2 6 205.38 22.3
2 0 6 292.97 32.5
0 -2 6 284.47 42.9
0 -2 6 238.98 23
-2 0 6 184.58 25.2
-2 0 6 247.58 23.4
3 -1 6 -5 8.4
-1 3 -6 6.1 15.6
-3 1 6 15.7 23.8
-1 -2 6 1.3 26
1 2 6 6.9 13.8
2 -3 6 20.2 23.5
1 2 6 28.7 14.2
-2 3 6 15.9 12.1
-2 3 6 6.8 21.3
1 2 6 6.8 19.9
-1 -2 6 12 9.9
3 -1 6 14.7 11.1
3 -1 6 14 13.1
2 -3 6 18.7 11.9
-1 -2 6 12.9 11.8
-3 1 6 20.7 17.8
-3 1 6 15.6 13.1
-2 3 6 50.29 20.2
3 -1 6 17 19.8
2 1 6 1.1 9.8
-2 -1 6 1.5 12.7
-2 -1 6 32.4 27.9
-3 2 6 35.5 19
1 -3 6 33 24.8
1 -3 6 24.2 13.1
-1 3 6 30.3 22.2
1 2 -6 3.2 14.6
-2 3 -6 22.7 17.7
2 1 6 16.8 12.8
-2 -1 6 19.1 10.7
-1 3 6 56.19 17.6
3 -2 6 35.2 20.2
-3 2 6 27 22.9
-1 3 6 39.5 14.8
3 -2 6 20.1 13.1
-2 -1 6 27.1 12.1
-3 2 6 26.8 13.5
2 1 6 53.09 22.7
-3 3 6 1108.29 63.99
3 -3 6 1165.98 67.49
0 -3 6 1094.79 57.09
0 3 6 1140.09 61.09
-3 0 6 872.31 59.29
-3 0 6 1156.48 73.39
-3 0 6 972.7 55.49
-3 3 6 1120.29 69.39
3 0 6 1159.08 64.79
0 -3 6 1160.88 74.19
-3 3 -6 1064.39 61.29
3 0 6 872.91 56.09
0 3 -6 877.71 59.59
3 -3 6 1001 56.29
0 3 6 1079.89 56.69
-3 0 6 900.01 54.79
0 3 6 1122.69 67.99
-3 3 6 1120.09 57.19
2 2 6 40.2 15.6
2 -4 6 36.1 13.1
-4 2 6 69.19 16.2
4 -2 6 52.89 14.3
4 -2 6 41.7 19.3
-2 -2 6 56.79 15.2
-2 4 6 56.99 24.4
-2 4 -6 52.79 20.7
2 2 6 66.59 20.6
-2 -2 6 54.99 28.2
2 2 6 51.49 15.4
-4 2 6 45.6 26.3
2 -4 6 80.49 27.5
-4 2 6 51.49 21
-2 4 6 57.39 15.7
-2 4 6 62.69 20.7
-1 4 -6 128.09 25.9
4 -1 6 129.79 21.1
1 3 6 118.69 19.6
4 -1 6 108.79 17
-1 -3 6 125.79 18.9
3 -4 6 133.09 18.7
-3 4 6 138.89 19.6
-3 4 6 110.39 27.7
4 -1 6 90.69 21.6
-1 -3 6 132.39 35.2
-4 1 6 100.09 30.2
-3 4 6 81.39 21.8
3 -4 6 120.99 27.1
1 3 6 134.59 27.1
-4 1 6 96.89 16.4
1 3 6 103.29 20.1
-4 1 6 116.29 23.7
-4 1 6 142.49 18.7
1 -4 6 119.99 29.7
-1 4 6 131.89 21.1
-4 3 6 150.98 22.5
-3 -1 6 142.19 20.1
-4 3 6 136.69 24.3
1 -4 6 122.19 18.5
-3 -1 6 156.68 33.2
-4 3 6 152.58 31.7
-1 4 6 155.18 24.8
-1 4 6 109.59 26.8
-3 4 -6 155.28 26
4 -3 6 133.19 21.7
3 1 6 90.39 18
4 -3 6 129.79 25.2
3 1 6 171.28 28.1
-4 0 6 30.2 28
0 4 6 24.4 13.3
-4 4 6 35.9 26.8
4 -4 6 9.4 20.7
-4 4 6 48 23.6
0 -4 6 18.7 28.5
4 0 6 16.1 14.4
0 4 -6 40.3 20.5
-4 0 6 28 12.5
-4 4 -6 33.1 19.9
-4 4 6 38.1 14.3
4 0 6 29 20.8
0 4 6 42.3 20.9
0 4 6 26.8 18.4
-4 0 6 25.7 12.1
4 -4 6 35.4 13.4
0 -4 6 38.7 14.7
-4 0 6 22.7 18.5
4 0 6 -3.4 12
-3 5 6 157.28 20.8
-2 5 -6 147.39 28.4
-2 -3 6 168.98 35.9
2 3 6 129.79 18.5
-3 5 6 162.28 29.2
5 -2 6 169.78 22.6
-5 2 6 172.78 30.2
2 3 6 202.38 31.9
-2 -3 6 174.68 21.7
-3 5 6 161.18 29.8
-5 2 6 182.18 22.9
3 -5 6 174.68 22
2 3 6 181.28 26.8
-5 2 6 152.78 33.4
5 -2 6 162.98 22.4
3 -5 6 144.29 30.2
2 -5 6 116.29 31.7
-2 5 6 146.49 29
-2 5 6 128.29 21.2
-3 -2 6 143.19 20.8
5 -3 6 128.89 21.4
-5 3 6 141.89 32.6
-3 -2 6 134.49 34.6
-3 5 -6 114.99 25.6
-5 3 6 127.09 25.5
-2 5 6 113.59 23.6
3 2 6 98.29 19.4
3 2 6 151.98 27
2 -5 6 154.98 21
-5 3 6 147.19 20.1
1 4 6 159.18 19.2
5 -1 6 193.48 24.9
-1 -4 6 224.58 23.7
-4 5 6 204.08 31.8
-5 1 6 206.38 22.1
-4 5 6 201.08 22.1
-1 -4 6 211.18 42
-5 1 6 212.68 22.3
-1 5 -6 161.28 28.9
5 -1 6 130.29 24.4
-5 1 6 172.68 28.8
1 4 6 217.88 34.2
-5 1 6 182.98 36.1
1 4 6 255.07 30.7
4 -5 6 211.18 23.7
-4 5 6 188.28 32.5
-4 -1 6 196.68 22.6
-5 4 6 246.18 37.1
5 -4 6 220.88 24
-5 4 6 220.98 38.7
-4 5 -6 241.38 35.6
-5 4 6 228.08 24.1
-1 5 6 219.48 33.4
-4 -1 6 203.98 38.1
4 1 6 226.38 29.7
-1 5 6 216.88 23
1 -5 6 225.38 23.5
1 -5 6 173.58 36.6
-1 5 6 198.38 34.3
-5 5 6 554.24 49.7
-5 5 6 541.85 34
-5 0 6 547.35 34.9
5 0 6 424.16 40.4
0 -5 6 532.25 35.2
0 5 6 490.85 43.9
0 -5 6 560.44 60.99
-5 5 6 527.05 49.5
5 -5 6 533.65 35.5
0 5 6 545.95 46.7
-5 0 6 569.54 55.99
0 5 6 438.36 31.5
-5 5 -6 489.55 44.8
-3 6 6 69.49 24.7
-6 3 6 98.99 17.1
-3 6 6 92.69 16.5
-3 6 -6 77.39 26.4
3 3 6 75.19 21.2
-6 3 6 91.09 28.3
-3 -3 6 65.69 34.2
3 3 6 100.59 27
-3 6 6 90.09 27.4
3 -6 6 134.69 19.7
-3 -3 6 84.29 15.6
-6 3 6 57.89 29.8
-4 6 6 54.89 24.7
-2 -4 6 56.69 33.2
-4 6 6 79.29 16.3
2 4 6 89.49 22.6
6 -2 6 48.3 18
-4 6 6 54.79 26
4 -6 6 96.69 17.3
-6 2 6 37.7 29
-6 2 6 69.79 14.8
2 4 6 90.39 27.2
-6 2 6 70.19 26.2
-2 6 -6 50.69 26.1
-6 2 6 85.09 15.9
-2 -4 6 104.09 17.9
6 -4 6 49.6 16.2
4 2 6 39.3 20.9
-6 4 6 42 15.1
-4 -2 6 58.39 34.9
2 4 -6 3.1 25.4
-2 6 6 20 20.4
-2 6 6 38.2 14.7
4 2 6 -1.4 15.1
-4 -2 6 28.5 12.7
2 -6 6 24 12.6
2 -6 6 14.9 28.1
4 2 6 4.2 18.1
-6 4 6 30.2 24.8
-4 6 -6 11.5 25.3
-6 4 6 6.1 26.3
-2 6 6 33.5 22.3
-1 -5 6 104.69 18.5
-5 6 6 57.09 27.3
6 -1 6 -10.1 31.6
1 5 6 107.99 25.2
-6 1 6 13.8 22.8
-1 6 -6 34.2 22.8
-6 1 6 112.69 20
-6 1 6 80.29 34.2
-1 -5 6 66.29 34.5
-6 1 6 99.69 15.3
6 -1 6 41.5 18.7
-5 6 6 71.59 25.5
1 5 6 93.09 27.9
-5 -1 6 76.89 34.1
-1 6 6 103.19 27.5
6 -5 6 120.09 18.9
-6 5 6 66.29 33.6
-1 6 6 77.29 26.1
-5 6 -6 78.79 29.1
-6 5 6 78.89 28.4
1 -6 6 109.69 18.4
1 -6 6 59.29 31.7
5 1 6 48.9 21.3
-1 6 6 75.99 14.6
-6 0 6 -3 32.3
-6 6 6 -11.6 23.8
-6 6 6 -13.3 26.5
0 -6 6 3.6 33.9
0 6 6 1.1 10.1
0 6 6 -7.7 22.5
0 6 6 -6 22.6
0 -6 6 12.4 14.5
-6 6 -6 -3.3 24.5
-6 0 6 -0.4 9.4
-6 6 6 8.1 14.2
6 -6 6 5.2 13.8
6 0 6 -2.3 18.5
-6 0 6 3.1 13.4
0 6 -6 0.5 23.8
6 -6 6 3.8 11.8
-4 7 6 238.28 38.2
-3 -4 6 267.77 24.4
-4 7 6 238.28 24.3
4 -7 6 238.48 24.9
-7 3 6 176.38 38.6
4 -7 6 186.88 20.2
3 4 6 221.88 35.4
-4 7 6 222.58 37.1
-7 3 6 247.38 24.7
-3 -4 6 218.88 44.1
-7 3 6 257.37 23.5
-4 -3 6 180.38 41.1
-7 4 6 160.88 37.5
-3 7 6 171.18 31.2
7 -4 6 152.98 20.1
-7 4 6 165.28 34.8
3 -7 6 217.08 23.2
-3 7 6 194.58 22.1
4 3 6 199.88 34.9
-3 7 6 147.79 29.6
-7 4 6 216.08 24.4
-4 -3 6 212.68 22.9
-5 7 6 8.1 13.5
-7 2 6 14 14.1
7 -2 6 -0.1 19.6
2 5 6 16.5 25.6
-7 2 6 -17.2 27.7
2 5 6 8 22
-5 7 6 -9.3 22.8
-2 7 -6 -5.7 25.6
-5 7 6 -15.7 23
5 -7 6 5.2 14.2
7 -2 6 2.8 11.9
-2 -5 6 22.7 32.6
-7 2 6 6.2 23.9
-2 -5 6 0.3 13.2
5 -7 6 4.9 11.1
-7 2 6 -2.5 13
-7 5 6 19.7 13.6
-2 7 6 3.5 22.6
-5 -2 6 26.6 14.5
2 -7 6 28.3 14.1
-2 7 6 35.6 27.3
7 -5 6 18.5 12.3
7 -5 6 22.2 14.9
-7 5 6 -23.3 25.4
-7 5 6 5.5 26.5
-2 7 6 22.2 12.9
2 -7 6 -1.9 9.2
-5 -2 6 11.2 32.4
-5 7 -6 15.9 27.9
5 2 6 2.5 23.7
5 2 6 1 21.7
-1 -6 6 507.55 32.5
1 6 6 464.25 48.5
6 -7 6 509.95 34.8
-7 1 6 368.86 53.49
-7 1 6 371.76 30.2
-7 1 6 495.45 33.4
-6 7 6 464.55 33.7
-6 7 6 346.87 44.6
6 -7 6 484.35 31.8
-7 6 6 292.77 41.1
-1 7 6 333.97 42.1
-6 -1 6 395.26 61.29
-7 0 6 178.68 38.9
-4 8 6 99.39 28.8
-8 4 6 3.3 29.5
4 4 6 0.4 36.4
-4 8 6 85.79 28.9
-4 -4 6 176.98 44.7
-4 8 -6 -8.4 37.1
-5 8 6 23 27
-5 8 6 55.29 30.5
-3 -5 6 96.49 36.9
3 5 6 87.19 27.4
-3 8 6 146.59 32.4
-5 -3 6 185.18 43.4
-2 -6 6 36.2 15
8 -2 6 18 16.5
-6 8 6 -10.1 25.3
-2 -6 6 -5.3 37.7
-8 2 6 32.3 15.7
2 6 6 21.5 28.4
2 6 6 -0.8 24.5
6 -8 6 25.9 13.8
-6 8 6 24.6 14.6
-8 2 6 -20.2 30
6 -8 6 29.7 15.5
-8 2 6 25.5 13.7
-6 8 6 -25.8 28.8
-2 8 6 -21.9 24.3
-8 6 6 41 17
2 -8 6 28.9 13.6
-2 8 6 6 10.9
-8 6 6 -1 27.8
-2 8 6 11.1 24.9
-8 6 6 -15.5 46.8
-6 -2 6 44.5 15.2
8 -6 6 26.4 14.1
8 -6 6 29.2 14.2
2 -8 6 41.8 15.3
-6 -2 6 3.6 38.1
8 -1 6 290.07 29.5
-8 7 -6 351.06 31.1
-8 1 6 312.87 29.2
-1 -7 6 328.87 28.5
7 -8 6 330.37 27.9
-7 8 6 308.37 29.7
7 -8 6 356.76 30.2
-7 -1 6 287.67 25.8
1 -8 6 312.37 28.2
8 -7 6 284.47 25.8
8 -7 6 301.47 29.3
-8 7 6 335.27 30.6
1 -8 6 282.77 25.6
-8 8 6 222.18 28
0 -8 6 199.38 24.9
0 -8 6 208.88 22.5
8 -8 6 201.78 25.9
8 -8 6 223.78 25.2
-8 8 -6 177.08 25.3
-8 0 6 182.68 24.5
9 -4 6 54.89 17.5
-5 9 6 43.2 16
-9 4 6 41 16
-4 -5 6 47.2 15.8
5 -9 6 35.4 15.2
5 -9 6 49.8 15.3
-9 4 6 39 14.7
9 -5 6 53.19 15.9
4 -9 6 79.09 16.9
-5 -4 6 78.89 17
4 -9 6 73.39 16.5
-4 9 6 72.29 16.6
-5 -4 6 -1.2 40.4
-9 5 6 95.69 18.9
-6 9 6 101.79 19.7
-9 3 6 122.39 20.2
-9 3 6 91.79 17.8
-9 6 -6 114.59 21
6 -9 6 83.69 18
9 -3 6 87.99 18.9
6 -9 6 70.89 15
-3 -6 6 100.89 18.8
9 -6 6 64.79 17.5
-9 6 6 51.59 16.1
-6 -3 6 66.49 16.9
3 -9 6 65.49 16.5
-3 9 6 45.1 13.7
3 -9 6 41.2 13.6
-9 7 -6 516.25 37.2
-2 -7 6 504.15 35.3
-9 2 6 428.26 33.5
9 -2 6 498.85 37.5
7 -9 6 487.45 34.6
-7 9 6 481.35 36.4
7 -9 6 514.65 36.7
-9 2 6 497.35 35.8
-7 -2 6 545.95 36.7
2 -9 6 502.55 34.6
9 -7 6 492.35 38
2 -9 6 469.65 35.7
9 -7 6 484.45 36.6
-9 7 6 523.75 38.4
-1 -8 6 16.7 12.9
-9 8 -6 16.8 15.2
8 -9 6 31.6 16.6
8 -9 6 18.4 13.7
-8 9 6 24 16.4
-1 -8 6 19.7 14.4
9 -1 6 15.9 17.8
-9 1 6 32.2 15.6
1 -9 6 9.4 13.4
9 -8 6 13.8 15.4
-9 8 6 33.3 17.5
1 -9 6 15.2 14.6
-8 9 -6 22.4 15.4
-8 -1 6 14 15.1
9 -8 6 8.8 14.6
-9 9 6 352.56 33.5
9 -9 6 290.57 29.3
0 -9 6 332.47 29.2
0 -9 6 316.97 28
-9 0 6 311.97 29.5
-9 9 -6 304.47 30.7
9 -9 6 333.17 31.6
-5 -5 6 684.43 42.6
10 -5 6 662.03 44.5
5 -10 6 682.33 43.5
5 -10 6 726.23 43.5
-10 5 6 635.14 42
-5 10 6 671.13 43.6
6 -10 6 223.08 26.5
6 -10 6 214.78 23.4
-4 -6 6 252.77 26.2
-6 10 6 234.78 27.6
-10 4 6 231.08 27.5
-10 6 -6 218.58 27.1
10 -4 6 193.88 27.5
-10 4 6 216.68 25.4
4 -10 6 272.57 26.5
-4 10 6 257.17 27
-10 6 6 297.07 30.5
4 -10 6 267.17 27.4
-6 -4 6 308.57 27.6
10 -6 6 263.37 27.2
-3 -7 6 1.7 14
-7 10 6 0.5 16
7 -10 6 7.4 15
-10 3 6 11.2 14.3
7 -10 6 5.4 12.7
10 -3 6 3.8 16.1
-10 7 -6 9.5 14.4
-10 3 6 9.1 15.2
-3 -7 6 0.5 13.5
3 -10 6 8.9 12.9
10 -7 6 16 16.2
-7 -3 6 20.1 14.8
3 -10 6 20.7 15.8
-10 7 6 28.2 16.9
8 -10 6 448.36 34.3
-10 8 -6 407.26 34.8
-8 10 6 443.86 37.2
-10 2 6 474.55 35.6
8 -10 6 441.66 35.4
10 -2 6 444.36 38.1
-2 -8 6 463.45 34.3
-2 -8 6 429.26 32.6
10 -8 6 522.45 39.7
2 -10 6 477.35 36.4
2 -10 6 489.75 35.4
10 -8 6 514.05 38.5
-8 -2 6 506.85 37.6
-8 10 -6 502.05 38.6
-10 8 6 503.25 40
-10 9 -6 86.29 19.3
-9 10 6 75.69 20.5
10 -1 6 90.49 22.1
9 -10 6 60.39 18.3
9 -10 6 96.99 19.5
-1 -9 6 77.49 18.1
-1 -9 6 92.89 17.8
-10 1 6 84.69 18.6
10 -9 6 58.09 18.1
1 -10 6 25.6 14
10 -9 6 85.89 20.7
-9 -1 6 66.89 17.8
-10 9 6 51.69 19
-9 10 -6 39.6 16.6
1 -10 6 62.29 18.1
-10 10 6 184.48 26.2
10 -10 6 156.98 23.3
0 -10 6 125.69 19.7
0 -10 6 167.08 24
10 -10 6 172.08 27.4
-10 10 -6 153.08 25.3
-10 0 6 180.28 25.6
-11 6 -6 55.19 18.7
-11 5 6 33.7 16
-11 5 6 32.5 17.5
11 -5 6 47.2 18.7
-6 11 6 44.4 18
6 -11 6 48.4 15.9
6 -11 6 44.5 16.4
-5 -6 6 47.4 16.5
5 -11 6 111.39 19.9
-5 11 6 73.89 18.1
11 -6 6 84.79 19.2
-6 -5 6 116.19 20.8
5 -11 6 67.19 15.9
-11 6 6 84.09 20.3
-11 4 6 345.87 32.4
-7 11 6 338.67 34.5
-4 -7 6 270.07 28.9
-4 -7 6 384.56 31.4
7 -11 6 367.36 32.9
7 -11 6 333.27 29
-11 7 -6 325.87 31.1
11 -4 6 392.66 34.7
-11 4 6 390.76 32.5
4 -11 6 465.45 34.3
4 -11 6 439.26 35.7
-11 7 6 442.76 37.8
11 -7 6 424.36 34.2
-7 -4 6 439.96 34.8
-8 11 6 202.78 29.8
8 -11 6 213.28 26.6
-3 -8 6 201.58 26.5
-11 3 6 218.28 26.9
-3 -8 6 245.38 27.1
-11 3 6 188.98 27.5
8 -11 6 247.68 27.6
-11 8 -6 197.88 26.3
11 -3 6 228.68 30.9
11 -8 6 202.08 26
-11 8 6 222.08 30.3
3 -11 6 215.88 25.6
3 -11 6 207.68 27.5
-8 -3 6 214.18 26.9
-11 2 6 19.5 15.5
-2 -9 6 27.3 15.9
-11 9 -6 38.2 17.9
11 -2 6 17 20
9 -11 6 28.1 17.5
-2 -9 6 41.1 16.8
9 -11 6 23.6 16.1
-9 11 6 27.3 18.8
-11 9 6 21.7 18.4
-9 -2 6 25.3 15.8
2 -11 6 12.2 15.6
-9 11 -6 24.1 16.6
11 -9 6 20.8 18
2 -11 6 19.1 15.7
11 -9 6 10.8 14.7
11 -1 6 64.49 21.1
-11 1 6 128.89 21.8
10 -11 6 73.79 17.6
10 -11 6 107.29 22.7
-1 -10 6 97.39 19.3
-11 10 -6 138.79 23.9
-10 11 6 117.49 22.8
-1 -10 6 98.49 19.2
-11 10 6 116.89 23.1
-10 -1 6 127.49 21.4
11 -10 6 103.39 19.8
1 -11 6 105.39 19.2
11 -10 6 148.09 25.6
1 -11 6 80.69 18.3
-10 11 -6 137.09 24.1
-11 0 6 118.39 21.1
-11 11 6 106.39 24.2
0 -11 6 87.39 19.3
11 -11 6 87.19 19
11 -11 6 129.09 24.7
-11 11 -6 136.19 23.3
0 -11 6 89.39 18.8
-6 12 6 374.46 36.2
12 -6 6 419.06 37
-12 6 6 436.86 37.8
-6 -6 6 471.65 35.7
6 -12 6 469.45 35.6
6 -12 6 452.45 35.4
-12 6 6 411.76 34.9
-5 -7 6 407.96 34.3
7 -12 6 405.26 34.9
-12 7 -6 437.56 36.6
12 -5 6 456.35 38.6
-7 12 6 389.56 37.1
7 -12 6 431.16 35.1
-12 5 6 449.26 35.8
-12 5 6 416.56 37.5
12 -7 6 508.95 40.1
-7 -5 6 480.35 37.9
5 -12 6 458.95 36.8
-12 7 6 511.45 40.6
5 -12 6 483.55 36.9
-4 -8 6 291.47 29.5
12 -4 6 284.97 33.4
-4 -8 6 261.27 28.2
8 -12 6 309.37 31
-12 4 6 301.47 30.9
-12 4 6 234.58 30.1
-8 12 6 281.97 31.7
-12 8 -6 297.77 31.2
8 -12 6 265.67 30
4 -12 6 310.57 30.4
-8 -4 6 319.57 31.3
4 -12 6 309.27 31.6
12 -8 6 304.87 32.7
-12 8 6 311.97 35
12 -3 6 180.38 28.2
9 -12 6 203.38 26.2
-3 -9 6 162.78 26.1
-9 12 6 125.39 23
9 -12 6 148.99 23.9
-12 9 -6 227.28 29.1
-12 3 6 150.08 26.2
-3 -9 6 148.69 26.6
3 -12 6 202.88 27.2
12 -9 6 193.68 29.9
-12 9 6 226.68 31.3
3 -12 6 160.78 26.3
12 -9 6 238.48 31.5
-9 -3 6 203.68 27.2
-2 -10 6 6.9 16.1
-10 12 6 4.2 17.9
10 -12 6 5.8 17.6
-12 2 6 4.6 15.6
-12 10 -6 14.1 17
-2 -10 6 3.9 16.3
12 -2 6 5 18.4
10 -12 6 6.7 15
2 -12 6 3.5 14.9
-10 12 -6 18.9 18.3
-12 10 6 5.1 17.3
2 -12 6 8.4 15.2
-10 -2 6 9.9 16.2
12 -10 6 17.4 18.1
12 -10 6 10.4 17.2
11 -12 6 166.28 24.6
12 -1 6 115.89 24.9
-1 -11 6 182.48 27.9
-12 1 6 184.38 27.6
11 -12 6 177.28 31.3
-1 -11 6 146.89 24.9
-12 11 -6 172.98 28.5
-11 12 6 127.59 23.5
-11 12 -6 192.58 30.3
-11 -1 6 210.58 28.2
12 -11 6 184.28 30
-12 11 6 274.07 33.7
1 -12 6 184.38 27.5
12 -11 6 190.58 31.9
12 0 6 27.7 21.2
0 -12 6 -1.7 14.7
12 -12 6 37.4 20.4
0 -12 6 16 17.4
-12 0 6 7.8 9.9
-12 12 6 10 12.1
12 -12 -6 6 9.8
-12 0 -6 -0.2 2.9
0 -12 -6 8.5 9.3
-12 0 6 35.4 18.7
12 -12 6 24.2 17.3
-12 12 6 28.3 20.5
-12 12 -6 25.7 17.2
0 -12 -6 3.7 9.4
-13 7 -6 202.08 27.4
-13 6 6 166.68 28.3
7 -13 6 136.79 22
7 -13 6 181.28 24.9
-13 6 6 158.48 24.5
-6 -7 6 150.48 26.9
13 -6 6 142.59 23.7
-7 13 6 101.59 21.5
13 -7 6 210.38 31.2
6 -13 6 143.19 24.7
-7 -6 6 201.88 29.3
6 -13 6 193.18 27.2
-13 7 6 197.68 30.4
8 -13 6 137.19 22.2
-5 -8 6 104.09 19.6
-5 -8 6 116.69 21.8
-13 5 6 114.29 21.9
8 -13 6 121.79 21.9
-13 5 6 102.09 21.1
13 -5 6 98.29 21.9
-8 13 6 91.59 20.7
-13 8 -6 98.69 20.4
13 -8 6 152.98 25.3
-8 -5 6 102.89 20.5
-13 8 6 79.29 20.6
-9 13 6 109.79 22.7
-4 -9 6 122.99 22.4
13 -4 6 134.19 25.8
-13 4 6 88.49 21.2
9 -13 6 132.29 22.8
-4 -9 6 107.09 20.6
9 -13 6 106.29 22.7
-13 9 -6 99.19 21.1
13 -9 6 141.09 24.2
-9 -4 6 152.08 26.3
-13 9 6 204.88 29
4 -13 6 177.58 24.9
13 -3 6 2.4 19.3
-3 -10 6 5.8 15.8
-13 3 6 8.2 17.4
-10 -3 -6 0.3 2.8
-13 10 -6 -7.8 10.9
-10 13 6 9.1 18.6
10 -13 6 26.4 18.4
10 -13 6 5.9 17.8
-13 10 -6 -5.1 17
3 -13 -6 -2.6 8.4
-3 -10 6 7.7 16
-3 -10 -6 7 9.5
13 -10 6 4.1 18.8
13 -10 6 8.2 19.4
-13 10 6 3.7 12.1
-10 -3 6 -0.4 9.5
3 -13 6 2.2 16.8
-13 10 6 3.9 18.4
-10 -3 6 0.1 16
10 -13 -6 -0.5 9.4
-2 -11 6 50.49 19
-13 11 -6 85.99 22.5
13 -2 6 56.39 22.2
-13 11 -6 36.1 12.9
-2 -11 6 34.1 17.5
-11 13 6 70.49 21.6
-13 2 6 49.9 18.7
2 -13 -6 46.2 11.3
2 -13 -6 8.5 12.3
11 -13 6 85.89 21.7
13 -11 -6 27.8 10.6
11 -13 6 68.29 21.4
-11 -2 6 55.79 18
11 -13 -6 43.8 11.7
-13 11 6 84.39 22.9
13 -11 6 58.79 22.2
-11 -2 6 34.4 11.7
-2 -11 -6 34 10.1
2 -13 6 87.19 20.9
-11 13 -6 69.59 21.6
13 -11 6 86.09 21.6
-13 11 6 56.99 14.7
-13 1 6 60.79 20.6
-1 -12 6 27.1 18.2
13 -1 6 31.1 21.6
12 -13 6 25.6 18
13 -12 -6 36.3 11.3
1 -13 -6 33.4 11
1 -13 -6 34.4 12.2
-13 12 -6 51.89 19.7
12 -13 6 48.9 21.6
-12 13 6 42.6 20.3
-13 1 6 24 12
-12 13 6 42.7 14.1
-13 12 -6 29.8 14.2
-12 -1 6 39.2 12.7
13 -12 6 36.5 21.8
-12 13 -6 -4.4 13
-12 -1 6 38 17.9
-1 -12 -6 23.7 10.4
-13 12 6 40.4 20.7
12 -13 -6 34.2 12
1 -13 6 36.8 18.4
-12 13 -6 28.5 18.7
-1 -12 -6 35.4 11.6
-13 12 6 37.3 14.6
13 -12 6 26.4 18.4
13 0 6 125.89 27
-13 13 -6 134.99 19
-13 0 6 178.68 29.7
-13 13 -6 193.38 29.6
-13 0 6 132.79 19.1
0 -13 -6 129.79 19
13 -13 6 188.28 34
13 -13 -6 176.98 18.7
0 -13 6 198.38 27.4
-13 13 6 131.39 25.6
-13 13 6 155.58 22
13 -13 6 221.78 29.9
7 7 -6 258.27 24.2
14 -7 6 371.16 36
-14 7 -6 292.77 23.8
-14 7 6 363.86 34.4
7 -14 -6 240.58 21.7
-7 14 -6 236.68 24.7
-6 -8 6 34.8 19.3
-14 6 6 51.89 19.7
-6 14 -6 45.1 15.2
-14 6 6 32.1 18.8
8 -14 6 0.9 23.6
14 -6 6 29.8 20.1
-14 8 -6 32.8 19.2
8 -14 6 40.6 18.8
-8 14 6 24.3 17.9
-14 8 -6 31.3 13.2
14 -8 -6 -6.2 10.5
-6 -8 6 15.8 15.4
6 -14 -6 23.4 10.6
8 6 -6 35.4 13.4
14 -8 6 10.6 19.1
-14 6 -6 12.1 12.6
8 -14 -6 10.5 11.3
-14 8 6 16.6 18.6
6 -14 6 18.5 16.6
-8 -6 6 10.7 16.8
-8 14 -6 -2.7 13.1
6 8 -6 5.5 14.1
-5 -9 6 8.6 18.1
-14 5 6 1.3 15.8
9 -14 6 0.2 15.8
-5 -9 6 5.7 16.9
14 -9 -6 -8 10.1
-9 14 6 12.1 18.5
5 -14 -6 14.3 10.2
9 5 -6 13.6 12.3
-5 14 -6 22.4 15.1
-14 9 -6 11.4 13.3
-14 5 6 11.4 18.3
14 -5 6 15.2 20.1
-14 9 -6 17.5 17.1
9 -14 6 9.9 17.7
-14 9 -6 -2.9 11.6
-9 -5 6 -0.8 9.7
-14 9 6 2.6 12.5
-5 -9 -6 0.2 11.8
14 -9 6 11.8 18.6
-14 5 -6 4.4 11.1
5 -14 6 35.3 18.9
-14 9 6 13.6 19.2
-9 -5 6 7.5 16.1
-9 14 -6 -3.7 15.2
5 9 -6 -6.3 12.3
9 -14 -6 5.9 11.2
10 -14 6 105.89 23.9
14 -10 -6 59.29 13.7
-4 -10 6 78.19 20.8
-14 10 -6 55.69 14.1
-10 14 6 80.79 22.1
-4 -10 6 98.39 21.4
14 -4 6 64.09 22.3
-4 14 -6 84.99 17.6
-14 10 -6 104.59 23.3
-14 4 6 90.19 23.2
4 -14 -6 64.79 12.2
-14 10 -6 75.99 14.8
10 4 -6 40.8 13
14 -10 6 128.79 26.9
-10 -4 6 101.59 20.8
14 -10 6 146.19 25.2
-14 10 6 108.49 23.2
-10 -4 6 106.39 14.8
4 -14 6 157.48 24.4
-14 10 6 126.89 16.9
10 -14 -6 108.89 14.8
3 -14 -6 10.9 11.4
-14 11 -6 6.1 17
-3 14 -6 6.2 14
14 -11 -6 13.8 12
-11 14 6 3.7 19.7
3 -14 -6 11.7 8.6
11 3 -6 2.1 11.6
-14 11 -6 3.5 13.6
11 -14 6 2.7 18
-14 3 6 13.5 19.1
14 -3 6 11.1 21.1
-3 -11 6 -5.6 16.4
-14 3 6 2.4 11.3
11 -14 6 13.3 19.2
-11 -3 -6 -1.4 3.3
-3 -11 6 -5.9 15.9
-14 11 6 11.8 19.5
3 -14 6 0.2 16.5
-3 -11 -6 5 10
14 -11 6 -2 18.5
-14 11 6 12.1 14.5
-11 -3 6 10.1 11
14 -11 6 6.8 19.7
-3 -11 -6 0 3.1
-14 3 -6 1.8 10.8
-11 -3 6 0.8 16.2
11 -14 -6 8.1 11.8
-14 12 -6 7.7 13.6
14 -12 -6 3.1 11.7
2 -14 -6 4.4 11.3
-14 2 6 8.6 12.1
12 -14 6 -2 18.7
-12 14 6 4.1 13.3
2 -14 -6 20.4 10.7
-2 14 -6 -5 13.4
-12 -2 -6 0.5 4
-14 2 6 3.1 17.1
-2 -12 6 16.4 17.7
-14 12 -6 26 18.9
14 -2 6 -2.5 20.4
12 2 -6 -4.3 10.2
-12 14 6 3.9 20.7
12 -14 6 4.9 19.8
-12 14 -6 -10.6 19.9
-12 -2 6 9.6 17.9
-2 -12 -6 7.5 11
2 -14 6 1.4 16.7
-12 -2 6 1.5 11.7
-2 -12 -6 0 3.1
-14 12 6 8.6 20.2
-2 14 6 1.2 15.4
-12 14 -6 -3 11.8
14 -12 6 3.5 18
-14 12 6 10 14.2
14 -12 6 14.2 21.4
-14 2 -6 0.3 15.3
12 -14 -6 -3.9 11.6
13 -14 6 36.1 20.5
14 -13 -6 68.19 14.1
14 -1 6 69.89 25.6
-14 1 6 97.39 16.1
-14 13 -6 82.19 17.3
-1 -13 6 62.69 20.9
-13 14 6 61.99 16.2
-13 14 6 54.19 23.8
1 -14 -6 49.3 12.8
-14 1 6 65.59 21.5
13 -14 6 52.29 20.1
-14 13 -6 51.99 22.2
1 -14 6 38.6 19.8
-1 -13 -6 47.4 13
-13 14 -6 35 21.9
-13 14 -6 58.39 15.8
13 -14 -6 44.2 13.2
-13 -1 6 39.9 12.6
14 -13 6 37.9 22.3
-14 13 6 48.4 16.8
-14 13 6 47.1 23.1
14 -13 6 58.29 22.8
-13 -1 6 54.79 20.9
-1 14 6 33.1 16
14 -14 -6 17.5 12.4
0 -14 -6 10.2 11.6
14 0 6 4.9 23.3
-14 14 6 29.2 15.9
-14 14 6 7.2 21.4
-14 14 -6 12.9 14.3
0 -14 6 3.6 19.3
-14 14 -6 12.7 21.6
0 14 6 18.8 15.6
14 -14 6 13.9 21
-14 0 6 19.5 12.8
-14 0 6 12.5 17.8
14 -14 6 10.5 18.4
-15 7 6 38.2 20
8 -15 6 29.3 18.9
8 7 -6 47.8 15
-7 -8 6 -0.3 15.5
-7 15 -6 43.5 17
-15 8 -6 9.7 11.6
15 -8 -6 9.8 11.5
-15 7 6 2 17
-7 -8 6 52.99 20.3
-15 8 -6 55.69 15.7
-8 15 6 25.9 14.6
7 -15 -6 51.19 12.8
15 -7 6 39.3 22.9
-7 15 6 52.49 16.6
-15 8 6 31.2 20.7
7 -15 6 45.9 18.9
-8 15 -6 48.2 17
7 8 -6 31 14.4
15 -8 6 46 22.9
-15 7 -6 58.89 15.6
-8 -7 6 52.09 20.5
-7 -8 -6 30.4 11.7
8 -15 -6 42.9 12.4
15 -7 -6 41.3 13.3
-15 9 -6 139.29 18.4
6 -15 -6 153.18 17.2
-15 9 -6 92.49 15.7
-6 -9 6 141.69 25.1
9 -15 6 194.18 27.8
15 -6 6 112.09 24.2
-15 9 -6 163.28 27.6
-15 6 6 118.09 24.2
-6 15 -6 102.29 18.1
15 -9 -6 133.89 17.7
9 6 -6 134.49 18.4
15 -6 -6 116.89 16.5
15 -9 6 180.28 28.1
-9 -6 6 103.09 14.9
-9 -6 6 121.89 22.8
6 -15 6 194.28 30.2
-9 15 -6 124.19 18.4
-15 6 -6 195.48 21
9 -15 -6 130.89 16.7
6 9 -6 144.79 20.3
-6 -9 -6 130.09 15.8
-6 15 6 135.49 20
-15 9 6 191.08 28.9
-15 10 -6 10.6 14.3
-15 10 -6 -5.7 19.5
-5 -10 6 -3.6 17.3
-10 15 6 -11 19.8
15 -5 6 5.5 20.8
-15 5 6 -3.8 17.8
15 -10 -6 10.9 12.4
-5 -10 6 -2.4 18.3
5 -15 -6 3.7 10.8
-15 10 -6 -0.4 12.5
10 -15 6 0.6 18
-5 15 -6 9.5 14.9
-10 -5 -6 0.6 3.8
10 5 -6 4.6 13.9
-15 5 6 -2.2 17.1
-5 15 6 17.7 16.4
-10 -5 6 7.4 11.8
-10 -5 6 -1.6 16.9
15 -10 6 3.4 20.3
15 -5 -6 -9.3 11.5
5 -15 6 10.5 19
-15 10 6 2.4 20.9
10 -15 -6 12 11.9
-10 15 -6 1.5 14.1
-15 10 6 18.7 14.3
-15 5 -6 13.6 13.4
5 10 -6 29.2 16.2
-5 -10 -6 9.8 11.6
15 -11 -6 10.6 12.7
11 -15 6 4 18.7
-11 15 6 3.5 20.4
-15 11 -6 8.9 14
-15 4 6 -0.9 18.9
-15 11 -6 15.4 13.6
-4 -11 6 7 17
15 -4 6 20.2 21.7
11 4 -6 7.9 13.3
-4 15 -6 18.9 15.7
-15 11 -6 13 18.2
-11 -4 -6 0.8 4.8
4 -15 -6 4.8 11.6
4 -15 -6 9.4 9.5
-15 4 6 16 12
-4 -11 -6 11.2 11.5
-11 15 -6 -5 13.4
15 -4 -6 -3.1 12.8
-15 4 -6 7.7 13.5
-11 -4 6 12.6 12.5
15 -11 6 10.5 20.6
11 -15 -6 8.9 12.1
4 11 -6 14.3 14.5
-4 15 6 5.3 15.2
4 -15 6 4.2 17.5
-15 11 6 0.5 20.5
15 -11 6 16 20.9
-15 11 6 16.6 14.5
-11 -4 6 2.5 17.3
12 -15 6 20.6 19.2
15 -3 6 6.3 21.7
-15 12 -6 15.4 19.3
-15 3 6 16.6 12.5
-12 15 6 26.2 13.8
3 -15 -6 30.1 12.6
12 3 -6 19.7 13.3
-3 15 -6 22.6 16
-3 -12 6 23.6 19.7
-15 3 6 14.7 20
-12 15 6 22.1 22.5
15 -12 -6 4.1 11.9
-15 12 -6 37.4 15
-3 15 6 43.9 17.4
12 -15 -6 40.1 13.2
-15 12 6 30.1 15.1
15 -3 -6 20.8 14
15 -12 6 44.5 21.8
3 12 -6 19.9 14.5
-15 12 6 39.1 22.1
-12 -3 6 50.89 13.6
-12 15 -6 -3.9 18.6
-12 -3 6 35.7 19.5
3 -15 6 34 19.2
-3 -12 -6 25.3 12
15 -12 6 49.1 25
-15 3 -6 36 14.1
-2 15 -6 39.6 16.2
-13 15 6 33.9 22.3
-13 15 6 30.1 15
-15 13 -6 53.49 15.2
-2 -13 6 26 19.3
-15 2 6 51.59 14.1
2 -15 -6 48.3 12.9
13 -15 6 44.1 22.6
15 -2 6 40.6 25.3
13 2 -6 33.3 12.7
-15 2 6 24.2 19.3
-15 13 -6 46.5 21.1
15 -13 -6 34.3 12.7
-13 -2 6 41.4 13
-13 15 -6 27.9 14.3
-15 2 -6 35.8 13.8
-15 13 6 41.7 16.3
-13 -2 6 36.8 19.2
15 -13 6 46.1 24.3
-2 15 6 35.5 16.4
-2 -13 -6 29.5 12.2
15 -2 -6 15.8 13.8
13 -15 -6 45.7 13.5
15 -13 6 38.5 19.6
2 -15 6 46.9 20.7
-15 13 6 36.9 24.4
-14 15 6 18.4 15
1 -15 -6 18.5 12.1
-15 14 -6 19.2 14.2
1 14 6 15.1 15.7
-15 1 6 17.8 19.2
-1 -14 6 21.4 19.2
14 1 -6 -4.5 10
-14 15 6 12.6 21.7
14 -15 6 25.4 21.9
15 -14 -6 21.2 12.6
15 -1 6 2.5 24.2
-1 15 -6 1.8 14.3
-15 14 -6 28.2 20.9
-15 1 6 15.3 12.7
-14 15 -6 26.5 15.5
-15 14 6 26.3 22.4
-14 -1 6 25.4 13.1
14 -15 -6 18.7 12.5
-1 15 6 28.7 16.5
15 -14 6 6.2 21.4
15 -1 -6 4.9 12.8
-14 -1 6 23.4 20.4
-15 1 -6 4.3 11.4
1 -15 6 34.1 20.2
-1 -14 -6 12.5 11.4
14 1 6 27.2 23.2
15 -14 6 29.6 21.7
-15 14 6 12.8 15.1
-15 15 6 26.5 15.1
-15 15 6 55.49 24
0 -15 -6 45 12.7
15 -15 6 27.4 20.5
-15 0 6 51.09 21.4
-15 0 6 38.8 12.6
15 0 6 29.4 23.5
15 -15 -6 56.19 13.8
0 15 6 38.5 16.7
15 0 -6 19.2 14.1
0 -15 6 30.2 19.3
0 15 -6 -4.4 14.9
-15 15 -6 58.19 16
-16 8 6 75.99 22.3
8 -16 6 82.49 22.2
-8 16 6 47.4 16.8
16 -8 6 87.09 25.3
8 8 -6 105.09 18
16 -8 -6 45.1 13.8
8 -16 -6 65.49 13.4
-8 16 -6 78.29 17.5
-8 -8 -6 75.89 14.5
-16 8 -6 54.59 14.2
-16 8 -6 112.19 18.2
-8 -8 6 83.19 22.5
9 -16 6 103.39 22.2
16 -7 6 92.89 23.8
16 -9 -6 78.49 15.5
-9 16 6 70.19 17.8
-7 -9 6 84.69 21.3
-16 9 -6 121.49 17.6
-9 -7 -6 98.89 16.3
7 -16 -6 121.89 15.7
-16 9 -6 140.59 19.6
9 7 -6 119.59 18.3
-7 16 -6 122.29 19.3
16 -9 6 85.29 23.7
-9 -7 6 106.49 23.9
9 -16 -6 104.29 15.4
-16 9 6 72.89 24.3
-7 -9 -6 98.69 15.5
16 -7 -6 95.89 16.6
-16 7 -6 121.69 18.7
-7 16 6 103.89 19.7
-16 9 6 82.89 16.1
7 -16 6 130.29 26
7 9 -6 112.19 18.1
-9 -7 6 76.09 13.8
-9 16 -6 49.8 16.8
-16 10 -6 14.9 13.6
10 -16 6 -3.8 19.2
-10 -6 -6 0 4
-10 16 6 4.2 14.8
16 -6 6 9.7 21.9
-16 10 -6 9.4 13.8
-10 -6 -6 13.9 12.7
-6 -10 6 -3.5 32.4
-6 -10 6 -3.6 17.8
-6 16 -6 13.2 15.9
-16 6 6 -4 11.1
-16 6 6 19.9 18.5
16 -10 -6 4.1 13
6 -16 -6 2.1 11
10 6 -6 7.5 13.9
-10 -6 6 4.8 11.9
-16 10 6 8.1 22
-6 -10 -6 7.7 12.3
-6 16 6 2.7 15.2
-16 10 6 11.9 14.2
-10 -6 6 6.7 18.3
-10 16 -6 22.8 16.1
10 -16 -6 19 12.9
6 -16 6 9.1 19.6
16 -6 -6 5.5 13.1
6 10 -6 -1.5 14.6
16 -10 6 9.9 21.1
-16 6 -6 4.3 13.3
-6 -10 -6 0.1 3.3
-5 -11 6 -1.3 16.8
11 -16 6 10.6 20
16 -11 -6 12.2 13.4
-16 11 -6 11.7 13.1
16 -5 6 17.7 22.8
-16 5 6 14.7 20.1
-16 11 -6 13.8 13.6
-16 5 6 2.6 12.3
11 5 -6 17 14.6
5 -16 -6 17.3 11.8
-5 16 -6 14.8 15.8
-16 11 -6 7.2 19.9
-11 16 6 1 21.4
-16 11 6 20.9 21.6
-5 16 6 13.8 16.3
5 -16 6 10.7 18.6
11 -16 -6 5.8 11.9
5 11 -6 16.2 14.6
-5 -11 -6 1.3 4.2
-11 -5 6 2.2 19.3
16 -5 -6 7.9 13.5
-11 -5 6 0.5 11.9
-16 5 -6 0.9 12.8
-5 -11 -6 8.3 12.3
16 -11 6 25.5 23.6
-11 16 -6 6.7 15.3
-16 11 6 12.1 15
16 -11 6 8.1 20.7
12 -16 6 134.69 27
-16 4 6 142.09 17.7
-4 -12 6 77.69 21
-12 16 6 102.39 16.8
16 -12 -6 119.99 16.6
4 -16 -6 128.19 16.6
16 -4 6 85.09 24.3
-4 16 -6 154.98 21.7
-16 4 6 94.19 23.2
-16 12 -6 106.29 24.4
-12 16 6 70.39 23.1
-16 12 -6 151.48 19.5
12 4 -6 132.69 18
4 12 -6 123.79 18.5
16 -12 6 201.98 33.4
-12 -4 6 142.59 19.6
-16 12 6 155.18 20.3
16 -4 -6 119.59 18.3
-4 -12 -6 126.99 16.7
16 -12 6 151.28 27.6
-16 12 6 208.28 32.3
-12 -4 6 193.38 29.1
-4 16 6 124.19 19.5
12 -16 -6 164.48 17.8
4 -16 6 134.19 23.6
-16 4 -6 157.98 19.2
-12 16 -6 95.29 17
-16 3 6 50.59 13.5
-16 3 6 63.79 22.5
16 -13 -6 50.99 13.9
-3 16 -6 86.59 18.4
-13 16 6 59.39 23.2
-3 -13 6 22 18.4
-16 13 -6 59.59 15.4
-16 13 -6 35.4 21
-13 16 6 35.6 15.6
13 3 -6 59.89 14.4
16 -3 6 57.19 25.5
13 -16 6 59.79 22.9
3 -16 -6 47.6 12.8
-13 -3 6 60.69 21.5
16 -13 6 36.4 20.7
16 -13 6 54.39 25
-13 -3 6 46.1 13.2
16 -3 -6 45.2 16.5
-16 3 -6 29.8 14.1
-3 16 6 44 16.5
-3 -13 -6 61.59 13.6
13 -16 -6 66.29 13.8
-16 13 6 51.39 17
-16 13 6 62.29 25.4
-13 16 -6 29.4 14.4
3 -16 6 68.69 21.9
3 13 -6 62.29 16
-14 16 6 -5.3 21.2
2 -16 -6 0.5 3.8
-2 16 -6 18.6 15.4
-14 16 6 15.4 15.1
14 -16 6 5.8 19.6
-16 2 6 9.2 18.4
16 -2 6 2 23.2
-16 2 6 18.9 12.4
-2 -14 6 -1.5 18.4
2 14 6 7.8 14.2
-16 14 -6 9.3 12.6
14 2 -6 9.6 11.6
2 -16 -6 23.7 12.2
-16 14 -6 13.7 21.8
16 -14 -6 21.3 12.4
-2 -14 -6 18.1 11.8
2 14 -6 17.2 13.8
-16 14 6 25.8 15.5
-14 -2 6 32.9 13.3
16 -14 6 14.7 19.8
14 -16 -6 28.3 12.8
-14 -2 6 21.9 20.7
-14 16 -6 33.9 15.5
-2 16 6 31.4 16.3
16 -2 -6 30 16.7
16 -14 6 5.3 27
2 -16 6 38.6 19.6
-16 14 6 20.2 22.3
14 2 6 1.8 22.6
-16 2 -6 20.2 13.3
-15 16 6 26.7 22.4
16 -15 -6 59.39 14.1
15 -16 6 59.39 22.9
-16 15 -6 40.8 14.2
-1 -15 6 6.2 18.2
15 1 -6 4.7 13.8
-15 16 6 66.19 16.7
-1 16 -6 45.1 15.4
16 -1 6 25.6 23.2
-16 1 6 45.9 20.2
1 15 6 39.9 16.9
1 -16 -6 55.99 13
-16 1 6 57.29 13.6
15 -16 -6 70.29 14.3
-1 16 6 39.4 17.6
-16 15 6 65.09 16.9
-15 16 -6 60.19 16
16 -15 6 54.79 22.7
-16 1 -6 47.6 13.6
-16 15 6 46.6 23.9
15 1 6 3 23
1 -16 6 40.7 20.4
-15 -1 6 53.49 13.8
-15 -1 6 44.3 20.1
16 -1 -6 48.7 16.9
-1 -15 -6 58.49 14.3
0 -16 -6 0.7 3.7
0 16 6 11.4 16.5
16 -16 -6 18 12.3
16 0 -6 10.6 15.9
16 0 6 3 22.7
-16 0 6 25.4 12.5
0 -16 -6 23.5 12.2
-16 0 6 3.5 19.6
-16 16 -6 16.4 14.2
16 -16 6 3.8 20.6
0 -16 6 1.5 18
-16 16 6 13.4 20.5
-16 0 -6 2.9 11.5
0 16 -6 -2.9 11.6
-16 16 6 23 14.7
-8 -9 6 -4.1 11
17 -9 -6 -9.5 12.2
-8 -9 6 -1.4 25.3
9 8 -6 13.3 14.3
8 -17 -6 0.5 10.7
-8 17 -6 6.3 15.8
-9 -8 -6 0.7 4.1
-9 17 6 18 17.7
-9 -8 -6 8 14
-17 9 -6 15.5 13.8
9 -17 6 -6.2 19
17 -8 6 0.3 21.7
-17 9 -6 1.9 13.6
-8 17 6 10.9 16.6
-17 9 6 -1.2 19.3
8 -17 6 -5.3 18.6
17 -8 -6 -13.1 12.3
-9 -8 6 13.6 11.8
-17 8 -6 -4.6 13.3
-9 17 -6 -1.3 16.1
8 9 -6 7.3 14.2
9 -17 -6 -3.4 10.5
-17 8 -6 5.5 12.7
-17 9 6 8.9 13.3
-8 -9 -6 13.3 13.2
17 -9 6 5.9 21.1
-8 -9 -6 -0.3 3.9
-9 -8 6 8 18.8
-10 17 6 29 17.2
10 -17 6 5.4 19.2
-7 17 -6 5 15.2
-10 -7 -6 -0.1 3.8
-17 10 -6 4.2 13.4
10 7 -6 15.8 13.6
17 -10 -6 7.6 13.6
-17 7 6 -3.2 12.7
17 -7 6 11.1 22.3
7 -17 -6 2.9 10.4
-17 10 -6 5.5 13.3
-17 7 -6 14.4 14.1
10 -17 -6 12.1 11.6
-17 10 6 12 14.6
7 10 -6 11.9 14.2
-10 -7 6 5 19.2
-7 -10 -6 0.7 4.2
-7 -10 -6 3.6 12.5
-10 -7 6 8.2 12
-10 17 -6 15.9 15.3
-7 17 6 -2.1 15.5
17 -7 -6 0.9 13.8
-17 10 6 0.9 20.4
17 -10 6 21.6 23.2
7 -17 6 7.2 19.5
-17 11 -6 86.39 16.8
-6 17 -6 47.5 16.3
11 -17 6 74.69 22.1
11 6 -6 78.19 16.4
-11 17 6 46.2 16.5
6 -17 -6 71.49 14.2
-17 6 6 89.59 16.4
-17 11 -6 95.79 16.8
17 -11 -6 78.19 15.9
17 -6 6 79.29 25.3
-17 11 6 62.99 24.3
-6 17 6 77.99 18.5
-11 -6 6 109.39 16.4
17 -11 6 62.09 24.9
-17 11 6 93.09 18
11 -17 -6 95.89 15.5
17 -11 6 74.89 24.7
-11 -6 6 66.99 22
-6 -11 -6 74.79 15
-11 17 -6 84.79 18.1
6 11 -6 97.19 17.9
-17 6 -6 66.29 15.1
17 -6 -6 72.49 15.3
6 -17 6 67.79 22.1
-17 12 -6 49.1 13.9
-5 17 -6 54.69 17
5 -17 -6 44.7 12.9
-17 5 6 59.19 15.6
-17 5 6 21.9 19.3
17 -5 6 32.5 22.1
17 -12 -6 53.29 14.8
12 -17 6 53.49 22.5
12 5 -6 43.3 14.7
17 -12 6 39.3 22.8
5 -17 6 30.7 19.8
12 -17 -6 49.1 13.3
-17 5 -6 54.09 14.7
-12 -5 6 36.8 12.6
17 -5 -6 45.9 14.9
-17 12 6 39.4 22.2
-12 17 -6 41.4 15.5
5 12 -6 62.99 15.9
-5 -12 -6 47.8 13.3
-12 -5 6 49.9 21.3
-5 17 6 43.4 17.6
-17 12 6 51.69 16.3
17 -12 6 53.19 22.4
17 -4 6 8.5 22.6
-4 17 -6 27.4 15.3
-13 17 6 28.3 14.8
-17 4 6 34.7 14.3
4 -17 -6 24.6 11.4
17 -13 -6 33 12.6
13 -17 6 22.1 20.9
-4 -13 6 1.9 33.4
-17 13 -6 42.2 14
13 4 -6 20 13.2
-17 4 6 29 20.6
-4 -13 -6 22.7 12.5
4 -17 6 21.4 18.1
-4 17 6 10.9 16.6
-13 17 -6 -4.1 13.3
17 -13 6 6.2 22.7
17 -4 -6 17.8 14.1
-13 -4 6 18.5 12.4
17 -13 6 12.1 20.2
13 -17 -6 24.9 12
-17 13 6 25.1 15
-13 -4 6 13.3 18.9
-17 4 -6 22.1 13.9
-17 13 6 22.4 21.8
4 13 -6 34.2 15.3
-13 17 -6 20.2 13.3
17 -14 -6 20.8 12.4
-14 17 6 -2.9 25.5
-17 3 6 26.1 12.6
-14 17 6 24.6 14.6
-3 17 -6 37.1 15.9
14 -17 6 30.6 22.9
14 3 -6 24.2 12.9
3 -17 -6 25.5 11.5
-17 14 -6 25 13.9
17 -3 6 27.4 23
-17 3 6 13.7 19.4
-17 3 -6 53.89 14.6
-17 14 6 24.1 21.7
-17 14 6 49.3 16.5
-14 -3 6 29.2 19.9
-3 -14 -6 54.89 13.4
-14 -3 6 47.2 13.3
3 -17 6 30.8 19.5
-3 17 6 42.6 16.9
14 -17 -6 28.5 12.4
17 -3 -6 49.6 17.3
-14 17 -6 42.6 15.9
3 14 -6 34.4 15.1
17 -14 6 29.7 21.2
15 -17 6 28.4 21.2
-17 15 -6 41 14.2
-15 17 6 50.29 15.5
-2 17 -6 55.59 15.4
17 -15 -6 46.8 13.6
2 -17 -6 63.89 13.5
-17 2 6 44.3 13.2
-17 2 6 34.6 19.5
2 15 6 20.3 14.6
15 2 -6 -3.4 14.1
17 -2 6 4.3 22.1
-15 17 6 -1.2 22.5
15 2 -6 32.7 11.9
17 -2 -6 62.09 18.3
-17 2 -6 42.4 13.8
2 15 -6 56.39 14.9
-15 -2 6 33.2 19.1
-2 -15 -6 55.89 14.1
-17 15 6 57.89 16.4
-17 15 6 15.9 22.1
15 -17 -6 58.59 13
-15 -2 6 44 12.7
17 -15 6 41.8 21.8
-2 17 6 30.2 16.1
2 -17 6 2.4 18.8
-15 17 -6 52.99 16.2
-1 17 -6 16.2 13.6
16 -17 6 -7 19.2
16 1 -6 29 15.5
17 -16 -6 29.7 12.8
-16 17 6 34.7 15.3
-17 16 -6 19.5 13.4
-17 1 6 1.3 18.2
1 16 6 20.6 15.7
-17 1 6 24.8 12.1
16 1 -6 -2.5 9.9
1 -17 -6 36.2 11.8
-17 16 6 -3.7 19.9
-17 1 -6 45.1 13.9
-1 -16 -6 35.5 12.6
16 -17 -6 51.59 13.4
17 -1 -6 44.7 17.6
17 -16 6 1.3 19.4
-16 -1 6 -0.9 18.2
-16 17 -6 44.3 15.4
1 16 -6 -4.9 18.8
-1 17 6 29.2 16.5
-16 -1 6 55.69 13.2
-17 16 6 32 15.7
-17 17 -6 13.6 13.2
0 17 -6 -3.2 11.7
17 0 -6 7.2 16.5
0 -17 -6 14.7 11.8
0 17 6 13.7 15.4
-17 0 -6 4.4 10.9
-17 0 6 15.6 11.6
-17 17 6 18.2 14.5
17 -17 -6 0.7 11.4
9 -18 6 12.8 19.1
-18 9 -6 4.1 13.7
18 -9 6 1.9 21.8
9 -18 -6 7.6 10.7
-9 18 6 16.5 16.6
18 -9 -6 -6.6 11.9
-9 18 -6 10.2 15.7
-9 -9 -6 0.3 4
9 9 -6 -2.4 13.3
-9 -9 -6 12.6 12.9
-18 9 6 7 12.8
-18 9 -6 19.1 13.6
-9 -9 6 -1.1 10.8
-18 10 -6 16.7 13.7
10 -18 6 17.3 20.2
-18 8 6 -2.8 12.2
-10 18 6 19.1 16.6
18 -10 -6 31.2 13.7
-18 10 -6 24.8 13.8
-8 18 -6 11.5 15.7
18 -8 6 12.9 22.9
8 -18 -6 10.3 10.6
10 8 -6 24.9 13.6
8 10 -6 21.4 13.9
-8 -10 -6 10.3 13.2
-10 18 -6 37.2 16.4
-18 10 6 11.8 13.8
18 -8 -6 5.2 12.5
-18 8 -6 32.4 14.8
8 -18 6 10.8 20.3
10 -18 -6 6.8 10.4
-8 18 6 13.3 16.8
-10 -8 6 25.6 12.4
-18 8 -6 14.2 12.4
18 -10 6 4.7 20.7
18 -11 -6 78.59 15.9
11 -18 6 61.89 21.6
-18 11 -6 69.69 15.6
-11 18 6 70.59 19
7 -18 -6 89.89 14.5
-18 7 6 67.79 15.1
-18 11 -6 111.69 17
11 7 -6 84.79 16.2
-7 18 -6 136.09 20.9
18 -7 6 72.39 25
11 -18 -6 60.49 13
18 -7 -6 100.69 17
-7 -11 -6 90.09 15.1
-18 11 6 93.49 17.2
18 -11 6 92.99 25.2
-11 -7 6 78.09 14.4
-11 18 -6 72.39 16.4
-7 18 6 54.49 17.3
-18 7 -6 100.09 17.2
18 -11 6 62.99 24.7
7 11 -6 112.29 17.1
7 -18 6 61.49 20.7
-12 18 6 10 15.3
6 -18 -6 20 11.5
18 -12 -6 16.2 12.4
-18 6 6 14.9 14.1
-18 12 -6 13.8 13
18 -6 6 4.1 19.5
-6 18 -6 24.3 16.4
12 -18 6 3.9 19
12 6 -6 11.7 13.5
12 -18 -6 14.1 11.4
-6 18 6 -2.1 15.6
-12 -6 6 -0.8 18.8
18 -12 6 5.5 21
-18 12 6 12.2 19.5
6 12 -6 24.3 14.1
-18 6 -6 14.4 13.4
-18 12 6 30.7 14.7
18 -12 6 5.1 20
6 -18 6 9.4 17.8
-12 18 -6 12.7 14.2
-6 -12 -6 23 12.7
-12 -6 6 23.6 13.3
18 -6 -6 25.9 14.2
13 5 -6 31.4 13.7
5 -18 -6 21.1 11
18 -13 -6 28.3 12.7
13 -18 6 13.7 19.9
-5 18 -6 29.6 15.1
-13 18 6 16 13.3
18 -5 6 6.2 20.6
-18 5 6 23 13.7
-18 13 -6 35.4 13.8
13 -18 -6 49.7 13.4
-13 -5 6 47.7 13.2
-13 18 -6 46.7 14.5
5 -18 6 10.8 16.4
-5 18 6 36.1 17
-18 13 6 43.6 15.6
-18 13 6 23.1 20.4
-18 5 -6 37.1 14
-5 -13 -6 54.09 13.7
18 -13 6 23 19.6
-13 -5 6 -2.4 19.4
18 -5 -6 35 14.2
5 13 -6 23.4 14
-4 18 -6 42.6 15.3
-14 18 6 49.9 15.1
18 -4 6 3.4 22
-18 4 6 -0.1 25.2
18 -14 -6 73.19 14.1
-18 4 6 57.19 15.1
14 -18 6 18.7 19.4
14 4 -6 40.9 12.9
4 -18 -6 43.3 11.8
-18 14 -6 84.99 15.8
-14 -4 6 65.99 14.5
18 -4 -6 69.49 15.4
-18 14 6 49.6 15.8
-4 18 6 51.79 17.5
14 -18 -6 89.69 14.7
18 -14 6 20.5 19.4
-4 -14 -6 72.39 14.8
-18 4 -6 54.49 14.9
-18 14 6 24.3 20.8
4 14 -6 58.19 15.1
-15 18 6 43.2 15.3
-18 15 -6 26.1 12.9
-18 3 6 36.4 13.7
15 3 -6 33.4 11.7
18 -15 -6 52.29 12.8
-3 18 -6 18.1 14.4
15 -18 6 -1.4 18.4
3 -18 -6 18.2 11.2
-15 -3 6 -0.8 25
-3 -15 -6 48.3 13
-18 15 6 58.39 16.4
-18 15 6 -0.5 20.6
18 -15 6 -6.2 17.3
-15 18 -6 31.9 12.9
-18 3 -6 48.4 13.7
-3 18 6 24.9 15.9
3 15 -6 36.2 14.1
-15 -3 6 46.9 13.5
18 -3 -6 33.3 14.2
15 -18 -6 43 12.1
2 -18 -6 20.9 10.5
-18 16 -6 21.4 12.9
-2 18 -6 10 13.1
2 16 6 -1 12.6
16 2 -6 4.8 9.2
18 -16 -6 19.3 11.8
16 2 -6 -5 13.5
-18 2 6 19.8 12.6
-16 18 6 5.2 13.9
-16 18 -6 3.9 11.8
-18 16 6 14 14.3
2 16 -6 3.8 12.3
18 -2 -6 6.9 13.7
-18 2 -6 14.5 12.4
16 -18 -6 10.9 11
-16 -2 6 20.5 12.1
-2 -16 -6 14.3 11.4
-2 18 6 -3.7 14.3
1 -18 -6 84.69 14.1
-18 1 6 108.59 15.9
-18 17 -6 77.79 15.6
17 1 -6 66.99 16.9
1 17 6 38.9 15.1
-1 18 -6 43.9 12.9
18 -17 -6 83.79 13.8
-17 18 6 66.59 15.7
-1 -17 -6 81.29 13.8
-18 1 -6 65.69 13.9
-17 -1 6 72.69 13.5
-1 18 6 51.89 16.5
18 -1 -6 58.29 14.7
-18 17 6 55.99 15.3
-17 18 -6 63.79 13.8
17 -18 -6 68.69 12.7
0 -18 -6 195.48 19.1
-18 18 6 197.78 21.5
18 -18 -6 174.78 18.4
-18 0 6 196.68 20.2
-18 18 -6 177.48 18.4
0 18 6 148.29 21.7
18 0 -6 189.18 21.6
10 -19 6 0.1 18.4
-19 10 -6 9.4 12.5
-9 19 -6 16.3 14.8
19 -10 -6 24.6 13.6
-10 19 6 24 17
-19 9 6 -1.2 11.4
10 9 -6 18.2 13
9 -19 -6 17.5 10.7
-19 10 -6 19.6 13.2
19 -9 6 4.9 20.1
-9 -10 6 -1.2 10.5
-10 19 -6 31.2 15.3
19 -9 -6 21.6 13.1
9 10 -6 33.7 13.5
-19 10 6 5 12.8
9 -19 6 0 18.8
-19 9 -6 18.2 13.6
-10 -9 6 12.4 11
-9 -10 -6 20.5 13.1
19 -10 6 -4.6 20.1
-9 19 6 11.4 15.9
-19 9 -6 19.7 12.6
10 -19 -6 18.5 10.5
19 -11 -6 21.7 12.9
-19 11 -6 21.7 13.5
11 8 -6 20.1 13.3
-11 -8 -6 0.4 4
-19 11 -6 17.7 12.9
11 -19 6 -9.9 18.4
-11 19 6 4.1 16.4
-19 8 6 6.7 11.7
-8 19 -6 20.6 14.8
19 -8 6 5.5 20.4
8 -19 -6 5.6 10.7
8 11 -6 34.1 13.4
19 -11 6 0.9 19
19 -11 6 0.8 21.9
-11 19 -6 20.3 14
19 -8 -6 14.5 13.1
-19 8 -6 0.6 11.2
-19 11 6 22.6 14.2
-8 19 6 10.6 15.6
-8 -11 -6 16.6 12.4
-11 -8 6 26.1 12.4
11 -19 -6 19.5 10.9
-19 8 -6 21.9 13.4
8 -19 6 9.4 17.5
19 -12 -6 78.89 14.6
-19 12 -6 49.99 13.5
-19 7 6 62.89 15
-12 19 6 50.29 17.3
7 -19 -6 65.59 13.2
-7 19 -6 46.3 15.9
12 7 -6 79.39 15.4
19 -7 6 3.7 27.5
-12 19 -6 54.49 14.9
-12 -7 6 58.09 13.5
-7 -12 -6 75.39 14.5
-19 7 -6 83.69 15.9
-7 19 6 30.5 16
12 -19 -6 55.99 12.6
-19 12 6 63.39 15.2
7 12 -6 59.29 14
7 -19 6 0.2 20.2
19 -12 6 -0.5 19.3
19 -7 -6 51.39 13.7
13 6 -6 53.59 13.7
-19 13 -6 87.49 15.3
19 -13 -6 86.89 14.6
6 -19 -6 89.39 14.1
-6 19 -6 116.39 18.7
-13 19 6 -6.7 17.2
-19 6 6 49.9 13.9
13 -19 6 -2.3 23.3
-13 -6 6 101.19 15.5
6 13 -6 87.99 15.2
-6 -13 -6 87.49 14.8
-19 13 6 68.59 16
-19 6 -6 71.79 14.7
13 -19 -6 114.39 15.7
-13 19 -6 59.49 14.8
-6 19 6 104.49 19.8
19 -6 -6 97.09 16
-5 19 -6 18 14.1
5 -19 -6 16.3 10.2
-19 5 6 7.9 12.4
-14 19 6 -3.2 12.1
14 5 -6 9.7 11.2
-19 14 -6 13.2 12.5
19 -14 -6 12.4 11.5
-5 -14 -6 0.6 3.3
-14 19 -6 4 11.7
-19 14 6 2.2 14.6
-19 5 -6 6.2 11.9
5 14 -6 17.8 13.1
14 -19 -6 12.3 11
19 -5 -6 -0.9 12.8
-5 -14 -6 3.4 11.6
-14 -5 6 14.3 11.5
-5 19 6 17 15
19 -15 -6 52.29 12.7
-4 19 -6 48.6 14.7
-19 4 6 40.7 13.5
-15 19 6 46.3 14.6
4 -19 -6 54.89 12.2
-19 15 -6 63.99 14.6
15 4 -6 37.4 11.9
-15 -4 6 79.39 14.1
19 -4 -6 84.89 16.4
15 -19 -6 80.79 14
4 15 -6 64.79 14.6
-19 4 -6 84.79 15
-4 19 6 86.99 18.3
-4 -15 -6 107.09 15.9
-19 15 6 125.99 19
-19 16 -6 13.9 12.2
-16 19 6 12.8 13.2
-3 19 -6 9.1 12.6
19 -16 -6 5.4 11.1
16 3 -6 1.5 9.3
3 -19 -6 -2.9 9.1
-19 3 6 15.7 12.5
-19 3 -6 6.3 11.6
-3 -16 -6 7.9 11.1
-16 19 -6 -0.7 11.1
19 -3 -6 1.9 12.7
16 -19 -6 12.2 11
-19 16 6 4 13.4
-16 -3 6 12.2 10.7
-3 19 6 11.9 14.4
3 16 -6 6.9 12
2 -19 -6 20.3 10.9
-2 19 -6 20.4 11.9
-19 2 6 31.8 12.3
-19 17 -6 28.8 10.7
-17 19 6 15.7 13.3
19 -17 -6 26.3 11.3
17 2 -6 -4.4 13.3
-17 19 -6 9.4 10.9
19 -2 -6 11.2 12.4
-17 -2 6 21.7 11.6
-2 -17 -6 25.6 11.1
17 -19 -6 29.1 11.5
-19 17 6 20.6 13.9
-19 2 -6 14.1 11.4
2 17 -6 -1.3 9.9
-2 19 6 6.6 13
19 -18 -6 50.29 11
-19 1 6 26.5 10.9
18 1 -6 12.3 11.2
-19 18 -6 20.8 10
-18 19 6 40.6 13.9
1 -19 -6 27.6 10.5
1 18 6 -7.4 10
-1 19 6 17.8 12.4
-19 18 6 32.1 13.5
18 -19 -6 33.2 10.7
-18 -1 6 30.2 11.6
-1 -18 -6 38.4 11.1
19 -1 -6 28.8 12.3
-19 1 -6 5.5 10.1
-18 19 -6 16.3 9.8
-19 19 -6 -1.2 9.7
19 0 -6 -6.3 10
19 -19 -6 5.9 9.2
0 19 6 -3.8 10
-19 0 6 6.6 9.7
0 -19 -6 2.7 8.8
-19 19 6 10.7 12.2
-20 10 -6 -1 11.8
-10 20 6 7.7 15.1
-10 20 -6 -0.2 12.8
-20 10 -6 -2.8 11.9
-20 10 6 4.2 11.2
20 -10 -6 4.7 12.2
10 -20 -6 3.4 9.8
10 10 -6 -3.7 11.3
-10 -10 -6 -0.3 3.4
-20 11 -6 14.9 11.3
11 9 -6 25.7 12.7
20 -11 -6 31.4 12.7
9 -20 -6 26.2 11.4
-11 20 6 19.8 15.5
-20 11 -6 39.1 13.4
-9 20 -6 34.4 14.4
20 -9 -6 30.9 13.5
-11 20 -6 22.2 13.2
-20 9 -6 7.6 10.5
-20 11 6 10.9 12.8
11 -20 -6 18.3 10.4
-11 -9 6 8.6 10.3
9 11 -6 30.1 12.1
-20 9 -6 20.5 12.7
-9 20 6 19.1 16.3
-20 12 -6 63.09 13.6
-8 20 -6 63.29 15.2
12 8 -6 72.19 13.7
20 -12 -6 72.89 13
-20 8 6 43.9 12.3
8 -20 -6 58.89 12.2
-12 20 6 58.79 15.8
-20 12 6 50.79 14.5
-8 -12 -6 63.79 13.7
-20 8 -6 70.59 14.9
-8 20 6 52.09 15.9
8 12 -6 92.19 14.9
20 -8 -6 74.09 14.9
12 -20 -6 59.69 12
-12 20 -6 45.8 13.9
-12 -8 6 50.49 12.6
-7 20 -6 27 13.9
20 -13 -6 18.9 10.6
7 -20 -6 13.3 10
-13 20 6 -2.7 12.5
13 7 -6 7.4 11.2
-20 13 -6 24.5 11
-20 7 6 19.6 12.3
20 -7 -6 8.2 11.8
7 13 -6 20.5 11.5
-13 20 -6 10 12.3
-7 20 6 13.9 14.7
-7 -13 -6 26.1 11.9
-20 13 6 5.5 13.6
13 -20 -6 21.9 10.4
-20 7 -6 15.1 11.9
-13 -7 6 14.9 11.5
-6 20 -6 101.39 16.5
6 -20 -6 68.59 12.1
14 6 -6 87.79 13.7
-20 14 -6 98.49 13.9
-20 6 6 60.69 13.4
14 -20 -6 49.8 11.5
-14 20 -6 44.1 12.5
-6 -14 -6 67.69 13.5
-20 14 6 85.89 15.6
-6 20 6 57.99 16.2
-14 -6 6 75.69 13.5
6 14 -6 56.09 12.9
20 -6 -6 57.19 13.3
-20 6 -6 47.3 12.6
-5 20 -6 63.69 14.4
20 -15 -6 88.49 13.1
-20 15 -6 92.69 13.3
15 5 -6 60.99 12.5
-20 5 6 38.8 12.5
5 -20 -6 46.6 11.3
-20 15 6 60.79 15.2
15 -20 -6 65.69 12.1
-5 -15 -6 82.69 13.2
20 -5 -6 70.39 14.6
-5 20 6 61.69 15.2
-20 5 -6 69.19 13.4
-15 -5 6 59.29 12.2
5 15 -6 79.69 14.2
-16 20 6 16.9 12.1
-20 4 6 13.4 10.9
16 4 -6 21.7 9.8
20 -16 -6 13 10.6
-20 16 -6 10.5 9.7
-4 20 -6 15.2 12
4 -20 -6 9.5 9.1
20 -4 -6 1 12.1
-20 16 6 7.7 13.4
-16 -4 6 12.2 11.5
-20 4 -6 11.5 11
4 16 -6 -1.4 10.8
16 -20 -6 5.2 10.2
-4 20 6 8 12.7
-4 -16 -6 6.4 10.5
-20 17 -6 12.1 9.4
20 -17 -6 13.2 10.1
-17 20 6 15 12.2
3 -20 -6 9.4 9.7
-20 3 6 17 10.5
-3 20 -6 10.1 11.1
17 -20 -6 28.8 10.3
-20 17 6 25.6 13.2
3 17 -6 15.1 10.6
-3 20 6 21.9 12.1
20 -3 -6 26 12.9
-17 20 -6 14.4 9.9
-20 3 -6 13.8 10.5
-3 -17 -6 15.5 10.4
-17 -3 6 27.2 11.3
2 -20 -6 33.8 9.6
-20 18 -6 32.1 9.8
-18 20 6 44.8 12.8
-20 2 6 33.3 10.5
20 -18 -6 38.3 10
-18 20 -6 16.9 9.1
18 -20 -6 28.6 9.9
-18 -2 6 40.6 11.4
-20 2 -6 35.1 10.3
-2 20 6 40.7 12.9
-2 -18 -6 49.5 10.8
-20 18 6 49.8 14
20 -2 -6 39.2 12.7
-20 19 -6 86.29 13
1 -20 -6 86.99 12
-19 20 6 107.49 15.8
-20 1 6 109.89 14.1
20 -19 -6 96.09 14.1
-1 -19 -6 79.89 11.4
20 -1 -6 57.89 11.5
-19 20 -6 98.89 13.3
-19 -1 6 93.39 12.8
19 -20 -6 106.39 12.7
-20 19 6 115.79 15
-1 20 6 60.19 11.5
-20 20 -6 24.9 9.3
20 -20 -6 34.3 10.9
-20 0 6 41.5 10.9
-20 20 6 32.8 12.2
0 -20 -6 32.9 9.9
-10 21 -6 16.1 12.4
-21 11 -6 14 10.9
10 -21 -6 20.2 9.6
-11 21 6 7.9 13.5
21 -11 -6 25.3 10.8
10 11 6 13.8 10.7
11 10 -6 13.5 11
-21 11 6 1.5 10.3
11 -21 -6 25.7 10.3
-11 21 -6 19.8 11.8
10 11 -6 19 10.9
21 -10 -6 32.9 11.9
-21 10 -6 6 9.6
-21 10 -6 12.3 11
11 10 6 5.3 9.8
-10 21 6 9.1 13.2
9 -21 -6 3.3 9.2
21 -12 -6 12.9 9.1
-9 21 -6 17.5 12.6
12 9 -6 14.7 10.7
-21 12 -6 13.2 10.5
-12 21 6 1.4 13
-21 12 6 10.3 12.1
12 -21 -6 8.3 9.2
-12 21 -6 14.4 11.5
-21 9 -6 0.7 10.6
-12 -9 6 -2.9 8.9
21 -9 -6 13.3 11.5
-9 21 6 9 13.6
9 12 -6 12.3 10.6
-8 21 -6 86.39 14.9
13 8 -6 46.3 11.2
-21 8 6 37.1 11.5
21 -13 -6 49.7 10.9
-21 13 -6 45.5 11.5
8 -21 -6 47.7 10.5
-21 13 6 44.6 13.2
21 -8 -6 73.79 14.2
8 13 -6 60.29 12
-13 21 -6 29.9 11.5
-13 -8 6 29.8 10.2
-8 21 6 68.49 15.6
-21 8 -6 64.39 13.4
13 -21 -6 36.5 10
21 -14 -6 23.6 10.5
-7 21 -6 17.7 12.1
14 7 -6 25.3 10.4
7 -21 -6 19.4 9
-21 14 -6 25.8 10.5
-21 7 6 15.8 11.1
14 -21 -6 10.7 8.8
-7 21 6 16.8 12.6
7 14 -6 14.9 10.7
-21 7 -6 20.5 11.2
-14 -7 6 7.6 9.6
21 -7 -6 18 11.2
-7 -14 -6 16.6 10.9
-14 21 -6 13.1 10.7
-21 14 6 16.3 12.5
-6 21 -6 16.2 12
15 6 -6 1.2 9.1
6 -21 -6 2.9 8.7
-21 15 -6 10 9
21 -15 -6 -4.7 9.2
-21 6 6 1.4 10.1
-6 -15 -6 5.9 9.9
-15 -6 6 9.5 11
6 15 -6 5.2 10.3
-21 6 -6 12.1 10.6
-15 21 -6 -0.8 9.9
15 -21 -6 -0.9 8.8
-6 21 6 8.5 12.8
21 -6 -6 -1 10.5
-21 15 6 -4.8 12.2
-21 16 -6 37 10
-21 5 6 31.4 11
21 -16 -6 41.6 11
5 -21 -6 18.5 9.4
-5 21 -6 28.3 11.3
16 5 -6 14.9 8.4
21 -5 -6 17.7 11.2
5 16 -6 27.8 10.7
-5 -16 -6 30.7 11.1
-21 5 -6 26.1 10.6
16 -21 -6 28.3 9.7
-5 21 6 20.3 12
-21 16 6 20.6 12.6
-16 -5 6 20.9 10.9
-21 17 -6 6.2 9
-21 4 6 0.6 9
4 -21 -6 5 9.1
-4 21 -6 2.6 9.9
21 -17 -6 10.3 9.2
21 -4 -6 -0.1 10.7
4 17 -6 3.6 8.5
-21 4 -6 18.6 10.7
-21 17 6 5.7 12.3
17 -21 -6 2.4 8.5
-4 -17 -6 0.1 10.6
-17 -4 6 10.8 11
-4 21 6 9.4 11.5
-21 18 -6 33.5 9.7
3 -21 -6 23 9.3
-18 21 6 -0.7 8.7
21 -18 -6 25 9.4
-21 3 6 32.1 10
-21 3 -6 24 9.3
-3 21 6 12.4 9.9
18 -21 -6 29.4 9.3
-18 -3 6 25.9 9.9
-3 -18 -6 18.3 9.7
21 -3 -6 18.6 10.9
-21 18 6 25.7 12.6
-21 2 6 49.3 11.5
2 -21 -6 45.2 10.6
2 19 6 33.2 10.9
-21 19 -6 30.1 10.3
-19 21 6 17.2 9.1
21 -19 -6 21.2 9.7
-2 -19 -6 26.3 10.2
-21 19 6 24.8 12.6
-2 21 6 0.6 8.4
-19 -2 6 16.6 9.8
19 -21 -6 24.4 9.5
21 -2 -6 -6.5 9.9
-11 22 -6 9.4 11.2
-11 22 6 8.1 11.9
22 -11 -6 11.7 9.3
11 11 6 7.5 8.3
11 -22 -6 17 9
11 11 -6 12.1 9.1
12 10 -6 23.4 8.7
22 -12 -6 20 9.5
-22 12 -6 12.9 9.1
-12 22 6 4.6 11.9
-10 22 -6 16 11.4
10 -22 -6 9.4 8.8
10 12 6 11 9.1
-12 22 -6 13.4 10.5
-10 22 6 16.7 12.1
22 -10 -6 11.4 10
12 -22 -6 13.3 9
10 12 -6 6.3 8.9
22 -13 -6 39.6 10.6
9 13 6 15.4 9.2
9 -22 -6 31.1 9
-9 22 -6 22.8 11.3
13 9 -6 30.5 9.1
-22 13 -6 33 10.1
-22 13 6 32.1 10.7
22 -9 -6 32.9 10.9
9 13 -6 22.5 9.4
-13 22 -6 20 10.4
-22 9 -6 34.9 11.1
13 -22 -6 31 10
-9 22 6 19.8 12.4
22 -14 -6 2.6 8.9
8 -22 -6 5.5 8.7
-22 14 -6 5.7 9.2
14 8 -6 5.3 8.2
8 14 6 7.2 9.1
-8 22 -6 18.2 11
-22 8 6 -1.3 9.2
-22 14 6 8.2 11
14 -22 -6 -1 8.3
-14 22 -6 7.3 9.4
22 -8 -6 5.9 11
-22 8 -6 8.9 9.5
8 14 -6 1.8 8.8
-8 22 6 -0.3 11.4
7 15 6 73.09 11.1
15 7 -6 57.19 10
-7 22 -6 67.89 12.2
22 -15 -6 77.19 11.3
7 -22 -6 82.79 11.2
-22 15 -6 56.99 11
-22 7 6 48.9 9.5
-7 22 6 75.79 13.7
-22 7 -6 82.79 12.3
7 15 -6 65.79 11.2
-22 15 6 79.29 13.8
22 -7 -6 94.09 14.1
15 -22 -6 67.59 10.9
6 16 6 33.1 9.7
-22 6 6 24.8 8.8
-6 22 -6 27.5 10.8
22 -16 -6 40.4 10.2
6 -22 -6 31 9.1
-22 16 -6 38 10.5
16 -22 -6 20.2 8.8
22 -6 -6 42.6 11.3
-6 22 6 31 11.9
-22 16 6 27 12.2
6 16 -6 30.6 10
-22 6 -6 27.4 10.5
-16 -6 6 12.9 9
-22 17 -6 3.2 8.3
-5 22 -6 15.8 9.9
5 17 6 -1.2 9.3
22 -17 -6 -1.3 9.8
-22 5 6 7.2 8.9
5 -22 -6 2 8.7
17 -22 -6 2 8.5
-17 -5 6 -5.1 8.9
5 17 -6 3.5 7.3
-22 5 -6 8.1 10.2
22 -5 -6 -3.9 10.3
-22 17 6 -1.4 11.7
-5 22 6 2.4 10.8
4 -22 -6 13.1 9.9
22 -18 -6 11.3 9.9
4 18 6 8.4 10.2
-22 18 -6 14.7 10
-22 4 6 12.9 9.3
-4 22 6 -5.8 10.2
-4 -18 -6 7.5 10.8
-22 18 6 1 12.7
22 -4 -6 7.1 9.1
18 -22 -6 8.7 9.1
-18 -4 6 0.8 9.9
23 -12 -6 11.5 9.4
11 -23 -6 12.1 8.3
-12 23 6 2 10.1
12 11 -6 11.9 8.1
-11 23 -6 1.2 10.4
11 12 -6 18.2 8.8
23 -11 -6 24 9.9
12 -23 -6 11.4 8.1
-12 23 -6 1.4 10
-11 23 6 9.2 12.6
10 13 6 2.4 7.1
10 -23 -6 12.9 8.6
-10 23 -6 25.9 11
23 -13 -6 18.3 9.7
13 10 -6 10.7 8.5
23 -10 -6 21.2 10.3
-10 23 6 9.7 11.8
13 -23 -6 13.3 8
10 13 -6 7.4 8.1
-13 23 -6 11.8 10.5
-23 14 -6 7.3 8.4
23 -14 -6 8 9.6
-9 23 -6 12.1 10.7
9 14 6 7.2 8.3
9 -23 -6 1.4 8.7
14 9 -6 15 8
9 14 -6 2.5 8.4
-14 23 -6 -1.9 7.4
-9 23 6 2.2 11.5
14 -23 -6 7.7 8.7
23 -9 -6 8.4 10.2
-23 15 -6 1.7 9
15 8 -6 5.3 6.6
23 -15 -6 14.5 9.9
-8 23 -6 11.5 11.3
8 15 6 5.3 9.1
8 -23 -6 3.7 8.6
-23 15 6 -1.3 8.5
-8 23 6 -1 12.1
23 -8 -6 2.9 10.9
8 15 -6 2.6 9.2
15 -23 -6 9.2 8.5
7 16 6 -0.3 9.7
23 -16 -6 6.7 10
-23 16 -6 10.1 10.5
-7 23 -6 4 10.5
7 -23 -6 2.5 9.4
16 -23 -6 5.3 9
-7 23 6 -2.7 12
23 -7 -6 1.9 11.5
7 16 -6 5 9.2
-23 16 6 -1.3 10.9
0 0 7 -0.9 10.1
0 0 7 -7.8 27.7
0 0 7 -6.2 12.5
1 -1 7 50.79 14.5
-1 0 7 45.2 14.1
0 -1 7 51.09 14.9
1 0 7 43.1 14.6
0 1 7 60.79 16.6
-1 0 7 39.5 27.5
1 -1 7 44.1 25.3
0 -1 7 47.8 15.4
0 1 7 42.3 27
-1 0 7 51.79 15.7
-1 1 7 58.49 28.2
0 -1 7 44.7 29
-1 1 7 45.4 13.8
1 0 7 51.39 26.6
1 1 7 1 12.6
2 -1 7 0.3 12.2
-1 2 7 -2.6 23.9
1 -2 7 1.3 12.8
-2 1 7 1 9.1
-1 -1 7 5.8 29.8
1 -2 7 7.5 24.3
-2 1 7 -2.3 14.1
-1 -1 7 -8.6 12.8
-1 2 7 -5.4 13.7
-2 1 7 -23.9 27.4
-1 -1 7 -0.4 13.5
-1 2 7 -3.3 13.6
1 1 7 3.2 23.5
2 -1 7 -9.7 22.9
-2 2 7 -5.4 16.5
2 0 7 1.1 9.3
0 2 7 -0.4 13.5
-2 2 7 -4.8 22.2
-2 0 7 -6.8 25.7
-2 2 7 10.9 13.7
-2 0 7 8.4 13.1
0 -2 7 2.1 29.1
0 -2 7 -0.8 14
0 -2 7 0.2 12.5
0 2 7 -3.3 13.6
2 0 7 13.8 25.3
0 2 7 -17.2 25.1
2 -2 7 -10.2 21.9
2 -2 7 10.9 12.8
-2 0 7 -5.1 11.9
-3 1 7 143.99 18.5
-1 -2 7 133.69 33.5
2 -3 7 149.99 33.1
-3 1 7 144.59 22.3
1 2 7 138.29 22.5
-2 3 7 164.68 34.7
-1 -2 7 158.38 22.2
2 -3 7 150.88 20.1
-1 -2 7 143.69 21.8
3 -1 7 154.68 29.6
3 -1 7 150.38 21.5
-2 3 7 151.98 22.6
-3 1 7 154.98 35.3
1 2 7 128.89 27.9
1 -3 7 119.09 33.2
1 -3 7 157.78 21.6
3 -2 7 135.39 21.6
2 1 7 155.68 31.4
-1 3 7 147.79 33
-1 3 7 159.18 22.5
3 -2 7 84.69 26.8
-2 -1 7 142.89 21.2
-3 2 7 179.28 38.3
-2 -1 7 114.99 33.2
-3 2 7 124.69 21.8
-2 -1 7 141.99 21.7
3 -3 7 -26.6 22.3
3 0 7 15.9 23.4
0 3 7 0.3 21.8
-3 3 7 9.5 14.4
3 0 7 7.8 11.6
0 3 7 -8.8 15.8
0 3 7 2.5 13.3
-3 3 7 -3.9 19.9
3 -3 7 8.5 11.9
-3 3 7 -0.5 23.9
-3 0 7 15.6 13.1
-3 0 7 -13.2 28
0 -3 7 -15.1 25.7
0 -3 7 1.5 13
-3 0 7 -2.8 13.3
-2 -2 7 33.5 30.5
2 2 7 37.8 24.7
-4 2 7 52.49 17
-2 -2 7 48.7 14.6
2 2 7 64.19 16.5
-2 -2 7 50.89 15.4
-2 4 7 6.5 21.3
-4 2 7 30.9 29.2
-2 4 7 35.8 28.6
2 -4 7 14.2 26.4
2 -4 7 59.29 16.1
-4 2 7 0.5 33.4
4 -2 7 42.2 15.4
-2 4 7 56.99 16.3
-4 1 7 34.2 30.7
-1 -3 7 50.29 30.8
-1 -3 7 101.39 18.6
1 3 7 64.09 15.6
-3 4 7 55.69 29.8
3 -4 7 92.49 17.5
4 -1 7 -2.2 22
-4 1 7 55.29 14
4 -1 7 63.89 16.4
-4 1 7 75.59 16.6
-3 4 7 93.69 17.9
-1 -3 7 57.89 14.7
1 3 7 71.69 26.9
-4 3 7 77.49 17
-3 -1 7 48.5 14.8
4 -3 7 73.49 17.8
3 1 7 55.39 24.5
1 -4 7 79.99 16.5
-3 -1 7 66.69 15.7
-4 3 7 0.4 21.5
-3 -1 7 48 31.4
-1 4 7 30.4 23.7
1 -4 7 26.9 29.9
-1 4 7 60.59 15.6
-4 3 7 42.2 30.2
0 -4 7 7.3 28.9
-4 4 7 0.3 24.5
-4 4 7 17.3 15.3
-4 4 7 -10.9 22.1
0 4 7 13.5 13.8
4 0 7 -11.2 21.4
4 -4 7 20.9 12.8
0 4 7 4.7 26.3
-4 0 7 5.7 29.6
-4 0 7 24.4 14.7
-4 0 7 30 14
0 -4 7 21.9 14.2
0 4 7 -14.8 19.1
4 0 7 1.8 12.1
-5 2 7 231.88 24.9
-5 2 7 159.48 38
5 -2 7 191.98 24.3
-3 5 7 188.38 24.6
-3 5 7 155.98 33.3
3 -5 7 204.18 24.5
-2 -3 7 161.18 38.1
-2 -3 7 208.38 23.7
-5 2 7 184.98 21.9
2 3 7 204.38 23.9
2 3 7 155.98 30.3
-2 5 7 206.08 23.7
3 2 7 207.78 24.6
-2 5 7 157.98 32.3
-3 -2 7 188.38 43
5 -3 7 228.48 24.9
-5 3 7 242.08 23.7
-3 -2 7 165.78 21.3
3 2 7 165.88 32.8
-3 -2 7 222.08 24
-5 3 7 198.08 41.1
2 -5 7 219.28 24.2
-4 5 7 4.3 26.4
5 -1 7 37 15.3
-4 5 7 28.9 13.8
-1 -4 7 -1.3 10.8
-1 -4 7 53.09 16.6
1 4 7 32.1 23.2
4 -5 7 25 12.8
-5 1 7 -8.4 29.9
-5 1 7 32.3 13.8
1 4 7 30 14.7
-4 5 7 -4.2 22
-5 1 7 34.7 14.7
-1 -4 7 22.3 34.2
-4 -1 7 30.8 13.7
5 -4 7 27.6 13.2
-5 4 7 9.4 29.3
1 -5 7 40.7 15.7
-5 4 7 38 15.8
1 -5 7 -2.3 30.9
-1 5 7 -11.3 19.8
-5 4 7 -3.8 24.3
4 1 7 -8.1 24.9
-4 -1 7 18.5 12.7
-4 -1 7 -19.2 32.9
-1 5 7 38.9 28.9
-1 5 7 27.6 14.3
0 -5 7 235.88 25.7
-5 5 7 233.78 25.2
5 -5 7 220.88 25.1
0 5 7 250.67 24.3
0 5 7 167.38 32.4
-5 0 7 239.78 24.2
-5 0 7 228.68 24.1
5 0 7 197.08 23.2
-5 0 7 184.18 40.6
-3 -3 7 94.69 16.3
3 3 7 116.09 18.1
6 -3 7 87.79 17
-6 3 7 84.69 16.5
-3 6 7 103.69 18
-3 -3 7 34.8 33.5
-3 6 7 57.19 27.2
3 -6 7 122.49 19.3
-6 3 7 40.4 31.6
-6 2 7 279.57 25.4
-2 -4 7 288.17 26.9
2 4 7 245.28 25.4
-4 6 7 226.98 23.5
4 -6 7 269.57 26
6 -2 7 260.87 26.6
-6 2 7 267.87 25.6
2 4 7 161.08 33.2
-6 4 7 313.67 27
6 -4 7 243.08 26.4
-2 6 7 219.58 39.3
-2 6 7 265.77 25.9
2 -6 7 292.67 27
-4 -2 7 257.87 25.4
-6 1 7 229.58 25.5
1 5 7 226.08 24.4
-5 6 7 211.68 24.9
-6 1 7 254.87 25.3
6 -1 7 243.18 27
-1 -5 7 247.98 25.9
5 -6 7 235.78 23.7
-1 6 7 126.89 31.8
-5 -1 7 95.19 16.4
-5 -1 7 84.89 36.3
-6 5 7 12.8 29
6 -6 7 17.6 15
0 6 7 1.2 24.4
-6 0 7 14.5 13.8
-6 6 7 17.4 13.8
0 6 7 -2.6 13.2
6 0 7 -2.8 13.6
0 -6 7 14.3 15
-6 0 7 -24.2 31.8
-6 0 7 14.9 12.5
6 -6 7 0.3 9.6
-6 6 7 -16.2 28.6
7 -3 7 135.19 22.9
-7 3 7 139.79 20.6
-3 -4 7 -2.5 33.7
3 4 7 82.29 15.8
-3 7 7 151.18 22.2
4 3 7 133.19 19.2
7 -4 7 140.39 23.1
3 -7 7 149.19 22.1
-4 -3 7 157.58 20.6
-7 4 7 137.29 23.4
7 -5 7 354.86 31.4
-2 7 7 387.06 30.2
2 -7 7 400.86 31.6
-7 5 7 401.36 31.7
-5 -2 7 366.56 30.7
6 -7 7 18.8 12.1
6 -7 7 52.19 16.5
1 6 7 9.1 11.9
-6 7 7 44.8 16.5
-7 1 7 31.8 14.1
-7 1 7 36.7 15.1
-1 -6 7 58.39 17.2
-1 7 7 -7.3 42.7
-6 -1 7 -2.1 61.79
7 -6 7 28 12.7
-6 -1 7 64.09 16.8
1 -7 7 72.09 17.9
7 -6 7 64.19 17.4
-1 7 7 45.2 15
-7 6 7 65.69 17.7
6 1 7 2.4 13
-7 0 7 149.59 21.8
0 -7 7 160.58 23.2
7 -7 7 184.58 24.6
-7 7 7 168.18 22.7
7 -7 7 99.59 17.5
-8 4 7 43.8 15.2
-4 8 7 65.49 16.4
-8 4 7 83.59 18.5
4 -8 7 92.49 18.4
-4 -4 7 89.69 18.3
8 -4 7 82.79 19.4
-8 3 7 63.49 17.3
5 -8 7 44.8 13.7
-5 8 7 81.69 18.3
-3 -5 7 92.39 17.5
5 -8 7 76.89 18
-8 3 7 58.79 17
-8 5 7 101.39 19.6
-5 -3 7 82.89 18
3 -8 7 98.79 18.5
8 -5 7 44 14.6
8 -5 7 72.29 17.5
-3 8 7 50.29 15.4
-6 8 7 148.49 21.1
-2 -6 7 134.39 22.8
6 -8 7 150.08 22.9
-8 2 7 147.89 21.8
-8 2 7 131.99 22.2
6 -8 7 129.29 20
-2 8 7 106.59 18
-6 -2 7 138.09 20.9
-8 6 7 188.38 24.2
2 -8 7 172.08 23.8
8 -6 7 132.09 20
8 -6 7 186.18 25
-8 1 7 24.8 13.4
7 -8 7 23.2 13.8
7 -8 7 18.5 13.1
8 -1 7 2.1 14.7
-7 8 7 23.7 15.8
-8 1 7 7.8 14.6
-1 -7 7 30.9 16
-8 7 7 17.1 16.7
1 -8 7 10.8 14.9
-1 8 7 -3.1 11.4
-7 -1 7 12.2 14.4
8 -7 7 23 15.6
1 -8 7 0 11.9
8 -7 7 17.7 13.3
0 -8 7 0.1 10.8
0 -8 7 5.4 14.1
8 0 7 2.8 15.6
8 -8 7 4.3 14.5
-8 8 7 9.7 16.8
-8 0 7 11.5 15.3
8 -8 7 8.6 14.1
-9 4 7 157.28 22.5
-4 -5 7 127.59 22.9
5 -9 7 133.29 21.4
5 -9 7 154.38 23.7
-5 9 7 140.69 23.8
9 -4 7 145.79 23.9
-9 4 7 133.69 23.4
9 -5 7 128.79 21.5
-5 -4 7 130.19 23.5
-4 9 7 112.59 19.2
4 -9 7 125.39 20.8
-9 5 7 106.39 19.6
9 -5 7 110.99 19.5
4 -9 7 133.19 22.9
-9 3 7 95.09 18.7
6 -9 7 88.79 17.1
9 -3 7 95.49 19.7
-3 -6 7 132.09 21.1
-6 9 7 122.49 20.9
6 -9 7 135.99 21
-9 3 7 87.19 19.1
3 -9 7 142.09 22.1
9 -6 7 100.49 18.9
3 -9 7 95.29 17.1
-9 6 7 133.39 21.9
-3 9 7 98.29 18.4
9 -6 7 162.78 24.5
-6 -3 7 156.48 22
-7 9 7 70.29 18
-9 2 7 110.99 21
-9 2 7 85.09 17.8
7 -9 7 67.39 15.8
7 -9 7 104.29 19.8
-2 -7 7 108.89 19.8
9 -2 7 55.89 18.2
2 -9 7 62.09 16.1
9 -7 7 88.89 18.8
9 -7 7 148.29 24
-9 7 7 97.69 20.4
-7 -2 7 115.29 20.9
2 -9 7 104.49 20.1
9 -1 7 49.3 19
8 -9 7 59.69 18.8
-8 9 7 98.39 21.6
-9 1 7 62.39 18.7
8 -9 7 63.59 17.3
-1 -8 7 80.79 18.9
9 -8 7 89.79 20.6
1 -9 7 59.69 17.7
-9 8 7 85.09 21.1
9 -8 7 67.49 18.1
1 -9 7 48.8 16
-8 -1 7 61.99 17.9
0 -9 7 63.99 18.1
9 -9 7 51.49 17.1
-9 9 7 62.39 20.9
9 0 7 17.3 18.5
-9 0 7 60.19 19.2
9 -9 7 55.69 18.5
0 -9 7 16.7 14
-10 5 7 237.18 26.9
5 -10 7 292.87 28.4
-10 5 7 339.67 32.4
-5 -5 7 333.87 30.1
5 -10 7 327.47 29.7
10 -5 7 323.77 31.3
-5 10 7 326.37 30.2
-10 4 7 12.6 16.3
-4 -6 7 13 14.4
10 -4 7 4.8 16.6
6 -10 7 15.5 14
-6 10 7 23.3 16.8
6 -10 7 6.1 15
-10 4 7 6.1 14.8
-6 -4 7 14.5 15.2
4 -10 7 4.5 15.9
4 -10 7 13.6 14.1
10 -6 7 3.2 16.2
-10 6 7 3.7 16.8
-4 10 7 9.9 14.8
10 -6 7 1.8 15.8
7 -10 7 109.39 19.3
-10 3 7 165.48 26.2
7 -10 7 150.28 24.2
-7 10 7 170.08 26.6
10 -3 7 125.29 21.5
-3 -7 7 145.89 23.4
-10 3 7 154.48 25.4
3 -10 7 142.09 23.1
3 -10 7 114.39 19.1
-10 7 7 83.09 21
10 -7 7 104.89 20.9
10 -7 7 121.79 22.1
-7 -3 7 172.38 24.6
8 -10 7 131.39 20.9
8 -10 7 149.59 23.1
10 -2 7 79.69 21
-10 2 7 92.69 19.7
-8 10 7 158.18 25.3
-2 -8 7 134.99 22
-10 8 7 121.69 23.1
2 -10 7 94.19 18.9
10 -8 7 109.79 21.7
10 -8 7 119.29 20.7
2 -10 7 104.29 20.7
-8 -2 7 169.68 25.1
9 -10 7 41 17.4
-1 -9 7 8.2 14.8
10 -1 7 30.7 19.8
9 -10 7 39.6 17
-1 -9 7 49.3 17.2
-9 10 7 48.5 19.5
-10 1 7 64.39 18.6
1 -10 7 34.1 15.9
1 -10 7 35.2 16.8
10 -9 7 42.8 18.9
-10 9 7 46.3 20.3
10 -9 7 20.6 16
-9 -1 7 51.39 18.5
-10 10 7 178.68 27.9
-10 0 7 144.49 25.4
10 -10 7 91.39 19.4
10 0 7 108.59 23.6
0 -10 7 91.99 18.6
0 -10 7 113.09 20.9
10 -10 7 146.59 24.9
-11 5 7 279.07 32.1
11 -5 7 276.27 31.1
-6 11 7 277.77 32.1
-11 5 7 257.27 29.6
6 -11 7 265.07 29.3
6 -11 7 281.87 29.2
-5 -6 7 290.57 29.5
-6 -5 7 288.47 29.4
-5 11 7 270.37 30.8
5 -11 7 265.17 29.4
-11 6 7 298.37 33.3
11 -6 7 286.07 31.7
5 -11 7 258.87 28.2
11 -4 7 208.78 30.7
-4 -7 7 245.28 28.7
7 -11 7 236.18 28.8
-11 4 7 194.78 30.3
-7 11 7 266.57 31.3
7 -11 7 199.98 27.1
-11 4 7 222.28 28.1
4 -11 7 189.28 25.2
-7 -4 7 214.28 26.6
11 -7 7 199.78 30.1
-11 7 7 202.98 30.4
4 -11 7 199.18 28
11 -7 7 207.98 30.5
11 -3 7 47.3 20
-8 11 7 67.49 21.5
-11 3 7 58.09 18.7
8 -11 7 40.6 17.4
-11 3 7 39.4 17.8
-3 -8 7 36.3 16.5
8 -11 7 61.19 18.8
3 -11 7 26.2 17.5
-8 -3 7 50.19 19
3 -11 7 40.2 16.2
-11 8 7 30.5 19.2
11 -8 7 53.49 19.9
11 -8 7 37.4 19.2
-9 11 7 264.67 33.9
9 -11 7 238.98 29.2
-11 2 7 257.17 29.6
9 -11 7 242.58 30.1
-2 -9 7 244.08 28.7
11 -2 7 225.38 32.7
-9 -2 7 269.87 30.5
-11 9 7 292.77 34.8
2 -11 7 269.07 30.3
11 -9 7 293.27 33.4
11 -9 7 256.97 31.4
2 -11 7 243.98 28.5
-1 -10 7 29.2 16.7
10 -11 7 23.5 15.9
10 -11 7 22.1 18.2
-11 1 7 39.7 17.6
11 -1 7 32.4 20.6
-1 -10 7 14.6 15.7
-10 11 7 23 19.4
1 -11 7 24 16.8
1 -11 7 14.5 16.2
11 -10 7 7.2 17.4
11 -10 7 10.2 16.4
-10 -1 7 18.1 17.6
10 1 7 -0.2 19.8
-11 10 7 9.7 20.4
0 -11 7 96.19 21.4
11 -11 7 73.59 22.5
-11 0 7 102.69 22
-11 11 7 100.29 24.7
0 -11 7 59.69 18.2
11 0 7 53.89 22.6
11 -11 7 66.89 19.4
-6 12 7 50.69 19.7
6 -12 7 70.89 20
-12 6 7 63.79 20.7
12 -6 7 47.3 19.9
6 -12 7 49.2 17.2
-6 -6 7 89.69 21.2
12 -5 7 185.58 30.1
-7 12 7 180.68 30.4
-12 5 7 145.29 23.7
-12 5 7 174.58 29.4
-5 -7 7 184.28 26.6
7 -12 7 172.78 26.9
7 -12 7 186.98 27.8
12 -7 7 191.78 30.4
12 -7 7 166.58 30.4
-7 -5 7 171.48 27.3
5 -12 7 159.58 26.2
-12 7 7 183.28 30.7
5 -12 7 198.38 29.5
8 -12 7 41.4 17.1
-8 12 7 46.8 20.7
-12 4 7 39.2 18.5
-4 -8 7 61.49 18.7
8 -12 7 44.9 19
12 -4 7 46.9 20.7
-12 4 7 49.7 18.8
12 -8 7 114.19 25.6
12 -8 7 71.09 21.8
4 -12 7 62.69 20.1
4 -12 7 77.89 19.6
-8 -4 7 56.29 18.5
-12 8 7 83.39 22.7
9 -12 7 472.95 39.4
-3 -9 7 489.95 39.4
-9 12 7 449.26 41
9 -12 7 454.35 37.9
-12 3 7 488.75 39.8
3 -12 7 391.66 35.2
-12 9 7 445.96 40.6
12 -9 7 477.45 41.7
-9 -3 7 448.26 37.5
12 -9 7 431.86 37.9
3 -12 7 394.46 36
12 -2 7 59.29 22.1
-10 12 7 92.29 23.7
10 -12 7 89.59 21.6
-12 2 7 103.79 22.7
-2 -10 7 28.1 17.5
-2 -10 7 95.29 21.6
10 -12 7 60.19 19.5
-10 -2 7 35.4 11.5
-12 10 7 45.8 14
12 -10 7 108.39 24.9
12 -10 7 97.09 22.7
-10 -2 7 93.79 20.3
-12 10 7 81.99 22.4
2 -12 7 65.19 19
2 -12 7 63.39 18.2
-1 -11 7 65.59 19.2
-11 12 7 70.99 14.3
1 -12 -7 39.8 10.2
-12 1 7 79.09 19.7
-11 12 7 52.89 21
12 -1 7 94.89 24.4
11 -12 7 101.49 23.2
-1 -11 7 92.59 20.9
-12 11 -7 47.7 13.6
12 -11 -7 9.2 9.9
-12 1 7 28.9 11.1
-11 -1 7 68.79 19.3
-12 11 7 72.59 15.7
11 1 7 65.79 24.1
12 -11 7 105.79 25
-12 11 7 121.99 26.6
12 -11 7 79.19 20.8
-1 -11 -7 52.29 11.2
1 -12 7 73.19 19.9
-11 -1 7 73.29 13.8
1 -12 7 83.59 19.6
-12 12 7 116.69 17.8
0 -12 7 114.99 22.3
12 0 7 99.39 26
0 -12 7 69.09 20
0 -12 -7 98.89 14.4
-12 12 7 186.68 29.8
-12 12 -7 134.59 18
12 -12 7 107.39 22
12 -12 -7 135.69 15.7
-12 0 7 130.89 22.8
12 -12 7 132.39 26
-12 0 7 122.99 17.3
0 -12 -7 144.39 15.7
-7 13 7 10.2 18.2
13 -6 7 0.1 19.1
7 6 -7 3.2 11.5
-6 -7 7 0.8 16.7
-13 7 -7 -1.4 12.7
-7 -6 -7 -0.6 3
6 -13 -7 -2.2 9.1
7 -13 7 13.7 18.1
-13 6 7 6.3 18.1
-6 13 -7 4 14
-13 6 7 2.3 15.6
7 -13 7 0.1 16.4
-7 -6 7 0.6 10.5
-13 6 -7 3.3 11.8
6 7 -7 -7.4 10.7
-7 13 -7 4.8 13.9
6 -13 7 9.4 15.4
-13 7 7 7.3 19.1
13 -7 7 3.7 18.3
-7 -6 7 8.7 17.9
-6 -7 -7 -0.5 2.7
6 -13 7 5.9 18.4
-6 13 7 -3.2 18.1
7 -13 -7 2.3 10.3
8 -13 7 149.59 24.4
8 -13 7 85.09 20.7
-5 13 -7 80.39 16.7
8 5 -7 68.59 13.9
-13 5 7 121.69 23.1
-5 -8 7 144.99 24.3
-8 13 7 122.69 23.8
-13 5 7 66.89 20.2
13 -5 7 139.89 25.1
-13 8 -7 80.79 15
13 -8 7 171.78 29.9
5 -13 7 130.49 22.4
5 -13 7 83.19 21.3
-8 -5 7 163.08 26
-13 8 7 92.89 23.9
13 -8 7 127.09 24.3
-4 13 -7 40.8 14.8
-13 4 7 73.59 21.8
9 -13 7 39.6 19.2
13 -4 7 47.5 23
-4 -9 7 51.89 19.6
9 4 -7 44.2 13
-13 4 7 -1.8 19.5
-4 -9 7 3 22.7
9 -13 7 50.19 19.2
-13 9 -7 55.39 14.5
-9 13 7 34.7 19.8
-13 9 -7 47.5 13.9
9 -13 -7 25.7 10.7
-9 -4 7 28.1 11.8
-4 -9 -7 11.9 8.8
-13 9 7 11.5 11.9
-13 9 7 46.5 20.9
4 -13 7 19.4 17.7
-9 13 -7 -4.4 19.5
-13 4 -7 1.5 15.1
-9 -4 7 42.5 18.2
13 -9 7 40.1 19.4
13 -9 7 48.2 21.4
4 -13 7 51.19 19
-10 -3 -7 1.3 4.5
-13 3 7 3.6 18.4
10 -13 7 9.1 17.5
10 3 -7 13.2 11.8
3 -13 -7 4.1 10.6
-3 -10 7 10.5 17.3
13 -10 -7 2.1 10.4
-3 13 -7 8.3 14.2
-10 13 7 25.4 20.6
13 -3 7 24.7 21.3
3 -13 -7 1.1 8.9
10 -13 7 6 19.6
-13 10 -7 12.1 12.9
-3 -10 7 -0.1 15.3
-10 -3 7 6.2 10.9
10 -13 -7 19.7 11.8
-13 10 7 24.3 20.3
-13 10 7 13.7 13.4
13 -10 7 12.6 18.4
-3 -10 -7 -0.1 11.2
-3 -10 -7 10.6 9.8
13 -10 7 13.8 19.3
3 -13 7 5.9 15.9
3 -13 7 16 17.2
-10 -3 7 11.5 16.7
-13 2 7 63.69 21.4
11 2 -7 33.3 12.8
11 -13 7 55.19 20.3
-11 13 7 61.69 23.3
2 -13 -7 38.6 12.3
-13 2 7 39.2 12.7
-11 13 7 45.6 14.8
-2 -11 7 28.5 17.7
-2 -11 7 33.9 18.8
11 -13 7 38.6 20.3
-2 13 -7 7.9 13.3
-13 11 -7 37.1 14.1
2 -13 -7 39.1 11.4
13 -11 -7 44.3 12.4
13 -2 7 55.09 23.2
-13 11 7 31.6 14.9
-11 -2 7 50.09 19
-2 -11 -7 23.2 10.8
-13 11 7 47 22.7
13 -11 7 58.89 22.9
13 -11 7 43.2 20.2
2 -13 7 24.9 18
11 -13 -7 43.7 12.9
-2 -11 -7 19 10.5
-11 -2 7 48.2 13.6
2 -13 7 -1.5 15.7
13 -12 -7 16.9 11.9
13 -1 7 -1.7 21.8
1 -13 -7 16.9 11
1 -13 -7 10.2 11.3
-1 13 -7 -6.3 17.5
12 -13 7 31.2 20
-13 1 7 26.6 19
-1 -12 7 -1.7 16.6
-1 -12 7 9.8 18.1
-13 1 7 9.6 11.7
-13 12 -7 18 14.2
12 -13 7 31.1 20.7
-12 13 7 24.2 21.2
-12 13 7 23.1 15.3
12 1 -7 6.3 10.3
-12 -1 7 19.6 11.9
-12 13 -7 13.4 14.1
1 -13 7 6.5 17.9
12 -13 -7 18.5 12.3
-13 12 7 10.3 14.2
-12 -1 7 13.1 18.4
13 -12 7 19.7 21.5
-13 12 7 24.1 20.3
-1 -12 -7 23.8 11.7
13 -12 7 34.1 20.5
12 1 7 9.1 23
-1 -12 -7 29.6 12
13 0 -7 -3.4 9.9
-13 0 7 11.4 18.4
13 -13 -7 11.9 12.1
0 -13 -7 4.8 11.2
0 -13 -7 0.3 3.7
-13 0 7 6 11.6
-13 13 7 11 20.3
-13 13 -7 7.3 13.8
13 -13 7 16.8 21.2
13 0 7 18.1 22.4
-13 13 7 12.2 14.4
0 -13 7 8.2 18.1
0 -13 -7 5.5 10.8
13 -13 7 17.6 18.9
-7 14 -7 45.9 16.6
-7 -7 7 13.6 10
14 -7 -7 -5.2 12.2
7 7 -7 28.8 13.8
-14 7 -7 25 14
-14 7 -7 -0.4 10.7
-14 7 7 28.3 19.4
7 -14 7 34.3 17.9
7 -14 7 3.5 17.6
-7 -7 7 20 18.8
14 -7 7 30.3 21.9
7 -14 -7 13.5 11.3
14 -6 7 136.79 26.9
8 6 -7 112.09 17.2
-14 6 7 89.49 21.5
-6 14 -7 139.99 19.6
-14 6 7 49.4 19.3
8 -14 7 97.19 20.7
-6 -8 7 101.19 23.4
-14 8 -7 90.89 15.7
-14 8 -7 113.59 17.7
6 -14 -7 95.59 14.2
6 -14 7 98.89 21.1
14 -8 7 172.48 31
-14 6 -7 120.59 18.8
-8 14 -7 133.19 19.8
-14 8 7 92.79 22.5
-8 -6 7 126.69 24.5
-8 -6 7 98.59 15.1
14 -8 7 112.99 25.4
8 -14 -7 119.49 16.9
6 8 -7 117.89 18.2
9 -14 7 17.9 18.1
-9 14 7 3.4 18.9
-14 9 -7 4.4 13.1
-14 5 7 -1.7 18.2
-14 5 7 -3.1 19.1
-14 9 -7 11 14.5
5 -14 -7 1.4 11.4
5 -14 -7 5.3 10.4
14 -9 -7 1.2 12.4
9 5 -7 4.3 13
-5 14 -7 4 15.3
14 -5 7 14.2 20.7
-9 -5 -7 0.5 4
9 -14 7 1.7 17.7
-5 -9 7 -6.4 17.6
-14 9 7 12.7 13
-9 -5 7 10.7 18
9 -14 -7 11.9 11.7
-5 -9 -7 -0.2 9.6
-9 -5 7 14.7 11.5
-9 14 -7 6.8 14
5 -14 7 7.9 18
14 -9 7 4 20.4
14 -9 7 3.3 20.6
-14 5 -7 9.2 13.2
5 9 -7 7.2 12.8
-14 9 7 0.8 18.9
14 -10 -7 39.2 12.7
10 -14 7 39.9 19.5
4 -14 -7 25.9 10
-14 4 7 47.4 20.7
4 -14 -7 46.1 12.7
-10 14 7 30.7 20.8
10 -14 7 56.19 21.1
10 4 -7 53.89 14.6
-4 -10 7 42.7 19.1
14 -4 7 29.3 21.3
-4 14 -7 45.9 17.1
-14 10 -7 45.7 14.8
14 -10 7 41.6 21.9
-14 10 7 45.1 20.8
4 -14 7 41.8 18.4
14 -10 7 46.8 23.9
10 -14 -7 37.8 12.7
-10 -4 7 34.5 18.9
-10 14 -7 17.1 13.6
-14 10 7 40.9 15.3
-10 -4 7 29.4 12.7
4 10 -7 14.4 13.2
-4 -10 -7 20.6 10.9
-14 4 -7 22.4 13.4
11 3 -7 102.19 15.6
-11 14 7 167.78 28.3
11 -14 7 176.88 27
14 -11 -7 136.19 16.5
-14 3 7 109.29 15.6
3 -14 -7 108.29 15.5
11 -14 7 79.29 22.2
-11 14 7 125.99 17.5
-3 14 -7 101.49 17.9
14 -3 7 92.89 24.4
-3 -11 7 95.99 21.5
3 -14 -7 84.79 13.5
14 -11 7 167.18 30.8
-14 11 7 157.88 20.7
-11 -3 7 151.38 17.7
-3 -11 -7 99.69 14.9
-11 -3 7 116.49 22.1
3 -14 7 99.09 21.1
-14 11 7 123.59 25.9
11 -14 -7 141.89 17.1
14 -11 7 183.78 28.6
-14 3 -7 76.69 15.2
12 2 -7 67.89 14.1
-2 14 -7 57.69 16.5
14 -2 7 107.59 26.7
-12 14 7 98.49 26.1
2 -14 -7 59.49 12.8
12 -14 7 63.59 21.9
2 -14 -7 101.89 15.9
-14 2 7 90.49 15.6
-12 14 7 74.59 16.5
-14 2 7 105.49 24.6
14 -12 -7 89.39 15
12 -14 7 56.89 20.7
-14 12 -7 108.69 17.7
2 -14 7 88.49 20.6
-14 12 7 112.19 25.5
-14 12 7 94.19 17.4
-12 -2 7 81.39 14.4
-2 -12 -7 121.49 16.2
12 -14 -7 105.19 15.6
14 -12 7 81.19 22.1
-12 14 -7 85.49 16
14 -12 7 107.79 26.7
-12 -2 7 151.48 25.8
14 -1 7 37 22.5
1 -14 -7 15.5 11.5
-1 14 -7 28.2 15.6
13 1 -7 18.8 12.1
-1 -13 7 -6.8 18.2
-14 1 7 28.3 20.9
-14 13 -7 17.8 14
-13 14 7 33.7 15.2
13 -14 7 16.5 20.7
13 -14 7 35.5 22.3
1 -14 -7 21.4 12.1
-14 1 7 20.4 12.5
14 -13 -7 17.3 12.4
-13 14 7 33.7 23.1
13 -14 -7 44.8 13.3
14 -13 7 40 23.6
-1 -13 -7 37.1 13.2
-13 14 -7 28.5 15.4
14 -13 7 28.7 20.3
-14 13 7 38.4 22.1
1 -14 7 23.5 18.8
-1 14 7 34.1 16.2
-14 13 7 52.59 16.5
13 1 7 -5 23.6
-13 -1 7 30.2 18.7
-13 -1 7 51.19 13.7
14 0 7 1 21.8
0 -14 7 -2.7 18
0 -14 -7 -8.4 11
14 -14 -7 9.8 12.3
14 -14 7 -1.6 20.1
-14 0 7 5 18.4
-14 14 7 0.1 21.4
14 0 -7 -3 9.9
-14 14 7 8.5 14.2
-14 14 -7 10.1 13.9
0 14 7 19.8 15.4
0 14 -7 -4.6 15.8
0 -14 -7 0.1 3.9
14 -14 7 6.8 20.2
-14 0 7 4.5 12.3
-15 8 -7 10.4 15.4
-8 15 7 1.4 15.7
-15 8 -7 13.5 12.4
-7 15 -7 1.6 15.8
7 -15 -7 -0.1 10.6
-8 -7 -7 0.6 11.4
15 -8 -7 15.9 13.2
-8 -7 -7 -0.1 3.7
-7 -8 7 -5.5 18.6
-15 7 7 0.8 18.6
8 -15 7 3.8 18.3
-7 -8 7 1.6 10.9
15 -7 7 5.3 21
8 7 -7 9.1 13.4
-8 -7 7 2.7 18.1
-15 8 7 8 12.1
8 -15 -7 9 11.7
15 -7 -7 -2.6 11.7
-8 15 -7 13.1 15.6
-7 -8 -7 -1.1 11.6
-7 15 7 3.4 15.3
-15 8 7 -9.1 19.7
-8 -7 7 5.8 11.3
-7 -8 -7 -2 3.1
-15 7 -7 0 14.1
-15 7 -7 1 11.2
7 -15 7 14 18
7 8 -7 6.6 14
15 -8 7 17.5 21.7
-15 9 -7 52.99 15.2
-15 9 -7 52.49 15.6
-15 6 7 2.8 18.7
15 -6 7 43.7 22.8
9 -15 7 58.39 21.5
6 -15 -7 46.2 12.7
-6 -9 7 36.2 20.5
-6 15 -7 42.1 16.1
-9 15 7 27 14.9
6 -15 -7 8.1 13.1
15 -9 -7 50.09 14.4
9 6 -7 54.29 15.9
-15 9 7 42.2 22.3
-6 -9 -7 26.2 12.2
15 -9 7 29.9 22.7
-9 15 -7 30.3 16.3
6 9 -7 36.4 14.7
-9 -6 7 25.9 12.7
15 -9 7 41 23.4
9 -15 -7 26.5 12.9
-6 15 7 40 16.9
6 -15 7 31 20
-15 9 7 21.2 13.7
-9 -6 7 38.5 19.9
-15 6 -7 43.5 15.8
15 -6 -7 11.2 12.6
15 -5 7 114.39 26.7
-5 -10 7 74.89 21.5
15 -10 -7 75.29 15
-10 15 7 41.5 21.3
5 -15 -7 76.59 12.6
10 -15 7 109.99 23.5
-15 10 -7 103.99 17.2
-15 5 7 112.39 24.3
10 5 -7 122.39 18.3
5 -15 -7 94.69 14.9
-5 15 -7 117.69 19.1
15 -10 7 143.89 29.4
15 -10 7 137.29 26.6
-15 10 7 111.99 18.5
-10 -5 7 82.69 14.8
-10 15 -7 123.19 19.6
10 -15 -7 109.29 15.8
5 10 -7 84.79 16.7
-5 -10 -7 106.19 15.5
-10 -5 7 147.39 26.2
-15 10 7 131.59 27.2
-5 15 7 141.39 20.7
5 -15 7 86.89 22.3
-15 5 -7 87.39 16.6
15 -11 -7 16.8 12.7
4 -15 -7 19.4 12.4
-11 15 7 12.4 20.8
-15 4 7 0.1 19.4
-11 15 7 18 13.1
-4 15 -7 23.4 15.6
-15 4 7 14.8 12.5
4 -15 -7 4.4 11.1
15 -4 7 18.9 22.3
-15 11 -7 28.9 14.4
11 -15 7 3 19.7
-4 -11 7 -5.7 28.2
11 4 -7 10.3 12.9
11 -15 -7 7.9 11.8
-15 4 -7 12.6 14.3
-11 -4 7 16.1 12
-4 15 7 9.7 15
4 -15 7 9.9 18.3
15 -11 7 19.5 21.8
-11 -4 7 15.7 19.3
15 -4 -7 -7 10.8
4 11 -7 10.6 14.2
-15 11 7 14.1 14.4
-15 11 7 20.2 22.4
15 -11 7 12.9 23.8
-11 15 -7 20.6 15.1
-4 -11 -7 15.6 11.9
-12 15 7 25 14.7
-15 12 -7 34.7 14.3
12 3 -7 26.3 12.9
-15 3 7 21.4 12.7
15 -3 7 4.9 21
-3 15 -7 19.6 15.6
15 -12 -7 21.1 12.7
-15 3 7 17.6 20.5
-12 15 7 24 22.5
3 -15 -7 21 11.4
3 -15 -7 19.8 12.5
12 -15 7 20.7 21.1
15 -12 7 41.7 22.7
-12 -3 7 48.9 21.4
-15 12 7 32 22.9
12 -15 -7 40 12.8
-12 15 -7 15.3 12.2
3 12 -7 49.2 14.9
-15 3 -7 37.7 14.3
15 -12 7 26.4 22.9
3 -15 7 30.7 18.8
-3 15 7 36 15.9
-12 15 -7 5.9 12.8
-15 12 7 42 15.3
-3 -12 -7 30.3 12.8
-12 -3 7 31.4 12.8
-15 2 7 75.99 15.2
13 -15 7 51.49 20.9
-13 15 7 68.19 24.7
15 -13 -7 58.79 14.2
13 2 -7 49.4 13.4
2 13 7 55.09 16.2
-2 15 -7 46 16.4
-15 13 -7 74.19 16.1
-13 15 7 49.99 15.4
-15 2 7 45.1 22.4
15 -2 7 35.1 23.2
2 -15 -7 50.99 13.2
-13 15 -7 52.99 14.7
-13 -2 7 97.79 15.6
2 -15 7 70.29 20.6
-15 13 7 103.79 19
-15 2 -7 62.09 14.7
15 -13 7 70.89 23.3
13 -15 -7 68.19 14.4
15 -13 7 83.59 26.8
-2 15 7 62.69 16.9
-2 -13 -7 59.29 13.7
-13 -2 7 65.29 21.4
-15 13 7 47.6 24.9
-15 1 7 41.2 13.6
1 -15 -7 55.69 13.9
15 -1 7 4.9 22.6
-15 14 -7 47 14.7
-14 15 7 36.6 15.3
1 14 7 47.8 16.4
15 -14 -7 58.09 13.9
14 1 -7 42.8 12.8
-1 15 -7 33.8 14.9
14 -15 7 44.4 21.5
-15 1 7 50.89 22.3
-14 15 7 52.29 23.8
15 -14 7 28.2 20.2
-15 14 7 43 15.5
-14 15 -7 39.5 14.3
-14 -1 7 41.5 21
-15 14 7 35.6 24.6
-1 15 7 20.3 15.2
1 -15 7 -2.2 18.9
-14 -1 7 32.7 12.7
15 -14 7 4.6 22.4
-1 -14 -7 38.7 12.6
-15 1 -7 4.6 12.7
14 -15 -7 43.3 13.5
-15 15 7 33.5 23.9
15 0 -7 5.8 10.2
15 -15 -7 27.3 12.5
-15 0 7 18.7 19.7
-15 0 7 33.5 12.7
0 15 -7 -0.9 12.6
-15 15 -7 26.8 13.3
0 -15 -7 15.9 11.6
15 -15 7 9.7 20.9
-15 15 7 22.9 14.8
0 15 7 24 15.3
16 -8 7 11.5 22.4
-8 -8 -7 2.6 4.7
-8 -8 7 2.2 11.6
8 -16 -7 13 10.9
8 8 -7 16 14.1
-8 16 7 20.5 15.4
-16 8 -7 20.5 15.2
16 -8 -7 8.4 13.7
-8 -8 -7 8.1 12.3
-16 8 -7 5.7 12.5
-16 8 7 -1.8 18.8
8 -16 7 9.2 19
-8 -8 7 5.5 18.5
-16 8 7 5.8 12.1
-8 16 -7 4.6 15.9
-16 9 -7 17.1 13.5
-7 -9 7 0.7 17.9
-9 16 7 9.2 15.5
-7 -9 7 16.4 11.5
-16 9 -7 21.7 15.2
16 -9 -7 12.9 13.4
-9 -7 -7 16.4 12.6
-7 16 -7 22.5 15.8
7 -16 -7 10.4 11.7
9 7 -7 15.1 14.3
9 -16 7 20.1 18.3
16 -7 7 28.9 22.9
16 -9 7 27.1 21.8
-7 16 7 36.4 16.8
-9 -7 7 22.4 12.4
-16 7 -7 12.6 12.6
-9 16 -7 25.2 16.1
-16 9 7 16.2 21.2
7 9 -7 28 14.2
-7 -9 -7 30.7 13.5
16 -7 -7 23.6 13.4
-9 -7 7 17.1 19.4
7 -16 7 30.3 20.8
-16 9 7 22.7 14.5
9 -16 -7 28.8 12.4
16 -9 7 9.5 23.3
-16 7 -7 11.1 14.2
16 -6 7 25.8 23
6 -16 -7 12.7 10.5
-10 16 7 3.5 15.7
-16 10 -7 17.7 13.5
16 -10 -7 22.9 14
-16 6 7 -2.7 11.8
10 -16 7 14.3 19.3
-6 -10 7 -1.2 18.7
-16 6 7 1.1 26.3
6 -16 -7 14.9 11.3
-6 -10 7 -0.3 10.3
10 6 -7 11.1 13.4
-6 16 -7 22.7 16
-10 -6 -7 2.8 5.5
6 10 -7 29.5 14.7
16 -10 7 17.9 21.8
-10 16 -7 23.7 15.6
6 -16 7 24.5 20.5
-6 16 7 34.3 16.6
16 -10 7 24.4 22.6
-16 10 7 30.4 23.1
-6 -10 -7 23.3 13.3
-10 -6 7 25.3 19.7
-10 -6 7 18.7 12.7
10 -16 -7 17.1 11.7
-16 10 7 17 15.1
-16 6 -7 28.1 15.3
16 -6 -7 11.1 14.1
-16 11 -7 2.6 13.4
11 -16 7 14.4 20.5
11 5 -7 15.4 13.6
16 -11 -7 21 13.2
-16 5 7 1.9 18.6
-16 5 7 16.3 12.7
5 -16 -7 3.1 11.3
-11 -5 -7 -0.9 3.4
-11 16 7 1.3 12.4
-5 16 -7 14.1 15.4
16 -5 7 0.4 22
5 -16 -7 11.5 10.8
-5 16 7 -0.6 15.3
-5 -11 -7 0.7 4
16 -11 7 7.4 21.6
-11 -5 7 4.5 11.5
-16 11 7 9.8 14.4
-11 -5 7 12.3 19.3
-11 16 -7 8.5 14.7
16 -11 7 -4 22.4
11 -16 -7 8.5 12.5
16 -5 -7 9.9 14.3
5 -16 7 -1.7 18
-16 5 -7 9.9 14.6
-5 -11 -7 13.8 12.3
5 11 -7 13.2 14.1
-16 11 7 -2.6 21.1
-16 12 -7 71.19 15.3
-4 16 -7 64.09 16.5
4 -16 -7 71.69 14
-16 4 7 66.79 14.9
16 -4 7 40.5 21.8
12 4 -7 52.79 14.2
-12 16 7 63.89 15.3
-16 4 7 43.1 20.3
16 -12 -7 77.49 14.9
12 -16 7 48.2 21.7
-4 16 7 81.99 17.9
16 -12 7 58.89 25.3
4 12 -7 48.2 15.6
-12 -4 7 66.79 21
16 -4 -7 34.8 14.7
4 -16 7 42.9 18.4
-4 -12 -7 55.59 13.7
-16 12 7 75.89 25.7
-12 -4 7 73.29 14.4
12 -16 -7 105.79 15.8
-16 12 7 108.99 19.2
16 -12 7 60.49 23.1
-16 4 -7 57.99 15.4
-12 16 -7 94.29 17.8
13 3 -7 35.1 13.1
-16 13 -7 21.8 14.1
16 -3 7 3.7 22.6
13 -16 7 11.9 21.5
-16 3 7 22.2 12.7
-16 3 7 13.3 19.4
3 -16 -7 23.8 12.2
-13 16 7 10 21
16 -13 -7 19.8 12.2
-3 16 -7 25.5 15.4
-13 16 7 10.8 14.5
3 13 7 -4.5 13
16 -13 7 24.4 23.4
-13 16 -7 21.2 12.7
3 -16 7 -9.2 17.8
16 -13 7 27.6 21.5
-3 16 7 33.1 15.7
-16 13 7 31.3 16.1
16 -3 -7 15 13.7
3 13 -7 29.1 14.7
-13 16 -7 -0.9 13.3
-3 -13 -7 29 12.5
13 -16 -7 32.8 12.4
-13 -3 7 16.2 11.9
-16 13 7 8 22.8
-16 3 -7 17.6 13.8
-13 -3 7 12 18.9
2 14 7 25.5 15.5
-14 16 7 12 21.2
14 2 -7 15.9 12.3
2 -16 -7 27.2 12
-16 2 7 22.6 12.5
-16 14 -7 44.2 15
14 -16 7 27.6 20.8
-14 16 7 21.1 14.7
-16 2 7 16 18.5
-2 16 -7 32.6 15.5
16 -14 -7 26.2 12.7
-16 2 -7 23.2 13.8
-14 -2 7 13.8 19.7
-2 16 7 30 15.7
14 -16 -7 22.8 12
16 -2 -7 3.7 13.7
2 -16 7 4.7 33.1
-2 -14 -7 25 12.8
16 -14 7 1.8 19.1
-16 14 7 33.8 15.7
-14 -2 7 36.9 12.9
2 14 -7 26.1 14
-14 16 -7 24.4 13.4
-16 14 7 18.3 22.7
1 -16 -7 0.1 3.2
-15 16 7 -0.1 20.6
16 -15 -7 0.6 11.9
-15 16 7 2.2 13.9
15 1 -7 13 10.7
15 -16 7 9 19.2
1 15 7 6.5 15.1
1 -16 -7 6.4 11.1
-16 15 -7 10.2 12.3
-16 1 7 -6.1 17.9
-16 1 7 -0.5 11.3
-1 16 -7 13.2 14.1
-1 -15 -7 29 12
-15 -1 7 19.5 12.2
16 -1 -7 -11.5 12.1
-15 16 -7 17.3 13.1
15 -16 -7 28.6 12.7
-16 15 7 13.7 22.1
-15 -1 7 7.4 19
-16 15 7 16.6 15
-1 16 7 27 15.8
-16 1 -7 9.5 12.4
16 -15 7 -8.1 18
16 0 -7 -6.4 16.4
-16 16 7 71.09 16.1
-16 16 7 -3.7 20.7
16 -16 7 -5.3 19.6
0 16 7 62.79 16.5
-16 0 7 3 18.1
-16 16 -7 64.59 13.9
9 8 -7 23.5 14
-8 17 -7 21.1 15.5
8 -17 -7 24.3 11.6
-9 -8 -7 31.5 13.6
-17 9 -7 38.4 15.5
-17 9 -7 31.3 14.5
-9 17 7 28.5 17
-8 -9 7 26 12.4
17 -9 -7 10.2 13.5
17 -8 7 11 21.4
-17 8 7 0.5 12.3
9 -17 7 20.5 20.5
17 -9 7 13.9 21.4
8 -17 7 1.8 18.1
-9 -8 7 -7.5 17.8
-8 17 7 24.7 16.6
-17 8 -7 26.7 14.4
-17 9 7 14.6 13.5
-9 17 -7 27.8 15.1
-17 8 -7 9.1 13.4
-8 -9 -7 19.9 13.1
17 -9 7 12.7 23.8
-9 -8 7 14.2 12.5
9 -17 -7 18.8 11.4
17 -8 -7 13.3 14.2
8 9 -7 15.2 14.2
-7 -10 7 37 12.3
7 -17 -7 8.9 10
-10 17 7 32.3 17.2
-17 7 7 -1.9 13.3
10 7 -7 58.59 15.2
-7 17 -7 75.09 17.6
17 -7 7 25.9 21.5
17 -10 -7 37 14.3
10 -17 7 30.7 19.2
7 -17 -7 50.59 13.1
-17 10 -7 39.5 13.7
-10 -7 7 22.2 19.6
-17 7 -7 15.6 12.5
-10 17 -7 28 15.5
17 -10 7 26.5 22.3
-17 10 7 36.5 14.7
7 10 -7 31 14.3
-10 -7 7 32.3 12.6
17 -7 -7 15.2 13.3
7 -17 7 25.3 19.7
-17 10 7 6.3 20.5
10 -17 -7 42.3 12.8
-7 17 7 42.6 17.4
17 -10 7 18.9 22.1
-17 7 -7 29.8 14.5
-7 -10 -7 43 14
-17 11 -7 25.5 12.7
-6 17 -7 32.2 15.9
-11 17 7 4.5 15.7
11 -17 7 17.4 19
17 -6 7 20.4 21.7
-17 6 7 24.9 13.2
17 -11 -7 21.1 13
11 6 -7 25.2 13.1
6 -17 -7 23 11.6
-6 -11 7 -1.1 12
-17 11 7 10 20.6
-6 17 7 21.1 16.7
11 -17 -7 42.4 12.9
-17 11 7 25.2 14.7
17 -11 7 18.9 24.3
-6 -11 -7 33.5 13.7
6 11 -7 29.5 14.8
6 -17 7 3.8 17.4
-17 6 -7 21.6 14.5
-11 17 -7 32.4 15.2
17 -6 -7 15.3 13.9
-11 -6 7 9.2 19.8
17 -11 7 22.7 20.9
-11 -6 7 25.7 12.1
5 -17 -7 35.8 12.3
17 -12 -7 35.2 13
-17 12 -7 60.19 14.5
-12 17 7 22.7 13.9
-5 17 -7 32.1 14.9
12 -17 7 37.8 20.5
12 5 -7 38.6 13.2
17 -5 7 3.5 20.2
-17 5 7 41.1 14.2
-12 -5 7 47.4 13.1
-17 12 7 53.89 16.1
-5 -12 -7 48 13.6
12 -17 -7 57.69 14.2
5 12 -7 44.2 15.2
-17 5 -7 54.09 15.8
-12 17 -7 43 15
-12 -5 7 38.8 19.4
17 -12 7 34.6 19.8
5 -17 7 1.8 17.1
-5 17 7 52.89 16.9
-17 12 7 47.3 23.1
17 -12 7 45.6 24.7
17 -5 -7 53.79 15.8
17 -13 -7 128.69 16.8
-17 4 7 122.09 17.2
-4 17 -7 106.79 18.3
-13 17 7 93.59 17.3
13 4 -7 114.39 17
-17 13 -7 108.29 16.8
4 -17 -7 95.29 14.8
-13 17 -7 43 12.9
-17 13 7 72.19 24.3
17 -13 7 40.4 19.7
-13 17 -7 74.19 15.3
17 -13 7 2.8 22.9
-17 13 7 97.79 17.7
4 13 -7 115.99 17
-13 -4 7 60.99 20
4 -17 7 2.5 27.4
17 -4 -7 117.99 17.7
14 3 -7 -1.2 11.4
-14 17 7 8.9 14.3
17 -14 -7 19.1 11.9
-17 14 -7 4.8 11.7
-3 17 -7 1.4 14.1
14 -17 7 1.8 18.9
-17 3 7 0.2 22.6
3 14 7 4.3 12.9
-17 3 7 12.2 11.9
3 -17 -7 8.8 10.7
3 -17 -7 0.4 4.1
14 -17 -7 23.8 11.6
-3 17 7 22.6 15.1
-14 -3 7 10.3 18.4
-3 -14 -7 17.1 11.6
-17 14 7 6 13.9
17 -3 -7 23.4 14
-14 17 -7 26.3 13.3
17 -14 7 -3.8 17.5
3 14 -7 26.9 14.1
-17 3 -7 15.5 13.5
-14 -3 7 17.9 12.4
-17 14 7 3.8 22.4
-14 17 -7 -1.1 11
-17 15 -7 24.2 12.7
2 15 7 23.4 14.9
-2 17 -7 19.6 14.2
17 -15 -7 18.4 12.1
2 -17 -7 21.9 11.3
-17 2 7 24.2 12
-15 17 7 16.2 13.9
15 -17 7 -6.2 31.7
15 2 -7 7.6 11
17 -15 7 -6 28.9
-15 -2 7 23.1 11.6
-17 2 -7 10 12.8
15 -17 -7 36.7 12.1
2 15 -7 21.8 13.4
-2 -15 -7 24.4 12.6
-2 17 7 33.4 15.8
-15 -2 7 -4.9 17.5
-15 17 -7 5.4 12.3
-17 15 7 34.5 15.1
-17 15 7 -4.3 20.3
17 -2 -7 24 13.9
1 16 7 51.29 15.8
-17 1 7 96.19 14.2
16 1 -7 43.4 11.3
-1 17 -7 68.39 14.3
-16 -1 7 97.29 14.8
16 -17 -7 90.09 14
-1 -16 -7 98.09 14.7
-16 17 -7 82.49 15.5
-1 17 7 76.99 17.4
-17 16 7 125.79 19
-17 1 -7 51.59 13.1
-17 0 7 18.1 11
-17 17 7 22.9 14.1
17 0 -7 -5.8 15.2
17 -17 -7 19.3 10.6
0 17 7 14.3 14.8
-17 17 -7 11.3 11.2
0 -17 -7 26.4 11.7
9 -18 -7 10.7 10.2
-18 9 7 -1.4 12.6
-9 -9 7 12.8 12
18 -9 7 3.1 21.1
-18 9 -7 14.1 13.8
-9 18 7 17.9 16.7
18 -9 7 13.1 24.5
18 -9 -7 2.5 12.9
-9 18 -7 7.8 14.2
-9 -9 -7 17.5 13
9 9 -7 9.7 13.3
9 -18 7 -0.2 18.4
-18 9 -7 9 13.6
-8 18 -7 17.6 14.6
18 -8 7 7.7 21.3
-8 -10 7 16.9 11.3
10 -18 7 7.8 19.2
18 -8 7 9.5 23
-18 10 -7 4.5 12.6
8 -18 -7 20.9 10.7
18 -10 -7 32.7 13.7
10 8 -7 24.5 13.6
-10 18 7 9.8 17
18 -10 7 12 22.6
10 -18 -7 32.9 11.4
18 -10 7 3.6 19.9
-10 -8 7 39.7 12.4
8 10 -7 52.99 14.6
-18 10 7 35.4 14.2
-18 8 -7 24.5 13.5
-8 18 7 29.1 16.5
8 -18 7 2.8 17.9
-10 18 -7 23.3 14.5
-18 8 -7 45.4 15
-8 -10 -7 35.7 14.5
18 -8 -7 29.5 14.8
-7 -11 7 -4.1 10.1
-18 11 -7 24.9 12.4
11 7 -7 27.6 13.6
11 -18 7 -1.2 18.3
-7 18 -7 31.6 14.9
18 -11 -7 17.2 12.4
7 -18 -7 19.4 11.3
-18 7 7 14.3 12.6
-11 18 7 22.8 16.4
18 -11 7 7.4 22.9
7 11 -7 24.5 13.4
-7 -11 -7 33.5 13
11 -18 -7 19.2 11.2
-7 18 7 36.5 16.7
-11 18 -7 32.1 15.2
18 -11 7 -0.3 20.6
-18 11 7 24.6 14.4
-18 7 -7 1.8 17.2
18 -7 -7 18.1 13.3
-11 -7 7 27.1 12.1
-18 7 -7 34.7 14.2
18 -12 -7 8.4 11.3
-6 18 -7 12.4 14.3
12 6 -7 12.5 11.5
6 -18 -7 4.4 10.9
-18 12 -7 4.5 11.6
-18 6 7 4.9 13.2
12 -18 7 -1.4 17.8
-12 18 7 -1.9 14.6
-12 18 -7 12 13.5
18 -6 -7 17.2 13.5
-12 -6 7 11.5 11.4
-18 12 7 10.4 14.1
12 -18 -7 7.1 11
18 -12 7 -1.1 18.8
6 12 -7 27.5 13.7
-6 -12 -7 14 12.3
-18 6 -7 1.5 13
-6 18 7 16.2 15.8
18 -12 7 4.9 26.1
5 -18 -7 23.7 11.2
13 5 -7 26.5 12.4
-18 13 -7 26.2 12.3
-5 18 -7 35.8 15.7
-18 5 7 24.2 13.6
18 -13 -7 28 12.1
-13 18 7 15.2 13
-5 -13 -7 50.49 14
5 13 -7 46.1 14.3
-13 -5 7 54.89 13.3
-18 13 7 33.8 16.1
18 -5 -7 38.1 14.6
13 -18 -7 50.29 12.5
-13 18 -7 26.5 13.2
-18 5 -7 24.6 13.3
-18 13 7 -2 25.1
-5 18 7 45.1 16.5
18 -14 -7 2 10.8
-14 18 7 0.8 12.9
4 -18 -7 -0.1 3.3
-18 4 7 6.6 12.6
4 -18 -7 4.1 10.1
14 4 -7 -6.2 11
-4 18 -7 -3.9 14
-18 14 -7 15.6 11.2
18 -4 -7 -0.1 13.7
-18 4 -7 18.9 12.7
-4 -14 -7 13.5 11.8
-14 -4 7 11.3 11.6
-18 14 7 9.8 14.3
-14 18 -7 3.9 11
-14 18 -7 4 11.1
14 -18 -7 6.6 11.2
-4 18 7 3.8 14.8
4 14 -7 12.9 13.4
-18 15 -7 60.89 13.6
18 -15 -7 78.89 13.6
15 3 -7 43.4 12.1
-18 3 7 52.49 13.9
-3 18 -7 50.09 14.4
3 -18 -7 68.39 13
-15 18 7 55.69 14.9
-3 -15 -7 98.59 14.8
-15 -3 7 117.39 15.6
-18 3 -7 88.89 15.4
-18 15 7 90.09 16.5
-3 18 7 73.49 17.5
18 -3 -7 57.19 15.5
15 -18 -7 97.09 14.7
3 15 -7 79.69 15.3
-15 18 -7 71.29 14.6
18 -16 -7 14.3 10.9
16 2 -7 7 10.1
-16 18 7 17.6 13.2
-18 2 7 12.4 12
-2 18 -7 15.1 12.5
2 -18 -7 11.7 10.4
-18 16 -7 20.3 11.8
2 16 7 2.4 12.2
-16 18 -7 11.9 11.9
2 16 -7 -3.2 9.9
18 -2 -7 10 13.6
16 -18 -7 20 10.9
-16 -2 7 12.1 11.3
-2 18 7 3.1 14.3
-18 16 7 26.5 14.2
-2 -16 -7 16.8 11.8
-18 2 -7 20.2 12.4
-18 1 7 47.8 12.4
-1 18 -7 9.8 10.5
1 -18 -7 52.39 12.1
-18 17 -7 40.4 12.5
-17 18 7 43.2 14.1
1 17 7 18.5 13.8
18 -17 -7 47.6 11.8
17 -18 -7 41.8 11.1
-18 17 7 53.79 14.9
-1 -17 -7 51.09 11.9
-18 1 -7 0.4 11
18 -1 -7 11.6 11.4
-17 -1 7 36.8 11.3
-1 18 7 21.3 13.7
-17 18 -7 16.7 11.4
-18 18 7 111.69 15.9
0 -18 -7 122.29 16.3
-18 18 -7 103.69 15.4
0 18 7 60.79 14.8
18 -18 -7 109.59 15.3
-18 0 7 118.19 16.5
-9 -10 7 -2.5 10.1
-19 9 7 -0.9 11.3
10 9 -7 3.2 11.9
19 -10 -7 9.4 12.3
-10 -9 -7 -0.4 3.6
-19 10 -7 17.2 13.4
-9 19 -7 -6.6 12.5
-10 19 7 -5.2 15.1
9 -19 -7 5.1 9.9
-19 9 -7 5.8 12.4
-19 9 -7 1.4 12.4
-9 -10 -7 0.4 3.8
-19 10 7 1.3 12.5
-9 19 7 -0.4 14.7
19 -9 -7 -1.8 12.8
10 -19 -7 0.3 9.3
9 10 -7 7.8 12.3
-10 -9 7 3.6 10.7
-10 19 -7 2.3 12.9
11 8 -7 41.4 12.8
8 -19 -7 43.3 12
-11 19 7 26.8 17
-19 8 7 -2.3 18.1
-8 19 -7 49.9 16.2
-19 11 -7 38.2 13.6
19 -11 -7 38.5 12.7
-19 8 -7 1 10.9
-11 -8 7 25.3 11.9
-19 8 -7 37 13.8
-11 19 -7 42.2 14.3
19 -8 -7 33.8 14.2
-8 19 7 24.7 15.5
-8 -11 -7 37.6 13.1
-19 11 7 35.3 14.3
11 -19 -7 43.6 12
8 11 -7 40.5 13.6
-7 19 -7 120.39 18.4
19 -12 -7 63.69 13.1
-19 12 -7 61.99 14.3
12 7 -7 95.19 15
-12 19 7 59.39 17.1
-19 7 7 32.9 12.5
7 -19 -7 58.59 12.2
-7 -12 -7 85.39 15.2
7 12 -7 91.69 15.3
-12 -7 7 46.5 12.6
12 -19 -7 78.19 12.7
-19 12 7 66.69 15.3
-19 7 -7 70.49 15.3
-12 19 -7 43.3 13.9
-7 19 7 68.99 17.4
19 -7 -7 53.59 14.8
19 -13 -7 35.6 11.9
6 -19 -7 39.1 11.2
-19 13 -7 47.3 13.2
13 6 -7 31.3 12.6
-19 6 7 39.9 13.6
-6 19 -7 38.2 14.4
-6 -13 -7 50.29 12.9
-6 19 7 29.5 14.8
-13 -6 7 36.9 11.9
6 13 -7 60.99 13.8
13 -19 -7 52.19 12
-13 19 -7 32.3 12.8
19 -6 -7 23.9 13.6
-19 13 7 65.59 15.8
-19 6 -7 40 13
-19 5 7 17.9 12.6
19 -14 -7 11.8 11
-14 19 7 9.2 12.1
-19 14 -7 11 11
14 5 -7 15.7 10.9
-5 19 -7 26.5 13.9
5 -19 -7 22.5 10.9
-5 19 7 27.7 14.9
-14 -5 7 32.4 11.7
14 -19 -7 32 11.5
19 -5 -7 12 12.9
-14 19 -7 17.3 11.6
-5 -14 -7 28.5 12.1
-19 14 7 23.3 14.1
5 14 -7 34.8 13
-19 5 -7 15.6 12
15 4 -7 26.6 11.3
-19 15 -7 23.7 10.7
19 -15 -7 34.4 11.7
4 -19 -7 39 11.1
-19 4 7 26 12.7
-15 19 7 15.9 12.7
-4 19 -7 12 12.8
-4 -15 -7 -0.2 3.2
4 15 -7 1.7 12
-15 -4 7 25.6 11.4
19 -4 -7 23 13.4
-4 -15 -7 29 12.2
-15 19 -7 0.6 10.3
15 -19 -7 25.5 11.1
-19 15 7 18 14
-4 19 7 8.3 13.7
-19 4 -7 4.9 11.7
-19 16 -7 144.19 16.3
3 -19 -7 146.09 16
-3 19 -7 93.59 15.1
16 3 -7 93.89 13.5
19 -16 -7 124.79 15
-19 3 7 123.59 16.4
-16 19 7 104.39 16.1
16 -19 -7 120.59 17.4
-16 19 -7 64.59 12.7
-19 3 -7 102.79 15.2
3 16 -7 87.69 13.4
-3 19 7 91.69 16.2
19 -3 -7 142.59 17.5
-16 -3 7 141.69 15.2
-19 16 7 147.99 18.7
-17 19 7 14.6 12.4
-19 17 -7 23.4 10.7
-2 19 -7 14.4 10.9
-19 2 7 19.2 11.8
2 -19 -7 21.1 10.4
19 -17 -7 19 10.6
-2 -17 -7 33.7 10.9
-2 19 7 35.4 14.1
-17 19 -7 34.4 11.7
-17 -2 7 52.09 12.6
19 -2 -7 10.2 12.3
17 -19 -7 40.8 11.2
-19 17 7 35.8 13.8
-19 2 -7 15.8 10.7
1 -19 -7 22.8 10.1
-19 18 -7 27.7 10.1
19 -18 -7 21.1 9.6
-18 19 7 23.3 12.1
-19 1 7 32.5 11.1
-18 -1 7 9 11
-1 19 7 16.9 12.1
18 -19 -7 23.7 10.5
-19 18 7 26.8 12.4
-1 -18 -7 23.2 10.3
-18 19 -7 17.7 10.1
19 -19 -7 28.6 10.3
0 19 7 -7.7 9.4
-19 0 7 21.4 10
-19 19 7 23.3 12
-19 19 -7 21.3 10
0 -19 -7 29.8 10.2
-10 20 7 19.2 14.9
-10 20 -7 19.7 12.8
20 -10 -7 19.1 11.3
-10 -10 7 12.7 9.8
10 10 -7 11 10.7
10 -20 -7 18.2 10.3
-20 10 -7 11.5 11.4
-20 10 7 0.4 10.2
11 9 -7 18.8 10.4
9 -20 -7 21.3 10.1
-11 20 7 12 14.7
20 -11 -7 19 11.2
-20 11 -7 16.7 11.9
-9 20 -7 11.7 13.4
-20 11 7 9.3 12.5
-9 20 7 20.2 14.5
-11 -9 7 13.7 10.6
-20 9 -7 1.2 9.9
20 -9 -7 25.1 12.1
-11 20 -7 26.4 12.7
9 11 -7 17.3 10.8
11 -20 -7 13.9 9.6
-12 20 7 21.5 13.9
12 8 -7 26 11.1
-8 20 -7 34.8 13.5
8 -20 -7 31.7 10.3
-20 12 -7 27.8 11.5
20 -12 -7 26.7 10.7
-20 12 7 14.5 12.6
12 -20 -7 16 10.1
8 12 -7 20 10.7
-12 20 -7 12.3 11.7
-8 -12 -7 23.5 11.6
-20 8 -7 23.8 12.6
-12 -8 7 15.6 10.8
-8 20 7 5.6 14.3
20 -8 -7 21 12.3
7 -20 -7 26.6 10.1
13 7 -7 22.5 10.5
20 -13 -7 17 10.4
-7 20 -7 26.7 14
-13 20 7 -9.2 15.3
-20 13 -7 15.1 10.8
-20 7 7 5.4 10.7
20 -7 -7 27.3 13.3
-7 20 7 27.7 14
-20 13 7 18.1 12.9
-13 20 -7 17.3 11.6
-20 7 -7 48.9 12.5
7 13 -7 44.9 11.8
13 -20 -7 27.6 10.6
-7 -13 -7 44.6 12.4
-13 -7 7 33.1 11.2
14 6 -7 5.6 9.5
-20 14 -7 3 10.1
-20 6 7 7.3 11.2
-6 20 -7 12.2 12.3
6 -20 -7 0.5 2.7
20 -14 -7 2.8 10.2
6 -20 -7 6.8 8.9
6 14 -7 15 10.5
-6 20 7 9.1 13.4
-14 -6 7 6 10.2
-20 6 -7 7.3 10.9
-6 -14 -7 0.7 11.4
20 -6 -7 -0.6 12.1
-6 -14 -7 -0.8 3
-14 20 -7 15.8 10.6
-20 14 7 1 12.7
14 -20 -7 5.9 9.3
-5 20 -7 43.1 12.3
15 5 -7 34.9 10.4
5 -20 -7 38.4 10.3
-20 15 -7 42.6 11.1
-20 5 7 60.69 12.5
20 -15 -7 61.19 11.9
-20 5 -7 45.7 12.5
-5 20 7 80.39 16.1
-5 -15 -7 77.89 12.9
15 -20 -7 67.69 11.5
-15 -5 7 58.69 11.4
-20 15 7 54.59 14
20 -5 -7 35.8 12.9
5 15 -7 55.79 12
-16 20 7 43 11.7
-4 20 -7 50.49 12
-20 16 -7 74.69 12.1
-20 4 7 59.49 12.2
16 4 -7 50.79 10.4
20 -16 -7 58.59 11.6
4 -20 -7 50.19 10.7
-4 20 7 30.6 12.3
-20 16 7 82.09 14.6
4 16 -7 59.39 11.1
-4 -16 -7 65.89 12
16 -20 -7 86.99 13.2
-20 4 -7 59.39 12.5
-16 -4 7 90.29 13
20 -4 -7 57.39 13.4
-17 20 7 5.2 11.1
-20 17 -7 14.1 9.5
-3 20 -7 11.1 10
20 -17 -7 8.6 9.8
-20 3 7 14 10.3
3 -20 -7 13.5 9.3
-20 17 7 6.8 12.3
-20 3 -7 7.7 9.5
-3 -17 -7 8 9.6
17 -20 -7 1.7 9.1
20 -3 -7 -13.6 9.1
-17 -3 7 4.9 10.4
-3 20 7 9.2 11.4
20 -18 -7 40.4 10.1
-18 20 7 52.89 12.3
2 -20 -7 57.29 10.8
-20 2 7 45.9 11
-20 18 -7 30.4 10
-20 18 7 48.3 13.4
18 -20 -7 53.59 11.1
-18 -2 7 50.99 12.2
-2 -18 -7 50.49 11.3
-2 20 7 42.8 12.4
-20 19 -7 16.1 9.2
1 -20 -7 18.9 9.8
20 -19 -7 38.1 11.1
-19 20 7 31.7 11.5
-20 1 7 21.6 10.4
-20 19 7 29.1 12.3
-1 20 7 -9.7 13.1
-19 20 -7 16.9 7.9
-1 -19 -7 32.1 10.4
-19 -1 7 48.9 11.8
19 -20 -7 28.8 10.2
-20 20 7 5 12.3
-20 20 -7 -0.2 6.1
-20 0 7 1.6 10.8
10 11 7 9.4 9.4
-21 11 -7 22.2 10.6
21 -11 -7 28.4 10.1
10 -21 -7 31.5 10.1
11 10 -7 27.5 9.4
-10 21 -7 31.5 11.8
-11 21 7 31 13.1
21 -10 -7 27.9 10.7
-10 21 7 12.1 12.5
11 -21 -7 24 9.5
10 11 -7 21.3 9.2
-21 10 -7 -0.1 9.6
-11 21 -7 22.1 11.3
-12 21 7 18.4 13.2
-9 21 -7 39.9 12.2
-21 12 -7 32 10.8
9 -21 -7 26.4 9.3
21 -12 -7 22.7 10.2
12 9 -7 31.3 9.8
12 -21 -7 43.7 10.4
-12 -9 7 27.5 9.6
-12 21 -7 38.4 11.7
21 -9 -7 52.39 12.4
-21 12 7 43 12.1
9 12 -7 25.1 9.5
-9 21 7 54.89 14.9
13 8 -7 40.5 10
8 -21 -7 22.1 9.2
-21 13 -7 15.1 10
-8 21 -7 20 11.7
21 -13 -7 32.7 10.4
-13 -8 7 32.6 10.1
-13 21 -7 26.4 11
21 -8 -7 34 11.7
13 -21 -7 24.4 9.2
8 13 -7 35.4 10.1
-21 13 7 23.6 12.1
-8 21 7 39.6 13.7
7 -21 -7 5.7 9
-7 21 -7 9.8 11.2
-21 14 -7 7.6 9.3
-21 7 7 -0.3 9.1
21 -14 -7 5.8 9.4
14 7 -7 4.5 8.7
7 14 -7 -1.6 8.6
-14 21 -7 7.7 9.5
-21 14 7 13.7 12.2
-14 -7 7 11 9.3
14 -21 -7 9 8.7
21 -7 -7 7.8 11.9
-7 21 7 8.8 11.8
6 -21 -7 0.2 8.1
15 6 -7 4.1 8.5
-21 6 7 6.5 9.3
-6 21 -7 8.3 10.8
21 -15 -7 2.7 9.4
-21 15 -7 8.7 9.3
6 15 -7 23.2 9.3
15 -21 -7 7.8 8.8
-21 15 7 13.1 12.3
-15 -6 7 19.5 10.1
-6 -15 -7 17.5 10.4
21 -6 -7 19.7 12
-6 21 7 24.3 12.7
5 -21 -7 8.5 8.7
-5 21 -7 16.3 10.3
16 5 -7 3.8 7.5
-21 5 7 1.6 9.5
-21 16 -7 12.8 9.8
21 -16 -7 10.4 9.4
21 -5 -7 9.3 11.6
-21 16 7 10.8 12.1
-5 -16 -7 16.4 10.2
-16 -5 7 15.2 10.7
5 16 -7 13.8 8.5
-5 21 7 -0.8 11
16 -21 -7 13.1 9.2
-21 17 -7 38.3 10.2
-4 21 -7 24.1 9.5
4 -21 -7 32.9 10
21 -17 -7 42 10.7
-21 4 7 30.4 9.4
-4 -17 -7 39.4 10.3
-17 -4 7 30.8 11
-4 21 7 40.8 12.6
17 -21 -7 35.7 9.8
-21 17 7 64.69 13.3
-21 3 7 42.5 10.6
3 -21 -7 55.29 10.7
21 -18 -7 53.89 11.5
-21 18 -7 45.2 10.9
-3 -18 -7 76.29 13
-21 18 7 74.59 14.4
-3 21 7 30.1 11.3
-18 -3 7 54.49 11.4
18 -21 -7 56.99 11.2
22 -11 -7 27.7 9.2
11 -22 -7 35.8 9.2
-11 22 -7 41.4 11.4
-11 22 7 52.49 13.5
11 11 -7 40.8 9.2
10 -22 -7 14.5 8.3
-12 22 7 6.8 10.9
22 -12 -7 16.4 9.5
-10 22 -7 22 11.3
-22 12 -7 3.6 7.3
10 12 7 -0.4 7.1
12 10 -7 20.3 8.1
12 -22 -7 9.8 8.9
22 -10 -7 16 9.7
-10 22 7 22 13.1
-12 22 -7 21.5 10.4
10 12 -7 13.1 8.7
-22 13 -7 37.6 10.3
9 -22 -7 29.3 8.6
13 9 -7 36.3 8.6
9 13 7 18.8 9.5
22 -13 -7 39.5 10.1
-9 22 -7 36.9 11.4
9 13 -7 38.9 9.5
-22 13 7 -1.8 8.6
-9 22 7 26.7 12.6
13 -22 -7 24 9.1
22 -9 -7 26.5 10.5
-13 22 -7 20.1 10.2
8 14 7 31.8 9.9
14 8 -7 28.9 8.9
8 -22 -7 39.5 9.6
22 -14 -7 24.4 10
-8 22 -7 43.2 12
-22 14 -7 28.7 10
8 14 -7 27.1 9
14 -22 -7 14.7 8.8
-8 22 7 25.1 12.3
-14 22 -7 21.5 8.7
-22 14 7 25.3 11.1
22 -8 -7 22 10.9
-7 22 -7 11.3 10.4
7 -22 -7 12.5 8.5
-22 15 -7 11.4 9.5
22 -15 -7 15.8 10.1
7 15 7 5 9
15 7 -7 5.7 8
-15 -7 7 -3.2 8.6
22 -7 -7 7.3 10.5
15 -22 -7 11.6 8.7
-7 22 7 4.8 11.6
-22 15 7 -2.6 11.6
7 15 -7 7.6 8.7
6 -22 -7 45.5 10.7
-22 16 -7 46.2 11
6 16 7 21 10
22 -16 -7 40.9 11.1
-6 22 -7 38.3 11.3
-16 -6 7 26.1 9.3
-22 16 7 59.59 14.2
6 16 -7 26.7 8
16 -22 -7 41.9 10.2
22 -6 -7 43.9 10.1
-6 22 7 28.5 12
5 -22 -7 3.9 10
-22 5 7 -1.6 5.9
5 17 7 11.4 10.7
-22 17 -7 9.9 10.5
22 -17 -7 12.5 10.3
-5 22 -7 -3.4 7.1
-22 17 7 6.3 12.4
-5 22 7 9.7 12.7
-17 -5 7 7.8 8.8
17 -22 -7 14 9.8
11 -23 -7 5.4 9.4
-11 23 -7 9.9 11.2
23 -12 -7 11.3 10.6
12 11 -7 6.5 9
12 -23 -7 15.8 9.4
23 -11 -7 14.5 10.1
-11 23 7 9.2 9.8
-12 23 -7 11.3 11
11 12 -7 14.9 8.5
10 -23 -7 34.4 10.5
13 10 -7 38.8 9.9
23 -13 -7 71.89 12.2
-10 23 -7 48.8 13
10 13 -7 56.39 10.5
13 -23 -7 53.09 10.7
-10 23 7 50.29 14
-13 23 -7 29.8 10.4
23 -10 -7 62.19 11.9
-9 23 -7 11.4 12.1
-9 23 7 3.2 13.3
0 0 8 2.7 12.6
0 0 8 6.9 13.9
0 0 8 -34 26
-1 0 8 185.98 22.1
0 1 8 76.09 29.8
-1 1 8 144.19 22.3
1 -1 8 132.29 21.1
0 -1 8 131.79 22.6
-1 0 8 121.59 20.9
1 0 8 138.39 22.7
0 1 8 127.19 21.7
1 0 8 128.69 20.5
0 -1 8 55.69 32.1
-1 0 8 63.09 30.5
-1 1 8 99.89 33.5
1 -1 8 136.09 22.9
0 -1 8 142.09 21.9
1 1 8 140.69 22.4
-1 2 8 138.29 22.6
1 -2 8 177.68 23.8
-2 1 8 181.38 23.7
-1 2 8 106.59 33.1
-1 -1 8 74.39 35.3
-1 -1 8 183.78 23
2 -1 8 151.08 23.3
-2 1 8 90.39 35.9
1 -2 8 139.99 22.3
-1 -1 8 154.98 22.1
-2 1 8 180.88 20.5
2 0 8 19.6 15.5
2 0 8 -16.7 23.4
2 -2 8 26.8 14.4
-2 0 8 -20 28.5
0 2 8 18.4 13.7
0 -2 8 -38.8 26.7
-2 0 8 21.6 14.2
-2 2 8 -22.6 28.6
0 -2 8 20.9 14.5
2 0 8 14.5 13.4
0 2 8 -19.4 25
-2 0 8 13.2 13.2
-2 2 8 26.2 14.6
0 -2 8 19.9 13.5
-1 -2 8 -28 29.1
3 -1 8 56.99 16.5
-3 1 8 -24.4 29.3
1 2 8 50.39 14.5
2 -3 8 42.2 14.7
-3 1 8 51.89 14.2
-2 3 8 12.1 30.2
-2 3 8 74.09 16.6
-1 -2 8 55.69 16.1
-1 -2 8 59.79 15.7
-3 1 8 60.99 15.1
1 2 8 -6.5 29.5
2 1 8 -9.7 25.2
1 -3 8 57.69 16.2
-1 3 8 24.6 30.3
-2 -1 8 51.79 15.1
-3 2 8 -1.3 30.4
-3 2 8 78.19 17.3
-2 -1 8 59.89 16
-2 -1 8 -27.7 32.4
1 -3 8 -19.4 52.09
3 -2 8 35.2 14
-1 3 8 66.19 15.6
2 1 8 41 15.5
0 3 8 66.89 16.2
0 -3 8 -5.6 28.9
0 -3 8 82.69 17.9
0 3 8 -0.5 29.4
3 -3 8 65.69 16.1
-3 0 8 57.59 15.6
0 -3 8 71.39 17.4
-3 0 8 65.89 16.3
3 0 8 62.79 15.3
-3 3 8 91.59 18.5
-3 3 8 2.5 31
-4 2 8 175.78 23.5
4 -2 8 159.18 23.7
-2 -2 8 176.18 22.9
2 2 8 160.18 23.7
-2 -2 8 193.48 23.5
-2 4 8 141.99 22.3
-4 2 8 122.99 18.4
2 -4 8 158.88 22.4
-4 1 8 172.38 21.8
-4 1 8 162.48 23.2
-3 4 8 142.29 22.9
-1 -3 8 -5.9 55.09
4 -1 8 149.59 23.2
1 3 8 172.78 23.7
-1 -3 8 162.78 24
-1 -3 8 148.69 22.9
3 -4 8 133.79 21.4
1 -4 8 123.09 19.8
3 1 8 95.99 17.7
4 -3 8 118.09 19.2
-3 -1 8 140.89 20.1
-3 -1 8 139.89 19.9
-1 4 8 142.19 19.6
-4 3 8 194.18 23.2
-4 0 8 -28.8 30.2
0 -4 8 77.39 17.6
-4 4 8 -28.2 30
0 4 8 -11.1 25.6
4 -4 8 47 14.6
-4 0 8 71.89 16.9
-4 0 8 53.79 15.1
0 4 8 60.09 15.9
0 -4 8 86.89 18.6
-4 4 8 89.09 19.2
4 0 8 50.19 15.6
-2 -3 8 76.09 17
5 -2 8 108.19 20.3
-5 2 8 73.89 16.2
-5 2 8 123.49 19.9
3 -5 8 112.49 19.5
2 3 8 101.09 18.6
-2 -3 8 87.79 17.2
-3 5 8 118.89 19.7
-3 -2 8 108.39 19.2
-5 3 8 114.89 19.3
5 -3 8 85.09 18.7
-3 -2 8 105.39 18.3
3 2 8 97.69 18.7
-2 5 8 116.39 19.3
2 -5 8 130.69 20.9
-1 -4 8 151.38 23.6
-1 -4 8 140.49 21.4
4 -5 8 138.09 22.6
-5 1 8 160.68 24.5
5 -1 8 150.18 24.1
-5 1 8 140.09 22.9
1 4 8 144.69 23.2
-4 5 8 163.28 23.9
1 -5 8 143.69 23.2
-5 4 8 172.28 23.8
-4 -1 8 146.59 21.9
-1 5 8 135.09 21.9
5 -4 8 123.19 22.2
-4 -1 8 149.99 22.4
0 -5 8 224.08 25.5
-5 0 8 236.28 25.5
5 -5 8 247.88 26.3
-5 0 8 239.38 27.2
5 0 8 238.68 26.1
-5 5 8 278.47 27
0 -5 8 267.27 28
0 5 8 213.88 25.1
-3 -3 8 363.96 30.2
-3 6 8 311.77 29.8
3 -6 8 336.07 29.6
-6 3 8 384.46 30.5
3 3 8 352.66 30.4
6 -3 8 327.97 30.6
-6 2 8 368.86 30
4 -6 8 371.16 31.2
-2 -4 8 393.06 31.5
6 -2 8 380.86 32.4
-6 2 8 370.36 31
-4 6 8 332.27 30.3
2 4 8 358.56 30.7
-4 -2 8 283.57 25.8
-4 -2 8 283.47 27.7
-6 4 8 345.47 29.1
4 2 8 284.87 28.5
6 -4 8 285.07 29.2
-2 6 8 301.67 28.5
2 -6 8 321.67 29.4
6 -1 8 48.9 17.7
-1 -5 8 78.19 18.1
-6 1 8 66.79 17.2
5 -6 8 63.19 17.6
-5 6 8 65.89 16.9
1 5 8 27.3 14.6
-6 1 8 65.99 17.2
1 -6 8 54.89 17.8
5 1 8 2.5 16.8
-5 -1 8 29.9 14
6 -5 8 60.29 17.7
-5 -1 8 27.5 14.5
-6 5 8 43.8 15.7
-1 6 8 37.8 15.1
6 -6 8 13.9 14.3
-6 0 8 12.8 13.9
6 0 8 -6 14.1
0 -6 8 14 15
-6 6 8 -1.4 13.2
-6 0 8 0.3 13.7
0 -6 8 2.6 13.3
0 6 8 5.1 14.3
-7 3 8 59.89 17
4 -7 8 69.49 17.4
3 4 8 52.89 16.6
-7 3 8 44.1 15.5
-4 7 8 70.79 16.7
-3 -4 8 79.69 18.3
7 -3 8 56.89 17.7
-3 7 8 74.09 17.6
3 -7 8 67.59 17.3
-4 -3 8 103.79 19.3
4 3 8 68.79 17.9
-7 4 8 53.09 15.8
7 -4 8 73.69 18.5
-7 2 8 174.88 24.1
5 -7 8 181.08 25.3
-2 -5 8 182.78 25
-7 2 8 149.09 24.5
2 5 8 150.18 22.9
-5 7 8 170.28 24.8
7 -2 8 161.88 26.3
-5 -2 8 192.78 25.2
-7 5 8 176.38 25.3
-2 7 8 208.78 24.7
2 -7 8 187.08 25.7
5 2 8 173.98 27.2
7 -5 8 189.88 25.3
1 6 8 73.79 17.4
7 -1 8 71.89 19
-7 1 8 114.79 20.6
-1 -6 8 144.19 22.5
-6 7 8 109.29 20.9
-7 1 8 76.29 17.1
6 -7 8 111.29 20.3
1 -7 8 152.68 23.7
7 -6 8 158.88 24.1
-1 7 8 134.19 21.1
-7 6 8 133.49 21.9
-6 -1 8 120.39 20.8
-7 0 8 11.9 14.2
-7 0 8 34.5 16.1
0 -7 8 32.1 15.4
7 0 8 29.2 16.6
-7 7 8 61.69 17.6
7 -7 8 47.5 16.6
0 7 8 30.4 15.2
-4 8 8 390.36 32.9
-8 4 8 415.86 33.7
4 -8 8 383.46 32.7
8 -4 8 378.76 34.5
-4 -4 8 402.26 32.8
-3 -5 8 166.58 24.7
-8 3 8 141.39 24.2
-8 3 8 146.79 24.5
-5 8 8 154.58 25.1
8 -3 8 116.59 21
5 -8 8 153.18 23.9
-8 5 8 149.79 25.1
-5 -3 8 133.89 24
5 3 8 87.29 19.2
8 -5 8 187.68 25.4
3 -8 8 192.28 25.1
-3 8 8 120.39 19.9
-6 8 8 50.19 17.3
-8 2 8 61.49 18.5
6 -8 8 92.19 19.9
8 -2 8 72.29 19.6
-2 -6 8 64.69 17.5
-8 2 8 69.79 17.5
-8 6 8 78.49 19.7
6 2 8 40 17
-2 8 8 51.49 16.2
8 -6 8 54.89 17.9
2 -8 8 88.39 20.3
-6 -2 8 50.79 16.4
-8 1 8 43.1 15.6
7 -8 8 52.99 17.6
-1 -7 8 76.79 19.3
8 -1 8 47.4 18.5
7 -8 8 6.6 12.8
-7 8 8 35.2 15.8
-8 1 8 47.3 18
8 -7 8 59.09 18.9
-7 -1 8 57.49 18.2
-1 8 8 50.29 15.9
1 -8 8 68.09 19.3
-8 7 8 51.39 17.9
0 8 8 -0.8 14.8
8 -8 8 8.4 15
8 -8 8 5.2 14.2
-8 8 8 13.1 16.5
0 -8 8 4.4 15
8 0 8 3.3 17
-8 0 8 4.6 15.3
-9 4 8 116.09 20.4
9 -4 8 128.79 22
-4 -5 8 142.49 24.5
5 -9 8 171.18 24.4
-5 9 8 161.18 26.3
-9 4 8 167.38 27.4
-5 -4 8 168.38 26.4
9 -5 8 186.78 27.4
4 -9 8 168.78 25.3
-9 5 8 188.18 28.1
-4 9 8 164.88 25.6
-6 9 8 79.99 19.4
9 -3 8 65.29 20.2
6 -9 8 33 14.1
-3 -6 8 96.29 20.9
-9 3 8 75.99 19.8
-9 3 8 59.49 18.3
6 -9 8 73.29 18.7
3 -9 8 91.39 20.2
-9 6 8 118.19 22.9
-3 9 8 65.59 18
9 -6 8 35.1 15.8
-6 -3 8 75.09 17.8
9 -6 8 102.79 21.8
-9 2 8 72.09 18.6
-7 9 8 133.39 23.5
7 -9 8 116.39 21.4
7 -9 8 64.09 16.7
-9 2 8 94.59 20.9
9 -2 8 109.09 23.8
-2 -7 8 117.59 21.5
-7 -2 8 90.19 18.9
-2 9 8 63.89 17.7
2 -9 8 101.19 20.8
-9 7 8 111.69 23.1
9 -7 8 45.4 16.4
9 -7 8 99.99 21.1
-8 9 8 196.68 30.1
9 -1 8 140.89 25.2
-1 -8 8 187.18 26.9
8 -9 8 171.08 25
-9 1 8 190.58 28.5
8 -9 8 186.08 26.9
-8 -1 8 191.18 27.4
9 -8 8 153.18 25.8
1 -9 8 193.28 28
9 -8 8 169.58 28.1
-9 8 8 184.68 30.4
9 -9 8 104.49 20.3
0 -9 8 151.78 23.7
-9 0 8 137.29 23.7
9 -9 8 146.89 24.5
-9 9 8 154.08 26.1
-5 10 8 210.88 29.1
-5 -5 8 228.38 27.5
-10 5 8 238.78 30.1
10 -5 8 206.08 30.1
5 -10 8 140.49 23.4
5 -10 8 206.28 26.8
10 -4 8 88.79 21.6
6 -10 8 86.79 18.8
-4 -6 8 124.69 21.8
-10 4 8 153.18 23.9
-10 4 8 94.69 20.1
-6 10 8 138.29 23.2
6 -10 8 138.49 23.3
10 -6 8 82.19 19.9
10 -6 8 86.19 20.9
-4 10 8 110.89 21.2
-10 6 8 108.59 23
-6 -4 8 133.19 22.8
4 -10 8 130.09 23.4
-3 -7 8 16.9 15.8
7 -10 8 16.3 14.8
10 -3 8 5 15.9
7 -10 8 34.1 18.1
-10 3 8 34.6 17.6
-10 3 8 23.3 17.4
-7 10 8 42.2 19.2
10 -3 8 14.3 18
10 -7 8 24.8 18.5
-10 7 8 39 20.7
3 -10 8 -3 13.5
-3 10 8 9.2 15.2
3 -10 8 32 18.6
-7 -3 8 13.2 15.7
10 -7 8 1.4 15.9
-2 -8 8 141.49 24.1
8 -10 8 140.89 24.3
-8 10 8 108.29 22.6
8 -10 8 100.79 19.8
10 -2 8 70.99 21.4
-10 2 8 91.29 20.6
-10 8 8 139.19 25.9
-8 -2 8 111.89 21.5
2 -10 8 142.09 24.6
10 -8 8 105.09 21.9
10 -8 8 99.79 21.4
9 -10 8 127.69 23.1
10 -1 8 118.79 25
-10 1 8 146.39 25.7
-9 10 8 173.98 28.1
-1 -9 8 160.18 25.2
9 -10 8 118.69 21.3
10 -9 8 86.69 19.4
10 -9 8 85.09 21.2
-9 -1 8 99.89 21.2
-10 9 8 143.89 26.7
1 -10 8 112.09 22.8
10 -10 8 231.38 30.6
10 -10 8 189.78 29.1
-10 10 8 236.08 34.6
0 -10 8 196.68 28.3
-10 0 8 221.08 30.3
-5 -6 8 17 16
-11 5 8 8.7 15.4
6 -11 8 19.4 15.3
-11 5 8 15.3 18.7
11 -5 8 12.6 18.5
6 -11 8 30.7 17.8
-6 11 8 26.2 19
11 -5 8 26 18.7
5 -11 8 17.5 16.8
-5 11 8 26.6 18.6
-6 -5 8 14.8 15.7
-11 6 8 17.9 18.9
11 -6 8 16 17.1
11 -6 8 10.8 18.4
5 -11 8 -0.7 14.9
-7 11 8 73.09 21.4
7 -11 8 98.39 21
-11 4 8 75.39 19.8
11 -4 8 43.2 18.7
-4 -7 8 128.69 22.9
11 -4 8 83.69 23.3
-11 4 8 96.19 22.7
7 -11 8 71.59 18.7
11 -7 8 127.79 25.2
-7 -4 8 155.08 25.2
11 -7 8 108.49 23.2
4 -11 8 128.29 24.8
-11 7 8 141.69 26.7
-11 3 8 54.29 20.2
-11 3 8 27.7 18.2
11 -3 8 59.69 22.1
-8 11 8 37.3 20.3
-3 -8 8 43.8 18
11 -3 8 7.2 18.1
8 -11 8 53.79 20.2
8 -11 8 34.7 16.6
3 -11 8 45.1 19.9
11 -8 8 62.29 21.9
-8 -3 8 33.9 18
11 -8 8 26.8 18
3 -11 8 9.5 15.1
-11 8 8 47.3 22.2
9 -11 8 123.59 22.7
-2 -9 8 128.79 23.2
-11 9 -8 72.69 14.7
-11 2 8 164.88 26.2
-9 11 8 108.99 23.8
9 -11 8 93.99 20.5
-11 9 8 73.39 15.7
11 -9 8 113.69 22.1
-9 -2 8 53.89 12.3
-11 10 -8 177.28 20.1
-1 -10 8 231.08 30.4
10 -11 8 225.08 29.4
10 -11 8 243.18 30.8
-11 1 8 221.88 30.9
-10 11 8 250.97 35.2
-10 11 8 164.98 21.9
1 -11 -8 161.68 17.5
-11 10 8 171.78 23.3
1 -11 8 212.38 29.2
-1 -10 -8 140.19 16.7
-10 -1 8 230.08 30.3
11 -10 8 244.68 33
-11 10 8 266.27 35.9
11 -10 8 220.78 30.9
-10 -1 8 148.19 19.3
-11 0 8 10.3 11.7
11 -11 8 1 17.9
11 -11 8 -13.4 16.9
0 -11 -8 5 9.8
-11 0 -8 -0.3 3.3
-11 11 -8 2 13.2
-11 0 8 10.4 16.7
0 -11 8 13.8 18
-11 11 8 7.6 20.2
11 0 -8 1.3 10.1
-11 11 8 2.8 14.4
11 -11 -8 -0.4 10.2
-6 -6 8 3.4 9.3
6 -12 8 14.1 18.4
12 -6 8 27.6 20.3
-6 12 -8 10 14.3
12 -6 8 3.6 19.9
6 6 -8 2.2 10.5
-6 12 8 12 19.9
6 -12 8 6.5 15.9
-12 6 -8 9.4 12.2
-6 -6 -8 1.9 4.3
-6 -6 8 17.5 17
-12 6 8 19.2 20.8
-5 12 -8 119.09 18.3
-12 5 8 66.09 19.9
-5 -7 8 173.78 26.1
-12 5 8 91.89 22.7
7 -12 8 143.49 22.3
12 -5 8 111.89 24.6
12 -5 8 107.69 24.2
-7 12 8 111.09 24.5
7 -12 8 136.79 24
5 -12 8 104.79 22.5
-7 12 -8 86.89 16
-7 -5 8 66.29 12.6
5 -12 8 82.09 19.2
-12 7 8 147.19 27.1
-7 -5 8 111.79 22
12 -7 8 108.59 24
12 -4 8 81.79 24.1
-4 12 -8 94.39 17.1
-12 4 8 73.49 20.5
-4 -8 8 74.29 20
12 -4 8 48 20.4
-12 4 8 63.39 21.3
-12 8 -8 62.39 13.7
8 4 -8 72.09 13.1
8 -12 8 106.39 22.8
-8 12 8 101.09 24.7
8 -12 8 100.19 21
12 -8 8 74.39 22.2
-8 12 -8 11.4 12.5
-12 8 8 17.5 12.5
12 -8 8 76.59 20.9
-8 -4 8 93.29 22.2
4 -12 8 53.19 18.2
4 -12 8 96.09 22.4
-12 8 8 98.69 25
-8 -4 8 40 11.3
-12 3 8 36.6 19.2
9 -12 8 7.6 17.3
-9 -3 -8 -0.3 3.4
-3 12 -8 5 13.9
3 -12 -8 12.6 8.9
12 -3 8 -5.1 19.2
3 -12 -8 1.7 12.3
9 3 -8 10.7 11
-12 9 -8 4.1 13.2
-9 12 8 15.4 20.3
9 -12 8 16 18.2
-3 -9 8 0.3 17.1
-9 -3 8 3.5 17.1
12 -9 8 -1 19.7
12 -9 8 9.3 18.1
3 -12 8 3.5 15.6
-9 12 -8 -2.5 13.3
-9 -3 8 18.4 12.2
9 -12 -8 -1.7 10.5
-3 -9 -8 4.2 8.8
-12 9 8 16.3 19.8
-3 -9 -8 -1.5 2.9
3 -12 8 9.9 18.4
-12 9 8 10.9 13.9
-10 12 8 52.29 21.7
-12 10 -8 45 13.9
12 -2 8 5.3 18.9
10 -12 8 90.69 23.9
-12 2 8 82.09 21.8
-2 -10 8 89.49 22.2
2 -12 -8 71.09 12.8
10 2 -8 58.99 13.4
-10 12 8 44.3 15
-2 12 -8 18.8 14
10 -12 8 47.2 19.8
12 -10 8 96.39 25.7
2 -12 8 49.5 19.6
12 -10 8 42.4 20.6
-12 10 8 49.9 15.6
-2 -10 -8 59.29 11.8
-10 -2 8 43.3 12.3
2 -12 8 1.4 15.2
-12 10 8 82.09 25.2
10 -12 -8 28.1 11.4
-10 -2 8 69.39 21.6
11 -12 8 67.29 20.2
11 -12 8 76.09 23.1
1 -12 -8 37.7 11.6
-12 1 8 66.39 21.6
-1 12 -8 -3.7 14.2
11 1 -8 53.39 12.6
-1 -11 8 45.1 19.4
-12 11 -8 54.89 14.3
1 -12 -8 37.2 11.4
-11 12 8 86.39 25.4
-12 1 8 41.3 12.7
12 -11 -8 40.9 11.7
-11 12 8 50.49 15.8
-11 -1 8 64.39 13.5
11 -12 -8 63.69 13.5
-12 11 8 79.79 17.1
-1 -11 -8 38.7 11.5
12 -11 8 83.09 24.8
-11 12 -8 62.99 15.6
1 -12 8 72.19 20.7
12 -11 8 37.1 19.4
-11 -1 8 80.29 21.4
-12 11 8 63.89 22.7
-12 0 8 -5.4 11.6
-12 0 8 1.9 18.2
0 -12 -8 12.4 11.1
-12 12 -8 4.8 13.9
0 -12 -8 2.9 10.8
-12 12 8 7.5 20.1
0 -12 -8 -1.5 3.1
0 -12 8 -0.7 16.9
12 -12 8 4.5 18.9
-12 0 -8 -2.1 3.6
12 -12 8 -8.3 19.8
12 -12 -8 6.1 11.7
-12 12 8 13.1 14.7
12 0 -8 6.1 11.5
6 -13 -8 3.6 10.7
-6 -7 8 13.3 10.5
7 6 -8 8.7 12
13 -6 8 29.2 20.9
13 -6 8 16.2 21.6
7 -13 8 25 17.4
-7 -6 -8 0.8 3.9
-7 13 8 3.6 19.9
-6 13 -8 16.4 15
6 -13 -8 13 10.9
7 -13 8 7.6 18.6
-13 6 8 18.1 20.5
-13 7 -8 6.5 12.2
-6 -7 8 16.6 19.3
-7 13 -8 27.7 15.7
-13 6 -8 11.7 14.2
13 -7 8 13.1 20.5
7 -13 -8 -0.1 10.5
-6 -7 -8 -1.5 3.2
6 7 -8 8.7 12.6
6 -13 8 4.3 15.7
-13 6 -8 1.7 10.9
-13 7 8 -2.1 19.8
6 -13 8 8.2 19
13 -7 8 16.9 20.6
-13 7 8 2.3 12.6
-7 -6 8 3.7 10.6
-7 -6 8 -6.7 18
8 -13 8 31.5 18.8
13 -5 8 39.7 23
13 -5 8 27.7 21.2
-5 -8 8 38.9 19.4
-5 -8 8 14.5 10.1
-13 8 -8 23.9 14.5
5 -13 -8 19.7 9.2
8 -13 8 41 18.7
-13 5 8 18.7 19.4
-13 5 8 21 18.5
8 5 -8 23.7 13
5 -13 -8 15.9 11
-8 13 8 30 20.1
-5 13 -8 30.3 15.7
-13 8 8 24.1 13.4
-13 8 8 29.8 22
-5 -8 -8 11.8 9
8 -13 -8 24.9 12.7
13 -8 8 43.1 23.8
-8 -5 8 31.2 12.3
5 8 -8 25 12.7
5 -13 8 35.6 18.3
-8 13 -8 29.2 14.8
13 -8 8 19 20.6
-8 -5 8 22.2 18.5
5 -13 8 38.5 20.2
-13 5 -8 27.4 13.7
9 -13 8 115.09 23.5
-13 4 8 119.59 24.1
9 4 -8 161.88 18.9
-13 9 -8 150.58 19.6
9 -13 8 113.69 23.5
4 -13 -8 129.99 16.5
-4 -9 8 113.19 22.6
13 -4 8 159.58 29.5
-4 13 -8 116.69 19
-9 13 8 192.48 29.2
13 -4 8 114.99 25.5
-13 4 -8 67.99 14.7
9 -13 -8 99.39 15.1
-13 9 8 125.09 18.8
-9 -4 8 170.68 29.8
4 -13 8 119.29 23.5
13 -9 8 138.09 25.6
4 9 -8 67.99 14.7
-13 9 8 84.99 24.3
-9 13 -8 132.49 18.8
-4 -9 -8 123.99 15.3
13 -9 8 124.79 26.3
4 -13 8 103.89 21.1
-9 -4 8 106.19 15.3
-3 -10 8 198.88 30.7
13 -10 -8 108.49 15.2
-10 13 8 140.99 26.2
-13 3 8 208.38 30.7
3 -13 -8 144.99 17.5
3 -13 -8 142.19 17.5
-3 13 -8 155.18 20.3
10 3 -8 143.09 17.4
10 -13 8 190.48 29.6
10 -13 8 167.68 29.8
-13 10 -8 132.89 18.1
-10 13 8 108.79 17.9
-3 -10 -8 90.19 14.1
-10 -3 8 117.09 15.8
3 -13 8 76.19 20.5
10 -13 -8 132.39 16.4
-10 13 -8 93.09 16.7
13 -10 8 137.19 26
-13 10 8 157.48 20.3
13 -10 8 154.78 29
-10 -3 8 162.98 28.9
-13 10 8 124.29 26.6
-13 11 -8 47.2 14
-13 2 8 56.09 13.9
-11 13 8 41.3 21.7
13 -11 -8 72.09 13.9
2 -13 -8 41.2 11.7
-13 2 8 60.89 21.5
-2 -11 8 44 19
11 -13 8 70.69 23.9
-11 13 8 34.8 15
-2 13 -8 67.69 17.4
13 -2 8 3.7 20.4
11 2 -8 66.39 14.5
11 -13 8 60.39 21.2
2 -13 -8 54.79 13.8
-11 -2 8 54.29 19.8
-13 11 8 50.09 16.1
-2 -11 -8 44.9 12
-11 13 -8 58.79 14.9
-2 -11 -8 45.7 12.3
-11 -2 8 71.59 14.4
-13 11 8 67.69 23.1
11 -13 -8 57.99 14.1
2 -13 8 4.5 18.2
13 -11 8 88.19 25.9
13 -11 8 54.59 21.2
12 -13 8 85.29 24.9
-13 12 -8 79.59 16.5
-12 13 8 55.49 16
-12 13 8 85.79 25.2
1 -13 -8 98.29 14.7
12 1 -8 99.29 15.8
-1 13 -8 68.19 16.3
1 -13 -8 54.69 13.7
12 -13 8 65.69 23
13 -12 -8 68.19 14.3
-13 1 8 85.59 14.9
-13 1 8 104.39 24.8
13 -12 8 54.69 23.3
-13 12 8 73.79 17.3
13 -1 -8 36.1 12.2
-1 -12 -8 54.79 14.1
12 -13 -8 57.29 13.9
-12 -1 8 49.3 20.4
13 -12 8 41.5 20.3
-12 13 -8 62.39 15.9
-13 12 8 58.89 23.2
-12 -1 8 64.19 14.5
-1 -12 -8 66.29 13.6
-13 13 -8 55.69 14.9
0 -13 -8 75.69 13.7
-13 0 8 110.29 16.6
-13 13 8 116.59 18.7
-13 0 8 99.09 24.4
13 -13 8 101.99 23.7
-13 13 8 71.79 23.9
0 -13 -8 100.49 15.7
13 -13 8 60.29 22.8
13 0 -8 63.09 13.9
13 -13 -8 70.19 14.4
-7 -7 8 -2.3 19.4
14 -7 8 7.9 20.8
-7 14 -8 9.8 14.7
-7 -7 8 2.3 10.9
7 7 -8 1.6 13
-14 7 -8 8 14.8
7 -14 8 -16.2 15.9
14 -7 8 11.1 21.7
-14 7 -8 14.1 13.1
-14 7 8 4.3 12.2
7 -14 8 4.1 20.2
-7 -7 -8 0.1 3.9
14 -7 -8 -4.3 16.7
7 -14 -8 4.5 10.2
-14 7 8 -2.5 19.3
7 -14 -8 6.5 11.6
6 -14 -8 14.2 10.2
8 -14 8 24.1 18.2
-8 14 8 -2.6 19.1
14 -6 8 44.7 23.9
6 -14 -8 32.6 12.3
8 -14 8 24 19.4
14 -6 8 23.6 21
-6 14 -8 32.9 16.2
-14 8 -8 33.7 14.3
-14 6 8 8.4 18.9
-6 -8 8 31.1 21.1
8 6 -8 30.8 13.3
-6 -8 8 20.1 11.2
14 -8 -8 -2.6 11.8
6 8 -8 22.2 14.4
-8 -6 8 24.4 19
-14 8 8 24.1 13.9
14 -8 8 19.5 21.7
-14 6 -8 8.9 12.1
-8 -6 8 12.9 12
-14 8 8 31.9 21.9
-14 6 -8 18.9 14.5
14 -8 8 31.5 22.8
6 -14 8 -4.9 19.2
8 -14 -8 21.4 12
-8 14 -8 21.3 15.8
6 -14 8 17.8 17.4
14 -5 8 129.29 27.6
-5 -9 8 186.68 32
9 -14 8 120.19 23.8
-9 14 8 122.39 24.4
5 -14 -8 149.19 20.3
9 -14 8 194.28 30.6
9 5 -8 148.59 19.8
-5 -9 8 117.59 17.3
-14 9 -8 172.58 20.2
-5 14 -8 183.38 21.4
5 -14 -8 130.29 16.4
14 -5 8 87.69 24.5
14 -9 -8 111.59 15.9
-14 5 -8 153.98 22.7
-14 9 8 123.09 26.3
-9 -5 8 106.89 23.5
5 9 -8 126.49 17.8
14 -9 8 141.19 25.9
5 -14 8 109.29 21.7
-14 9 8 160.38 20
-9 -5 8 132.89 18.9
-9 14 -8 147.09 21.8
14 -9 8 121.09 27.1
9 -14 -8 147.99 17.9
-4 -10 8 41.2 20.5
-4 -10 8 31.1 10.8
-14 10 -8 39.1 14.8
10 -14 8 22.9 19.9
14 -4 8 5.6 20.8
4 -14 -8 36.5 13.1
-14 4 8 4 11.2
-14 4 8 39.6 20.2
-4 14 -8 45 16.9
10 4 -8 49.3 14.3
-10 14 8 41.9 22.1
4 -14 -8 27.3 11.2
-10 14 8 44.6 14.1
10 -14 8 17.7 18.9
14 -10 -8 42.6 13.1
-4 -10 -8 25.7 12
14 -10 8 56.29 25.7
4 10 -8 51.99 14.9
-14 10 8 42.1 15.1
-10 -4 8 41.3 13.3
4 -14 8 3.1 16.9
10 -14 -8 47 13.3
-10 14 -8 46.9 16.7
-10 -4 8 31.5 18.8
-14 10 8 88.09 25.5
14 -10 8 37.7 20.8
-14 4 -8 21.4 14.6
11 -14 8 32.1 19.7
14 -3 8 1.3 25.1
-14 3 8 36.9 20.5
11 3 -8 30.6 13
-3 -11 8 25.5 18.1
3 -14 -8 28 12.5
-3 -11 8 4.7 9.3
-14 3 8 58.49 13.8
-11 14 8 52.29 23.2
-14 11 -8 49.4 15.1
3 -14 -8 25.5 11.2
11 -14 8 45.4 21.3
-11 14 8 29.4 14.8
14 -11 -8 42.5 13.3
-3 14 -8 33.9 15.5
-11 14 -8 43.7 13.7
-11 -3 8 75.59 21.4
-14 11 8 70.99 16.5
11 -14 -8 60.59 14.1
-14 11 8 97.39 25.9
14 -11 8 56.99 21.5
14 -11 8 113.49 28
-11 -3 8 68.59 14
-14 3 -8 81.59 16.2
-11 14 -8 56.19 15.9
-3 -11 -8 74.79 13.9
3 11 -8 45.2 14.3
14 -12 -8 51.59 13.3
2 -14 -8 32.1 11.9
-14 12 -8 52.69 15.2
-2 14 -8 21.7 15.4
-14 2 8 47.7 13.7
-12 14 8 35.2 14.7
-12 14 8 24.9 21.3
12 2 -8 37.1 12.9
-14 2 8 35.1 20.8
12 -14 8 33.4 21.6
2 -14 -8 48.8 13.9
12 -14 8 26.2 19.4
-14 12 8 27.9 15.6
12 -14 -8 23.4 12.8
14 -12 8 19.3 20.1
-14 12 8 15.2 22.1
2 12 -8 -6.8 13.2
-12 14 -8 -0.9 12.7
14 -2 -8 1.1 10.2
-12 -2 8 34.6 12.9
-12 14 -8 21.4 13.9
14 -12 8 36.9 25
-12 -2 8 10.9 19.1
-2 -12 -8 24.5 12.5
-14 2 -8 8.9 12.1
13 -14 8 65.89 22.6
13 -14 8 21.1 20.9
14 -13 -8 75.79 14.4
-14 13 -8 66.49 15
13 1 -8 47.8 13.5
-13 14 8 53.29 23.5
-13 14 8 26.9 14.6
-1 14 -8 91.19 17.5
-14 1 8 38.6 21
-14 1 8 77.49 14.5
1 -14 -8 55.49 13.5
1 -14 -8 73.19 12.9
-13 -1 8 95.39 23.5
-14 13 8 110.09 27.8
14 -1 -8 63.89 13.3
14 -13 8 66.29 24.1
-14 13 8 92.19 17
13 -14 -8 87.39 15.1
-13 14 -8 60.59 15.2
-13 -1 8 66.19 13.4
-1 -13 -8 78.49 14.3
14 -13 8 71.79 22.9
0 -14 -8 0.6 3.7
14 -14 8 3.8 21.3
-14 14 8 -8.1 13
0 14 8 6.7 15
14 0 -8 3.3 11.5
-14 14 8 6 23.2
-14 0 8 9.3 11.2
0 -14 -8 2.7 12
14 -14 8 -14.7 19.6
14 -14 -8 -1.9 12.2
-14 0 8 14.1 19.4
-14 14 -8 4.4 13.1
0 14 -8 -7.8 13.1
8 7 -8 105.89 17.3
-7 -8 8 55.69 13.2
8 -15 8 48.6 18.6
-15 8 -8 80.59 16.5
15 -7 8 46.5 22.8
-7 -8 8 74.89 22.8
15 -7 8 88.49 27.8
-7 15 -8 68.29 16.9
-8 15 8 51.09 16.8
15 -8 -8 55.09 14.9
7 -15 -8 77.99 14.4
-15 7 -8 99.89 16.9
-8 -7 8 88.09 23.8
15 -8 8 50.59 23.4
7 -15 8 49 19.4
15 -7 -8 51.79 14.5
-15 8 8 51.99 14.8
8 -15 -8 53.89 13.4
-15 8 8 37.3 21.2
15 -8 8 80.59 25.8
7 8 -8 76.49 15.5
-8 15 -8 58.59 16.8
-8 -7 8 67.19 14
-15 7 -8 82.89 17.9
-6 15 -8 22.6 15.6
15 -6 8 40 24.3
6 -15 -8 23.2 10.8
9 6 -8 36.5 13.2
-15 9 -8 45.1 15.3
-6 -9 8 41.9 21.5
6 -15 -8 42.6 13.3
-9 15 8 37.4 16
15 -6 8 7.4 20.6
-6 -9 8 21.7 11.9
15 -9 -8 29.3 13.5
9 -15 8 30 19.4
6 9 -8 64.09 16.2
-9 15 -8 51.49 16.6
15 -9 8 37.6 24
-9 -6 8 39.8 19.7
-15 6 -8 48.9 15.7
-15 9 8 44.8 22.4
-9 -6 8 48.8 13.6
15 -9 8 37.7 22
9 -15 -8 51.59 13.5
15 -6 -8 12.1 11.9
-6 -9 -8 32.6 12.2
-15 6 -8 20.4 12.2
6 -15 8 29.4 18.2
-15 9 8 61.39 15.7
-5 -10 8 79.59 13.8
10 -15 8 64.99 20.2
10 5 -8 58.49 14
5 -15 -8 93.39 14.2
15 -5 8 81.69 26.8
5 -15 -8 92.59 16
-15 10 -8 98.29 17.4
-5 -10 8 64.59 21.9
-5 15 -8 83.19 17.5
-15 5 8 1.6 31.3
15 -10 -8 73.99 14.9
-10 -5 8 73.69 15.2
-10 -5 8 47.6 20.6
-15 10 8 44.5 15.3
15 -10 8 41.9 21.8
5 10 -8 64.69 15.4
-10 15 -8 46.3 15.9
-15 5 -8 52.49 15.7
-15 10 8 55.49 23.2
-5 -10 -8 59.69 14.3
10 -15 -8 75.79 15.4
15 -10 8 73.49 27.7
-4 -11 8 -5 24.7
-15 4 8 42.5 20.8
-15 11 -8 55.19 14.4
15 -11 -8 85.49 15
11 -15 8 30.4 19.3
-11 15 8 49.7 22.2
-15 4 8 53.29 13.8
4 -15 -8 46.3 12
-4 15 -8 40.4 15.4
11 4 -8 63.49 13.9
4 -15 -8 93.79 15.9
15 -4 8 4.4 30.9
-4 -11 8 44.4 11.2
15 -4 8 59.79 26.2
-11 15 8 72.09 15.7
15 -11 8 115.19 28.4
4 11 -8 74.79 16.1
-15 4 -8 85.39 17.4
-11 -4 8 91.99 23.3
11 -15 -8 75.69 14.4
4 -15 8 1.4 27.4
-4 -11 -8 85.79 15.6
-15 11 8 97.09 17.4
-11 15 -8 72.39 16.8
15 -11 8 46 20.7
-15 11 8 56.39 23.6
-11 -4 8 109.19 16.2
3 -15 -8 62.19 12.8
3 -15 -8 98.69 15.6
-12 15 8 49.6 15.1
-12 15 8 59.79 22.1
-15 12 -8 97.79 16.7
-15 3 8 77.89 23.4
15 -12 -8 83.89 14.6
-3 15 -8 67.69 16.7
12 3 -8 77.49 14.8
12 -15 8 64.39 21.7
-15 3 8 81.99 15.3
-12 -3 8 93.99 15.5
-12 15 -8 55.89 15.3
-3 15 8 74.09 17.2
-15 12 8 59.99 23.7
3 12 -8 65.49 15.6
15 -12 8 42.1 20.3
-12 15 -8 77.09 16.1
12 -15 -8 68.99 13.9
-15 12 8 76.79 16.7
15 -12 8 88.39 27.5
-15 3 -8 49.3 15.1
-3 -12 -8 52.89 14.1
-12 -3 8 43.9 20.5
13 -15 8 4.4 18.4
-15 2 8 22.8 20
15 -13 -8 38.3 13.2
-13 15 8 33.3 22.5
2 -15 -8 29.8 12.3
13 2 -8 41 13.1
-13 15 8 40 14.8
-15 2 8 32.3 12.7
2 13 8 27 15.1
-2 15 -8 31.1 15.2
-15 13 -8 20.2 12.7
-13 -2 8 78.39 23
-15 13 8 104.39 27.3
-15 13 8 61.99 16.2
-15 2 -8 54.09 14.8
15 -13 8 21.8 18.8
-2 -13 -8 62.19 13.7
15 -13 8 69.79 25.4
13 -15 -8 53.89 13.2
-13 15 -8 67.09 16.5
-13 -2 8 60.29 13.5
-2 15 8 54.89 15.9
-14 15 8 13.2 21.4
-1 15 -8 18.2 13.9
14 -15 8 -5 17.7
1 14 8 18 15.3
-15 1 8 22.9 12.1
15 -14 -8 11.4 12.1
14 1 -8 3.4 12.2
1 -15 -8 16.1 12.1
-15 1 8 14 19.1
-14 15 8 16.2 13.3
-15 14 -8 11.8 12.9
-15 14 8 16.1 14.3
-15 14 8 16.8 22.4
15 -1 -8 13.8 10.9
14 -15 -8 11.6 12
-15 1 -8 1.3 13.5
-14 -1 8 26.1 13.1
-1 15 8 19.4 15
-14 15 -8 20.1 13.4
-1 -14 -8 9.8 12.1
-14 -1 8 13.5 19.4
15 -14 8 -1.9 18.3
-15 15 8 3.2 14.1
0 -15 -8 1.6 4.4
0 15 -8 -2.6 11.7
0 -15 -8 6.1 11
-15 15 8 0.5 21.9
15 -15 -8 11.9 11.6
-15 0 8 7.5 19.5
-15 15 -8 10.9 12.4
-15 0 8 -3.7 11.5
0 15 8 12.6 14.7
15 0 -8 8.5 11.4
8 -16 -8 7.2 9.3
-16 8 -8 55.19 15.5
-8 16 -8 40.8 15.8
16 -8 8 44 24.4
8 8 -8 83.69 16
8 -16 8 1.1 18.3
-8 -8 8 36.6 19.6
-8 16 8 47.5 16.6
8 -16 -8 36.2 12.5
16 -8 -8 54.69 16.1
-8 -8 8 40.4 13
-8 -8 -8 38 13.5
-16 8 8 33.9 13.4
16 -8 8 9.6 22.6
7 -16 -8 98.69 13.7
-16 9 -8 138.79 18.5
16 -9 -8 142.69 17.7
-9 16 8 125.69 19.8
9 7 -8 139.69 17.1
16 -7 8 186.68 33.7
-7 -9 8 110.09 15.6
7 -16 -8 138.29 19.1
-16 9 8 121.79 18.1
9 -16 -8 167.48 20.8
-7 16 8 192.08 22.2
16 -7 -8 137.69 18.6
-16 7 -8 134.19 19.9
-9 -7 8 143.99 20.2
-9 -7 8 195.98 31.3
7 9 -8 176.18 21.4
-16 7 -8 162.08 23
16 -9 8 136.29 29
-9 16 -8 179.48 20.7
-7 -9 -8 178.48 22.2
16 -6 8 26.9 25.7
10 -16 8 12 18.2
-6 -10 8 45.5 13.7
6 -16 -8 36.9 11.8
-6 16 -8 40.5 15.6
-16 10 -8 42.8 15.2
6 -16 -8 42.6 12.9
-10 16 8 30.4 15.8
10 6 -8 48.6 14.2
16 -10 -8 35.4 13.6
16 -10 8 28.6 23.9
-16 6 -8 25.1 14.7
-10 -6 8 29.3 19.3
6 -16 8 3.7 30.4
-16 10 8 17.6 21.4
-6 16 8 31.6 15.4
-16 6 -8 1.5 12.1
10 -16 -8 31.6 12.4
-16 10 8 15.4 14.2
6 10 -8 22.4 14.2
16 -6 -8 15.5 13.1
-6 -10 -8 30.6 13.8
-10 16 -8 16.1 15
-10 -6 8 33.8 13.4
16 -10 8 3.5 20
16 -5 8 49.99 25.5
-16 11 -8 55.79 14.5
11 5 -8 65.09 14.7
11 -16 8 0 18.2
5 -16 -8 44.9 13
16 -11 -8 49.4 13.4
-11 16 8 36.3 13.6
-16 5 8 50.59 13.5
5 -16 -8 63.09 13.1
-5 16 -8 56.59 16.7
-5 -11 8 42.4 12.3
-16 11 8 52.39 24.2
-11 16 -8 101.59 18.1
5 11 -8 68.99 15.8
-11 -5 8 73.89 14.5
-11 -5 8 82.39 23.4
16 -11 8 77.99 27.8
-16 11 8 113.79 18.8
16 -5 -8 59.09 15.2
11 -16 -8 78.29 14.8
-16 5 -8 88.29 17.1
-5 -11 -8 76.99 15.2
-5 16 8 112.39 19.9
-16 12 -8 102.49 17.2
-12 16 8 72.39 15.6
12 -16 8 -4 18.3
4 -16 -8 52.39 13
16 -4 8 4.1 24.2
12 4 -8 42.1 13.1
-16 4 8 44.5 13.3
4 -16 -8 56.29 12.6
-4 16 -8 57.19 15.5
16 -12 -8 55.79 13.5
-16 12 8 61.09 16
-4 -12 -8 61.09 14.2
12 -16 -8 86.49 15
-12 -4 8 70.29 13.6
-12 -4 8 68.69 22.4
-16 12 8 79.49 26
4 12 -8 57.49 14.4
-12 16 -8 25.9 12.4
16 -12 8 66.39 25.7
-12 16 -8 59.39 15.5
-16 4 -8 53.89 15.2
-4 16 8 62.99 16.4
-16 13 -8 8.8 13
13 3 -8 6.4 11.6
3 13 8 -3 12.8
-16 3 8 14.4 12.7
16 -13 -8 19.2 12.3
-13 16 8 10.3 13.2
-16 3 8 -0.7 21.1
3 -16 -8 14.8 11.4
-3 16 -8 18.9 14.4
13 -16 8 -2 20.4
-13 16 -8 7.4 13.4
-13 16 -8 4.5 12.5
-13 -3 8 15.4 20
-16 3 -8 14.3 13.6
16 -13 8 4.8 22.8
-16 13 8 22.8 15.3
-3 -13 -8 0.2 3.8
13 -16 -8 11.4 11.5
-13 -3 8 22.2 11.7
3 13 -8 21.1 12.7
16 -13 8 -3 23.4
-3 -13 -8 21.2 13
-16 13 8 7.7 23.3
16 -3 -8 -10.6 15.6
-3 16 8 12.6 14.4
-16 14 -8 22.8 13.3
16 -14 -8 29.8 12.3
2 -16 -8 33.3 13.1
-16 2 8 -1.1 25
-2 16 -8 15.4 14.6
14 2 -8 24.2 11.9
2 14 8 23.3 14.4
-16 2 8 24.7 12.2
-14 16 8 39.9 15.4
-16 14 8 13.1 22.2
-14 -2 8 6.5 18.5
2 14 -8 8.8 11.2
-2 -14 -8 48.5 13.4
-16 2 -8 30.1 13.8
14 -16 -8 38.7 12.1
-2 16 8 51.99 15.7
-14 -2 8 53.99 13.7
-16 14 8 44.3 15.8
-14 16 -8 32.7 13.6
-16 15 -8 5.8 12.2
-15 16 8 7.8 14
1 15 8 -3.4 14.4
15 1 -8 11.9 11.3
-1 16 -8 2.6 13.1
1 -16 -8 4.7 10.5
16 -15 -8 8.1 11.5
1 -16 -8 0.1 3.1
-16 1 8 1.7 11.1
-15 -1 8 -1 11
-1 -15 -8 -0.6 3.4
-1 -15 -8 9.9 12
16 -1 -8 1.7 9.3
-1 16 8 6.2 14.2
-15 -1 8 1.2 20.5
-15 16 -8 6.3 12.4
-16 15 8 3.3 13.8
-16 1 -8 2.9 12.7
15 -16 -8 4.5 10.5
-16 15 8 -1.2 23.3
0 -16 -8 0 3.1
-16 0 8 5.7 10.8
-16 16 -8 3.7 11.8
0 16 -8 -0.4 10.9
16 -16 -8 -2 10.3
0 -16 -8 1.6 11.8
0 16 8 -0.5 14
16 0 -8 3.9 9.8
-16 16 8 -4.7 13.6
9 8 -8 50.29 13.8
-9 17 8 77.29 18.6
-8 17 -8 73.49 16.5
8 -17 -8 44.8 11.9
-9 -8 -8 40.1 13.7
17 -9 -8 46.8 13.9
-17 9 -8 60.29 15.5
17 -8 8 44.5 25
-8 -9 8 52.99 13.5
-17 8 8 35.8 13
-9 -8 8 44.6 13.4
-8 17 8 59.89 17.5
8 9 -8 50.99 14
17 -9 8 22.6 23.5
9 -17 -8 49.6 12.7
-17 9 8 51.79 14.8
-8 -9 -8 72.89 15.7
-9 17 -8 65.49 16.6
-17 8 -8 71.19 15.6
17 -8 -8 61.19 15
-7 17 -8 26.7 15
7 -17 -8 24 10.7
10 7 -8 34.3 13.5
-10 17 8 21.3 15.9
-17 10 -8 24 14.1
17 -10 -8 20.7 12.5
-7 -10 8 24.7 12.5
7 -17 -8 28.5 11.9
17 -7 8 16.4 21.7
7 10 -8 23.5 13.1
-17 7 -8 15.1 12.8
10 -17 -8 16.6 10.8
-17 10 8 25.7 14.7
-7 17 8 27.1 15.6
-10 -7 8 13.3 11.9
-10 17 -8 20.5 14.3
17 -10 8 18.1 23.8
-7 -10 -8 10.7 13.1
17 -7 -8 11.2 14
-10 -7 8 -1.3 18.7
11 6 -8 164.98 20.5
17 -11 -8 160.58 20.9
-17 11 -8 151.68 20.4
-11 17 8 161.88 21.1
-6 17 -8 156.98 22.7
-17 6 8 129.99 19.1
6 -17 -8 164.58 20.1
-6 -11 8 127.99 18.6
-6 17 8 237.08 24.4
11 -17 -8 169.68 20.3
-11 -6 8 187.48 19.9
-6 -11 -8 171.58 22.5
-17 6 -8 152.58 22.4
6 11 -8 185.48 21.5
17 -6 -8 197.38 21.3
17 -11 8 146.59 30
-11 17 -8 152.88 21.7
-17 11 8 186.08 22.3
17 -12 -8 6.5 11.8
-5 -12 8 4.3 10.6
-12 17 8 8 13.2
-5 17 -8 10.7 14.2
12 5 -8 9.2 11.6
5 -17 -8 7.1 10.6
-12 -5 -8 1.8 4.8
-17 5 8 -2.7 11.8
-17 12 -8 4.6 12
-17 12 8 19.6 14.9
-12 -5 8 -3.3 18.3
-17 5 -8 6 13.4
-5 17 8 16.3 15.4
-17 12 8 -0.7 21.7
12 -17 -8 12.5 11.7
-5 -12 -8 7.7 12.6
-12 -5 8 9.4 11.2
-12 17 -8 16.8 13.6
17 -12 8 -2.2 22.7
17 -5 -8 1.3 13.5
5 12 -8 18.6 12.7
-13 17 8 35.2 14.6
4 -17 -8 42 12.1
17 -13 -8 35 12.4
-4 17 -8 45.1 15.3
-17 4 8 35.4 12.7
-17 13 -8 49.1 14.1
13 4 -8 47 13
-4 -13 -8 53.89 13.7
-13 -4 8 -2.1 17.2
-13 17 -8 33.3 12
-13 17 -8 51.79 13.7
-17 13 8 54.99 15.6
-4 17 8 66.59 16.8
-17 4 -8 38.8 14.4
4 13 -8 64.39 14.1
13 -17 -8 55.29 13.2
-17 13 8 1.7 21
17 -4 -8 9.5 13.3
-13 -4 8 32.6 11.8
-14 17 8 81.19 16
-17 3 8 107.89 15.5
-17 14 -8 76.69 14.1
17 -14 -8 111.59 15.3
14 3 -8 107.59 15
-3 17 -8 86.39 16
3 -17 -8 77.39 13.4
-3 -14 -8 137.89 16.8
-3 17 8 93.19 17.8
-17 3 -8 106.49 16.4
3 14 -8 103.69 15
-14 17 -8 74.79 15.4
-17 14 8 98.89 17.2
14 -17 -8 129.99 16.3
-14 -3 8 101.19 14.6
-17 15 -8 21.3 12.3
2 -17 -8 22.2 11
-17 2 8 18.9 11.8
15 2 -8 17.3 11.5
-2 17 -8 19.2 13.3
17 -15 -8 21.7 11.4
2 15 8 6.7 13.8
-15 17 8 18.5 13.7
-2 17 8 24.6 14.9
-17 2 -8 23.3 12.7
2 15 -8 -1.2 9.7
-2 -15 -8 18.7 11.4
15 -17 -8 35 11.5
-15 17 -8 22 12.9
-15 -2 8 32.4 11.8
-17 15 8 30.7 14.5
16 1 -8 13.2 10.1
-1 17 -8 7.6 11.6
-16 17 8 14.4 13.5
1 -17 -8 21.7 11.1
-17 16 -8 13.6 11.4
1 16 8 -2 13.6
17 -16 -8 19.9 11.4
-17 1 8 14.5 10.8
-1 17 8 15.8 14.4
-16 -1 8 31.1 11.1
16 -17 -8 35.9 11.2
-1 -16 -8 25.3 11.9
-17 16 8 40.1 14.8
-16 17 -8 25.6 13
17 -17 -8 19.9 10.5
-17 0 8 34.7 11.8
-17 17 8 17 13.1
0 17 8 15.4 14
0 -17 -8 26.7 11.2
-17 17 -8 32.7 11.8
9 9 -8 38 12.1
-9 18 8 30.7 16.2
9 -18 -8 25.9 10.8
-9 -9 8 34.2 12.2
18 -9 8 0.7 25.4
-18 9 -8 27.7 13.8
-18 9 8 18.9 12.5
18 -9 -8 29.2 13.1
-9 18 -8 37.3 14.4
18 -10 -8 178.08 21.6
-8 -10 8 169.48 18.4
10 8 -8 168.88 20.3
-8 18 -8 172.68 21.2
8 -18 -8 164.08 19.3
-18 10 -8 159.58 20.5
-10 18 8 189.38 22.5
-8 18 8 214.48 23.1
18 -8 -8 189.48 22.7
-8 -10 -8 188.18 21.2
-10 -8 8 166.98 19
8 10 -8 173.58 19.9
-10 18 -8 161.58 21.2
-18 10 8 140.69 20.4
-18 8 -8 161.68 19.3
10 -18 -8 169.48 18.7
18 -11 -8 57.39 13
-7 18 -8 72.29 16.2
7 -18 -8 65.89 12.9
-7 -11 8 55.29 12.9
11 7 -8 63.89 13.6
-11 18 8 24 15.7
-18 11 -8 68.79 15.2
-7 -11 -8 75.49 15.2
11 -18 -8 78.59 13.5
-11 -7 8 55.89 12.8
18 -7 -8 71.59 16
7 11 -8 73.59 14
-11 18 -8 48.3 14.2
-7 18 8 111.39 19.6
-18 11 8 54.69 14.3
18 -12 -8 52.79 12.8
-18 6 8 48.3 13.7
12 6 -8 44.7 12.4
6 -18 -8 63.19 12.5
-12 18 8 19.5 13.9
-6 18 -8 61.09 15.5
-18 12 -8 63.09 14.3
-18 12 8 39.6 13.8
6 12 -8 64.19 13.5
-6 -12 -8 63.59 14.4
-6 18 8 72.69 17.1
18 -6 -8 68.99 16
-12 -6 8 74.49 14
-12 18 -8 54.99 13.9
12 -18 -8 69.79 12.8
-18 5 8 58.49 13.8
-5 18 -8 54.39 14.6
-13 18 8 42.6 13.8
-18 13 -8 54.09 13.5
13 5 -8 59.19 13.1
18 -13 -8 69.69 13.6
5 -18 -8 48 11.7
-18 5 -8 64.89 14.8
-18 13 8 83.39 17
-5 18 8 69.09 16.7
13 -18 -8 91.59 14.2
-13 -5 8 60.29 12.8
5 13 -8 66.19 13.3
-5 -13 -8 70.59 14.4
18 -5 -8 45.2 15.1
-13 18 -8 51.59 13.5
18 -14 -8 9 11
14 4 -8 8.6 10.8
4 -18 -8 2.1 9.7
-18 14 -8 17.3 12
-14 18 8 14 13
-18 4 8 17.1 12.4
-4 18 -8 6.6 12.5
-14 18 -8 10.9 10.7
-4 -14 -8 18.4 12.4
-18 14 8 19 14.2
4 14 -8 13.8 10.9
14 -18 -8 21.2 11.2
-14 -4 8 14.5 10.9
18 -4 -8 0.3 12.6
-4 18 8 12 14.4
-14 18 -8 2.2 10.1
-18 15 -8 38.8 12.3
-15 18 8 32.2 13.4
18 -15 -8 53.09 12.3
-18 3 8 34.4 12.6
15 3 -8 51.09 12.3
3 -18 -8 40.7 11.2
-3 18 -8 39.1 13.1
-18 15 8 32.6 13.7
-15 -3 8 39.5 11.4
15 -18 -8 43.4 11.9
-3 18 8 37.4 15.2
-15 18 -8 39.9 12.7
-3 -15 -8 49.3 13
3 15 -8 35.1 10.9
-2 18 -8 15 11.5
2 16 8 2.8 11.3
2 -18 -8 -1.2 2.6
-16 18 8 0.5 12
-18 2 8 2.6 10.9
2 -18 -8 12.1 10.3
-18 16 -8 8.4 10.6
16 2 -8 5.5 9.9
18 -16 -8 -3.3 10
-16 -2 8 14.7 10.3
-16 18 -8 14.3 11.7
-2 18 8 12.2 12.8
16 -18 -8 18.1 10.7
-2 -16 -8 9.3 10.9
-18 16 8 16.7 13.8
1 -18 -8 1.9 10
1 17 8 -1.6 12.3
-17 18 8 7.6 12
18 -17 -8 5.6 9.5
1 -18 -8 0.5 3.1
-18 1 8 0.2 10.7
-18 17 -8 6.3 10.4
-1 -17 -8 6.2 10.1
17 -18 -8 6 9.8
-18 17 8 4.5 11.9
-17 18 -8 14.8 11.1
-17 -1 8 3.2 9.8
-1 18 8 1 12.5
-1 -17 -8 -0.5 2.9
0 18 8 3.9 11.5
-18 0 8 0.6 10.4
-18 18 -8 5.6 9.7
-18 18 8 8 11.6
0 -18 -8 0.2 2.7
18 -18 -8 4.3 9.9
0 -18 -8 7.3 9.9
-19 10 -8 63.29 13.8
19 -10 -8 70.89 13.5
-10 19 8 34.6 15.7
9 -19 -8 95.29 14.1
-9 -10 8 48 11.8
-9 19 -8 90.19 15.9
10 9 -8 56.19 11.9
-19 9 -8 45.8 12.6
9 10 -8 47.3 11.4
-9 19 8 39.6 15.6
19 -9 -8 56.39 13.2
-10 -9 8 75.19 13.2
-10 19 -8 71.99 14.8
10 -19 -8 100.49 14.2
-19 10 8 65.09 14
19 -11 -8 57.79 12.3
-19 11 -8 82.59 15.1
-11 19 8 64.29 16.6
-8 19 -8 59.09 13.7
-8 -11 8 38.7 10.6
11 8 -8 99.59 13.9
11 -19 -8 114.19 14.1
-8 -11 -8 86.79 14.3
-19 11 8 72.09 14.8
8 11 -8 104.69 14.5
-8 19 8 75.09 17.4
-11 19 -8 103.69 15.9
19 -8 -8 80.89 14.8
-11 -8 8 95.39 13.6
-19 7 8 -4.1 10.2
12 7 -8 17.2 10.9
-7 19 -8 21 12.8
7 -19 -8 18.4 9.9
19 -12 -8 13.1 10.9
-19 12 -8 24.1 12.4
-12 19 8 7.8 13.8
12 -19 -8 56.49 11.8
7 12 -8 22.5 10.7
-19 12 8 40.5 13.8
-12 19 -8 45.5 13
19 -7 -8 35.7 14.2
-12 -7 8 51.99 12.3
-7 -12 -8 56.19 12.8
-7 19 8 30.9 15.1
19 -13 -8 8.8 10.4
-19 6 8 -2.1 10.9
-19 13 -8 5.7 10.6
-6 19 -8 8.9 12.5
6 -19 -8 -0.6 3
6 -19 -8 0.4 9.3
13 6 -8 0.1 9.4
-13 19 -8 19.4 11.9
-6 19 8 7.3 13.5
19 -6 -8 18 13.4
-19 13 8 15.4 12.8
-13 -6 8 20.2 10.9
6 13 -8 23.6 10.7
-6 -13 -8 12.9 11.8
13 -19 -8 13.4 9.7
19 -14 -8 30.4 11
-19 5 8 28.1 12.3
14 5 -8 22 11
-5 19 -8 25.3 12.4
-14 19 8 5.8 11.2
-19 14 -8 24.6 10.7
5 -19 -8 30.6 10.6
-14 19 -8 35 10.7
-5 19 8 22.1 14.1
-5 -14 -8 35.9 12.2
19 -5 -8 41.3 13.8
5 14 -8 30.3 11.1
-19 14 8 43.3 13.8
14 -19 -8 40.1 10.8
-14 -5 8 33.5 11
-19 4 8 35.9 12.1
19 -15 -8 19.4 10.5
-19 15 -8 25.6 11.2
4 -19 -8 32.6 10.2
-15 19 8 17.2 12
-4 19 -8 28.9 12.5
15 4 -8 20.2 10.6
19 -4 -8 -0.5 12.2
-4 -15 -8 34.5 10.8
-4 19 8 29.5 13.6
-15 -4 8 27.3 10.3
15 -19 -8 33.8 10.5
-19 15 8 38.3 13.4
4 15 -8 28.6 9.9
-3 19 -8 18.9 11.2
16 3 -8 9.1 9
19 -16 -8 11.1 10.2
3 -19 -8 5 9.1
-19 16 -8 7.6 9.5
-19 3 8 17.3 11.2
-16 19 8 15 12
-16 19 -8 4.7 8.7
-16 -3 8 18.2 9.6
-3 -16 -8 14.5 10.7
-3 19 8 16.8 13
16 -19 -8 14 9.9
-19 16 8 10.1 12.1
-2 19 -8 -1.4 9.7
-19 17 -8 24.2 10.3
-19 2 8 25.1 11.3
19 -17 -8 27.1 9.7
2 -19 -8 23.8 10.5
-17 19 8 28.9 11.4
-2 19 8 14.8 12.2
-17 -2 8 24.3 9.6
-2 -17 -8 25.1 10.8
-17 19 -8 16.1 9.4
17 -19 -8 31.9 10.4
-19 17 8 23.3 12.5
-18 19 8 23.3 11.6
1 -19 -8 18.6 9.9
-19 1 8 26.9 10.4
-19 18 -8 21.8 9.5
19 -18 -8 19.9 9.9
18 -19 -8 36.7 10.3
-18 -1 8 37 11.6
-18 19 -8 22.7 9.5
-1 19 8 21.7 10.5
-1 -18 -8 54.69 12
-19 18 8 40.1 12.5
-19 0 8 11.5 10.7
-19 19 -8 3.5 8.8
0 -19 -8 3.5 10.8
-19 19 8 0.4 11.6
19 -19 -8 5.8 9.9
-10 20 -8 102.59 14.8
20 -10 -8 116.59 14.5
-10 20 8 107.29 17
10 10 -8 128.99 14.3
-20 10 -8 99.99 14
10 -20 -8 106.99 15.4
-10 -10 8 86.19 12.6
20 -11 -8 22.7 10.2
9 -20 -8 24.5 9.6
-9 -11 8 -0.8 13.7
11 9 -8 32.3 10.2
-20 11 -8 30.6 11.2
-9 20 -8 19.7 11.5
-11 20 8 22 14.7
-20 9 -8 0.6 8.9
9 11 -8 23.5 9.5
11 -20 -8 30 9.8
20 -9 -8 30.8 11.6
-11 -9 8 27 10.3
-20 11 8 15.3 11.3
-11 20 -8 21.5 11.2
-9 20 8 24.1 14.7
20 -12 -8 30 10.6
-20 12 -8 30.4 11.8
8 -20 -8 23.9 9.4
-8 20 -8 29.9 12
-12 20 8 19.1 12.7
12 8 -8 26.4 10.3
8 12 -8 29.8 9.8
20 -8 -8 47.8 12.4
12 -20 -8 48.7 10.6
-8 20 8 40.4 14.1
-12 -8 8 46.1 11.1
-12 20 -8 41.7 11.9
-20 12 8 50.29 13.2
-7 20 -8 42.9 12.4
7 -20 -8 68.29 11.7
13 7 -8 51.49 11
20 -13 -8 46 11.2
-20 13 -8 67.39 12.6
-20 13 8 57.19 13.9
-7 -13 -8 53.89 12.1
7 13 -8 37 10.1
-7 20 8 56.79 14.9
-13 -7 8 46.7 11
20 -7 -8 58.79 12.9
13 -20 -8 79.49 11.8
-13 20 -8 56.39 11.7
14 6 -8 17.1 9.5
-6 20 -8 22.9 11
-20 14 -8 22.1 10.4
20 -14 -8 38.3 11
-20 6 8 9.9 9.4
6 -20 -8 27.5 9.9
-14 20 -8 27.7 10.1
20 -6 -8 42.9 12.3
-6 -14 -8 44.1 11.6
6 14 -8 44.1 10.2
-6 20 8 18.9 13
-14 -6 8 33.2 10.4
14 -20 -8 57.69 11.2
-20 14 8 43.2 13
15 5 -8 12.1 9.3
5 -20 -8 13.9 8.9
20 -15 -8 19.2 10.1
-20 15 -8 18.2 10
-5 20 -8 11.5 10.7
-20 5 8 14.1 9.7
-5 -15 -8 20.6 11.2
-5 20 8 13.3 12.5
-20 15 8 18.3 12.1
15 -20 -8 18.3 9.2
5 15 -8 19 8.9
20 -5 -8 6.4 10.8
-15 -5 8 19.5 10
-20 16 -8 -0.7 9
16 4 -8 2.9 8.1
20 -16 -8 12.7 9.9
-4 20 -8 9.6 10.1
-16 20 8 -3.2 10
-20 4 8 -0.6 9.4
4 -20 -8 1 8.9
-20 16 8 7.4 12.2
16 -20 -8 4.8 8.6
-4 -16 -8 11.4 10.2
-4 20 8 -3.6 11.6
-16 -4 8 5.5 9.4
-4 -16 -8 0 2.8
-3 20 -8 -0.7 7.5
-17 20 8 15.2 9.7
-20 3 8 17.9 9.5
-20 17 -8 13.6 9.4
20 -17 -8 23.2 9.8
3 -20 -8 20.8 9.9
-17 -3 8 15.1 10.7
-20 17 8 22.5 12.6
-3 20 8 14.3 11.9
-3 -17 -8 17.6 10.3
17 -20 -8 19 9.2
-20 2 8 -0.5 10
2 -20 -8 3.7 10.1
-18 20 8 10.7 9.2
20 -18 -8 3.8 10.8
-20 18 -8 5.6 9.6
-2 20 8 10.8 10.3
-2 -18 -8 6.5 10.2
-20 18 8 1.6 12
18 -20 -8 1.7 10.2
-18 -2 8 8.4 11.5
-10 21 -8 10.5 11.1
21 -11 -8 5.8 9.8
-11 21 8 11.6 12.3
10 -21 -8 8.3 8.6
11 10 -8 8.9 8.5
-21 11 -8 1.8 8.5
-11 21 -8 13.6 10.7
11 -21 -8 20.8 9.2
21 -10 -8 18.4 10
10 11 -8 16.9 8.8
-10 21 8 21.6 12.7
-21 12 -8 39 10.6
21 -12 -8 40.4 10.4
-9 21 -8 49 11.5
-12 21 8 15.7 10.4
9 -21 -8 29.7 9.3
12 9 -8 60.89 10.7
21 -9 -8 47.3 11.1
-12 21 -8 27.7 10.4
12 -21 -8 44.9 10.6
-12 -9 8 16.5 8.3
9 12 -8 46.7 9.7
-9 21 8 29.6 12.4
-21 12 8 6.7 9.7
8 -21 -8 10.8 8.5
-21 13 -8 18.4 9.5
13 8 -8 8 8.5
21 -13 -8 15.1 10
-8 21 -8 16.1 10.5
-21 13 8 13.4 11.3
21 -8 -8 3.3 9.8
8 13 -8 0.8 8.3
-13 -8 8 3.2 9.4
-8 -13 -8 0.6 3.2
-8 21 8 9.9 12.3
-13 21 -8 8.8 9.6
13 -21 -8 7.1 8.7
14 7 -8 7.7 8.6
21 -14 -8 0.9 9.5
-21 14 -8 4.6 8.9
-7 21 -8 4.9 10.6
7 -21 -8 5.6 8.5
21 -7 -8 8.3 10.1
14 -21 -8 9.1 8.7
-7 21 8 15.4 12.2
-14 -7 8 8 9.6
-14 21 -8 8.4 8.5
-21 14 8 12.4 11.6
7 14 -8 11.5 9
6 -21 -8 14.7 9.1
15 6 -8 7.3 8.3
-6 21 -8 9.6 10.2
-21 15 -8 2 8.9
21 -15 -8 9.7 9.9
-15 -6 8 4.7 9.8
21 -6 -8 -2.5 10.6
6 15 -8 9 8.3
-21 15 8 -6 11.7
-6 21 8 11.2 12.2
15 -21 -8 1.9 8.6
-21 5 8 -0.9 7.1
-5 21 -8 2.5 9.4
21 -16 -8 4.5 10.3
5 -21 -8 -2.6 9.4
16 5 -8 0 8
-21 16 -8 5.9 9.6
-5 -16 -8 9.3 10.7
-16 -5 8 9 10.7
-5 21 8 15.6 12.2
16 -21 -8 5.8 8.9
-21 16 8 5.6 12.3
-21 4 8 7.6 7.7
4 -21 -8 13.9 10.2
21 -17 -8 1.4 9.9
-21 17 -8 16.7 10.1
-4 21 8 13.1 13.3
-4 -17 -8 19.4 11.3
-21 17 8 16.8 12.9
17 -21 -8 12.2 9.7
-17 -4 8 17 11.5
11 -22 -8 27.9 9.8
11 11 -8 18.9 9
-11 22 -8 19 10.2
22 -11 -8 9.3 10.3
-11 22 8 11.6 11.2
-10 22 -8 12.8 10.9
10 -22 -8 14 9.3
12 10 -8 6.8 8.8
22 -12 -8 17 10.7
12 -22 -8 13.6 9.3
-10 22 8 3 12.4
22 -10 -8 17.1 10.3
-12 22 -8 12.2 10.3
10 12 -8 14.8 9
22 -13 -8 10.2 10.8
13 9 -8 18.9 9.4
-22 13 -8 11.8 7.7
9 -22 -8 9.3 9
-9 22 -8 18.2 11.1
-9 22 8 19.2 13.2
22 -9 -8 12.5 9.1
-13 22 -8 6.1 9.8
13 -22 -8 11.1 10
9 13 -8 12.1 9.1
8 14 8 2.4 7.3
-22 14 -8 15.3 9.3
22 -14 -8 2.6 10.5
14 8 -8 5.6 10
-8 22 -8 9.3 11.4
8 -22 -8 9 10
14 -22 -8 19.6 11.4
22 -8 -8 -0.5 11.5
-8 22 8 17.7 13.4
-22 14 8 -5.3 15.3
8 14 -8 18.7 9.3
-7 22 -8 12.3 11.1
-7 22 8 -1 13.1
0 0 9 11.9 14.4
0 0 9 5.6 14
1 0 9 268.27 26.4
0 1 9 288.67 27.9
-1 0 9 276.37 28.1
-1 0 9 294.77 27.2
-1 1 9 265.87 27.4
1 0 9 272.37 27.6
-1 1 9 242.18 25.2
1 -1 9 294.07 28.4
0 -1 9 275.67 27.5
0 -1 9 268.97 26.7
1 -1 9 271.27 27.3
1 1 9 1.2 11.8
1 -2 9 7.5 13.8
-1 -1 9 19.3 13.8
-1 -1 9 1.7 15
-2 1 9 4.5 13.2
2 -1 9 6.5 13.8
1 -2 9 15.1 14.3
-1 2 9 15.2 14.3
2 -1 9 8.9 15.1
-2 1 9 17.5 14.5
1 1 9 9.8 14.3
2 -2 9 38.1 15
2 0 9 33.1 14.6
-2 0 9 35.2 15.5
0 -2 9 32 15.6
2 -2 9 44.2 17
2 0 9 34.4 15.9
-2 2 9 40.6 14.8
0 -2 9 23.4 14
-2 0 9 50.19 16.4
0 2 9 43.6 15.4
-1 -2 9 267.67 27.3
-1 -2 9 257.77 27.5
-2 3 9 243.58 26
3 -1 9 234.68 27.7
-3 1 9 246.08 25
1 2 9 245.38 26.6
-3 1 9 264.07 26.9
2 -3 9 233.78 26.6
1 -3 9 284.77 28.3
1 -3 9 295.77 28.9
3 -2 9 276.67 28.8
-3 2 9 269.17 25.6
-2 -1 9 304.17 28.6
2 1 9 268.57 26.2
-1 3 9 285.27 27.3
-2 -1 9 266.47 28.6
-3 3 9 159.38 21.6
0 -3 9 131.39 21.2
3 -3 9 95.99 19.4
0 3 9 143.99 21.1
3 0 9 110.29 18.9
3 0 9 105.69 19.2
0 -3 9 115.49 20.8
-3 0 9 112.69 19.3
-3 0 9 80.49 17.6
-2 -2 9 23.1 15.5
-4 2 9 -1.4 13.4
-2 -2 9 16.3 15.2
2 2 9 1.4 12.9
-4 2 9 13.6 13.2
4 -2 9 -0.8 15
2 -4 9 15.8 13.9
-2 4 9 30 14.8
-4 1 9 162.98 23.1
-3 4 9 165.88 23.6
-1 -3 9 179.68 25.6
-1 -3 9 179.18 24.4
3 -4 9 175.18 24.3
-4 1 9 174.08 23.9
1 3 9 172.28 24.2
4 -1 9 174.88 24.8
-1 4 9 138.59 23
4 -3 9 152.38 23.7
-3 -1 9 157.98 23.8
-3 -1 9 167.88 23.7
1 -4 9 164.08 24.3
3 1 9 168.98 24.2
1 -4 9 152.28 24.8
4 0 9 77.89 19.8
4 0 9 45.3 16.2
0 -4 9 61.59 16.8
-4 0 9 74.89 18.4
-4 0 9 79.89 18.1
0 4 9 71.69 17.2
-4 4 9 98.29 19.4
4 -4 9 66.69 17.9
0 -4 9 60.89 17.8
-3 5 9 133.49 21.6
5 -2 9 90.19 19.9
-5 2 9 99.09 20.3
2 3 9 86.59 19
-5 2 9 61.69 16.7
3 -5 9 117.89 20.7
-2 -3 9 73.09 17.5
-2 -3 9 91.29 19.2
3 2 9 84.39 18.1
5 -3 9 74.99 17.8
-3 -2 9 73.99 17.1
-5 3 9 111.99 20.8
-3 -2 9 86.69 17.9
-2 5 9 96.79 18.8
2 -5 9 81.09 17.8
4 -5 9 28.9 15.6
1 4 9 19.9 14.7
-5 1 9 14.4 14.5
-4 5 9 30.6 16.4
5 -1 9 29.5 16.1
-5 1 9 19.9 15.8
-1 -4 9 25.2 16.1
-1 -4 9 19.3 15.6
4 1 9 17.6 15.6
-5 4 9 5.9 13.9
5 -4 9 25.6 15.7
-4 -1 9 12.5 15.7
-1 5 9 16.7 15.3
1 -5 9 7.3 15.5
1 -5 9 21 15.6
-4 -1 9 16.1 15
-5 5 9 678.23 43.8
5 -5 9 692.53 45.1
0 5 9 647.04 43.2
0 -5 9 604.04 43.3
0 -5 9 725.03 45.5
-5 0 9 669.63 43.5
5 0 9 581.74 43.7
-5 0 9 659.53 43.9
-6 3 9 1.6 12.2
-3 -3 9 5.5 14.1
-6 3 9 2.7 14.3
-3 -3 9 9.2 14.1
3 -6 9 2.7 15
-3 6 9 -2.2 14.6
6 -3 9 17.9 15.5
3 3 9 6.1 15.1
-6 2 9 319.07 31
4 -6 9 321.27 30.2
-2 -4 9 347.87 32
2 4 9 327.77 30.8
-6 2 9 308.47 30.1
-2 -4 9 328.27 30.5
-4 6 9 347.87 30.2
6 -2 9 313.87 33
4 2 9 325.27 32.1
-2 6 9 320.57 30.3
-6 4 9 337.47 30.7
6 -4 9 351.66 31.7
2 -6 9 352.46 32.3
-4 -2 9 315.67 30.3
-4 -2 9 368.36 31.5
-6 1 9 173.08 25.9
-1 -5 9 145.89 23.3
5 -6 9 161.68 25.2
-5 6 9 186.98 24.5
-1 -5 9 176.98 26.1
1 5 9 152.88 25.3
6 -1 9 173.18 27.8
-6 1 9 188.08 26.4
-5 -1 9 172.98 25.3
6 -5 9 158.18 25
1 -6 9 181.38 25.9
5 1 9 164.88 26.9
1 -6 9 172.38 27.1
-5 -1 9 161.88 26.2
-1 6 9 167.78 27.2
-6 5 9 199.88 25.5
6 0 9 195.58 30
-6 0 9 253.47 28
0 6 9 255.37 28
-6 0 9 258.17 28.5
6 -6 9 244.88 28.2
-6 6 9 255.67 28
0 -6 9 259.77 29.4
7 -3 9 100.49 21.1
-4 7 9 87.69 17.9
-7 3 9 85.79 18.5
3 4 9 103.79 19.6
-7 3 9 120.99 20.3
-4 -3 9 133.69 22
-3 7 9 109.79 20
7 -4 9 120.79 22.8
4 3 9 76.09 19.1
3 -7 9 152.98 23.8
-7 4 9 82.09 18.3
5 -7 9 140.89 24.4
7 -2 9 131.39 23.3
-5 7 9 203.18 25.7
-2 -5 9 154.58 25.6
-7 2 9 141.89 24
-7 2 9 104.19 19.7
2 5 9 145.99 21.8
-5 -2 9 148.49 25.3
7 -5 9 178.38 25.3
-7 5 9 107.69 19.4
-2 7 9 144.39 21.6
5 2 9 106.69 21.1
2 -7 9 147.69 25.1
-6 7 9 472.35 37.2
-1 -6 9 491.35 37.8
-7 1 9 419.46 35.9
1 6 9 464.65 35.6
7 -1 9 435.86 39.1
6 -7 9 471.85 37.9
-7 1 9 453.95 36.6
-7 6 9 454.95 36.1
1 -7 9 431.16 36.6
-1 7 9 422.56 35
7 -6 9 441.16 36.1
-6 -1 9 323.77 32
6 1 9 421.86 36.7
-6 -1 9 451.55 35.8
-7 0 9 52.09 16.4
7 -7 9 69.39 18.1
7 0 9 32.2 18.8
0 7 9 54.19 18.1
-7 0 9 73.89 19.7
0 -7 9 95.39 20.9
-7 7 9 96.09 21.1
4 -8 9 94.79 20.8
-4 8 9 68.89 18.4
-8 4 9 72.79 19.2
-4 -4 9 104.49 21.5
4 4 9 71.49 19.2
8 -4 9 103.19 22.9
-8 3 9 95.39 19.8
5 -8 9 141.89 24.9
3 5 9 97.19 19.8
-8 3 9 147.39 23.7
8 -3 9 155.98 25
-3 -5 9 156.08 26.3
-5 8 9 190.28 25.4
3 -8 9 155.88 26.5
-8 5 9 118.09 21
8 -5 9 154.78 27.7
-3 8 9 155.88 25.2
-5 -3 9 156.58 26.9
5 3 9 147.99 22.7
-8 2 9 49.2 17.3
8 -2 9 64.39 21
-6 8 9 60.99 18.3
2 6 9 50.29 16.9
-8 2 9 77.19 20.1
-2 -6 9 92.69 21.1
-2 8 9 53.99 17.4
2 -8 9 89.29 21.1
8 -6 9 123.09 23.7
-6 -2 9 108.79 22
6 2 9 73.79 20.1
-8 6 9 87.29 20
-8 1 9 195.38 28.2
-1 -7 9 195.28 28
-7 8 9 175.28 28.4
-8 1 9 164.38 26.4
7 -8 9 181.48 26.9
8 -1 9 177.38 30.6
-1 8 9 158.08 26.4
7 1 9 181.38 26.1
8 -7 9 182.38 27.4
-7 -1 9 198.98 27.8
-8 7 9 199.68 28.6
1 -8 9 184.68 28.2
9 -4 9 45.6 20.2
-9 4 9 56.39 19.3
-4 -5 9 82.09 21.4
-5 9 9 55.99 19
5 -9 9 78.09 20.1
-5 -4 9 108.89 22.8
9 -5 9 83.19 21
4 -9 9 88.59 20.7
-9 5 9 93.99 22.1
-4 9 9 48.4 18.2
6 -9 9 146.09 24
9 -3 9 87.39 22.4
-6 9 9 90.19 20.8
-9 3 9 91.99 20.8
-9 3 9 80.99 20.1
9 -6 9 117.09 24.3
-9 6 9 95.99 21.6
3 -9 9 137.09 24.2
-3 9 9 121.99 22.3
-6 -3 9 144.39 23.9
-7 9 9 215.08 30.4
9 -2 9 186.28 28.3
7 -9 9 173.28 27.3
-9 2 9 164.48 28.2
-2 -7 9 185.88 28.1
-9 2 9 168.98 27.9
-9 7 9 203.78 31.1
9 -7 9 171.68 29.8
-2 9 9 169.88 26.4
2 -9 9 196.98 29.7
-7 -2 9 195.98 27.9
-9 1 9 2.6 15.1
8 -9 9 49 18.9
8 1 -9 -2.8 8.8
-9 1 9 26.6 18.7
-9 8 -9 -1.3 14.8
-1 -8 9 49 19
9 -1 9 26.5 19.9
-8 9 9 43.9 20.6
1 -9 -9 -0.1 7.8
-8 -1 9 60.49 20.6
8 1 9 23.7 18.7
1 -9 9 61.39 19.9
-9 8 9 61.79 21.9
9 -8 9 72.59 21.2
-9 9 9 8.3 13.1
9 0 -9 -4.6 9.3
0 -9 9 8.3 16.9
-9 0 9 19.4 18.5
9 -9 9 -2.4 20.5
9 -9 9 5.8 17.7
-9 9 9 8 19.9
9 0 9 1.8 18.8
0 -9 -9 16.3 9.1
-9 9 -9 -1 11.4
0 -9 9 0.2 9.9
-5 10 9 15.6 18.1
-5 -5 9 0.5 9.2
10 -5 9 25.8 18.8
5 -10 9 21.6 17
-10 5 9 22.2 19.8
-5 -5 9 27.6 18.5
-5 10 -9 1.8 11.2
-10 6 -9 7 12
-4 -6 9 4.6 9
-10 4 9 50.09 20.1
-6 10 9 23.5 18.6
4 -10 -9 1.7 7.9
-10 4 9 12.5 16.7
-4 10 -9 8.8 12.1
6 4 -9 -2.1 8.7
6 -10 9 34.9 17.6
-4 -6 9 43.5 20.3
10 -4 9 58.49 22.2
-6 10 -9 0.7 11.1
-6 -4 9 39.4 18.8
-10 6 9 25.7 19.1
4 -10 9 22.6 17.8
-6 -4 9 3.5 10.1
10 -6 9 25.9 19.7
-4 10 9 7.3 17.2
3 -10 -9 5.7 7.9
10 -3 9 28.2 20.1
-10 3 9 11.6 18
-3 -7 9 7.6 9.1
-3 -7 9 20.8 17.3
-7 10 9 20.6 18.9
7 3 -9 9.5 9.8
-10 7 -9 6.4 12.1
7 -10 9 21.4 16.2
-3 10 -9 0.8 11.5
-10 3 9 13.7 17.6
-7 -3 9 38.4 18.8
-7 -3 9 6.2 9.4
-10 7 9 -0.4 12.1
-3 -7 -9 0 2.9
3 -10 9 56.79 20.9
-10 7 9 47.2 20.4
-3 10 9 12.9 17.2
-7 10 -9 0.9 11.8
10 -7 9 53.89 21.4
-2 -8 9 153.38 25.5
-10 8 -9 104.59 16.7
10 -2 9 99.49 24.9
8 -10 9 146.99 25.8
8 2 -9 69.19 12.9
-10 2 9 80.89 21.2
-8 10 9 142.99 25.8
2 -10 -9 90.19 12.4
-8 -2 9 101.69 22.1
10 -8 9 119.99 23
10 -8 9 1.3 22.9
-10 8 9 118.59 24.1
-10 8 9 116.79 16.9
-8 -2 9 64.19 12.2
10 -1 9 53.29 22.5
1 -10 -9 51.99 10.9
-9 10 9 68.09 16.7
-1 -9 9 83.99 22.2
9 -10 9 95.89 22.8
-10 1 9 85.59 22.7
-9 10 9 74.49 22.9
9 1 -9 35.7 11.6
-1 -9 9 22.2 9.9
-10 9 -9 44.8 14
1 -10 9 1 9.3
-9 10 -9 4.4 12.4
10 -9 9 -2.8 14.6
-10 9 9 62.09 16.4
1 -10 9 53.39 19.3
-9 -1 9 21 18.3
-9 -1 9 30.6 11.2
-10 9 9 69.99 24.2
10 -1 -9 24.9 10.8
10 -9 9 68.09 21.7
-1 -9 -9 27.9 9.7
-10 0 9 89.09 22.7
10 0 -9 79.99 13.7
0 -10 9 37.9 10.8
0 -10 -9 70.29 12.2
-10 0 9 46.1 12.5
0 -10 9 61.89 19.8
10 -10 9 133.69 25.8
-10 10 9 90.49 17.6
-10 10 -9 70.79 15.6
-10 10 9 153.78 28.7
-5 11 -9 35.7 14.9
-6 11 9 42.2 21.1
5 -11 -9 15 8.5
-5 -6 9 22 10.6
6 -11 9 45.2 20.4
-5 -6 9 70.39 20.8
-11 6 -9 36.4 13.1
11 -5 9 40.5 21.5
6 5 -9 27.5 11.5
-11 5 9 29 20.5
5 -11 9 46.2 20.5
-5 11 9 23.7 19.4
-11 5 -9 -0.3 11.1
5 -11 9 2.2 9.1
-6 11 -9 40.4 15
6 -11 -9 2.4 8.1
-6 -5 9 24.2 10.8
5 6 -9 1.7 10
11 -6 9 53.59 21.3
-11 6 9 44.7 21.5
-6 -5 9 51.49 20
7 -11 9 9.8 18.1
-11 7 -9 2.4 12.6
-7 11 9 20 21.1
-4 -7 9 20 18.1
-4 -7 9 4.1 11
-11 4 9 6.4 16.9
11 -4 9 6.5 19.5
-11 4 9 -2.2 19.1
4 -11 -9 11.2 8.9
-4 11 -9 21 13.8
7 4 -9 11.5 10.9
4 -11 9 21.3 18.6
-7 11 -9 11.4 13.7
-7 -4 9 13.6 18.9
4 -11 9 1.7 9.2
4 7 -9 -3.8 9.9
11 -7 9 18.5 20
-11 7 9 12 13.4
-4 11 9 2.5 17.1
-7 -4 9 18.6 11.4
-11 7 9 1.1 20.7
3 -11 -9 37.3 10.3
-11 3 9 15.3 18.7
-8 11 9 12.7 12.9
8 -11 9 39.9 18.5
11 -3 9 49.2 22.1
-11 8 -9 34.6 14
-3 -8 9 64.39 21.8
-3 11 -9 42.2 14.3
-8 11 9 49.3 22
8 3 -9 44.5 12
8 -11 9 -2.7 16
-3 -8 9 47.5 11.4
-11 3 9 48.2 19.9
-8 11 -9 86.89 16.4
11 -8 9 103.99 24.3
-8 -3 9 101.99 14.8
-11 8 9 106.79 18.5
3 -11 9 116.19 23.6
-11 8 9 148.59 28
-8 -3 9 94.09 21.9
2 -11 -9 47.7 11.7
-11 9 -9 52.99 15.6
11 -2 9 53.49 23
-11 2 9 67.99 21.4
9 -11 9 67.29 21.8
-2 -9 9 33 10.8
-9 11 9 61.79 24.1
-9 11 9 43.1 15
9 2 -9 26.5 11.7
-2 -9 9 58.19 21.4
-2 11 -9 37.7 15.1
2 -11 9 13.8 18.1
11 -2 -9 6.4 10.7
-9 11 -9 11.5 13
2 -11 9 4.2 9.3
-9 -2 9 29.3 19.7
-2 -9 -9 13.7 9.7
-11 9 9 41.3 16.2
-11 9 9 0.3 20.9
-2 -9 -9 0.3 3.8
-9 -2 9 18.2 12.4
-9 11 -9 -1.1 11.6
11 -9 9 0.5 15.9
11 -9 9 44.1 21.8
-10 11 9 123.99 20
-11 1 9 100.29 15.2
-10 11 9 116.19 27
10 1 -9 94.49 15.5
-1 -10 9 87.19 13.4
-11 10 -9 114.29 18.2
10 -11 9 78.59 22.1
-11 1 9 73.69 21.5
-1 -10 9 79.89 21.3
1 -11 -9 78.79 13.2
-10 11 -9 86.49 16.8
-11 10 9 138.89 29.2
-1 -10 -9 63.59 12
-10 -1 9 96.09 24.1
-11 10 9 92.19 18
11 -1 -9 93.69 14.5
11 -10 9 122.39 25.3
-10 -1 9 101.09 15.7
1 -11 9 96.59 22.3
-11 11 -9 10.5 14.4
11 -11 -9 2.6 11.3
0 -11 -9 8.6 10.3
11 0 -9 9.4 11.8
-11 11 9 23.7 22.9
-11 0 9 17.6 12.8
-11 11 9 18.5 15
0 -11 9 2.6 10.3
11 -11 9 -6.9 17.1
-11 0 -9 -0.5 3.8
0 -11 9 19 19.1
11 -11 9 11.4 20.1
-11 0 9 5.3 18.4
6 -12 9 2.1 9
6 -12 -9 12.1 8.9
-12 6 -9 31.9 14.1
-6 12 -9 19.9 15
-6 -6 9 16.2 11.2
6 -12 -9 -0.5 13.4
12 -6 9 26.9 22.7
-12 6 9 13.1 21.7
-6 -6 9 20.4 19.1
-12 6 9 1.4 12.5
-6 12 9 23.8 21.1
6 -12 9 30.5 20.3
6 6 -9 16.8 12.7
-5 -7 9 51.39 13.1
5 -12 -9 24.9 9.8
-12 5 9 39.8 21.7
7 -12 9 16.6 9.9
12 -5 9 30.6 21.2
-5 12 -9 12.6 15.1
7 -12 9 54.89 21.8
5 -12 -9 1.5 13.3
7 5 -9 29.7 12.4
-5 -7 9 48 20.4
-7 12 9 31.5 21.5
-12 7 -9 19.8 13.7
-7 -5 9 61.59 20.9
5 -12 9 8.8 9.1
-12 7 9 53.39 23
-7 -5 9 38.6 11.8
5 7 -9 38.4 12.5
-7 12 -9 51.59 16.3
-12 5 -9 33.7 12.6
5 -12 9 74.49 22.8
-12 7 9 61.89 14.9
7 -12 -9 -0.1 11.8
-5 12 9 -4.5 19
12 -7 9 39.7 22.2
12 -4 9 19 21.2
-12 4 9 -0.3 20.1
-8 12 9 25.3 22.5
8 4 -9 37.9 12.5
-4 -8 9 26.4 19.6
-8 12 9 7.2 12.7
-12 4 9 19.8 18.5
8 -12 9 -1.6 16
-12 8 -9 10.6 13.2
4 -12 -9 1.1 11.1
-4 12 -9 32.5 15.6
8 -12 9 25.5 19.4
4 -12 -9 23.9 10.4
-4 -8 9 24.2 11.2
12 -8 9 -0.5 21.9
4 -12 9 22.6 19.5
-12 8 9 10 14.3
12 -8 9 22.2 20.8
-8 -4 9 13.3 18.8
-8 -4 9 24.3 11.3
8 -12 -9 3.9 10.4
-12 8 9 15.8 22.9
4 -12 9 0.1 10
-4 -8 -9 -1.8 3.1
-8 12 -9 18.9 15.1
4 8 -9 11.3 10.9
8 -12 -9 2.1 12.2
12 -4 -9 1 11.6
-4 -8 -9 5.6 9.3
-12 9 -9 52.29 15.9
-9 12 9 65.79 24
9 -12 9 78.89 23.1
-3 12 -9 70.59 16.8
-12 3 9 70.39 21.1
9 3 -9 70.79 13.9
-3 -9 9 82.49 22.9
-3 -9 9 37.4 12.1
12 -3 9 47.4 23.5
3 -12 -9 61.09 12.2
-9 12 9 44.8 15.7
9 -12 -9 25.3 11.8
-9 12 -9 65.49 16.5
-9 -3 9 92.49 15.3
-9 -3 9 91.19 23.3
12 -3 -9 28.1 11.3
-12 9 9 96.39 26.2
-3 -9 -9 58.09 12.9
3 -12 9 71.79 21.6
-12 9 9 49.8 16.1
12 -9 9 137.79 29.4
-12 2 9 44.3 13
2 -12 -9 28 11.7
-2 -10 9 75.69 13.9
10 2 -9 65.09 14.6
-10 12 9 95.69 25.7
-12 10 -9 40.9 14.8
10 -12 9 -3.7 17.5
2 -12 -9 52.59 11.3
10 -12 9 90.29 23.5
-12 2 9 64.99 21.9
12 -2 9 35.7 22.9
-2 12 -9 66.19 16.9
-2 -10 9 52.69 21.2
-10 12 9 48.8 16.1
2 -12 9 51.19 19.9
-12 10 9 103.89 19.3
-10 12 -9 86.19 16.1
10 -12 -9 69.19 13.7
2 -12 9 49.5 11.5
-12 10 9 127.29 28.1
12 -2 -9 56.09 13
-10 -2 9 62.39 13.6
12 -10 9 115.39 25.8
-2 -10 -9 89.59 13.7
-10 -2 9 97.29 22.6
-10 12 -9 81.79 15.9
-1 12 -9 68.69 16.6
1 -12 -9 78.49 13.9
12 -11 -9 34.4 12.8
1 -12 -9 57.99 13.2
-12 1 9 68.89 14.3
-1 -11 9 76.59 23.1
-11 12 9 71.59 24.6
11 1 -9 61.09 13.9
11 -12 9 65.79 23.7
-1 -11 9 53.59 12
-11 12 9 66.79 17.5
-12 11 -9 56.09 15
-12 1 9 64.49 21.5
-11 -1 9 82.59 22.2
-11 12 -9 103.49 17.7
-1 -11 -9 109.19 15.5
12 -11 9 115.09 25.5
1 -12 9 82.99 22.3
-12 11 9 124.09 27.7
-11 -1 9 100.09 15.5
-12 11 9 61.19 16.6
1 -12 9 86.99 13.8
12 -1 -9 94.09 15.2
11 -12 -9 89.89 15.3
12 -12 9 5.7 21.6
0 -12 -9 -1.1 10.4
12 -12 9 -3.9 22.9
-12 12 9 -1.2 20.9
-12 0 9 5.5 12
0 -12 9 -3.1 18
-12 12 -9 10.9 14.2
0 -12 -9 0 3.6
12 -12 -9 11.8 12.7
12 0 -9 11.4 12.2
-12 12 9 8.3 14.5
0 -12 9 1.9 10.2
-12 0 9 -6.4 18.3
0 -12 -9 12.4 11.8
0 12 -9 1.1 12.5
-12 0 -9 2.2 5.7
-6 13 -9 34.3 15.8
-6 -7 9 27.4 20.3
6 -13 -9 21 12.2
-6 -7 9 40.6 12.9
7 -13 9 21.4 10.4
7 6 -9 33.4 12.5
13 -6 9 67.99 25.7
-13 6 9 33.1 21.7
-13 7 -9 34.7 15
-13 6 9 2.9 12.2
-7 13 9 -4.1 21.3
7 -13 9 27.5 20.9
6 -13 -9 19.9 10.4
-7 -6 9 63.59 22.2
6 -13 9 21.6 10.4
6 7 -9 27.6 12.5
6 -13 9 45.6 21.7
-13 7 9 27.4 13.9
-6 -7 -9 7.7 9.5
-13 6 -9 42.7 14.4
-7 13 -9 48.3 16.5
-13 7 9 49.2 23.4
13 -7 9 37.2 22.1
-7 -6 9 38.9 11.8
7 -13 -9 29.1 10
7 -13 -9 23.5 12.8
8 -13 9 18.1 11.2
-8 13 9 -4.2 20.3
8 -13 9 8.6 19.7
-5 -8 9 13.5 11.2
-8 13 9 0.3 12.7
13 -5 9 17.2 22.5
-13 8 -9 17 14.3
8 5 -9 11.8 11.9
-5 -8 9 17 19.5
-13 5 9 1.1 20.6
-5 13 -9 -2.8 14.2
5 -13 -9 13.8 10.5
5 -13 -9 2.9 11.6
8 -13 -9 4.8 8.4
-8 -5 9 20.8 19.3
-8 -5 9 20.9 12.2
-13 5 -9 12.6 12.3
5 -13 9 6.2 10.7
5 8 -9 3.5 11.8
5 -13 9 20.5 20
13 -8 9 16.4 21.3
-13 8 9 24 14.8
-13 8 9 13.1 22.5
-5 -8 -9 -1.6 9.9
8 -13 -9 15.9 12.6
-8 13 -9 26.9 15.6
4 -13 -9 38.1 11.8
-13 4 9 2.3 19.5
-9 13 9 28.7 15.1
9 4 -9 17.9 12.1
-13 9 -9 26.6 14.7
-4 -9 9 31.7 19.7
13 -9 -9 0.1 10.7
-4 13 -9 10 14.6
-9 13 9 39.6 22.8
9 -13 9 37.7 20.5
13 -4 9 51.99 25.4
-4 -9 9 28.3 11.6
4 -13 -9 39.6 13.6
-4 -9 -9 27.5 11.4
-9 13 -9 39.3 15.7
4 -13 9 24.2 18.7
-9 -4 9 32.6 12.8
-13 9 9 47.8 16
13 -4 -9 -0.2 9.9
4 9 -9 26 12.2
-9 -4 9 37.2 19.3
9 -13 -9 34.1 14.2
-13 9 9 39.2 22.5
4 -13 9 8.2 9.8
13 -9 9 27.5 22.4
-13 4 -9 2.4 15.1
-10 13 9 77.49 17
-3 13 -9 127.79 19.2
10 3 -9 85.79 15.1
-10 13 9 136.59 27.8
-3 -10 9 125.19 25.3
-13 10 -9 92.49 16.7
3 -13 -9 120.09 17
13 -3 9 72.29 24.7
-13 3 9 122.69 24.7
10 -13 9 120.49 24.8
13 -10 -9 92.09 14.9
-3 -10 9 146.19 16.6
3 -13 -9 140.29 15.5
-13 3 9 89.79 14.4
-13 10 9 159.38 20.4
-10 13 -9 185.48 21.2
-3 -10 -9 167.98 17.7
-10 -3 9 195.68 31.1
-10 13 -9 100.59 16.5
3 -13 9 133.89 24.3
-13 10 9 142.29 27.3
13 -10 9 241.28 35.2
10 -13 -9 148.19 20.9
-10 -3 9 152.68 20.4
13 -3 -9 118.09 15.4
-13 2 9 26.6 20.7
2 -13 -9 14.3 10.6
-13 2 9 22.2 13
-13 11 -9 12.2 13.7
-11 13 9 17.9 14.3
13 -2 9 4.6 38.6
13 -11 -9 26.2 12.8
11 2 -9 10.1 12.4
2 -13 -9 18.9 12.4
11 -13 9 14.3 20.7
-2 13 -9 15.5 15.4
-11 13 9 15 22
-2 -11 9 18.2 11.3
-2 -11 9 15.9 18.9
-2 -11 -9 8.1 11.6
-11 13 -9 10.3 14.8
-11 -2 9 13.5 12
13 -2 -9 8.5 11.8
2 -13 9 1.1 9.7
-13 11 9 18.2 14.8
-13 11 9 12.2 22.5
-11 13 -9 20.1 14
2 -13 9 0.4 17.5
-11 -2 9 8.8 17.8
11 -13 -9 25.6 12.7
13 -11 9 10.6 21.8
2 11 -9 -5.5 18.4
-2 -11 -9 9.6 11.3
12 -13 9 33.5 22.3
-12 13 9 39.8 14.8
13 -12 -9 42.9 13.8
-1 -12 9 -2.2 18.5
1 -13 -9 31.8 11.4
-13 12 -9 25.4 13.6
12 1 -9 36.4 13
-12 13 9 31 23.7
-13 1 9 37.4 21.8
-1 -12 9 33.1 11.6
-1 13 -9 15.2 14.6
1 -13 -9 37.3 13.6
-13 1 9 36.7 12.7
1 -13 9 15.5 10.1
-1 -12 -9 36.1 13
-1 -12 -9 27.4 11.9
-12 -1 9 34.7 20.6
-12 13 -9 9.5 13.2
-13 12 9 36.2 14.6
13 -12 9 44 24.1
-12 13 -9 27.3 14.4
-13 12 9 32 22.7
-12 -1 9 30.8 12.8
12 -13 -9 42.9 13.5
13 -1 -9 34.1 13.3
-13 0 9 189.38 31.7
13 0 -9 158.88 19.5
-13 13 -9 139.39 20.7
-13 0 9 136.49 19.1
0 13 -9 134.99 19.9
13 -13 -9 141.99 17.4
-13 13 9 142.69 21.3
-13 13 9 152.68 27.9
0 -13 9 116.79 17.2
0 -13 -9 158.38 22.1
13 -13 9 115.89 25.8
0 -13 -9 131.69 18
7 -14 -9 38.8 13
-7 -7 9 43.3 12.8
-14 7 9 38 13.9
7 -14 -9 41.8 11.2
-7 14 -9 36.2 15.2
-14 7 -9 54.39 15.6
7 -14 9 8.3 19
7 7 -9 42.2 13.6
14 -7 9 61.19 25.3
7 -14 9 29.6 10.7
-7 -7 9 58.69 23.1
-14 7 9 20.2 20.8
6 -14 -9 4.4 12
8 -14 9 13 19.7
-14 8 -9 8.1 13.8
14 -8 -9 -4 11.8
-14 6 9 4.7 12.8
-8 -6 -9 1.3 4.3
8 -14 9 7.9 10.7
-6 14 -9 5.1 14.5
6 -14 -9 28.4 11.9
-6 -8 9 -0.3 20.3
8 6 -9 20.4 12.9
-6 -8 9 16.6 11.3
14 -6 9 21.2 23.2
8 -14 -9 10.7 9.7
-14 8 9 13.1 22.1
-8 14 -9 10.5 14.4
6 8 -9 8.2 12.2
-14 8 9 13.9 14.7
6 -14 9 1 9.7
-14 6 -9 15.3 13.6
14 -8 9 11.6 22
-8 -6 9 10.7 19
6 -14 9 0.1 18.5
8 -14 -9 9.3 12.9
-8 -6 9 19 12.3
14 -5 9 16.1 22.8
9 -14 9 0.5 19.6
9 5 -9 26.9 12.4
-9 14 9 -1.4 19.2
-14 9 -9 33.7 14.2
-5 -9 9 21.3 21
5 -14 -9 27.2 13.5
5 -14 -9 17.6 10.4
14 -9 -9 15 11.4
9 -14 9 27.4 12.1
-5 14 -9 11.8 14
-5 -9 9 25.1 11.7
-9 14 9 16.1 13.4
5 9 -9 14.1 12.1
-9 -5 9 28.3 20
-14 9 9 35.6 22.8
-14 9 9 38 15
9 -14 -9 4.2 9.6
-9 14 -9 40.7 16.4
5 -14 9 -0.5 33.5
5 -14 9 2 9.8
14 -9 9 26.3 23.3
9 -14 -9 24.2 12.9
-9 -5 9 44.5 13.6
-14 5 -9 23.4 12
-10 14 9 26.2 21.6
10 4 -9 17.9 12
-10 14 9 40.6 15.1
-4 -10 9 21.2 20
-14 10 -9 36.6 15.1
14 -4 9 25.1 23.1
-4 -10 9 36.5 12.6
14 -10 -9 26.5 12.7
4 -14 -9 31.5 13.2
10 -14 9 17.3 20
4 -14 -9 37 11.6
-14 4 9 0.2 27.4
-14 4 9 21.3 11.9
-4 14 -9 33.6 15.3
10 -14 -9 27.8 14.1
-14 10 9 50.09 16
-10 14 -9 0.8 11.9
-4 -10 -9 15 11.7
-10 -4 9 31 20.3
4 -14 9 1.4 10
-10 14 -9 38.1 15.2
14 -4 -9 -2.3 10.4
-14 10 9 42.5 24.2
4 10 -9 11.8 12.1
14 -10 9 44.8 25.4
-10 -4 9 44.6 13.7
-14 11 -9 27.4 13.5
-3 14 -9 9.8 14.2
3 -14 -9 35.1 12
-3 -11 9 5.3 19.2
3 -14 -9 34.6 13.6
14 -3 9 3.5 23.4
-11 14 9 22.1 14.2
11 3 -9 37.8 12.8
14 -11 -9 22.8 12.8
-3 -11 9 23.5 11.8
-14 3 9 14.8 12.1
-14 3 9 1.8 19.2
-11 14 9 44 22.4
11 -14 9 24.5 20.1
-11 -3 9 14 18.7
-11 14 -9 10.7 13.4
-14 11 9 26.3 23.4
3 -14 9 -0.9 10.6
-3 -11 -9 16.1 12.3
3 11 -9 28.1 12
-11 14 -9 38.9 15.6
14 -11 9 29.1 23
11 -14 -9 24.6 12.9
-14 11 9 41.4 15.9
-11 -3 9 32.1 12.8
14 -3 -9 19.1 11.4
-14 2 9 25.6 19.1
-14 12 -9 86.49 15.7
2 -14 -9 84.89 13.7
-12 14 9 70.59 23.1
14 -12 -9 74.89 15
-2 14 -9 64.89 15.9
-12 14 9 52.19 15
-2 -12 9 61.39 12.5
-14 2 9 94.59 15.2
2 -14 -9 62.19 14.1
12 2 -9 71.09 14.4
-12 14 -9 92.69 16.7
-12 14 -9 70.09 15.8
-2 -12 -9 111.29 16.2
14 -12 9 75.09 24.3
-12 -2 9 100.89 15.1
-14 12 9 100.79 17.5
-12 -2 9 137.99 25.8
-14 12 9 73.49 24
12 -14 -9 80.89 14.6
14 -2 -9 106.19 15.1
1 -14 -9 66.39 12.9
13 1 -9 62.89 14
-14 1 9 37 20.4
14 -13 -9 76.49 14.7
-13 14 9 67.99 24.6
-14 1 9 96.19 15.2
1 -14 -9 78.59 15.9
-1 -13 9 73.59 12.9
-14 13 -9 105.79 17.2
-13 14 9 64.79 15.6
-1 14 -9 86.39 16.5
-14 13 9 50.59 23.9
14 -13 9 64.29 23.8
-13 14 -9 52.09 14.8
14 -1 -9 53.19 13.6
-13 -1 9 69.49 13.6
13 -14 -9 84.69 14.3
-14 13 9 108.69 18.7
-1 -13 -9 94.49 15.7
-13 -1 9 76.19 21.7
0 -14 -9 20.1 12.6
0 14 9 31.8 14.8
14 0 -9 21 12.2
14 -14 -9 17.9 12.2
-14 14 9 10.7 21.4
-14 14 -9 28.5 13.4
0 -14 9 -2.2 10.5
-14 0 9 30.3 12.2
-14 14 9 40.1 14.9
-14 0 9 5 17.7
0 14 -9 14.3 12.7
7 -15 -9 14 11.9
-15 7 9 16.1 12.9
15 -8 -9 9.7 11.9
-15 8 -9 26.2 14.4
8 7 -9 8 12.1
8 -15 9 11 10.9
-7 -8 9 31.6 20.8
7 -15 -9 8.3 10.5
-7 -8 9 20 12.1
-7 15 -9 16.4 14
15 -7 9 5.4 22.5
-8 15 -9 13.3 14.6
8 -15 -9 13.5 11.8
7 8 -9 14.8 12.3
-8 -7 9 15.2 19.8
15 -7 -9 -3.5 11.6
-8 -7 9 11.8 12
8 -15 -9 10.4 9.8
-15 8 9 -1 21.3
15 -8 9 12.9 24.2
-15 7 -9 11.9 13.3
-15 8 9 12.8 13.5
-7 -8 -9 1.3 4.9
7 -15 9 -0.3 10.5
-9 15 9 3.2 11
15 -6 9 5 22.6
-9 -6 -9 1.3 4.7
-6 15 -9 15.3 14.8
9 6 -9 9.8 12.3
9 -15 9 3.4 10.7
-6 -9 9 6.6 19.6
15 -9 -9 10.9 11.9
-15 9 -9 15 13.5
6 -15 -9 13.7 10.8
-9 15 9 7.1 16
-6 -9 9 3.8 11.5
6 -15 -9 7.2 12.3
-9 15 -9 23.3 14.5
-9 -6 9 7.8 11.9
-15 9 9 -1.2 20.4
-15 6 -9 3.4 12.4
6 9 -9 2.7 11.9
9 -15 -9 10.8 12
-9 -6 9 -0.8 18.1
15 -9 9 18.3 24.7
6 -15 9 1.1 11.2
-6 -9 -9 -1 2.9
-6 -9 -9 -3.3 12.2
9 -15 -9 6.3 9.5
-15 9 9 1.3 13.7
15 -5 9 13.8 22.4
-5 -10 9 37.2 12.5
15 -10 -9 26.8 12.8
10 5 -9 41.9 13.5
-10 15 9 19.9 14.7
-10 15 9 32.9 13.5
10 -15 9 48.5 12.1
-5 -10 9 2.2 19.5
5 -15 -9 18.4 10.6
-5 15 -9 29.3 14.7
-15 5 9 -2.7 9.7
-15 10 -9 43.5 14.3
5 -15 -9 23.9 12.7
-15 10 9 35.7 14.7
15 -10 9 56.19 26.9
-5 -10 -9 28.3 13
10 -15 -9 21.3 12.7
-15 10 9 33.6 23
-10 -5 9 28.7 20.7
5 10 -9 26.6 12.8
-10 -5 9 46.9 13.6
-15 5 -9 4.3 11.3
-10 15 -9 46.9 16.1
-15 11 -9 19.6 14.1
15 -11 -9 18.9 12.1
-4 15 -9 20 13.9
4 -15 -9 13.7 12.6
15 -4 9 4.5 28.7
-4 -11 9 23.1 11.8
-11 15 9 12 13.7
-15 4 9 11.4 11.8
4 -15 -9 22.6 11.2
11 4 -9 22.2 12.1
11 -15 -9 25.9 12.8
15 -11 9 15.7 22.8
-11 -4 9 39.4 13.1
-11 15 -9 12.4 11.7
-15 11 9 9.4 13.9
-11 15 -9 24.1 14.7
-4 -11 -9 26.3 13.3
4 11 -9 36.1 12.8
-11 -4 9 9 19.5
-15 11 9 9.2 21.4
-4 -11 -9 1 4.3
15 -4 -9 2.1 9.1
-15 12 -9 12.4 13.1
-12 15 9 -2.5 22
-3 -12 9 12.5 11
3 -15 -9 13.9 11.1
-12 -3 -9 2.1 5.1
-15 3 9 20.3 12.5
-3 15 -9 10.3 13.9
15 -12 -9 1.1 11.9
3 -15 -9 3.4 11.9
-12 15 9 13.2 13.5
12 3 -9 1.8 11.5
-12 -3 9 18.4 12.6
12 -15 -9 7.7 12.2
-15 12 9 6.1 21.2
3 12 -9 15.8 11.6
15 -3 -9 -2.4 10.2
-3 15 9 4.3 14
-3 -12 -9 0.4 3.9
-12 15 -9 11.8 13.4
-3 -12 -9 31.4 13.2
15 -12 9 8.6 21.2
-12 15 -9 22.8 14
-12 -3 9 10.7 19.9
-15 12 9 10.1 14
-2 -13 9 35.1 11.4
-2 15 -9 36.9 14.4
2 -15 -9 36.5 12.8
-13 15 9 -2.8 24.5
2 13 9 35.9 15
-13 15 9 27.3 13.8
-15 13 -9 63.79 14.6
15 -13 -9 35.6 12.8
2 -15 -9 56.59 12.6
-15 2 9 44.1 12.9
13 2 -9 50.29 14.2
-2 -13 -9 45.4 13.7
13 -15 -9 55.99 13.1
15 -2 -9 47.8 12.4
-2 15 9 47 15.3
-13 -2 9 64.99 13.5
-13 15 -9 55.89 14.7
-15 13 9 86.89 17.3
15 -13 9 0.3 22.3
-13 -2 9 29.5 19.2
-15 13 9 28.6 23.3
-13 15 -9 44.4 13.8
-1 15 -9 93.79 16
1 -15 -9 135.79 16.7
-15 14 -9 146.59 18.5
14 1 -9 115.79 15.6
1 14 9 125.89 18.3
15 -14 -9 123.79 16.2
-15 1 9 106.39 15.4
-14 15 9 73.69 16
15 -1 -9 90.29 14.3
-14 15 -9 58.99 14.6
-15 14 9 120.09 17.7
-1 15 9 67.19 15.7
-15 14 9 4.2 21.8
14 -15 -9 112.89 14.7
15 0 -9 135.49 18.3
0 -15 -9 144.59 20.1
0 15 9 103.09 17.2
15 -15 -9 123.39 18.3
-15 15 -9 145.99 18.2
-15 0 9 123.69 18.7
-15 15 9 189.58 21
-16 8 9 17.3 13.2
-8 16 9 5.8 14.7
16 -8 9 22.6 24
-8 -8 -9 -0.4 3.3
-8 -8 -9 -4.5 11.7
-8 -8 9 8.5 11.6
-8 -8 9 -6 18.5
-8 16 -9 8.7 13.7
8 8 -9 4.7 11.5
8 -16 -9 5.7 10.1
8 -16 -9 5.4 10.9
-16 8 -9 5.7 12.7
16 -8 -9 14 12.7
-7 -9 9 15.4 12
-16 7 9 -0.3 11.2
16 -7 9 12.4 22.7
9 7 -9 27.7 12.4
-16 9 -9 21.8 13.3
7 -16 -9 27.4 12.4
7 -16 -9 30.2 11.2
16 -9 -9 22.1 12.4
-7 16 -9 11.6 13.6
9 -16 9 1.7 11.1
-9 16 9 16.5 14.9
-16 7 -9 22.7 13.1
-9 -7 9 28.5 12.3
9 -16 -9 7.5 8.8
16 -9 9 30.1 24.2
-16 9 9 41.8 14.6
-9 16 -9 35.1 14.3
-7 16 9 37.7 15.9
16 -7 -9 19.1 12.5
-9 -7 9 10.2 17.9
7 9 -9 28.8 12.6
-7 -9 -9 29.1 13.1
9 -16 -9 32.4 12.1
-6 16 -9 26.3 13.9
16 -10 -9 14.4 11.9
6 -16 -9 18.8 10.9
6 -16 -9 8.1 11.7
-10 16 9 7.2 10.9
10 -16 9 4.3 10.1
-6 -10 9 20.5 12.5
-10 16 9 18.8 15.2
16 -6 9 1.6 23.5
-16 10 -9 28.6 14.1
10 6 -9 11.4 11.7
-10 16 -9 12.7 13.6
-10 -6 9 23 13
-6 -10 -9 15.4 13.2
16 -6 -9 -4 12
10 -16 -9 20.7 11.8
6 10 -9 23.2 11.8
-6 16 9 20.7 15.5
-16 6 -9 15.2 12.3
-10 -6 9 7.8 18.2
16 -10 9 21.4 23.9
-16 10 9 -2.5 30
-16 10 9 29.7 14.4
16 -11 -9 2.1 11.9
-5 16 -9 2 13.1
-11 -5 -9 -1.2 3.1
5 -16 -9 17 11.8
5 -16 -9 7.9 11
-16 11 -9 8.9 13.1
11 5 -9 9.5 11.5
11 -16 9 3.4 10.7
-11 16 9 -1.5 13.8
-11 16 9 1.8 12.4
-16 5 9 6.1 11.2
-5 -11 9 10.6 11.8
11 -16 -9 11.1 11.7
-16 11 9 -6.6 21.5
-11 16 -9 17.8 13.6
5 11 -9 13.3 11.6
-16 11 9 4.1 13.2
-5 -11 -9 17.3 12.8
-11 -5 9 12.2 11.4
16 -11 9 11.5 23
-11 -5 9 4.4 17.9
-5 16 9 14.1 14.4
4 12 9 -5.7 11.5
16 -12 -9 15.6 12
-16 12 -9 11.6 13.1
-4 16 -9 12.4 13.7
4 -16 -9 3.8 11.3
-16 4 9 9.9 11.6
-12 16 9 14.7 13.4
4 -16 -9 12 10.6
12 -16 9 5.7 10.7
12 4 -9 22.1 11.8
-4 -12 9 10.5 11.3
4 12 -9 4.7 11.2
-4 16 9 20.7 15.2
12 -16 -9 8.1 11.2
-12 -4 9 2.2 18.2
-16 12 9 13.9 14.1
16 -12 9 3.6 21.4
-12 -4 9 13.2 11.1
-12 16 -9 -9.1 11.2
-16 12 9 -3.3 20.6
-12 16 -9 10.9 13.2
-4 -12 -9 15.8 13.5
16 -13 -9 70.09 14.2
-13 16 9 48.4 14.3
-16 3 9 79.09 14.2
3 13 9 80.29 15.8
-3 -13 9 48.4 11.7
-3 16 -9 58.89 14.8
-16 13 -9 126.89 17.1
3 -16 -9 77.09 14.1
13 3 -9 80.19 14.5
-16 13 9 61.19 15.1
-3 16 9 59.09 16.2
3 13 -9 52.79 12.5
13 -16 -9 85.89 14.6
-3 -13 -9 57.69 14.2
-13 -3 9 1.3 21.1
-13 -3 9 51.19 12.6
-13 16 -9 51.79 13.7
-13 16 -9 46.4 14
-16 13 9 -0.2 23.6
2 14 9 27.8 14.1
-2 16 -9 17.3 13.8
16 -14 -9 21.8 12.1
-14 16 9 22.1 13.9
-16 14 -9 10.3 11.7
-16 2 9 20.2 11.6
2 -16 -9 14.9 11.6
14 2 -9 20.1 11.8
-14 16 -9 20 12.9
-14 16 -9 -1.6 10.4
2 14 -9 -2.1 15.3
16 -2 -9 2.1 9.5
-2 16 9 10.1 13.4
-14 -2 9 20.4 12
14 -16 -9 15.6 11.9
-16 14 9 23.5 13.9
-2 -14 -9 16 12.3
1 -16 -9 16.5 11.6
-1 16 -9 15.5 12
-16 15 -9 11.9 11.8
-15 16 9 16 13.7
-16 1 9 14.6 11.2
15 1 -9 10.4 11
16 -15 -9 15.8 10.8
1 15 9 16 13.8
-1 16 9 10 13.8
-16 15 9 23.8 13.9
16 -1 -9 11.6 10
-15 -1 9 25.8 11.4
-15 16 -9 8.4 12.4
15 -16 -9 19.2 10.9
-1 -15 -9 38 12.9
-16 0 9 4.8 10.5
-16 16 9 13 13.1
16 0 -9 9 9.9
0 16 9 6.9 13.5
16 -16 -9 7.3 9.9
0 -16 -9 8.3 11.4
0 -16 -9 -0.8 3.5
-16 16 -9 5.5 11.3
8 -17 -9 44.7 12.1
-17 9 -9 51.29 14.1
-17 8 9 19.7 12.7
-8 -9 9 45 12.8
17 -9 -9 47.3 13.3
-9 17 9 36.9 16.2
-8 17 -9 73.49 15.7
8 -17 -9 27 10.9
17 -8 9 2.5 29.2
9 8 -9 67.39 13.9
9 -17 -9 9.7 9.5
8 9 -9 40.9 12.9
-9 -8 9 38.3 12.4
-8 -9 -9 40.6 12.5
17 -9 9 3.4 26.1
17 -8 -9 41.1 13.3
-17 8 -9 47.9 13.8
-8 17 9 31.1 14.7
9 -17 -9 30 11.3
-9 17 -9 31.8 13.5
-17 9 9 36.2 14.1
-17 10 -9 -2.7 12.1
17 -10 -9 -9.6 11.5
-7 -10 9 15.3 12.1
10 7 -9 5.7 10.6
7 -17 -9 10.3 10.4
-10 -7 -9 -0.3 3.5
-7 17 -9 4.2 12.7
-10 17 9 -1.7 15.2
7 -17 -9 8.7 10.9
-7 -10 -9 11.3 13.4
-7 -10 -9 1.2 4.1
17 -10 9 2.1 25.5
-17 7 -9 17.5 11.9
7 10 -9 -2 10.8
-10 17 -9 14.3 13.3
17 -7 -9 3.5 12.1
10 -17 -9 10.6 10.9
-7 17 9 2.4 13.7
-17 10 9 5.5 13.1
-10 -7 9 7.5 11
17 -11 -9 43.4 12.8
6 -17 -9 42 12.4
6 -17 -9 41.3 11.5
-17 11 -9 37.3 13.2
-11 17 9 40.7 15.4
11 6 -9 52.39 13.6
-6 17 -9 59.59 14.4
-6 -11 9 44.9 12.6
17 -6 -9 16.4 12.1
6 11 -9 37.3 11.8
11 -17 -9 33.4 11.6
-17 6 -9 3.2 10.7
-11 17 -9 34.4 13.1
-6 -11 -9 46.6 14
-17 11 9 25.6 14.1
-6 17 9 26.6 14.5
-11 -6 9 38.2 12.5
-17 5 9 5.1 11
5 -17 -9 17 11.6
-12 17 9 14.3 13.1
17 -12 -9 20.2 11.9
-5 17 -9 11.6 13.2
12 5 -9 12.5 11
-17 12 -9 11.4 11.7
-5 -12 9 19.9 11.3
12 -17 9 3.3 16.2
-5 -12 -9 30.5 13.9
-12 17 -9 12.7 12.1
-17 12 9 29.9 14.2
12 -17 -9 20.4 11
5 12 -9 15.4 11.2
-5 17 9 18.8 13.6
-12 -5 9 9.5 10.6
-17 13 -9 45.7 13.3
17 -13 -9 37.1 12.1
4 -17 -9 43.9 12.3
13 4 -9 35.2 12.8
-4 17 -9 26.3 13.2
-17 4 9 31.6 12.2
-13 17 9 23.5 13.3
4 13 -9 22.4 11.1
-4 17 9 22.2 14.2
-13 17 -9 16.6 10.7
-17 13 9 34.4 14.2
-13 17 -9 21.9 12.2
-4 -13 -9 36.8 12.9
-13 -4 9 36.8 11.5
13 -17 -9 39.4 12.1
-17 14 -9 52.19 13.4
17 -14 -9 40.8 12.1
3 -17 -9 50.79 12.7
-14 17 9 40.1 13.7
14 3 -9 45.1 12.5
-17 3 9 33.4 11.7
-3 17 -9 50.49 13.9
14 -17 -9 44.8 12.1
3 14 -9 17 10.2
-17 14 9 44.4 15.1
-3 17 9 20.8 14.7
-14 17 -9 16.4 10.8
-3 -14 -9 42 13
-14 17 -9 21.6 11.9
-14 -3 9 30 11.3
15 2 -9 36.6 11.5
17 -15 -9 37.1 11.2
-2 17 -9 31.3 12.3
-17 15 -9 49.99 12.8
-15 17 9 14 12.4
-17 2 9 14.7 10.6
2 -17 -9 52.19 12.8
2 15 9 19 12.8
15 -17 9 13.5 9.3
-2 -15 -9 31.5 12.6
15 -17 -9 37.5 11.8
-15 17 -9 20.9 11.8
-17 15 9 37.1 13.3
-15 -2 9 38.4 11.7
-2 17 9 19.7 13.4
-17 16 -9 23.4 11.1
-17 1 9 11.6 9.9
17 -16 -9 29.8 10.4
-1 17 -9 -0.5 9.4
1 -17 -9 28.3 11.4
1 16 9 18.1 13.2
16 1 -9 16.2 9.9
-16 17 9 34.2 12.8
-16 17 -9 23.6 11.4
-1 -16 -9 31.6 12.1
16 -17 -9 31.1 10.9
-16 -1 9 22.1 10.3
-1 17 9 15.7 13.4
-17 16 9 46.5 13.6
0 17 9 16.1 12
-17 17 9 41.5 12.7
0 -17 -9 48.1 11.6
-17 0 9 23.9 10
-17 17 -9 30.4 11.3
17 -17 -9 48.7 11.5
-9 18 9 -1.9 15
-9 -9 9 9.1 10.9
-18 9 9 16.9 12.2
9 -18 -9 9.5 9.9
-18 9 -9 -1.5 11.4
9 9 -9 10.7 10.5
-9 18 -9 -1.6 12
-9 -9 -9 0.5 4
18 -9 -9 -1.8 11
8 -18 -9 27.6 10.9
-8 18 -9 45.1 13.4
-10 18 9 22.8 15.3
-8 -10 9 45 12
10 8 -9 46.3 11.6
18 -10 -9 39.6 12
-18 10 -9 29.7 12.2
-18 10 9 30.5 12.3
-10 -8 9 26.6 11
-8 18 9 26.1 14.4
8 10 -9 36 11.4
-18 8 -9 20.9 11.4
10 -18 -9 19.6 10.1
-10 18 -9 26.1 12.5
18 -8 -9 27.6 12.2
11 7 -9 8.2 10.1
-11 18 9 -0.2 14.3
-7 -11 9 17.8 11.8
7 -18 -9 21.1 11.1
18 -11 -9 17.6 11.5
-18 11 -9 13.5 11
-7 18 -9 0.1 11.8
-18 11 9 16.5 12.3
11 -18 -9 17.3 9.9
18 -7 -9 15.1 11.9
-11 -7 9 17 10.4
-7 18 9 -8.5 13.4
-18 7 -9 -0.7 9.8
7 11 -9 12.8 10.5
-11 18 -9 16.1 11.8
-7 -11 -9 23.2 11.7
-18 6 9 -1.5 10
-12 18 9 5.5 13.9
-6 -12 9 29.3 11.2
-6 18 -9 45.4 13.4
12 6 -9 33.1 10.9
-18 12 -9 35.6 12.1
6 -18 -9 29.5 10.6
-12 18 9 0.4 13.4
18 -12 -9 32.4 11.8
-12 18 -9 22.5 11.7
-18 12 9 27.3 13.2
-6 18 9 18.7 13.8
-6 -12 -9 33.5 12.8
18 -6 -9 4.1 10.6
6 12 -9 30.8 11.4
12 -18 -9 33.2 10.7
-12 -6 9 43.7 12
-13 18 9 54.49 13.1
-18 5 9 80.19 14
13 5 -9 110.89 14.8
-5 18 -9 69.29 13.8
18 -13 -9 93.39 13.7
-18 13 -9 84.79 13.9
-5 -13 -9 108.19 15.4
-18 13 9 81.89 15.3
-13 -5 9 60.79 12.4
5 13 -9 62.49 12.5
-13 18 -9 69.49 13.1
13 -18 -9 117.69 14.3
-5 18 9 77.69 16.7
-18 4 9 17.1 11.6
4 -18 -9 15 10.6
-18 14 -9 17.1 10.6
18 -14 -9 15 10.6
-4 18 -9 11.8 11.7
14 4 -9 17.3 10.6
-14 18 9 6.8 12.1
-4 18 9 10.6 13.9
-4 -14 -9 30.1 12.5
-18 14 9 23.1 12.7
-14 -4 9 17.9 10.1
4 14 -9 10.6 9.8
-14 18 -9 13.6 10.4
14 -18 -9 21.7 10.1
-15 18 9 14.9 12.6
15 3 -9 16.2 10.5
-18 15 -9 24.6 10.5
-18 3 9 17.6 11.3
-3 18 -9 11 10.9
18 -15 -9 9.7 10.3
3 -18 -9 17.3 10.3
-15 -3 9 6.8 9.8
-3 18 9 10.1 13.3
-3 -15 -9 17.4 11.8
-15 18 -9 8.7 10.4
-18 15 9 29.7 13.1
15 -18 -9 10.6 10
2 16 9 7.3 14.1
-18 2 9 5.4 10.7
18 -16 -9 3.7 9.5
16 2 -9 11.7 9.1
2 -18 -9 -0.2 3
-18 16 -9 14.8 9.6
2 -18 -9 17.3 10.5
-2 18 -9 4.2 9.2
-16 18 9 14.5 11.8
-16 18 -9 13.8 10.3
-2 -16 -9 16.6 10.7
-2 18 9 6.9 12.5
-18 16 9 6.5 11.6
-16 -2 9 13.6 9.8
16 -18 -9 8.9 9.7
1 -18 -9 21.1 9.9
18 -17 -9 22.9 10.1
-17 18 9 20.1 11.4
-18 1 9 12.1 10
-18 17 -9 11.4 9.3
1 17 9 3.4 10.5
-1 -17 -9 21 10.5
-18 17 9 28.2 12.3
-17 18 -9 23.1 9.7
-17 -1 9 15.3 9.6
-1 18 9 10.1 12.1
17 -18 -9 17.6 9.9
0 -18 -9 54.29 11.4
18 -18 -9 52.29 11
-18 0 9 35.7 10.8
-18 18 9 41.6 11.9
-18 18 -9 26.5 9.5
0 18 9 11.9 9.8
-19 10 -9 45.4 12.1
-10 19 9 30.5 14.4
10 9 -9 67.49 11.7
19 -10 -9 55.09 12.3
-9 19 -9 47.8 12.2
-9 -10 9 35.1 10.5
9 -19 -9 45 10.9
-10 19 -9 56.49 12.5
9 10 -9 86.69 12.4
19 -9 -9 62.59 12.1
-19 10 9 44.4 12.4
10 -19 -9 63.09 11.5
-10 -9 9 75.29 12.6
-9 19 9 41.9 14.6
-19 9 -9 43.8 11.6
-8 -11 9 25.6 9.8
11 8 -9 33.8 10.5
19 -11 -9 20 10.9
-11 19 9 20.5 14.4
-8 19 -9 24.7 11.9
-19 11 -9 24.4 11.4
8 -19 -9 28.2 10
-8 19 9 37.2 14.8
-11 -8 9 21.2 10.2
-19 11 9 14.6 11.9
19 -8 -9 24.3 10.9
11 -19 -9 35.8 10.6
8 11 -9 26.2 9.8
-11 19 -9 14.5 10.6
-19 8 -9 4.5 11.1
12 7 -9 73.89 12.3
-7 19 -9 65.19 13.4
-19 12 -9 60.59 12.6
7 -19 -9 75.29 12.5
19 -12 -9 65.99 12.5
19 -7 -9 45.5 11.6
7 12 -9 50.49 11
-12 19 -9 43.5 11.7
-12 -7 9 65.29 11.9
12 -19 -9 52.99 10.7
-19 12 9 51.79 13.4
-7 -12 -9 53.09 12.4
-7 19 9 77.69 16.4
6 -19 -9 7.8 9
13 6 -9 18.9 10.3
-19 13 -9 15.6 10.2
19 -13 -9 12.6 10.3
-6 19 -9 15.5 11
-6 -13 -9 9 10.7
13 -19 -9 5.4 9.1
-13 19 -9 -1.4 10
6 13 -9 8.5 9.6
-13 -6 9 3.6 9.6
-19 13 9 7.9 11.5
-6 19 9 15.4 13.8
5 -19 -9 34.8 10.5
-5 19 -9 22.6 10.9
19 -14 -9 36.2 10.7
-19 5 9 18.2 9.7
-14 19 9 -1.5 14.2
14 5 -9 32.9 10.7
-19 14 -9 42.8 11.1
-19 14 9 27.1 12.6
-14 -5 9 33.6 10.2
-14 19 -9 17.6 9.3
5 14 -9 15.5 9.6
-5 19 9 23.6 13
-5 -14 -9 36.2 12.5
14 -19 -9 19.4 9.5
15 4 -9 21.1 9.9
-19 15 -9 9.4 9.1
19 -15 -9 20.4 10.2
-4 19 -9 20.4 10.6
4 -19 -9 27.9 9.9
-15 19 9 10.7 10.1
-19 4 9 25 10.3
-4 19 9 14.5 12.6
-19 15 9 27.6 12.4
15 -19 -9 30.3 9.8
-15 -4 9 23 9.8
-4 -15 -9 25.2 11.4
4 15 -9 -2.8 10.5
3 -19 -9 -0.9 2.4
-16 19 9 2.6 9.9
16 3 -9 8.5 8.1
-19 16 -9 2.8 9.2
19 -16 -9 8.8 9.4
-3 19 -9 4.1 8.8
-19 3 9 4.9 9.6
3 -19 -9 1.7 9.5
-3 19 9 2.9 11.9
16 -19 -9 4.1 8.8
-19 16 9 -0.8 11.3
-16 -3 9 4.4 9
-3 -16 -9 -1.6 10.4
-3 -16 -9 0.4 2.8
-17 19 9 23.2 11
-19 2 9 4.9 9.2
19 -17 -9 11.2 10.1
2 -19 -9 9.9 10.1
-19 17 -9 6.7 9
-17 -2 9 14.5 10.4
-2 -17 -9 -0.8 2.1
17 -19 -9 13.6 9.3
-19 17 9 3.9 11.5
-2 -17 -9 2.3 10.3
-2 19 9 2.8 11.9
-17 19 -9 2.4 9.8
-19 1 9 59.49 12.3
19 -18 -9 56.09 11.5
-18 19 9 50.89 12.5
-19 18 -9 26.2 10.1
1 -19 -9 58.09 12.4
18 -19 -9 45.6 11.2
-19 18 9 55.89 13.4
-18 -1 9 62.89 12.7
-1 -18 -9 48.2 12.4
20 -10 -9 11 10.2
-20 10 -9 11.7 9
-10 -10 9 7.6 8.9
-10 20 9 8.2 13.1
10 10 -9 3.4 8.4
-10 20 -9 4.3 9.9
-10 -10 -9 0.3 3
10 -20 -9 4.9 9
-20 11 -9 35 10.7
9 -20 -9 41 10.1
20 -11 -9 31.5 9.9
-9 -11 9 0 10.1
-9 20 -9 40.5 11.3
11 9 -9 27.2 9
-11 20 9 23.4 13.7
-11 20 -9 38 11
-11 -9 9 29.5 9.9
-20 11 9 0.4 10.3
11 -20 -9 39.5 9.8
9 11 -9 28.7 9.5
-9 20 9 43.5 14.3
20 -9 -9 30 10.2
-20 12 -9 11.6 9.5
8 -20 -9 9.5 8.7
20 -12 -9 9.6 10
-8 20 -9 11.3 10.7
12 8 -9 8.6 8.9
-20 12 9 12.4 11.1
8 12 -9 7.8 8.8
20 -8 -9 6.2 9.1
-12 20 -9 9.5 10.1
12 -20 -9 5.7 8.9
-8 20 9 -5.6 12.4
-12 -8 9 16.2 9.5
7 -20 -9 36.1 10
-20 13 -9 25.4 10.2
20 -13 -9 33.8 10.9
-7 20 -9 41.3 11
13 7 -9 40 10.1
-13 20 -9 14.9 9.9
-7 20 9 23.4 13.3
-20 13 9 23.8 12.2
13 -20 -9 36 10.1
7 13 -9 24.9 9.1
-13 -7 9 33.4 10.1
-20 14 -9 43.3 10.4
14 6 -9 59.19 10.5
20 -14 -9 83.29 11.9
6 -20 -9 77.79 11.5
-6 20 -9 91.69 12.8
-14 -6 9 57.99 11
14 -20 -9 94.79 12.3
6 14 -9 60.49 10.9
-20 14 9 77.99 13.8
-6 -14 -9 74.59 12.6
-6 20 9 53.69 14.2
-5 20 -9 17.5 9.7
-20 5 9 -1.6 13.2
15 5 -9 2.1 8.5
20 -15 -9 19.3 10.5
-20 15 -9 10.9 9.3
5 -20 -9 21.9 10.1
15 -20 -9 4.6 8.8
-5 20 9 9.6 12.9
-5 -15 -9 7 10.9
-15 -5 9 15.1 9.5
5 15 -9 -1.5 9.6
-20 15 9 11.8 11.8
4 -20 -9 5.3 10
-20 4 9 -3.4 7.1
20 -16 -9 4.6 9.9
16 4 -9 -0.7 7.1
-20 16 -9 -3.7 9.4
-4 20 -9 7.6 7.9
-4 20 9 -3 12.3
-4 -16 -9 0.2 2.3
-4 -16 -9 -10.7 10.2
-20 16 9 2.2 12.1
16 -20 -9 10.5 9.5
-16 -4 9 1.3 9.8
-20 17 -9 7.5 10.2
3 -20 -9 5.3 11
20 -17 -9 7.8 11
-20 3 9 1.5 7.8
-20 17 9 12.7 13.2
-3 -17 -9 13.6 12.1
-3 20 9 12.5 12
-17 -3 9 -5 11.4
17 -20 -9 3.4 10
-11 21 9 -7.3 9.8
-10 21 -9 3.7 10.6
21 -11 -9 1.7 9.4
11 10 -9 9.5 9.2
10 -21 -9 3.1 8.7
21 -10 -9 0.1 8.4
11 -21 -9 3.1 8.9
-11 21 -9 6.7 10.4
-10 21 9 -2.4 12.7
10 11 -9 6.6 8.6
-21 12 -9 25.9 9.1
9 -21 -9 33.2 9.7
21 -12 -9 30.6 10.3
12 9 -9 23.7 9.8
-9 21 -9 22 11.1
12 -21 -9 31.7 10.4
9 12 -9 21.6 9
-12 -9 9 0.3 7.2
-12 21 -9 23.8 10.9
-9 21 9 20.7 12.9
21 -13 -9 53.69 11.4
8 -21 -9 48.4 10.8
-21 13 -9 51.59 10.8
-8 21 -9 32.5 11.5
13 8 -9 34.4 9.8
13 -21 -9 66.19 11.5
-13 21 -9 38 10.6
-13 -8 9 33.2 8.8
8 13 -9 54.99 10.2
-8 21 9 34.1 13.9
-7 21 -9 -4.3 10.8
-21 14 -9 9.4 10.2
14 7 -9 2.8 9.5
21 -14 -9 1.5 10.4
7 -21 -9 4.8 9.3
-14 -7 9 -2.1 9.4
14 -21 -9 4.6 10
-7 -14 -9 -0.4 2.1
7 14 -9 2.1 8.4
-7 21 9 0.3 13.3
-21 14 9 2 11.6
21 -15 -9 5.7 10.2
-6 21 -9 6.5 10.6
6 -21 -9 2.6 10.1
-21 15 -9 4.3 9.9
15 6 -9 5.5 8.3
15 -21 -9 14.3 10.4
-15 -6 9 8.8 10.1
-21 15 9 -3.4 12.4
-6 21 9 6.6 12.9
0 0 10 3.7 13.7
0 0 10 13 15.5
0 -1 10 240.98 28.3
1 0 10 243.58 27.4
0 -1 10 249.97 28
-1 0 10 245.48 27.1
-1 1 10 248.68 27.2
0 1 10 256.97 27.5
1 0 10 225.78 28
1 -1 10 236.78 28.9
-1 0 10 233.18 27.3
1 -1 10 234.58 27.3
-1 -1 10 163.28 23.7
-1 2 10 204.78 25
-2 1 10 97.29 19
2 -1 10 141.29 22.9
1 -2 10 143.09 21.7
2 -1 10 220.48 27.5
1 1 10 139.59 21.5
-2 1 10 130.19 22.7
-1 -1 10 147.29 21.5
1 -2 10 150.88 23.5
0 -2 10 120.59 22.2
0 2 10 142.79 22.1
-2 2 10 123.79 21.6
-2 0 10 92.99 19.3
2 -2 10 101.49 20.8
0 -2 10 123.89 21.6
2 0 10 85.59 19.4
2 0 10 126.49 21.9
2 -2 10 87.19 18.9
-2 0 10 90.29 19
-3 1 10 213.88 27.1
3 -1 10 219.18 27.8
-2 3 10 221.78 26.9
2 -3 10 227.68 28.5
-3 1 10 211.28 25.4
2 -3 10 218.28 27.3
1 2 10 212.98 27.1
-1 -2 10 244.48 28.1
-1 -2 10 218.18 27.8
3 -1 10 217.28 27
3 -2 10 205.88 28
3 -2 10 236.38 28.6
-1 3 10 240.98 26.6
2 1 10 229.48 28
-2 -1 10 220.88 27.3
-2 -1 10 214.48 27.7
1 -3 10 203.58 28.1
1 -3 10 245.48 28.6
-3 2 10 219.28 26.4
-3 0 10 38 16.1
3 -3 10 72.79 19.1
0 -3 10 70.39 18.7
3 0 10 62.39 18.6
-3 0 10 59.29 17.2
-3 3 10 84.79 19.5
0 3 10 52.19 16.7
0 -3 10 64.29 19.8
3 -3 10 56.39 17.5
3 0 10 28.7 16.2
-2 4 10 77.89 18.9
2 2 10 63.89 18.3
4 -2 10 78.69 21.1
4 -2 10 37.5 17.1
-4 2 10 73.69 19.9
2 -4 10 57.39 18.9
-2 -2 10 49.7 17.3
2 -4 10 75.69 20.7
-2 -2 10 42.9 17.1
-3 4 10 237.58 28.4
4 -1 10 223.68 28.3
-1 -3 10 220.28 28.7
1 3 10 214.48 27
-4 1 10 223.58 27.8
-4 1 10 190.88 25.3
-1 -3 10 246.48 28.9
3 -4 10 219.28 28.3
3 -4 10 244.18 30.2
4 -1 10 216.48 28.3
1 -4 10 205.48 28.5
3 1 10 210.68 27.9
4 -3 10 192.68 27.6
-4 3 10 205.48 27.1
-3 -1 10 190.98 27
-1 4 10 205.88 26.9
-3 -1 10 193.78 26.1
1 -4 10 216.38 27.7
4 -4 10 6 15.8
0 -4 10 6.7 15.7
-4 0 10 14.7 16.2
-4 0 10 8.5 14.8
4 0 10 1.8 15.4
0 4 10 6 14.5
-4 4 10 2.3 15.5
4 0 10 4.2 16
0 -4 10 4.8 15.2
5 -2 10 182.28 29.7
-5 2 10 139.49 23.3
-2 -3 10 195.18 27.3
-5 2 10 177.28 27
-2 -3 10 190.58 28.3
3 -5 10 210.78 27.9
-3 5 10 182.88 26.9
2 3 10 197.58 27
-5 3 10 169.18 26
5 -3 10 175.48 27.2
2 -5 10 181.78 27.6
3 2 10 163.48 27.6
2 -5 10 164.28 28.1
-3 -2 10 158.08 26.5
-2 5 10 173.88 26.8
-3 -2 10 173.58 25.9
1 4 10 160.28 25.5
5 -1 10 170.68 27.1
-1 -4 10 180.38 27.6
4 -5 10 170.78 26.8
-1 -4 10 146.19 22.7
5 -1 10 179.38 29.1
-5 1 10 162.38 25.6
-4 5 10 161.08 25.8
-5 1 10 176.98 26.8
4 1 10 187.88 28.1
-4 -1 10 188.68 26
-5 4 10 180.98 25.2
5 -4 10 172.48 27.1
1 -5 10 206.08 27.8
-1 5 10 164.28 26
1 -5 10 163.48 29.2
-4 -1 10 190.78 27.1
0 -5 10 30.2 17.3
-5 5 10 39.5 16.8
5 -5 10 30.8 17.1
-5 0 10 18.5 16.7
0 -5 10 56.39 19.4
5 0 10 25.6 17.4
-5 0 10 21.6 16.7
0 5 10 44.5 18
5 0 10 6.2 15.5
-6 3 10 61.19 18.3
3 3 10 34.6 17.5
3 -6 10 56.09 19
6 -3 10 40.1 17.8
-3 6 10 51.79 18.2
-6 3 10 -0.8 20.9
-3 -3 10 49 17.7
-3 -3 10 27.2 16.5
6 -2 10 90.99 21
-4 6 10 124.89 20.3
-2 -4 10 103.59 19.9
-6 2 10 112.09 20.3
4 -6 10 144.19 25.9
-6 2 10 113.09 19.7
-2 -4 10 152.28 26.6
2 4 10 116.79 20.9
6 -4 10 146.09 26.8
-2 6 10 156.08 26.8
2 -6 10 159.38 27.7
4 2 10 184.48 26.1
-4 -2 10 105.69 20.8
-6 4 10 174.68 26.4
2 -6 10 168.98 28.4
-4 -2 10 181.48 26
-1 -5 10 36.2 18.6
-6 1 10 21.7 16.4
-6 1 10 25.6 16.5
-5 6 10 43.7 17.5
1 5 10 24.4 16.9
6 -1 10 32.9 19.1
-1 -5 10 28.2 17
5 -6 10 43.3 18.3
-6 5 10 10.1 14.6
-5 -1 10 20.2 16.6
-5 -1 10 23.1 17.3
1 -6 10 30.2 17
-1 6 10 26.7 17.7
1 -6 10 28.7 17.4
6 -5 10 20.3 17.6
5 1 10 28.7 18.4
-6 0 10 46.5 17.6
0 -6 10 88.79 21.3
0 6 10 46 19
-6 0 10 58.29 19.1
6 0 10 46.9 20.4
6 -6 10 64.39 19.3
0 -6 10 25.4 16.9
-6 6 10 61.29 19.1
-7 3 10 153.08 26.2
3 4 10 121.49 22.1
7 -3 10 118.29 22.7
-4 7 10 157.78 23.8
4 -7 10 160.28 27.4
-3 -4 10 149.49 26.7
4 3 10 154.38 24.2
-7 4 10 190.48 26.7
3 -7 10 160.88 26.9
3 -7 10 198.68 28.1
7 -4 10 119.29 23.6
-3 7 10 149.49 24
-4 -3 10 156.18 24.6
5 -7 10 182.78 27.3
-2 -5 10 178.78 27.2
7 -2 10 142.29 24.7
2 5 10 137.89 22.7
-7 2 10 181.78 25.3
-5 7 10 173.68 26.6
-7 2 10 145.09 25.4
2 -7 10 162.78 27.4
5 2 10 158.28 24.7
-7 5 10 191.58 27.8
-5 -2 10 175.98 28.2
-2 7 10 171.48 27.8
7 -5 10 170.68 28.1
2 -7 10 170.78 28.3
1 6 10 21.1 17.4
-7 1 10 10.2 16.2
7 -1 10 5.1 17.4
-1 -6 10 -1 8.3
-6 7 10 16.9 16.4
1 -7 -10 2 9.2
-7 1 10 20.9 16.8
6 1 -10 0.2 9.4
6 -7 10 10.5 15.3
-1 -6 10 27.3 18.4
-7 6 10 0.2 13.6
6 1 10 36.5 19.6
-6 -1 10 14.4 15.7
7 -1 -10 -1.5 8.7
7 -6 10 13.8 17.7
1 -7 10 -0.9 8.6
1 -7 10 31.1 18.8
-6 -1 10 15.5 16.7
-7 6 10 13.5 15.8
-1 7 10 14.9 16.9
1 -7 10 6.7 15.5
7 0 -10 2.6 9.2
7 0 10 2.4 22.5
7 -7 10 11 17.3
-7 7 10 -0.5 11.9
0 -7 -10 2 7.4
7 0 10 -5.3 18.3
-7 7 10 -2.4 16.3
-7 0 10 8.6 16.2
7 -7 -10 1.7 9.7
-7 7 -10 3.3 14.1
0 7 10 -4.9 16.6
-7 0 10 14.6 17.7
0 -7 10 -2.1 9.6
0 -7 10 7.8 15.7
-8 5 -10 5.5 11.8
-3 -5 10 9 16
-5 8 10 12.5 16.2
-8 3 10 14.6 17.2
8 -5 -10 2.2 10.2
-3 -5 10 8.2 9.7
5 3 -10 -0.9 10.4
3 5 10 7.3 16.7
-3 8 -10 -3.5 10.6
5 -8 10 15.4 16.8
-8 3 10 1.6 16
3 -8 -10 2.2 7.8
8 -3 10 20.7 19.3
3 -8 10 1.3 8.7
3 -8 10 32.9 18.6
-5 8 -10 11.1 11.8
8 -3 -10 -1.3 8.4
3 -8 10 26.6 18.6
-3 8 10 17.4 16.5
-5 -3 10 0.2 12.1
5 3 10 16.4 17.4
-5 -3 10 33.3 19.2
8 -5 10 16.7 16.6
-8 5 10 35.3 18.6
5 -8 -10 5.1 7.8
2 6 10 4.8 16.7
-2 8 -10 -1.5 13.2
-6 8 10 27.1 17.7
-8 2 10 -2.4 17.4
8 -6 -10 1.7 9.6
2 -8 -10 4.3 8
-8 6 -10 10.5 13.1
6 -8 10 25.8 17.5
-2 -6 10 2.4 16.3
-8 2 10 4.4 16.8
8 -2 10 5.6 18.9
6 2 -10 -5.1 9.1
-2 -6 10 11.9 9.6
-6 8 10 1.9 12.5
-8 6 10 1.9 10.8
-2 -6 -10 6.3 12.7
6 -8 -10 0.3 7.6
2 -8 10 0.1 9.7
6 2 10 14.2 17.7
8 -2 -10 4 9.1
8 -6 10 9.4 17.6
-6 8 -10 -0.8 10.8
-6 -2 10 5.8 17.4
2 -8 10 -0.4 16.3
-8 6 10 13.2 18.1
-2 8 10 3.3 16.3
2 -8 10 0 17.7
-1 -7 10 121.29 23.8
7 -8 10 118.59 22.3
-8 7 -10 95.29 16.5
-7 8 10 87.99 15.8
-8 1 10 73.49 19.7
1 -8 -10 62.49 11
-1 -7 10 68.49 12.6
1 7 10 21.7 17.3
8 -1 10 75.69 21.6
7 1 -10 53.69 11.9
-8 1 10 104.59 22.9
-7 8 10 86.09 21.1
1 -8 10 68.39 13
8 -7 10 98.79 22
7 1 10 93.09 22.8
-8 7 10 80.69 20.6
8 -1 -10 49.7 11.6
-8 7 10 104.49 16.5
1 -8 10 62.49 19.4
-1 8 10 81.59 19.6
-7 -1 10 109.29 23.4
8 -8 10 30.3 18.5
-8 8 10 35.1 14.4
0 -8 10 22.7 10.8
0 8 10 -3.1 15.2
-8 8 10 53.99 21.9
8 0 10 19.6 20.2
-8 8 -10 2 11.1
-8 0 10 16.6 18.5
-8 8 -10 27.4 13.9
0 -8 10 41.3 20.4
8 0 -10 23.1 11
0 -8 -10 23.3 9.6
8 -8 -10 4.1 8.2
-4 -5 10 88.79 14.3
-9 4 10 93.39 21.9
-4 -5 10 158.48 26
5 -9 10 113.69 21.8
-5 9 10 84.19 20.8
-9 5 -10 93.99 15.9
9 -4 10 129.49 25.4
-4 9 -10 102.39 16.3
5 -9 10 95.39 14
4 -9 -10 84.99 11.9
9 -5 10 119.49 24.9
9 -4 -10 47.4 10.5
4 -9 10 77.49 12.7
-9 4 -10 50.29 13.2
-5 -4 10 108.59 22.5
5 4 10 4.1 16.5
-5 -4 10 99.29 14
-4 9 10 115.39 23
5 -9 -10 57.79 10.2
-5 9 -10 102.79 15.9
4 -9 10 96.39 21.4
3 -9 -10 49.5 10.2
-9 3 10 66.99 20.9
9 -3 10 83.19 23.4
6 -9 10 97.29 22.2
-6 9 10 47.5 19
-3 9 -10 61.59 14.5
-9 3 10 19.4 17.2
6 3 -10 50.89 12
-3 -6 10 65.59 12.6
-3 -6 10 79.29 20.1
-9 6 -10 82.39 16
3 -9 10 63.49 11.7
-6 -3 10 46.2 11.4
6 -9 -10 32.6 8.9
9 -6 10 57.79 20.2
3 -9 10 76.99 20.8
9 -3 -10 49.9 11.1
-6 9 -10 78.29 15.3
-6 -3 10 98.89 22.6
-3 9 10 46 19.1
-9 6 10 85.39 21.8
-9 6 10 62.89 14.3
6 3 10 2.5 16.7
-2 -7 10 71.69 21.5
-2 -7 10 36.3 10.9
-9 7 -10 60.19 16
-2 9 -10 42 13.7
7 2 -10 41.1 12.4
2 -9 -10 48.7 10.8
-9 2 10 66.99 20.7
-9 2 10 51.09 20.1
7 -9 10 45 18.3
-7 9 10 55.69 21.4
-7 9 10 31.3 13.7
9 -2 10 34.5 21.6
7 2 10 8.8 17.5
2 -9 10 107.59 23
-7 -2 10 48.2 11.6
-9 7 10 102.59 23.8
-9 7 10 65.39 15.6
2 -9 10 48.8 11.9
-7 -2 10 62.09 20.1
9 -7 10 79.99 21.7
-2 9 10 40.9 19
9 -2 -10 59.89 12.4
-7 9 -10 49.8 13.7
7 -9 -10 59.59 10.4
8 -9 10 59.89 20.6
-8 9 10 53.39 16.6
-1 9 -10 1.9 11.4
-1 -8 10 28.8 10.7
-1 -8 10 58.59 20
-8 9 10 69.79 22.4
9 -1 10 5.2 19.6
-9 8 -10 42 14.7
1 -9 -10 31.1 9.9
-9 1 10 33.4 20.2
9 -8 -10 8.3 8.3
8 1 -10 41.2 12.3
1 -9 10 66.49 13.2
8 -9 -10 34.1 10.3
-9 8 10 60.89 16.5
-8 -1 10 54.89 21
9 -1 -10 62.59 12.8
-1 -8 -10 57.99 11.4
-8 -1 10 49.7 11.7
-8 9 -10 47.2 14.1
-8 9 -10 60.39 15.2
1 -9 10 60.89 20
-9 8 10 82.19 23.7
-1 9 10 -1.5 20.8
9 -8 10 85.99 22.8
8 1 10 16.1 19.5
9 -9 10 47.9 20.3
-9 0 10 21.9 10.8
9 0 10 17.3 20.6
-9 9 10 66.39 23.9
-9 0 10 54.29 21.4
9 0 -10 51.99 13.6
-9 9 -10 0 9.9
9 -9 -10 13.1 8.7
-9 9 -10 34.2 14.1
0 -9 -10 27.4 10.3
0 -9 10 31.3 11.3
0 -9 10 59.09 20.7
-9 9 10 52.09 15.3
-5 10 10 13.3 19.3
5 -10 -10 9.4 9.3
-10 5 10 -1.4 11.3
-5 -5 10 11.3 11.1
10 -5 -10 13 9
5 -10 10 7.7 10.3
-10 5 -10 14.9 13.1
-5 -5 10 17.4 19.2
-10 5 10 13.8 20.5
-5 10 -10 19.9 14.1
5 -10 10 16 18.2
10 -5 10 8.4 20.5
5 5 -10 8.4 10.6
-6 10 10 198.48 32.6
4 -10 -10 125.29 15.4
-4 10 -10 122.99 17.5
6 4 -10 154.58 18.9
6 -10 10 211.78 30.5
-4 -6 10 143.99 19.6
10 -4 10 194.28 33.4
-10 6 -10 134.29 20.8
6 -10 10 134.59 18.4
-10 4 10 194.38 28.7
-6 10 -10 135.29 20.2
10 -4 -10 156.38 16.6
-10 4 -10 154.38 18.1
4 -10 10 134.49 17.8
6 -10 -10 126.89 16.3
-10 6 10 202.68 34
4 -10 10 196.18 32.1
-10 6 10 150.38 20.7
-6 -4 10 126.59 19
-6 -4 10 211.38 30.4
-4 10 10 192.48 30.7
10 -6 10 190.98 32.3
10 -7 -10 -1.4 8.4
10 -3 10 0.1 20.9
3 -10 -10 4.9 9.2
-10 3 10 -1.5 17
-3 10 -10 9.3 13
-10 3 10 5.8 18.9
-7 10 10 14.8 19.9
-10 7 -10 11.5 13.6
-7 -3 -10 -0.1 3.3
7 -10 10 23.8 18.4
-3 -7 10 10.7 11.1
7 3 -10 2.1 11.2
-7 10 10 15.4 13.6
-3 -7 10 15.4 17.7
-7 -3 10 -0.8 17.4
-7 -3 10 5.9 11.4
-10 7 10 5.5 14.5
-3 -7 -10 -0.7 3.5
10 -7 10 6.7 17.6
3 -10 10 -3.8 17.5
10 -3 -10 1.9 10.4
7 -10 -10 1.8 9.1
3 -10 10 15.2 10.6
-3 10 10 4 17.9
-7 10 -10 0.5 13.3
-10 3 -10 3.6 10.6
-10 7 10 6.7 19.8
3 7 -10 -3.3 14.1
-3 -7 -10 1.6 8.5
-2 10 -10 55.99 15
-2 -8 10 55.29 19.4
-10 2 10 69.99 21.7
-8 10 10 59.69 23
10 -2 10 44.4 23.1
-10 8 -10 37 15.1
-2 -8 10 48 12.4
8 2 -10 33.8 12.5
2 -10 -10 43.3 10.9
8 -10 10 75.59 21.8
-8 10 10 49.99 15.3
-10 8 10 69.79 16.7
2 -10 10 57.09 12.8
-10 8 10 50.09 22.1
-8 -2 10 60.79 22.2
-8 10 -10 25.1 12.8
10 -2 -10 49.6 12.6
-8 10 -10 55.89 15.8
8 -10 -10 56.29 10.7
2 -10 10 68.89 21.9
-8 -2 10 46.3 13.1
-2 -8 -10 19.2 10.1
10 -8 10 50.29 19.8
-1 -9 10 26.3 11.6
-1 10 -10 13.2 13.2
-9 10 10 10.7 21.3
1 -10 -10 19.6 10.5
-9 10 10 22.7 15.6
-10 1 10 6.3 11
9 1 -10 15.6 11.8
9 -10 10 7.6 18.5
-10 9 -10 6.4 13.7
10 -9 -10 2.6 9
-9 -1 -10 -0.1 3.4
-10 1 10 21.5 19.5
-1 -9 10 0.7 17.8
-9 -1 10 0.5 19.4
-10 9 10 23.9 22.6
-9 -1 10 9.6 12.3
9 -10 -10 8.3 8.9
-9 10 -10 5.6 13.7
-10 9 10 17.7 14.7
-1 -9 -10 1.8 4.4
10 -9 10 5.8 19.1
1 -10 10 10.3 17.8
-1 -9 -10 10.3 9.9
10 -1 -10 9.3 11.5
-9 10 -10 6.3 13.9
1 -10 10 4.2 10.9
-10 10 10 83.59 25.5
-10 0 10 55.69 21.7
0 -10 10 62.69 13.3
10 -10 10 77.09 22.8
-10 0 10 68.29 14.1
-10 10 -10 36.1 14.6
0 -10 -10 57.49 12.6
10 0 -10 70.59 14.7
0 -10 10 74.79 22.6
-10 10 10 63.69 16.4
-5 -6 10 4 10.9
-11 5 10 17.2 21.2
11 -6 -10 1.2 9.4
-11 6 -10 -1.9 12.7
6 -11 10 -1.3 10.7
-5 11 -10 -1.7 13.8
-6 11 10 -1.5 13
6 -11 10 9.8 19.4
-11 5 10 1.7 12.6
6 5 -10 4.1 11.5
-6 11 10 13.9 20.8
-6 -5 -10 0.6 4
11 -5 10 20.8 22.2
5 -11 -10 2.5 9.6
-5 -6 10 9.9 19
5 -11 10 10.6 10.6
-5 -6 -10 0.4 4.1
-5 11 10 -1.5 19.1
-6 11 -10 7.1 13.5
5 -11 10 5.7 19.5
-6 -5 10 -6.5 10.9
-11 6 10 6.9 21.2
11 -5 -10 1.1 9.2
5 6 -10 0.7 11.5
6 -11 -10 10.2 9.5
-6 -5 10 11.5 17.9
-11 5 -10 2 13.1
-11 6 10 20.4 14
11 -6 10 -3.2 20.9
4 -11 -10 44.6 10.9
11 -4 10 32.7 22.5
-11 7 -10 49.7 15.9
7 -11 10 46.7 12.2
11 -7 -10 17.6 9.5
-4 -7 10 50.29 13.3
-7 11 10 25.6 14.2
-7 11 10 35.9 22.1
-4 -7 10 46.1 19.8
7 4 -10 49.7 13.1
-11 4 10 17.2 20.4
7 -11 10 36 19.5
-4 11 -10 26 13.7
4 7 -10 25.4 11.7
-11 4 -10 29.8 12.8
-4 -7 -10 15.6 9.3
11 -7 10 37.1 20.4
11 -4 -10 33.4 10.7
4 -11 10 33.2 11.7
7 -11 -10 45.1 11.2
-11 7 10 41.9 23.8
4 -11 10 44.3 21
-7 -4 10 53.39 21.1
-11 7 10 54.99 16.1
-7 -4 10 29 11.8
-7 11 -10 43 15
-4 11 10 -4.9 18.5
-8 11 10 32.2 15.2
3 -11 -10 31.9 11.2
-3 11 -10 15.8 13.7
-11 3 10 -0.7 18
11 -3 10 17.6 21.9
11 -8 -10 2.6 8.5
-3 -8 10 47.7 21.7
8 -11 10 29 19.3
-8 11 10 6.4 20.8
-11 8 -10 12.1 14.4
-3 -8 10 37.3 13
8 3 -10 35.3 12.6
3 8 -10 7.1 10.7
3 -11 10 38.1 12.8
-8 -3 10 64.99 23.1
-8 11 -10 5.7 11.8
-8 -3 10 62.19 14.1
-11 8 10 70.89 25.3
8 -11 -10 45.7 11.1
-11 8 10 53.79 16
-8 11 -10 41.7 15.3
11 -8 10 54.39 21.2
11 -3 -10 39.2 12.5
3 -11 10 71.79 22.6
-3 -8 -10 34.8 11.4
9 2 -10 115.09 16.2
2 -11 -10 106.99 14.8
-9 11 10 98.29 25.6
-9 11 10 89.59 17.7
-11 2 10 79.29 21.2
-2 -9 10 126.49 16.4
-11 9 -10 123.09 19.1
9 -11 10 104.69 23.5
-2 11 -10 131.69 18.5
-2 -9 10 127.89 25.1
-11 9 10 118.39 28
-9 -2 10 64.09 13.6
11 -2 -10 74.89 13.9
9 -11 -10 51.49 11
11 -9 10 116.59 26.4
2 -11 10 68.29 21
2 -11 10 84.49 14.2
-9 11 -10 102.39 17.8
-2 -9 -10 67.59 12.3
-9 11 -10 52.49 14.6
-11 9 10 106.09 19.1
-9 -2 10 77.89 23.1
-1 -10 10 52.39 12.5
10 -11 10 56.79 21.7
-11 10 -10 82.89 16.6
-11 1 10 54.69 13.5
10 1 -10 87.89 15.3
-11 1 10 70.39 22
-10 11 10 92.99 17.9
1 -11 -10 56.59 11.9
-10 11 10 97.59 28
-1 11 -10 51.99 15.5
-1 -10 10 70.59 21.8
-11 10 10 59.59 16.7
1 -11 10 99.89 23.3
-10 -1 10 59.39 21.1
11 -10 10 65.89 21.9
-11 10 10 100.09 27.1
-10 -1 10 68.19 14
11 -1 -10 92.19 15.1
-10 11 -10 81.29 17
1 -11 10 60.29 12.7
-1 -10 -10 76.49 13.2
-10 11 -10 66.69 16.2
-11 11 10 30.5 15.2
11 -11 -10 -0.6 11.9
11 -11 -10 1.5 8.8
-11 11 -10 19.4 10.7
-11 11 -10 29.1 14.4
-11 0 10 33.7 12.7
0 -11 10 20.7 19.2
-11 0 10 50.79 21.2
0 -11 -10 30.2 11.1
11 -11 10 50.29 22.2
-11 11 10 60.59 24.1
11 0 -10 36.7 12.8
0 11 -10 26 13.7
0 -11 10 50.19 12.5
-12 6 10 27.8 14.5
-6 -6 10 22.6 11.8
6 -12 10 14.1 20.6
6 -12 -10 2.6 11.4
6 6 -10 18.8 12.4
6 -12 -10 14.8 9.6
-12 6 10 17.5 22.6
-6 12 10 -13.4 20.7
6 -12 10 22.9 11.2
-6 12 -10 19.8 13.7
-12 6 -10 32.6 14.4
12 -6 10 22.3 22.7
12 -6 -10 17.5 10
-6 -6 10 15.1 18.9
5 -12 -10 1.9 11.5
-7 -5 -10 0.1 4.1
-5 12 -10 -2.3 13.7
-12 7 -10 0.1 13.4
7 -12 10 11.9 11.5
-7 12 10 16.3 13.9
-5 -7 10 15.2 19.7
-12 5 10 -5.5 20.7
-12 5 10 2 11.4
7 -12 10 26.1 21.4
-5 -7 10 14.1 12.1
7 5 -10 6.8 12
12 -5 10 5.9 21.8
12 -7 -10 0.8 8.7
5 -12 -10 10.2 10.1
-7 12 10 13.2 22.1
-5 -7 -10 5.6 9.2
-12 5 -10 5.8 13.4
7 -12 -10 7.7 10.1
5 -12 10 7.5 11.1
-5 -7 -10 -1.2 3.7
12 -7 10 14.6 21.6
-12 7 10 17.2 15.2
12 -5 -10 7.1 9.4
-7 -5 10 -3.8 19
5 7 -10 17.5 12.1
-7 -5 10 20.5 12.3
-7 12 -10 12.8 13.7
-12 7 10 2.6 22.5
5 -12 10 20.3 19.6
7 -12 -10 0.8 11.4
-12 8 -10 59.59 16.7
8 -12 10 54.49 21.9
-8 12 10 50.69 15.9
-8 12 10 42.9 23.8
-4 -8 10 39.7 12.2
8 -12 10 29.7 11.6
-4 -8 10 64.69 21.8
-4 12 -10 38.9 15.5
4 -12 -10 49.7 11.2
8 4 -10 48.9 13.2
12 -4 10 56.89 24.5
-8 12 -10 78.09 17.4
-12 8 10 75.79 25.4
-12 4 -10 54.79 14.4
12 -4 -10 67.19 12.2
-8 -4 10 42 21
4 -12 10 49.9 21
-4 -8 -10 37.8 11.4
8 -12 -10 50.19 11.4
4 -12 10 46 12.7
12 -8 10 78.09 25.4
4 8 -10 61.99 13.7
-12 8 10 48.8 16
-8 -4 10 64.09 13.7
-9 12 10 39.2 23.5
-3 -9 10 62.99 13.1
-9 12 10 55.49 16
-12 9 -10 51.69 15.1
3 -12 -10 48.2 11.3
9 -12 10 51.29 21.6
-3 -9 10 96.29 24.4
12 -3 10 19.8 22.2
9 3 -10 70.79 15.4
-3 12 -10 59.99 16
12 -9 10 85.29 25.9
12 -3 -10 52.09 13.4
3 9 -10 44.9 12.8
9 -12 -10 25.7 12.7
-9 -3 10 44 13
-9 12 -10 72.69 16.4
9 -12 -10 45 11.1
3 -12 10 66.09 21.5
-3 -9 -10 69.19 12.9
-12 9 10 57.79 23.7
-12 9 10 54.99 16.6
-9 12 -10 57.79 14.6
-9 -3 10 67.09 22.6
3 -12 10 46.7 12.1
10 2 -10 24.9 12.7
-2 12 -10 17.6 14.5
-12 2 10 25.1 12
-2 -10 10 19.7 20
-2 -10 10 29.1 12.5
-10 12 10 15.9 14.8
2 -12 -10 4 11.2
-12 10 -10 9 13.6
10 -12 10 24.9 20.4
-12 2 10 1.7 18
2 -12 -10 12.4 10.1
-10 12 10 14.2 22.4
2 -12 10 7.7 19.4
12 -2 -10 11.5 12.3
-12 10 10 11.5 23.3
-2 -10 -10 3.5 11.1
12 -10 10 19.8 21.2
2 -12 10 13.3 11.4
-10 -2 10 4.9 19.1
-10 -2 10 8.8 11.8
10 -12 -10 3.4 11.6
-12 10 10 16.1 15.2
10 -12 -10 3.1 9
-2 -10 -10 0.5 4.1
-10 12 -10 21.2 15.7
2 10 -10 -3.9 17.6
-10 12 -10 12.4 13.5
-1 12 -10 184.18 21.7
12 -11 -10 121.49 16.4
-11 12 10 219.08 36.3
11 1 -10 169.08 20.4
11 -12 10 186.58 32.9
-12 1 10 173.88 20
-11 12 10 155.58 22.2
1 -12 -10 131.79 19.7
-12 11 -10 132.19 20.7
1 -12 -10 161.28 18.5
-12 1 10 172.88 30.2
-1 -11 10 187.38 20.4
-1 -11 10 201.78 31.5
11 -12 -10 185.18 20.9
-1 -11 -10 171.48 19.2
-12 11 10 193.28 23.4
-11 12 -10 166.98 21.8
-11 -1 10 214.18 32.3
-11 -1 10 193.18 21
-11 12 -10 168.88 20.2
12 -11 10 242.98 35.2
1 -12 10 167.68 19.4
12 -1 -10 168.78 20.8
1 -12 10 191.08 30.6
12 -12 -10 14.2 12.2
-12 12 10 13 13.6
-12 0 10 17.4 12.3
12 -12 10 18.7 21.2
0 -12 -10 11.5 10.9
-12 12 -10 2.4 10.6
-12 0 10 6.2 19.1
0 -12 10 -1.2 19
0 -12 -10 1.8 4.5
12 0 -10 6 11.6
0 -12 10 7.5 11.3
-12 12 -10 22.1 13.6
0 12 -10 12.9 13.5
0 -12 -10 12.5 12.4
-12 12 10 9 21.8
-6 -7 10 64.89 13.2
6 -13 -10 55.89 14
7 -13 10 66.79 13.3
6 -13 -10 66.69 12.3
-6 -7 10 82.49 23.8
13 -6 10 80.49 26.4
-13 7 -10 80.99 16.2
7 6 -10 87.79 15.5
7 -13 10 77.39 23.8
-6 13 -10 77.89 16.8
-13 6 10 54.99 14.7
7 -13 -10 61.69 14.1
-7 -6 10 69.19 23.8
-7 13 -10 59.19 15.3
-13 6 -10 65.79 14.8
-13 7 10 62.89 23.2
6 -13 10 78.59 13.8
-6 -7 -10 36.7 11
-13 7 10 68.99 16.1
13 -6 -10 33.4 10.5
6 7 -10 81.49 15.1
6 -13 10 49.1 21.3
13 -7 10 84.49 28.3
-7 -6 10 102.69 15.2
7 -13 -10 85.79 13.4
13 -5 10 16.4 23.5
-5 -8 10 19.1 11.6
-8 13 10 16.6 14.1
-5 -8 10 13.4 19.6
-8 13 10 -3.8 21.3
-5 13 -10 13 13
8 -13 10 22.4 11.9
-13 8 -10 19 13.6
13 -8 -10 3.1 9.5
-13 5 10 1.5 14.5
8 -13 10 9 20
8 5 -10 5.9 11.9
5 -13 -10 28.5 10.5
5 -13 -10 15.8 12.9
13 -5 -10 3.6 9.5
5 -13 10 10.8 18.8
-8 13 -10 22.2 14.7
8 -13 -10 15 12.5
-5 -8 -10 10.7 11
5 -13 10 22.1 12
8 -13 -10 15.8 10.3
-8 -5 10 20 12.5
-13 5 -10 15.6 13.5
5 8 -10 5.8 12
-13 8 10 16 22.8
-8 -5 10 8.8 21
13 -8 10 21.7 22.6
-13 8 10 29 15
-9 13 10 71.19 23.1
4 -13 -10 72.69 15.1
-13 9 -10 77.39 16.4
9 -13 10 69.49 22.5
-9 13 10 57.49 16.6
-4 13 -10 56.49 14.9
4 -13 -10 59.79 12.4
9 4 -10 107.99 16.2
-4 -9 10 98.09 23.2
13 -4 10 40.2 24
-4 -9 10 82.09 13.6
9 -13 10 111.69 15.6
-9 -4 10 97.69 24.8
4 -13 10 34.6 19.2
9 -13 -10 82.49 14.9
4 -13 10 70.49 13.4
4 9 -10 43.2 13.1
9 -13 -10 53.99 11.3
-13 9 10 58.29 24
13 -4 -10 57.19 11.6
13 -9 10 88.69 26.1
-9 -4 10 115.49 16.3
-9 13 -10 79.99 16.7
-13 4 -10 47.6 12.7
-4 -9 -10 70.19 13.1
-13 9 10 79.59 17.3
-9 13 -10 19.5 12.4
-3 -10 10 31.4 20.2
10 3 -10 39.5 13.3
10 -13 10 29.8 20
-3 13 -10 33.5 14.7
-13 3 10 30.4 11.6
-3 -10 10 40.9 12.7
13 -10 -10 0.2 11.7
3 -13 -10 27.9 10.5
-10 13 10 34.1 22.2
3 -13 -10 26.4 13.2
-10 13 10 26.6 14.4
-13 10 -10 49.99 15.3
-13 10 10 31.4 23.2
-10 13 -10 43.1 16
-3 -10 -10 27.1 11.6
3 -13 10 -0.6 18.8
13 -10 10 49.3 24
13 -3 -10 22.2 11.9
3 10 -10 30.2 11.8
-10 13 -10 16.2 12.8
3 -13 10 32.1 11.4
10 -13 -10 26 9.8
-10 -3 10 46.8 13.2
-13 10 10 40.7 15.8
10 -13 -10 43.9 14.6
-10 -3 10 30 19.9
11 2 -10 63.09 13.9
-13 11 -10 48.2 15.5
-2 13 -10 48.1 15.3
-13 2 10 27.5 12.3
-11 13 10 42.5 22.6
-11 13 10 28.8 13.9
-2 -11 10 39.7 12.1
-2 -11 10 18.8 19.4
-13 2 10 -2 22.8
2 -13 -10 42 13.5
11 -13 10 54.79 21.7
2 -13 -10 29.4 10.9
13 -11 -10 38.1 13.1
-11 -2 10 38.4 20.7
-2 -11 -10 40.6 12.2
-2 -11 -10 -1.5 11.9
11 -13 -10 31.6 13.3
13 -2 -10 62.19 13.5
-13 11 10 36.3 14.9
-11 -2 10 36.1 12.1
2 -13 10 50.49 12.4
-11 13 -10 50.39 15.9
-13 11 10 27.8 22
-11 13 -10 37.9 14.3
13 -11 10 35 22.2
-12 13 10 48.6 22.6
13 -12 -10 56.59 14
-13 12 -10 37.1 13.4
-1 13 -10 54.69 15.2
-12 13 10 39.5 14.5
1 -13 -10 70.09 13.2
12 -13 10 37.3 20.3
1 -13 -10 75.89 15.2
-1 -12 10 53.99 12.5
-13 1 10 61.29 13.5
12 1 -10 55.59 13.8
1 -13 10 30.7 11.6
-12 13 -10 36.4 14.4
13 -12 10 30.9 22.4
-12 -1 10 25.1 18.5
-13 12 10 45.1 15.9
-12 -1 10 35.1 12.1
-1 -12 -10 33.7 11.8
-1 -12 -10 38.4 13
-13 12 10 12 22.4
13 -1 -10 31.5 12.8
1 12 -10 2.6 12.6
12 -13 -10 41 13
-12 13 -10 32.8 11.8
-13 13 10 59.79 23.2
0 13 -10 99.29 16.3
-13 13 -10 110.39 17.5
-13 0 10 117.89 17.9
0 -13 -10 138.29 15.3
0 -13 -10 105.49 16.1
13 0 -10 119.79 16.4
-13 13 10 151.68 19.9
0 -13 10 141.69 16
13 -13 -10 118.79 16
-7 -7 10 22.8 12.1
7 -14 10 1.3 26.3
7 7 -10 26.7 12.3
7 -14 -10 29.6 12.8
-14 7 -10 29.7 13.9
14 -7 10 20.8 23.6
7 -14 10 42.6 12.8
-7 14 -10 32.9 14.8
-14 7 10 49.5 14.9
14 -7 -10 2.9 8.3
7 -14 -10 43.4 11.9
-7 -7 10 18.4 19.9
-6 -8 10 20.7 11.7
6 -14 -10 17.1 10.7
6 -14 -10 5.6 13
14 -6 10 18.6 23
8 -14 10 18.6 11.9
-14 8 -10 17.9 13.3
8 6 -10 7.2 11.7
-6 -8 10 2.4 20
-6 14 -10 9.1 13.4
-8 14 10 -0.2 12.4
8 -14 10 0.2 21.5
-14 6 10 12.3 12.9
-8 14 -10 12.2 13.9
-14 8 10 20.9 14
6 -14 10 4.3 11
6 8 -10 7.5 11.7
8 -14 -10 17.9 12.6
-8 -6 10 23.2 12.6
-8 -6 10 11.3 20.7
-14 8 10 -1.6 20.9
-14 6 -10 15.3 13.2
14 -6 -10 3.6 9.2
8 -14 -10 15.1 10.3
14 -8 10 9.9 22.8
5 -14 -10 56.89 14.3
-5 -9 10 89.39 14.1
9 -14 10 86.89 14.3
5 -14 -10 51.89 11.1
9 -14 10 -0.2 20.7
-9 14 10 46.2 14.6
-5 14 -10 60.09 14.5
-14 9 -10 84.39 16.4
14 -5 10 0.7 21.9
-5 -9 10 39.2 20.5
-14 5 -10 43.9 13.9
9 -14 -10 51.09 11.3
-9 14 -10 52.29 15
5 -14 10 38.7 11.8
14 -9 10 67.79 25.2
-14 9 10 34.7 21.7
-9 -5 10 66.09 21.8
-14 9 10 97.09 17.6
5 9 -10 35.6 12.9
9 -14 -10 52.89 13.8
-9 -5 10 57.19 13.2
14 -5 -10 37 10.5
4 -14 -10 29.1 13.5
-4 -10 10 3.6 18.9
-14 10 -10 36.8 13.5
-10 14 10 -2.6 30
-14 4 10 5.1 10.5
-4 14 -10 13.9 13.5
-10 14 10 22.4 14
10 -14 10 4.5 20.8
-4 -10 10 22.5 11.4
10 -14 10 41.4 12.5
10 4 -10 32.5 13.6
4 -14 -10 18.6 10.6
14 -10 -10 24.4 12.3
-10 14 -10 16.8 14.5
14 -10 10 34.4 23.5
4 -14 10 16.9 10.9
-10 -4 10 26.8 12.3
4 10 -10 12.5 12.2
-14 10 10 17 22.1
-14 10 10 18.3 14.2
-10 14 -10 7.7 12.3
10 -14 -10 15.2 9.5
-14 4 -10 5.5 11.1
14 -4 -10 17.9 10
-10 -4 10 33 20
10 -14 -10 22.3 13
-14 11 -10 72.49 15.9
-3 -11 10 72.79 13.5
-14 3 10 74.19 14
-3 14 -10 60.99 14.7
14 -11 -10 80.89 14.6
11 3 -10 106.19 16.3
3 -14 -10 58.29 14.4
3 -14 -10 90.89 13.9
-11 14 10 54.49 14.6
3 -14 10 96.49 13.9
3 11 -10 61.09 13.1
-11 -3 10 86.19 22.9
11 -14 -10 92.09 15.6
-11 14 -10 42.7 13.7
-11 -3 10 89.69 14.8
-14 11 10 74.89 24.9
14 -11 10 56.09 23.8
-3 -11 -10 45.5 12.9
-14 11 10 95.39 16.8
14 -3 -10 69.49 13.6
-11 14 -10 88.89 16.4
-12 14 10 -2.4 20.8
2 -14 -10 37.5 13.2
2 -14 -10 47.7 12
-2 14 -10 22 13.5
14 -12 -10 41.7 12.8
-14 12 -10 35.5 13.2
-14 2 10 36.3 12.2
-2 -12 10 52.49 12.3
-12 14 10 35.3 13.5
12 2 -10 36.1 12.6
-12 14 -10 37.3 13.9
12 -14 -10 55.19 14.1
-2 -12 -10 42.5 13.6
14 -12 10 20.6 22.3
14 -2 -10 46.7 12.8
-12 -2 10 8.9 17.6
-14 12 10 3.5 20.1
-12 -2 10 64.09 13.5
-14 12 10 76.09 16.7
2 -14 10 43.2 11.8
-12 14 -10 34.2 12.3
1 -14 -10 7.9 10.5
-1 -13 10 1.7 11
1 -14 -10 -0.9 3.3
14 -13 -10 8.5 11.7
-14 13 -10 13.7 12.6
-1 14 -10 24.9 13.4
13 1 -10 3.7 12
-13 14 10 1.8 12.8
-14 1 10 -3.3 10.8
-13 14 10 -0.5 27
1 -14 -10 6.4 12.3
-13 -1 10 11.4 11.6
-13 14 -10 5 9.9
14 -1 -10 3 11.6
-13 -1 10 -2.3 23.1
1 -14 10 11.9 10.6
13 -14 -10 13.2 11.8
-1 -13 -10 17.7 12.6
-13 14 -10 2.3 12.1
-1 -13 -10 -0.5 3.6
-14 13 10 -3.5 21
-14 13 10 -6 12.5
-14 14 10 29.7 13.8
-14 14 -10 21.9 13
14 -14 -10 30 12.3
-14 0 10 27.8 11.8
0 14 -10 9.3 12
14 0 -10 18.5 11.5
0 -14 10 30.9 11
0 14 10 19.8 13.8
0 -14 -10 25.9 12.8
7 -15 -10 71.89 12.2
15 -7 10 17 23.2
-15 8 -10 46.7 13.7
8 7 -10 69.19 13.8
8 -15 10 65.19 13.3
-7 15 -10 93.39 16
-15 7 10 75.69 15
-7 -8 10 115.69 16.1
7 -15 -10 53.89 13.6
-7 -8 10 16.7 19.6
15 -8 10 15.9 23.6
7 -15 10 45.9 12.2
-8 -7 10 13.9 18.9
-8 -7 10 64.29 13.7
-15 8 10 33.7 13.8
7 8 -10 42.2 12.5
8 -15 -10 45.3 13.2
-15 7 -10 34.1 13.4
-8 15 -10 68.29 16
8 -15 -10 38.8 11.3
-6 -9 10 -3.9 21.1
15 -9 -10 -0.7 11.1
-6 -9 10 15.5 11.6
6 -15 -10 -5.1 11.7
-15 6 10 3.5 11.6
-15 9 -10 6.9 12.4
-6 15 -10 0 13
-9 -6 -10 2.3 4.9
9 6 -10 10.8 11.3
-9 15 10 2.7 12.1
15 -6 10 4.2 27.5
9 -15 10 12.8 11.1
6 -15 -10 5.1 10.2
-9 15 10 7.7 14.6
15 -9 10 0.7 22.8
-9 15 -10 13 13.6
6 -15 10 9.4 10.4
9 -15 -10 9.8 10.4
6 9 -10 12.2 11.3
-15 9 10 1.5 12.6
9 -15 -10 8.7 11.5
-9 -6 10 19.7 11.7
-9 -6 10 7.4 18.9
-15 6 -10 1.8 11.9
15 -6 -10 2.3 8.4
-6 -9 -10 -0.6 3.1
5 -15 -10 142.39 17.4
-5 15 -10 155.98 18.7
10 -15 10 110.49 15.7
-5 -10 10 122.69 18
5 -15 -10 161.98 21.3
-10 15 10 78.79 16.8
-10 15 10 84.49 15.7
15 -10 -10 122.09 15.8
10 5 -10 188.58 19.3
-15 10 -10 130.69 19.2
5 -15 10 102.99 13.3
5 10 -10 102.99 14.7
-15 10 10 -3.6 25.6
-10 15 -10 109.89 16.3
-10 -5 10 47.5 19.8
15 -10 10 47.2 24.2
-15 5 -10 75.19 13.8
-15 10 10 76.99 15.8
10 -15 -10 113.59 15.6
-4 15 -10 81.09 14.9
-11 15 10 73.29 15.4
11 -15 10 66.39 13.5
4 -15 -10 82.39 14.9
15 -11 -10 87.29 14.7
-4 -11 10 106.39 14.5
-15 4 10 61.59 12.9
-15 11 -10 114.49 17.4
4 -15 -10 98.49 13.8
11 4 -10 128.79 17
15 -4 -10 78.89 12
-15 11 10 74.49 15.3
11 -15 -10 74.39 14.2
-11 15 -10 78.39 15.4
4 11 -10 51.79 12.9
4 -15 10 45.8 11.3
-4 -11 -10 65.09 13.9
-11 15 -10 59.89 13.8
-3 -12 10 49.6 12.4
-12 15 10 24.9 13.1
-15 3 10 38 12.2
15 -12 -10 36.8 12.5
3 -15 -10 55.39 12.8
-15 12 -10 39.7 13.6
3 -15 -10 46 13.7
-3 15 -10 39.5 13.7
12 -15 10 44.7 12.6
12 3 -10 35.7 12.8
3 -15 10 20.2 9.9
-15 12 10 27.1 13.6
12 -15 -10 37.7 12.5
15 -3 -10 18.4 9.9
3 12 -10 16.5 11.3
-12 -3 10 2.1 19.1
-3 -12 -10 44.5 14.3
-12 15 -10 40.5 14.1
-15 12 10 -3 22.4
-12 15 -10 27.7 12.8
-3 15 10 39.4 14.9
-12 -3 10 22.9 11.7
2 -15 -10 107.99 16.1
-15 2 10 97.99 14.7
-15 13 -10 129.19 17.1
-2 -13 10 88.49 13.5
-13 15 10 73.39 14.7
15 -13 -10 84.69 14.5
13 2 -10 111.19 15.5
-2 15 -10 71.59 14.7
2 -15 -10 124.99 15.4
2 13 10 54.89 15.1
13 -15 -10 67.29 13.9
-15 13 10 76.09 15.5
-13 -2 10 64.69 13.4
-2 15 10 41.8 14.5
-13 15 -10 51.79 13.7
-13 15 -10 45.1 11.4
-2 -13 -10 72.19 14.7
15 -2 -10 60.59 12.9
14 1 -10 7.7 11.5
1 14 10 11.6 13.7
-1 15 -10 11.9 12
-14 15 10 15.1 12.6
1 -15 -10 11.6 11.8
15 -14 -10 13.1 10.9
-1 -14 10 5.9 9.6
-15 14 -10 16.2 12.2
-15 1 10 9.5 11.1
14 -15 -10 8 11.7
-14 -1 10 11.6 10.8
-15 14 10 11.8 12.5
-1 15 10 9.3 13.1
-1 -14 -10 7.7 13.3
1 -15 10 -1.4 10.7
-14 15 -10 -1.5 11.8
15 -1 -10 5 10.5
-15 15 10 15 12.9
15 -15 -10 17.3 10.6
15 0 -10 5.6 10.7
-15 0 10 6.6 10.3
0 15 -10 1.3 10.5
0 15 10 2.7 12.5
0 -15 -10 -0.5 3.1
-15 15 -10 12.3 11.2
0 -15 -10 16.1 12.2
-16 8 -10 12.1 12.7
-8 16 10 11.7 14.2
-8 16 -10 7.3 12.8
-8 -8 -10 -0.2 3.7
8 -16 10 1.9 9.5
8 -16 -10 11.1 10
-8 -8 10 4.6 11.6
8 -16 -10 9.1 11.7
16 -8 -10 -1 11.8
8 8 -10 7.5 10.5
-16 8 10 -4.1 11.9
-7 16 -10 111.59 15.7
-9 16 10 98.99 17.2
-16 9 -10 128.49 18.5
7 -16 -10 122.99 16.5
7 -16 -10 135.39 19.5
-7 -9 10 122.09 17.9
9 7 -10 135.19 18
9 -16 10 116.29 14.4
16 -9 -10 97.79 14.7
-9 16 -10 160.48 19.1
-16 9 10 102.69 16.6
-16 7 -10 113.59 16.7
9 -16 -10 133.29 16.6
7 9 -10 130.19 16.2
-7 16 10 172.08 20.9
9 -16 -10 93.39 13.3
-9 -7 10 119.89 17.8
-10 16 10 16.2 14
-10 16 10 13.2 11.5
-6 16 -10 16.5 12.6
-16 10 -10 11.7 11.6
6 -16 -10 9.5 11.6
10 6 -10 21.7 12.1
10 -16 10 22 11.4
-6 -10 10 18.8 11.9
16 -10 -10 15.3 11.8
6 -16 -10 15.5 10.6
-6 -10 -10 -0.8 13.5
10 -16 -10 18.4 11.8
10 -16 -10 3.7 8.2
6 -16 10 -0.2 9
-16 6 -10 29.1 12.5
-10 -6 10 17.1 11.4
-16 10 10 22.8 13.3
6 10 -10 7.7 10.8
-6 16 10 33 15.4
-10 16 -10 31.2 13.2
-5 16 -10 32 12.8
11 -16 10 44.9 12.2
16 -11 -10 31.9 12.5
5 -16 -10 51.79 11.6
11 5 -10 50.69 12.9
-16 11 -10 53.69 13.7
5 -16 -10 41.3 12.6
-11 16 10 32.7 12.9
-11 16 10 8.7 12.9
-5 -11 10 58.29 12.7
5 11 -10 26.2 11.7
5 -16 10 -0.6 13.4
-5 16 10 44.3 14.4
-11 -5 10 49.4 12.5
-16 5 -10 3.3 14.4
-16 11 10 40.4 13.6
11 -16 -10 33 11.6
-11 16 -10 42.7 13.7
-5 -11 -10 33.3 13.1
4 -16 -10 66.69 12.2
-16 12 -10 49.3 12.5
16 -12 -10 57.79 12.9
-4 -12 10 78.09 13.4
12 4 -10 105.29 15.3
-4 16 -10 67.59 13.9
-12 16 10 58.69 14.4
-16 4 10 46.6 11.9
12 -16 10 60.49 12.6
4 -16 -10 63.19 13
-16 12 10 92.89 16.3
4 12 -10 63.39 12.7
12 -16 -10 87.39 14.2
-4 16 10 101.39 17.8
-12 16 -10 47.2 12.4
-4 -12 -10 78.29 15.1
-12 16 -10 62.09 14.1
-12 -4 10 114.59 15.4
3 -16 -10 -6.1 11.1
3 13 10 2.9 12.3
-16 13 -10 2.7 10.9
-16 3 10 10.4 10.9
-3 16 -10 5.1 12
-3 -13 10 8.7 10.4
3 -16 -10 -0.3 3.7
16 -13 -10 1.2 11.2
-13 16 10 0.6 11.9
13 -16 10 12 10.6
13 3 -10 12.5 11.6
16 -3 -10 -2 8.1
-3 -13 -10 6.2 12.6
-16 13 10 6 12.4
-13 -3 10 9 10.1
-3 -13 -10 -0.2 3.5
-3 16 10 9 13.6
3 13 -10 5.4 9.5
-13 16 -10 6.2 9.6
-13 16 -10 4.2 11.8
13 -16 -10 5.9 11
14 -16 10 28.9 11
-2 16 -10 28.7 12.2
-2 -14 10 -0.4 8.9
-14 16 10 25.3 12.8
-16 2 10 19.4 10.6
-16 14 -10 34.3 12.5
16 -14 -10 23 10.9
2 14 10 38.7 13.3
14 2 -10 42.9 12.3
2 -16 -10 21.8 11.7
-14 -2 10 14.3 10.7
-2 16 10 10.3 12.8
14 -16 -10 17.8 10.7
-14 16 -10 20.6 11.7
-16 14 10 22 13
-2 -14 -10 21.2 13
16 -2 -10 11.8 8.9
-14 16 -10 3 7.8
-1 16 -10 5.1 10.3
-16 15 -10 14.9 11.4
1 15 10 4.1 12.8
16 -15 -10 17.6 10.3
1 -16 -10 14.8 11.8
-15 16 10 15.8 12.3
-16 1 10 11.7 10
15 1 -10 2.5 10.2
-1 -15 -10 8.7 11.5
-15 16 -10 10.8 11.3
-16 15 10 23.5 12.7
-1 16 10 12.7 12.8
16 -1 -10 13.2 9.6
15 -16 -10 2.1 10.2
-15 -1 10 10.2 10
-16 16 10 0.5 11.7
0 -16 -10 0.4 3.3
0 16 10 -3.9 12
16 -16 -10 7.5 10.1
-16 0 10 0.1 9
0 -16 -10 -0.9 10.6
-16 16 -10 7 10.3
16 0 -10 1.8 9
8 -17 -10 26.1 10
-9 -8 -10 3 4.9
8 -17 -10 19.4 11.2
9 8 -10 23.7 11.1
-17 8 10 6.8 11.1
-17 9 -10 14.5 11.4
-8 -9 10 21.3 11.9
-8 17 -10 9 11.3
17 -9 -10 2.4 10.4
-9 17 10 6 14.4
-8 17 10 5.4 13.2
-17 9 10 6.1 12.2
9 -17 -10 12.9 10.6
8 9 -10 22.5 10.5
-17 8 -10 11.4 11.8
17 -8 -10 0 14.5
-9 17 -10 10 11.6
9 -17 -10 11.8 8.8
-9 -8 10 10.6 11.2
-17 10 -10 6.1 11.5
17 -10 -10 12.2 11.3
-10 17 10 5.6 14.1
10 7 -10 14.4 11
-7 17 -10 20.1 11.7
7 -17 -10 27.1 11.6
-7 -10 10 17 11.7
10 -17 10 0.8 9.8
7 -17 -10 23.1 10.5
-10 17 -10 10.4 11.6
-7 17 10 12.8 13.4
-10 -7 10 19 11.5
10 -17 -10 10.4 10.6
-17 10 10 18.5 12.6
-17 7 -10 16.2 11.7
7 10 -10 11.2 10.3
-17 11 -10 86.79 14.7
11 6 -10 79.19 13.5
6 -17 -10 81.09 12.5
-6 -11 10 99.29 14.1
6 -17 -10 57.79 12.7
17 -11 -10 77.89 13.3
-11 17 10 59.99 14.6
-6 17 -10 81.69 14.1
-11 17 -10 63.59 13.6
-17 11 10 50.39 14
-6 -11 -10 23.9 12.4
-6 17 10 68.69 15.4
6 11 -10 45.5 11.5
-11 -6 10 67.79 12.3
11 -17 -10 60.79 12.3
12 5 -10 63.29 12.5
-17 12 -10 71.69 13.4
-5 17 -10 64.49 13.6
17 -12 -10 65.09 12.6
5 -17 -10 64.59 12.6
-5 -12 10 60.99 12.5
-12 17 10 64.69 14.2
-12 17 -10 61.09 13.4
5 12 -10 61.29 12.5
-12 -5 10 117.79 15.1
-5 -12 -10 89.59 14.5
-17 12 10 82.59 15.2
12 -17 -10 98.79 13.6
-5 17 10 78.19 15.5
-17 4 10 93.09 13.3
13 4 -10 121.29 15.1
-4 -13 10 105.49 13.2
-13 17 10 66.19 14
-4 17 -10 100.79 14.6
13 -17 10 82.69 12.3
-17 13 -10 92.89 13.7
4 -17 -10 129.49 16.3
17 -13 -10 90.19 13.7
13 -17 -10 99.59 13.4
-4 17 10 69.09 15.3
4 13 -10 76.39 12.5
-17 13 10 102.09 15.7
-13 17 -10 61.29 11.8
-4 -13 -10 97.29 14.9
-13 -4 10 123.19 15
-17 14 -10 38.7 11.4
-14 17 10 36.9 12.7
14 3 -10 36.8 11.4
-3 17 -10 36.5 11.8
3 14 10 -2.8 10.3
14 -17 10 23.6 9.7
17 -14 -10 29.3 10.6
-17 3 10 28.5 10.4
3 -17 -10 26.1 11.3
14 -17 -10 33.3 10.6
-3 -14 -10 30.1 12.5
-17 14 10 23.4 13.1
-14 17 -10 8.1 8.1
-14 17 -10 31.8 11.6
-3 17 10 32.1 14.4
-14 -3 10 33.2 10.3
-15 17 10 25.4 11.5
15 -17 10 17.1 8.9
17 -15 -10 16.1 10
-17 15 -10 21.1 10.5
-17 2 10 24.1 10
2 -17 -10 21.7 11.3
2 15 10 16.7 11.9
15 2 -10 24.6 10.1
-2 17 -10 20.6 9.9
-15 -2 10 16.1 9.9
-2 17 10 17.2 12.2
-2 -15 -10 34.2 11.9
-15 17 -10 16 10.4
-17 15 10 25.9 11.5
15 -17 -10 25.1 10.3
1 -17 -10 15 10.7
-16 17 10 29.6 11.9
16 -17 10 6.2 7.7
-17 1 10 10.9 9
17 -16 -10 26.4 10.7
1 16 10 12.9 11.5
16 1 -10 14.9 9
-17 16 -10 27.2 10.3
-16 -1 10 12.7 9.3
-16 17 -10 14.5 10.4
-1 -16 -10 14 10.4
-17 16 10 30.4 11.7
-1 17 10 7 11.9
16 -17 -10 20.5 9.8
17 -17 -10 13.2 9.5
-17 0 10 1.5 9
0 17 10 6.9 11.5
-17 17 10 -0.1 10.6
-17 17 -10 10.3 9.6
0 -17 -10 4.2 10.9
17 -17 10 0.7 6.9
0 -17 -10 -0.2 2.5
-9 -9 -10 -0.3 3.3
9 9 -10 3.6 9.1
9 -18 -10 7.6 9.6
-18 9 -10 8.7 10.9
-18 9 10 4.5 10.4
-9 18 -10 13.1 11.5
18 -9 -10 -1.2 9.4
-9 -9 10 15 9.8
-9 18 10 3.2 13.8
18 -10 -10 23.7 11
-18 10 -10 22.8 11.2
-10 18 10 26 14.2
10 8 -10 34.5 10.7
-8 18 -10 22.3 11.3
-8 -10 10 19.9 10.3
8 -18 -10 34.5 11
-10 -8 10 48.3 11.7
10 -18 -10 62.29 12.1
-18 10 10 20.9 11.1
8 10 -10 47 10.9
-8 18 10 45.7 14.7
-10 18 -10 36.6 12.1
-18 8 -10 39.6 11.6
11 7 -10 29.9 10.5
18 -11 -10 16.8 10.6
-18 11 -10 20 11
7 -18 -10 18.1 10.1
-11 18 10 14.6 12.6
-7 -11 10 9.3 10.2
-7 18 -10 17.9 11.3
-7 18 10 7.2 12.8
-11 -7 10 21.3 10.4
-7 -11 -10 0.8 3.9
-18 7 -10 3.6 14.3
-11 18 -10 18 10.9
7 11 -10 7.9 9.8
11 -18 -10 8.9 9.5
-18 11 10 10.2 11.3
-6 18 -10 23 11.1
18 -12 -10 20.8 10.6
-18 12 -10 7.6 9.6
12 6 -10 12.7 10.5
6 -18 -10 11 10
-6 -12 10 19.4 9.9
6 12 -10 18.5 9.8
12 -18 -10 18 9.9
-12 -6 10 16.5 9.5
-12 18 -10 24.1 10.8
-18 12 10 16.7 11.6
-6 -12 -10 6.3 10.7
-6 18 10 21.4 14
5 -18 -10 25.7 10.5
-18 13 -10 24.2 10.4
13 5 -10 22.6 9.7
-13 18 10 13.4 10.9
-5 -13 10 -2.4 12.4
-18 5 10 -2.6 14.8
18 -13 -10 24.1 10.9
-5 18 -10 19.4 10.9
-13 -5 10 13.9 10
13 -18 -10 5.8 9.5
-13 18 -10 13.2 8.6
5 13 -10 13.8 10.2
-5 -13 -10 23.7 11.8
-5 18 10 14.2 12.3
-18 13 10 14.2 11.5
-18 14 -10 6.4 9.6
4 -18 -10 0.9 3.5
-4 18 -10 11.3 10.3
4 -18 -10 9.6 9.9
14 4 -10 11.1 9.8
-18 4 10 7.5 9
18 -14 -10 10.5 9.7
-14 18 10 15.2 11
-14 18 -10 -0.4 7
-4 -14 -10 0.7 3.1
-4 -14 -10 5.6 10.8
4 14 -10 -0.6 10.2
-4 18 10 3.2 12.2
14 -18 -10 15.9 9.3
-18 14 10 16.9 11.5
-14 -4 10 7.2 10.1
15 3 -10 19.4 9.8
18 -15 -10 22.7 9.9
-15 18 10 14.9 10.7
-18 3 10 26.9 10.1
-3 18 -10 15.6 9.8
-18 15 -10 29.8 10.3
3 -18 -10 28.7 11
-15 -3 10 16 9.2
15 -18 -10 19.1 9.2
-3 -15 -10 26.9 11.5
-3 18 10 7.8 12.3
-18 15 10 8.6 11
-16 18 10 16.1 10.8
-18 2 10 29.2 10.1
2 -18 -10 35.5 11
-18 16 -10 32.4 10.2
16 2 -10 23.2 8.4
18 -16 -10 39.3 10.5
16 -18 -10 16.8 9.4
-16 18 -10 5.7 8.2
-18 16 10 27.8 12.2
-2 -16 -10 21.4 11.3
-16 -2 10 23 9.4
-2 18 10 15 12
18 -17 -10 10.4 10.1
1 -18 -10 -2.7 10.5
-18 17 -10 10.1 9.8
-18 1 10 18.9 10.3
-17 18 10 -7.1 10.4
-1 -17 -10 -5.7 10.4
-1 18 10 5.7 11.6
-17 -1 10 -3.2 9.8
-1 -17 -10 0.7 3
-17 18 -10 7.5 7.8
17 -18 -10 6.7 9.6
-18 17 10 1.9 11.4
18 -18 -10 4.7 10.3
0 -18 -10 0 2
-18 18 -10 5.2 7.5
0 -18 -10 -9.6 10.6
-18 0 10 6.1 11.6
-18 18 10 5 12.2
9 -19 -10 17.2 9
19 -10 -10 -0.9 9.9
-9 -10 10 16.7 9.4
-19 10 -10 21.2 10.4
-9 19 -10 9.3 10.1
-10 19 10 2.2 12.9
10 9 -10 10 9.2
-10 -9 10 8.2 9.1
-19 10 10 0.3 12.1
-10 19 -10 10.1 10.4
9 10 -10 1.8 9.2
10 -19 -10 8.1 9.5
-9 19 10 17 13.1
-19 9 -10 12 9.3
8 -19 -10 25.6 9.6
-11 19 10 26.9 11.5
11 8 -10 43.3 10.6
19 -11 -10 25.4 9.5
-19 11 -10 34 10.8
-8 -11 10 35.1 9.9
-8 19 -10 45.9 12
-8 19 10 21.5 13.7
-19 11 10 12.4 10.7
11 -19 -10 28.2 9.6
-11 19 -10 24 10.4
-11 -8 10 29.6 10
8 11 -10 27.8 9.9
12 7 -10 31.9 9.9
-7 19 -10 43.9 11.5
-19 12 -10 29.3 10.5
7 -19 -10 30.2 9.9
19 -12 -10 30.7 10.1
-12 -7 10 38.4 10.4
-19 12 10 35.7 11.6
7 12 -10 43.8 10.4
-7 19 10 33.2 13.3
12 -19 -10 39.1 10.2
-12 19 -10 40.5 10.8
-6 19 -10 8.8 10.1
6 -19 -10 10.9 10
-19 13 -10 13.9 9.9
13 6 -10 8.5 9.2
19 -13 -10 4.2 9.9
-13 19 -10 11.3 8.3
13 -19 -10 -0.3 8.5
6 13 -10 6.4 9.5
-19 13 10 3 10.7
-6 -13 -10 -0.3 2.7
-6 19 10 4.7 12.5
-13 -6 10 9.4 9.1
19 -14 -10 13.4 9.5
5 -19 -10 4.5 9.5
-19 14 -10 4.7 9.2
-5 19 -10 -0.1 9.3
5 -19 -10 1.7 3.6
14 5 -10 10.3 8.9
-19 14 10 0.8 11.2
-5 -14 -10 0 2.9
-5 -14 -10 -0.2 9.1
-14 -5 10 -2.9 9.1
-14 19 -10 0.2 6.5
5 14 -10 0 7.9
14 -19 -10 2.6 8.6
-5 19 10 -7 12.3
4 -19 -10 36.2 11.4
-4 19 -10 20.4 9.2
19 -15 -10 24.1 10.1
15 4 -10 25.7 9
-19 15 -10 19.3 9.6
-15 -4 10 8.5 9.5
15 -19 -10 18.8 9.7
-4 19 10 18 13.5
-19 15 10 14.9 12.2
-4 -15 -10 4.5 9.9
-16 19 10 1.6 8.8
3 -19 -10 17.8 10.7
16 3 -10 -1.5 7.6
19 -16 -10 15.1 10.6
-19 3 10 -1.4 7.3
3 -19 -10 1.8 3.5
-19 16 -10 15.5 10.4
-19 16 10 8.4 12.2
-3 19 10 4.9 12.9
16 -19 -10 8.7 10.7
-16 -3 10 9.6 9.5
-3 -16 -10 1.5 3.4
-3 -16 -10 1.4 9.2
2 -19 -10 0.4 2.8
-2 19 10 1.5 9.5
-2 -17 -10 0 2.5
10 -20 -10 42.5 10.4
-20 10 -10 3.8 11.3
10 10 -10 41.4 10.4
-10 20 10 17.9 13.4
-10 -10 10 35.6 9.2
-10 20 -10 34.7 11.2
-11 20 10 -2.5 11.9
-9 20 -10 25.8 11.1
11 9 -10 20.3 9.5
9 -20 -10 15.6 9
-20 11 -10 9.5 9.3
11 -20 -10 20.4 10
-9 20 10 21.1 13.4
9 11 -10 18.1 9.9
-11 20 -10 23 10.7
-11 -9 10 15.2 9.3
8 -20 -10 11.6 10
-8 20 -10 5.2 10.5
12 8 -10 12.2 9.6
-20 12 -10 7 9.7
-12 20 -10 1.7 9.3
-8 20 10 7.2 14.7
-20 12 10 -1 8.9
8 12 -10 8.2 9.6
-12 -8 10 7.9 9.6
12 -20 -10 10.9 9.8
13 7 -10 10.5 9.4
7 -20 -10 7.5 9.6
-7 20 -10 15.3 10.9
20 -13 -10 0.3 8.1
-20 13 -10 16.3 10.5
-13 -7 10 9.5 9.6
-20 13 10 6.5 10.9
-7 20 10 1.6 13.6
13 -20 -10 9.9 9.4
7 13 -10 13.3 9.2
-13 20 -10 11.2 8
20 -14 -10 1.7 7.6
6 -20 -10 24.5 10.4
-6 20 -10 15.6 11
14 6 -10 19.9 9.6
-20 14 -10 16.7 10.2
-6 -14 -10 0.4 3.2
-20 14 10 9.9 12.2
-14 -6 10 6.9 9.9
14 -20 -10 21.5 10.8
-6 20 10 17.1 14.8
-20 15 -10 8.2 10.7
-5 20 -10 8.8 7.9
15 5 -10 3.2 8.3
-15 -5 10 7.8 10.4
-5 20 10 -4.6 14
-20 15 10 7.1 12.8
0 0 11 1.4 16.6
0 0 11 3.8 15.4
-1 0 11 -1.5 16
1 0 11 5.1 16.9
-1 1 11 0.3 13.8
1 -1 11 4 14.9
-1 1 11 4.7 15.2
1 -1 11 11.3 17.9
0 1 11 15.1 15.6
-1 0 11 6.1 15.3
0 -1 11 2.6 16.8
1 0 11 6.1 15.7
0 -1 11 6.4 15.3
-1 -1 11 88.59 21
-2 1 11 74.99 19.6
1 -2 11 61.29 18.3
1 1 11 78.49 20.4
-1 2 11 59.59 18.2
2 -1 11 65.79 20.3
1 -2 11 49 19.7
-1 -1 11 43 17.9
2 -1 11 101.79 22.3
2 0 11 6.6 16.4
-2 2 11 18.3 15.7
-2 0 11 21.5 16.6
-2 0 11 15.4 16.3
2 -2 11 19.9 16.7
0 -2 11 8.2 17.1
0 2 11 18.4 16.4
2 0 11 1.7 15.9
0 -2 11 20.6 17.7
2 -2 11 14.3 18
-2 3 11 154.98 24.1
2 -3 11 169.48 26.3
-3 1 11 136.99 21.8
2 -3 11 201.38 27.4
-1 -2 11 168.58 25.7
1 2 11 172.98 25.7
-1 -2 11 118.79 21.8
3 -1 11 191.38 27.6
3 -1 11 131.89 23.8
-2 -1 11 131.49 22.1
3 -2 11 150.88 25.1
1 -3 11 159.98 28.7
-1 3 11 167.48 24.5
-3 2 11 154.88 23.3
-2 -1 11 149.79 23.8
3 -2 11 131.79 23.6
1 -3 11 167.98 26.2
2 1 11 183.38 25.2
0 -3 11 6.4 17.2
-3 3 11 25.2 17.8
-3 0 11 16.5 17.2
3 0 11 8.9 17.1
3 -3 11 5.3 17.2
3 0 11 3.7 15.3
3 -3 11 11.8 17.5
0 -3 11 2.5 17
-3 0 11 5.4 15.9
0 3 11 1.8 14.9
-2 -2 11 60.09 18.7
2 -4 11 76.69 20.1
-2 -2 11 63.89 18.3
4 -2 11 69.99 20.8
-4 2 11 113.09 22.4
2 2 11 76.89 19.9
4 -2 11 93.59 21.3
2 -4 11 93.09 22.4
-2 4 11 75.39 18.8
4 -1 11 27 19.4
-4 1 11 26.8 18
3 -4 11 21.8 17.9
3 -4 11 27.2 17.9
-4 3 -11 0.8 8.9
-4 3 -11 2.1 14.2
-3 4 11 37.2 18.4
-1 -3 11 25.5 18.2
1 -4 -11 6.9 12.3
-4 1 11 18.8 16.3
4 -3 -11 0.2 9.3
-1 -3 11 24.6 17.6
4 -1 11 11 17
1 3 11 22.7 16.1
3 -4 -11 1.6 10.9
1 -4 11 34.3 18.7
-3 -1 11 28 17
3 1 11 32.8 18.2
-1 -3 -11 5.4 9.9
1 -4 11 30.8 18.7
-3 -1 11 35.5 18
4 -3 11 22.8 17.5
-1 4 11 43.2 18.7
4 -3 11 47.7 20.2
-4 3 11 41.9 17.6
-3 4 -11 4.1 8.7
0 4 11 48.8 18.6
0 -4 11 43.9 19.5
-4 4 11 68.79 19.3
0 -4 -11 13.4 10.3
0 -4 11 41.1 18.2
-4 0 11 34.1 18
4 0 11 2.6 18.5
4 -4 11 69.79 22.1
4 -4 11 41.6 18.7
4 0 11 59.69 19.7
-4 0 11 85.79 21.3
-5 2 11 16.4 17.2
-2 5 -11 3.3 8.8
5 -2 11 15 18.1
5 -3 -11 3.4 8.5
2 -5 -11 6.8 9.9
-5 3 -11 0.3 11.6
3 -5 11 17.2 18.3
2 3 11 19.9 17.4
-3 5 11 11.5 16.6
-5 2 11 -0.5 15
2 -5 -11 1.9 7.4
-5 3 -11 2.5 9.1
-2 -3 11 8.6 16.9
-3 -2 -11 3.1 9.3
-2 -3 11 10.3 17
5 -2 11 2.5 16.8
3 -5 11 16.6 18.6
5 -2 -11 -4.9 8
5 -3 11 17.7 18.5
-3 -2 11 18.3 18.2
-3 -2 11 10.1 17.5
-5 3 11 21.1 16.8
-3 5 -11 2.1 9.5
3 -5 -11 4.5 7.5
-2 -3 -11 1.6 9
2 -5 11 18.8 18.1
-2 5 11 29.7 18.4
2 -5 11 28.6 18.4
-5 2 -11 5.7 11.3
5 -3 11 10.3 17.9
3 2 11 22.1 18.3
-1 -4 11 0.6 13.2
-4 5 11 27.8 17.3
-1 5 -11 0.1 11.4
5 -1 11 17.6 17.3
4 -5 11 21.6 18.4
-5 1 11 9.2 16.6
4 -5 11 25.2 18.9
-1 -4 11 22.7 19.3
-4 -1 -11 4.9 12.6
4 1 -11 0.9 9.8
1 -5 -11 1.2 9.6
5 -4 -11 13.8 8.9
-5 4 -11 2.8 8.5
-5 1 11 15 16.9
1 4 11 24.1 17.2
5 -1 11 21.4 18.4
-5 4 -11 10.7 12.6
1 -5 -11 9.3 9.9
-1 -4 11 22 18.2
5 -1 -11 3.9 8
-4 -1 11 29.9 19
4 1 11 24.9 18.9
-4 -1 11 36.9 18.5
5 -4 11 42.4 21.9
-1 5 11 21.3 18.7
-1 -4 -11 10.5 10.5
5 -4 11 26.8 18
1 -5 11 33.5 19.3
-4 5 -11 11 10
1 -5 11 47.2 19.6
-5 4 11 28.7 17.5
4 -5 -11 9.2 8.2
0 5 11 5 16.8
5 -5 11 6.2 16.3
5 -5 -11 17 9.3
-5 5 11 2.8 12.1
-5 5 -11 9.8 13
-5 5 11 2.4 14.8
-5 0 11 10.7 17
5 0 11 6.8 18.3
0 -5 11 11.6 17.8
0 -5 -11 1.8 10.2
-5 5 -11 4.3 8.7
0 -5 11 2.8 10.1
5 0 -11 8.7 9.8
-5 0 11 2.2 16.9
0 -5 11 -2.3 17.1
-3 6 -11 8.2 9.9
6 -3 11 7.2 20.3
3 -6 -11 5.6 9.5
-3 -3 11 -2.3 11.5
-6 3 -11 12.1 13.4
3 -6 11 10.9 18
3 3 11 7 17.9
-3 -3 -11 2.5 8.8
-6 3 11 2.3 11.3
6 -3 11 12.9 18.4
3 -6 -11 10.6 8.4
3 -6 11 -2.4 17.1
-3 -3 11 12.6 17.3
6 -3 -11 10.2 9.2
-3 6 11 15.6 16.5
-3 -3 11 15.5 17.8
-6 3 11 9.4 15.6
3 -6 11 8.9 9.4
6 -4 -11 9.7 9.1
-6 2 11 -2.6 15.1
2 -6 -11 7.9 10.2
-2 -4 11 13.6 16.5
-6 4 -11 0.2 9.1
4 -6 11 19.7 19.3
-6 4 -11 11.8 13.5
-4 -2 -11 3.2 9.6
6 -2 11 7.8 18.1
4 2 -11 -3.3 9.5
-4 6 11 8.5 12
6 -2 11 6 18.4
4 -6 11 16.6 18.1
-4 6 11 -3 15.8
2 4 11 -4.5 15.8
4 -6 11 2.2 9.4
-2 6 -11 1.5 10.5
-2 -4 11 7.4 17.6
-2 -4 11 7.9 9.4
2 -6 -11 5 7.5
-6 2 11 5.6 16.8
-4 -2 11 4.1 17.8
6 -4 11 4.4 17.9
-6 2 -11 3 11.7
-4 6 -11 8.8 10.4
4 -6 -11 9.8 8.9
2 -6 11 10.8 17.7
-6 4 11 6 15
6 -2 -11 3.5 9.2
-2 6 11 1.5 16.7
-6 4 11 10.3 12.4
-2 -4 -11 4.2 9.5
4 2 11 24.9 18.6
2 -6 11 6 18
2 -6 11 6.4 9.6
-4 -2 11 2.8 16.8
-1 -5 11 14.5 17.5
1 5 11 29.2 19.1
-6 1 11 30.7 18
1 -6 -11 14.5 8
-1 -5 11 19.3 17.8
-5 6 11 41.8 13.8
6 -1 11 32.2 19.1
1 -6 -11 29.3 11.4
6 -5 -11 14.9 9.3
5 1 -11 27.9 11
-1 -5 11 30.3 10.9
-1 6 -11 2.9 10.2
-6 5 -11 11.7 9
-6 5 -11 39.3 14.9
-6 1 11 21.5 17.6
5 -6 11 26.8 18
-5 6 11 25.6 16.3
6 -1 11 3.9 17.2
1 -6 11 40.1 19.4
-5 -1 11 35.9 18.7
6 -1 -11 29.8 10.4
-6 5 11 48.2 13.6
-1 6 11 50.29 19.8
-5 6 -11 21.2 10.1
5 -6 -11 18.7 9.2
6 -5 11 31.8 17.3
1 -6 11 42 19
-6 5 11 45.3 17.8
-5 6 -11 21.2 13.4
5 1 11 48.3 20.4
-5 -1 11 36.6 18.3
-1 -5 -11 18.7 10.6
1 -6 11 25.3 10.8
0 -6 -11 18.3 8.4
-6 6 -11 47.9 15.9
0 -6 11 30.3 11.3
0 -6 11 61.29 21.4
-6 6 -11 27.1 11
-6 6 11 47.2 18.3
6 0 -11 25.5 11
-6 0 11 65.29 20.6
0 -6 -11 49.7 12.3
-6 6 11 62.39 15.6
0 6 -11 1.5 13.4
6 0 11 33.9 20.3
-6 0 11 27.1 17.5
0 -6 11 5.6 17
6 -6 -11 42.3 10.4
6 -6 11 54.79 20.1
0 6 11 42.6 19.6
3 -7 -11 13.9 8.3
-3 -4 11 16 18
7 -4 -11 16.1 9.8
-3 -4 11 16.9 10.1
4 -7 11 2.2 9.8
-4 7 11 26.3 13
-7 4 -11 2.6 10.5
-7 3 11 -0.1 11.7
-3 7 -11 21.9 11.3
4 -7 11 29.6 19
-7 4 -11 21.1 13.9
-4 -3 -11 4.2 8.8
-7 3 11 13.3 17
4 -7 11 5.9 19.4
3 4 11 14.7 17.8
7 -3 11 17.2 20.1
-4 7 11 27.7 17.1
4 3 -11 6.3 9.7
7 -4 11 1.5 18.7
-4 -3 11 16.1 17.9
3 -7 11 17.7 19.2
3 -7 11 12.7 18.5
7 -3 -11 18.6 9.5
-3 -4 -11 7 9.9
-7 3 -11 10.4 13.5
-4 -3 11 2.4 9.8
-4 7 -11 -0.5 10.5
-7 4 11 8 12.5
-4 -3 11 0.7 17.1
3 -7 11 12 10
-3 7 11 5 11.4
4 3 11 9.7 18.5
4 -7 -11 13.5 9
-3 7 11 7.4 16.5
-7 4 11 10.6 17.9
2 -7 -11 23.1 9.4
7 -5 -11 15.7 9.6
2 5 11 31.3 19.1
-5 7 11 33.6 13.5
-2 -5 11 22.5 19.2
5 -7 11 9.9 17.6
-5 -2 -11 6.4 10
-7 2 11 10.2 17.2
-2 -5 11 18.5 10.5
-7 5 -11 6.2 8.8
7 -2 11 18.9 20
-2 7 -11 17.1 12.1
-5 7 11 24.7 18
5 -7 11 15.1 11
-7 5 -11 16.3 14.1
-7 2 11 -5.1 16.1
7 -2 11 27.5 20.5
5 2 -11 16.1 10.7
-5 -2 11 38.4 19.9
-7 5 11 31.4 13.8
2 -7 11 28 18.8
-5 -2 11 -5.5 15.9
-7 2 -11 26.7 12.6
-5 7 -11 14.7 11.1
2 -7 11 24.9 10.9
5 2 11 40.7 19.8
7 -5 11 21.6 18.5
2 -7 11 41.8 18.9
-7 5 11 43.2 19.4
7 -2 -11 27.6 10.1
-2 -5 -11 40.6 11.6
-5 -2 11 4.3 9.9
-2 7 11 47.2 19.4
5 -7 -11 34.2 10.1
-5 7 -11 2 13
-7 1 11 4.5 17.4
-7 6 -11 -6.2 9.7
6 -7 11 15.5 18.8
-7 1 11 10.7 17.4
-1 -6 11 -8.2 10.4
7 -6 -11 5.1 9.3
7 -1 11 -0.9 20
1 -7 -11 9.5 9.1
6 1 -11 5.2 10.5
7 -1 11 3 19.4
-6 7 11 8 17
1 6 11 0.7 18.4
-6 7 11 8.5 14.3
-1 -6 11 -2.7 16.8
-1 7 -11 10.9 11.3
-7 6 -11 3 13.8
-6 -1 11 -1.7 15.4
1 -7 11 -2.5 17.5
-6 7 -11 4.5 10.8
6 1 11 8.5 18.7
-6 -1 11 -1.2 10.8
7 -6 11 10.6 18.4
-1 7 11 -4.4 17.1
-7 6 11 10.1 16.7
-1 -6 -11 1.8 11.3
7 -1 -11 12 11.4
-7 6 11 0.5 14.1
-6 -1 11 6.1 18.2
-7 1 -11 2.7 10.7
-1 -6 -11 -3.9 8
6 -7 -11 -0.8 8.9
1 -7 11 0.7 16.3
-6 7 -11 3.1 14.5
1 -7 11 7.4 10.5
-7 7 -11 25.8 15.6
-7 7 -11 7.4 10.9
0 7 -11 0.6 10.4
7 0 11 21.8 21
-7 7 11 36.5 19.6
0 7 11 6.1 17.4
0 -7 11 15.1 19.1
7 -7 -11 24.6 10.5
-7 0 11 -0.7 17
0 -7 -11 14.6 9.2
-7 7 11 21.1 13.3
7 -7 11 29.9 19.4
0 -7 11 19 11.3
7 0 -11 13.1 11.9
-7 0 11 18.6 18.5
4 -8 11 253.17 34.2
4 -8 11 297.57 33.4
-8 4 11 177.88 21.7
8 -4 11 268.37 34.9
-8 4 11 280.87 32.7
4 -8 -11 202.88 18
-4 8 11 183.18 22.1
4 4 -11 200.78 20.2
-4 -4 11 187.48 20.1
4 4 11 245.98 31.9
8 -4 -11 217.58 19.2
-4 -4 11 284.07 33.9
-8 4 -11 221.28 23.5
4 -8 11 206.88 20.7
-8 5 -11 81.39 16.5
-5 8 11 61.39 19.7
8 -5 -11 86.99 13.3
3 5 11 81.29 21.4
8 -3 11 91.89 24.1
5 -8 11 75.19 21.1
-8 3 11 114.39 23.4
-3 -5 11 73.89 20.6
-5 8 11 98.19 16.7
5 3 -11 78.69 13.9
-3 -5 11 96.59 14.4
5 -8 11 60.99 12.4
-3 8 -11 78.19 14.7
3 -8 -11 68.29 11.6
3 -8 11 83.19 21.8
-5 -3 11 74.79 13.3
8 -3 -11 62.99 11.8
3 -8 11 105.59 15.1
-8 5 11 112.89 23.2
-3 8 11 131.09 24.2
-8 3 -11 62.79 15.3
-5 -3 11 112.29 24.1
-3 -5 -11 87.89 13.6
-5 8 -11 65.19 13.3
5 3 11 101.09 23.3
-8 5 11 107.79 16.9
5 -8 -11 105.59 13.1
8 -5 11 145.89 27.1
-8 2 11 83.79 22.4
6 -8 11 93.39 22.4
-6 8 11 66.39 15
8 -2 11 57.89 24.1
-2 -6 11 81.99 22.2
-6 8 11 62.89 20.2
6 2 -11 78.49 14.4
8 -2 11 38.7 21.7
-8 6 -11 72.89 16.4
2 -8 -11 50.19 10.8
-2 -6 11 54.79 12
2 6 11 9.8 19
8 -6 -11 69.19 12.2
-2 8 -11 65.69 14.2
6 2 11 78.69 21.7
-2 -6 -11 47.6 10
8 -6 11 65.69 21.4
-2 8 11 75.39 21
-8 6 11 65.49 15.1
2 -8 11 106.19 23.8
-6 8 -11 71.29 16
-6 -2 11 86.89 21.5
-6 -2 11 67.99 13
6 -8 -11 62.69 11.7
8 -2 -11 84.29 14.4
-6 8 -11 38 12
-8 6 11 88.79 21.8
-8 2 -11 58.39 14.2
2 -8 11 83.29 14.3
-1 8 -11 37.5 12.7
1 7 11 0.3 17.1
7 1 -11 45.9 12.6
-1 -7 11 72.29 13.4
-1 -7 11 51.79 19.6
1 -8 -11 47.9 10.9
-7 8 11 69.69 15.4
7 -8 11 71.69 21.9
8 -1 11 72.79 24.4
-7 8 11 73.19 21.9
-8 1 11 20.5 18.6
-8 7 -11 52.39 12.1
8 -7 -11 44.6 10.8
-8 7 -11 65.59 16.4
-8 1 11 46.2 20.9
1 -8 11 90.69 14.3
-1 8 11 39.5 19.1
-8 7 11 101.59 24.5
-7 -1 11 60.49 12.7
-7 -1 11 56.59 20.8
-1 -7 -11 68.69 11.9
1 -8 11 118.69 24.4
7 -8 -11 62.69 11.6
8 -1 -11 96.49 15.2
-7 8 -11 68.19 16.6
-8 7 11 95.69 16.6
-7 8 -11 72.59 14.1
7 1 11 51.19 21.2
8 -7 11 110.79 24.1
8 -8 11 20 17.9
-8 8 11 37.2 21.7
-8 0 11 10.8 10.3
0 -8 -11 29.5 10.8
8 -8 -11 20.9 10.2
-8 8 -11 17.2 11.7
-8 8 11 26.9 14.5
8 0 -11 33.4 11.9
0 -8 11 30.3 11.9
-8 8 -11 15.3 14.3
-8 0 11 11.2 20.1
0 -8 11 19.4 18.1
8 0 11 13.3 20.8
0 8 -11 17.3 11.8
-4 -5 11 103.29 15.2
-4 9 -11 96.89 17.1
5 -9 11 126.19 16.1
5 4 -11 119.79 15.9
-9 5 -11 111.49 18.1
5 -9 11 96.59 23.9
9 -5 -11 97.79 14
-9 4 11 84.79 23.5
-4 -5 11 143.99 27.3
-5 9 11 126.29 17.7
-9 4 11 123.29 17.5
5 -9 11 143.49 26.9
9 -4 11 113.89 25.6
4 -9 -11 108.69 13.6
-5 9 11 87.69 22.5
5 -9 -11 140.19 15.1
-5 9 -11 109.19 16.2
-9 5 11 133.29 25.6
-9 5 11 139.19 18.2
9 -4 -11 116.29 14.6
-4 9 11 137.39 25.7
-5 -4 11 148.19 26.8
4 -9 11 80.29 13.3
4 -9 11 150.98 26.5
4 5 -11 97.49 15
-5 -4 11 117.19 15.9
-9 4 -11 104.79 17.2
9 -5 11 144.59 26.8
-6 9 11 130.39 19.8
9 -3 11 163.28 28.2
-9 3 11 120.49 24.3
-3 9 -11 116.39 17.2
9 -6 -11 134.09 17.2
6 -9 11 107.59 15
-9 6 -11 124.09 18.1
-3 -6 11 131.39 18.1
6 -9 11 200.08 31.4
6 3 -11 146.99 19.2
3 -9 -11 128.19 15.6
-3 -6 11 193.58 30.3
-6 9 11 118.19 23.9
-6 9 -11 120.19 17.7
-6 9 -11 126.29 18.1
-3 9 11 146.69 24.8
3 -9 11 129.39 19
3 -9 11 199.08 31.9
-6 -3 11 126.39 24.7
-6 -3 11 131.79 18.6
6 -9 -11 129.59 15.8
-9 6 11 168.68 27.2
9 -6 11 203.78 30.3
9 -3 -11 132.79 17.1
-9 6 11 137.49 20.7
-9 3 -11 117.59 17.1
7 2 -11 45.4 12.9
-2 -7 11 29.6 11.2
9 -7 -11 32 10.6
-9 2 11 8.7 19.6
-7 9 11 51.69 15.6
-2 9 -11 23.1 14
9 -2 11 3.9 21.4
9 -2 11 33.8 23.6
7 -9 11 34.6 18.8
-9 7 -11 45.3 15.6
2 -9 -11 43.6 11
-9 7 -11 23.6 11.1
-7 9 11 38 20.4
-2 -7 11 56.19 21
-9 2 11 0.2 18.3
-7 -2 11 50.09 21.6
2 -9 11 42.8 19.9
-9 7 11 56.79 16.2
-2 9 11 1.7 18.7
-9 2 -11 32.2 13
7 2 11 4 28.8
9 -2 -11 29 11.6
7 -9 -11 50.69 11.3
9 -7 11 50.49 22.2
-9 7 11 38.9 21.3
-2 -7 -11 30.6 10.7
-7 9 -11 34.5 13.1
-7 -2 11 33.4 12.4
-7 9 -11 25.1 14.3
2 -9 11 31.2 11.5
9 -1 11 16.8 21.3
-9 8 -11 47.3 16.2
8 1 -11 54.19 13.5
-9 1 11 27.6 19.1
-9 8 -11 32 11.9
1 -9 -11 41.6 10.9
-8 9 11 52.59 23.3
-1 -8 11 33.3 11.5
8 -9 11 47.7 20.3
-1 9 -11 45 14.5
9 -8 -11 48.3 11.7
-8 9 11 35.3 14.5
-1 -8 11 64.09 21.6
-8 -1 11 35.9 12.1
-8 -1 11 47 22.7
-1 -8 -11 33.8 11.2
8 -9 -11 36.8 10.7
-8 9 -11 24.2 12.2
9 -1 -11 25.8 11.8
1 -9 11 42.6 20.4
8 1 11 3.9 24.2
1 8 -11 2.7 11.4
-9 8 11 29.9 14.5
9 -8 11 48.6 21
-9 1 -11 4.8 11.3
-9 8 11 41 22.3
1 -9 11 23 10.9
-8 9 -11 30.1 14.8
0 9 -11 22.9 12.9
-9 9 -11 29.6 12.8
9 -9 11 33.2 20.3
9 -9 -11 12.2 10.2
-9 0 11 30.7 12.7
9 0 -11 34.7 12.8
-9 9 11 19.2 14.4
-9 9 -11 24.5 15.2
0 -9 11 29.8 12.2
9 0 11 2.5 27.3
-9 9 11 32.2 21.7
-9 0 11 15.3 19.8
0 -9 -11 17.1 10.7
0 -9 11 33.1 20.1
-5 -5 -11 0.9 4.2
10 -5 11 2.1 21.8
5 5 -11 13.7 12
-5 10 11 8 20.6
-10 5 -11 -2.2 13.3
10 -5 -11 2.2 10.1
-5 10 11 14.2 13.5
-10 5 11 4.2 20.6
-5 -5 11 5.1 11.5
-10 5 11 14.9 14.1
-5 -5 11 -0.5 18
5 -10 -11 6.3 9.3
-5 10 -11 15.8 14.5
5 -10 11 10 10.9
5 -10 11 12.1 20.6
-10 6 -11 100.69 18.1
6 -10 11 76.29 13.6
-10 4 11 97.29 24.4
-4 -6 11 71.49 13.5
10 -6 -11 63.09 12.5
6 -10 11 66.69 21.1
-6 10 11 93.99 17.4
10 -4 11 96.69 25.4
4 -10 -11 77.79 12.3
-10 4 11 38.9 14.1
-4 10 -11 78.19 15.8
-6 10 11 68.89 22.1
-4 -6 11 120.59 24.9
6 4 -11 125.69 16.6
-4 10 11 60.69 21
-10 4 -11 53.89 15.1
-6 10 -11 72.59 16.1
4 -10 11 72.49 22.1
6 -10 -11 76.09 12.9
-10 6 11 67.79 16
-10 6 11 87.89 24.9
-6 -4 11 55.39 13.3
4 -10 11 49.4 12.2
4 6 -11 60.99 13.8
10 -4 -11 56.59 11.8
10 -6 11 66.79 23.4
-6 -4 11 58.69 21
-3 -7 11 22.7 19.5
7 -10 11 46.7 20.6
7 -10 11 46.9 13.3
3 -10 -11 39.3 10.7
-10 3 11 3.9 19.3
7 3 -11 39 12.7
-10 7 -11 57.79 16.3
-3 10 -11 39.4 14.4
10 -3 11 10.4 19.8
-7 10 11 47.8 22.3
-7 10 11 42.6 15.3
10 -7 -11 36.5 11.1
-3 -7 11 54.69 13.2
-10 3 -11 53.19 14.9
-3 -7 -11 36.8 10.7
-7 10 -11 31.9 14.4
10 -7 11 85.59 24.1
-7 -3 11 37.8 12.4
-7 -3 11 71.89 22.9
-3 10 11 -4.6 28.5
10 -3 -11 56.49 12.4
3 7 -11 47.8 12.8
3 -10 11 43.3 19.9
-10 7 11 55.19 15.7
-7 10 -11 73.39 14.9
-10 7 11 87.49 25.6
3 -10 11 59.29 12.9
7 -10 -11 50.19 11.3
10 -8 -11 36.7 11.1
-8 10 11 51.39 16
-2 -8 11 36.1 12.3
-2 -8 11 39.5 20
2 -10 -11 19.7 10.2
8 2 -11 39 12.8
8 -10 11 36 19.7
-2 10 -11 10.8 13.9
-10 8 -11 11.6 10.5
-10 8 -11 19.5 14.2
10 -2 11 25.5 22.7
-10 2 11 -1.9 22.9
-8 10 11 28.6 21.4
-8 -2 11 8.4 20.6
2 -10 11 18 10.9
10 -8 11 22.5 20.7
8 -10 -11 18.1 9.9
-8 10 -11 8.5 14.3
-8 10 -11 19.5 11.7
-10 8 11 16.4 14.5
-2 -8 -11 19.6 10.6
2 -10 11 17.4 18.5
-8 -2 11 11.6 11.6
-10 8 11 14.7 22
2 8 -11 0.3 18
-10 2 -11 6.8 12.4
10 -2 -11 19 12
9 -10 11 -0.1 18.5
-10 1 11 2.6 18.5
-9 10 11 -2.3 21
1 -10 -11 -3 10.2
10 -9 -11 12.2 10.1
-10 9 -11 10.4 14.3
-1 -9 11 4.2 17.8
-1 10 -11 1.3 13.8
-10 9 -11 15 11.8
-10 1 11 1.5 11.2
-9 -1 -11 0.2 3.4
-1 -9 11 10.1 10.9
9 1 -11 7.7 11.7
-9 10 11 10.6 14.2
10 -9 11 16.2 20.3
-9 10 -11 8.4 13.6
-10 9 11 19.4 14.8
-9 10 -11 9.3 11.6
9 -10 -11 7.4 9.3
1 9 -11 1 11.6
-9 -1 11 3.5 11.7
-10 9 11 8.7 21.5
-1 -9 -11 2.9 10.3
10 -1 -11 0.4 11.1
1 -10 11 2.7 10.4
-9 -1 11 -14.7 19.2
-1 -9 -11 1.8 4.8
1 -10 11 2 18.1
-10 0 11 -0.9 18.4
10 0 -11 2.9 11.4
0 -10 11 11.3 19
-10 10 -11 13.6 12
-10 10 11 29.3 15.4
-10 0 11 16.6 12.1
-10 10 -11 15.8 13.8
-10 10 11 12.1 22.1
0 10 -11 -3.7 13.2
10 -10 -11 9.9 9.9
0 -10 -11 6.1 9.6
0 -10 11 10 11.4
10 -10 11 4.8 19.1
6 -11 11 24.9 11.4
-11 6 -11 66.69 15.8
-5 11 -11 26.2 13.7
-5 -6 11 58.49 13.4
-5 -6 11 48.9 20.9
6 5 -11 36.6 13.2
11 -6 -11 37.5 11.2
11 -5 11 33.5 21.8
6 -11 11 31.3 20.5
-11 5 11 21.2 21.8
-11 5 11 38.9 15.2
-6 11 11 35.2 14.8
-6 11 11 28.8 21.9
5 -11 -11 44.8 10.9
-5 11 11 22 12.9
-6 -5 11 54.69 13.6
5 -11 11 65.09 13.7
-11 6 11 60.29 16.5
-5 11 11 -5.6 19.8
11 -5 -11 36.5 10.9
11 -6 11 51.69 23.3
-11 5 -11 50.09 14.9
-11 6 11 49.1 24.3
5 -11 11 55.89 22.9
-6 -5 11 53.69 22.3
5 6 -11 54.39 14.1
6 -11 -11 25.6 9.9
-6 11 -11 37.1 14.9
-7 11 11 26 22.4
-7 11 11 49 16.2
11 -4 11 41.7 22.3
-11 4 11 22.7 13
-4 -7 11 47.7 12.6
-11 4 11 -7.7 21.1
7 4 -11 45.5 13.4
-4 -7 11 76.59 23.2
11 -7 -11 56.39 12
-4 11 -11 40.7 13.9
7 -11 11 48.1 21.1
7 -11 11 45.2 12.7
4 -11 -11 43.8 11.2
-11 7 -11 65.29 16.3
4 7 -11 52.09 13.6
7 -11 -11 41.9 10.9
-4 -7 -11 31.2 10.9
4 -11 11 45.9 12.2
11 -4 -11 60.09 11.9
-7 -4 11 54.49 13.5
-11 7 11 59.99 16
-11 7 11 45.6 23
-11 4 -11 56.49 15.9
-7 -4 11 63.59 23.6
-7 11 -11 62.79 15.6
4 -11 11 73.59 22.5
-7 11 -11 23.6 13.7
11 -7 11 68.69 24.9
8 3 -11 132.79 17.5
-3 -8 11 125.89 25.5
8 -11 11 116.89 24.8
11 -8 -11 117.99 14.7
-3 -8 11 82.89 14.4
-8 11 11 109.29 18.1
-11 8 -11 137.39 19.6
3 -11 -11 118.99 14.9
-8 11 11 102.29 26.9
8 -11 11 150.58 17.4
3 -11 11 114.99 24.2
3 8 -11 94.19 14.7
-8 11 -11 66.29 15.3
-11 3 -11 82.69 15.7
-11 8 11 87.19 24.6
3 -11 11 82.39 13.5
11 -8 11 128.09 27.3
-8 -3 11 88.39 23.9
8 -11 -11 81.19 12.7
-8 -3 11 110.79 15.5
-3 -8 -11 87.99 13.7
-11 8 11 120.49 18.6
-8 11 -11 111.59 16.5
11 -3 -11 108.59 14.1
-9 11 11 30.8 23.3
9 2 -11 50.49 13.5
11 -9 -11 25.6 10.6
-2 -9 11 40.3 12.3
-2 -9 11 35.4 21.4
-11 9 -11 25.1 13.6
-2 11 -11 39.8 14.7
9 -11 11 24.3 19.5
-11 2 11 31.4 12.2
2 -11 -11 55.29 12.5
-11 9 -11 5.3 10.8
-9 11 11 52.99 15.6
-11 2 -11 26.4 12
-2 -9 -11 25.2 10.8
9 -11 -11 48.5 11.3
-9 -2 11 29.8 12.2
2 -11 11 44.5 20.3
2 9 -11 -1.1 11.6
11 -9 11 57.39 24
-11 9 11 36.9 23.4
-9 11 -11 41.4 12.7
2 -11 11 31.6 11.3
-9 -2 11 36.5 21.5
-9 11 -11 31.8 14
11 -2 -11 30.3 12.5
-11 9 11 42.6 15.8
-1 11 -11 41.3 15.3
-1 -10 11 21.3 19.1
11 -10 -11 36.7 10.9
-11 1 11 31.6 12.6
-10 11 11 8.4 22.3
-10 11 11 33.6 14.4
-1 -10 11 41.3 12.1
-11 1 11 -4 19.6
-11 10 -11 27.6 13.2
-11 10 -11 30 11.5
10 -11 11 45.4 21.8
1 -11 -11 23.1 10.7
10 1 -11 52.59 13.2
-1 -10 -11 52.69 11.8
10 -11 -11 49.5 11.4
-10 -1 11 47.4 20.8
11 -10 11 61.19 23.3
-10 11 -11 67.39 14.6
-11 10 11 64.79 25.8
1 -11 11 68.19 13.4
-11 10 11 62.09 16.9
-10 11 -11 70.49 16.1
1 -11 11 46 21.5
11 -1 -11 42.9 12.7
-10 -1 11 44.9 12.8
0 -11 -11 19.4 10.9
-11 11 11 11.6 22.9
0 -11 -11 1.9 4.9
0 -11 11 17.1 11.1
-11 11 -11 15.5 13.5
-11 0 11 13 11.8
0 -11 11 7.4 18
-11 11 11 18.9 14.3
0 11 -11 6.1 13
11 -11 11 20.3 20.7
-11 0 11 -3.8 17.3
11 -11 -11 13.6 10
11 0 -11 11.5 11.2
-11 11 -11 18.2 12.3
12 -6 -11 113.49 14.4
12 -6 11 71.39 23.2
6 -12 11 113.89 25.4
-6 12 -11 113.59 16.9
6 -12 -11 68.89 12.1
-12 6 11 32 22.5
-12 6 11 92.59 16.9
6 6 -11 109.99 15.9
-6 -6 11 110.89 25.4
6 -12 11 91.19 14.4
-6 12 11 74.09 15.9
-12 6 -11 61.09 15.1
-6 -6 11 94.89 14.6
5 -12 -11 21.2 10.3
-5 -7 11 9.8 19.2
12 -7 -11 12.9 10.4
-12 7 -11 24.4 13.9
7 -12 11 23.4 20.6
12 -5 11 6.2 20.1
7 -12 11 17.3 11.2
-7 12 11 26.1 14.7
-7 12 11 -7.4 22.4
-5 12 -11 26 14.1
-5 -7 11 28.9 12.3
-12 5 11 31.3 13.8
7 5 -11 26 12.5
-5 -7 -11 17.4 10.3
-12 5 -11 21.5 13.8
-12 7 11 35.9 15.2
-7 -5 11 28.9 12
-12 7 11 19.5 22.5
5 -12 11 32.6 20.1
5 7 -11 28.8 12.8
12 -5 -11 24 10.5
-7 -5 11 8.5 21
5 -12 11 34.4 11.9
7 -12 -11 28.3 10.2
-7 12 -11 39.4 14.8
12 -7 11 30.1 22.9
-4 12 -11 39.8 14
-8 12 11 42 16
-4 -8 11 63.19 13.5
8 4 -11 54.59 13.9
-12 4 11 -0.2 12.9
8 -12 11 31.2 20.6
4 -12 -11 32.1 10.4
12 -4 11 3.1 32.1
-8 12 11 18.2 22
12 -8 -11 36 11.1
-12 8 -11 56.79 15.8
8 -12 11 46.2 12.4
-4 -8 11 42.9 20.6
8 -12 -11 26.2 10.3
12 -8 11 20.7 21.3
4 -12 11 20.7 19.1
-8 -4 11 18.3 20.5
-12 8 11 31 15.5
4 8 -11 19.7 12.9
-8 12 -11 44.3 15
-8 12 -11 24.5 13.8
-12 4 -11 25 14
-8 -4 11 24.7 11.6
-12 8 11 24.2 24.2
4 -12 11 41.1 12.3
-4 -8 -11 16.8 10.9
12 -4 -11 40.7 11.3
9 -12 11 149.39 19.4
3 -12 -11 127.29 17.1
-3 -9 11 188.88 31.6
-9 12 11 138.99 28.2
-9 12 11 154.78 22.1
12 -9 -11 147.69 17.6
9 3 -11 152.98 20.3
-12 9 -11 165.88 20.4
-3 -9 11 152.18 18.5
-3 12 -11 140.89 18.6
9 -12 11 199.18 33.5
9 -12 -11 146.99 16.5
-12 9 11 163.38 22.8
-9 -3 11 209.88 33
-9 12 -11 140.39 21.4
3 9 -11 143.29 18.9
12 -3 -11 146.49 17.5
3 -12 11 162.58 18.2
-9 -3 11 145.59 19.8
3 -12 11 109.59 22.6
-12 9 11 210.88 32.6
-3 -9 -11 157.58 17.9
12 -9 11 157.18 28.8
-9 12 -11 143.69 18.6
-12 3 -11 131.39 18.5
10 2 -11 117.49 16.1
2 -12 -11 102.89 13.5
12 -10 -11 83.39 12.7
-12 10 -11 169.48 20.2
-10 12 11 133.59 18.4
-2 -10 11 123.99 24.6
-10 12 11 100.99 26.6
-2 12 -11 123.09 18.2
-2 -10 11 135.79 16.2
10 -12 11 105.69 25.3
-12 2 11 82.49 14.1
12 -10 11 87.49 24.5
-2 -10 -11 120.59 14.4
-10 -2 11 55.79 20.3
-10 -2 11 119.29 15.9
10 -12 -11 89.69 13
-10 12 -11 121.19 17.5
12 -2 -11 101.19 14.6
-12 10 11 89.59 25.1
-10 12 -11 95.69 14.8
2 -12 11 114.89 17
11 -12 11 14.3 20
-11 12 11 6.9 21.2
-11 12 11 31.1 14.5
-1 -11 11 -2.3 18.8
1 -12 -11 31.9 11.6
-1 12 -11 30.6 14.3
-12 11 -11 14.8 11
-12 11 -11 21.7 13.7
-1 -11 11 24.3 11.4
11 1 -11 31.9 12.4
12 -11 -11 24.1 10.1
-12 1 11 23.2 11.8
-12 11 11 18 22.9
-11 -1 11 40.7 13.1
-11 -1 11 5.5 18.6
12 -11 11 25.9 21.8
11 -12 -11 17.6 10
1 -12 11 26.2 11.2
-12 11 11 15.5 13.9
12 -1 -11 39.3 12.7
1 11 -11 -1.9 10.4
11 -12 -11 3.3 11.7
-11 12 -11 21.7 13.3
1 -12 11 0.9 18.6
-1 -11 -11 35.5 11.8
-11 12 -11 22 12.5
12 -12 -11 3.7 8.9
12 -12 11 -1 19.2
-12 12 -11 8.5 13
0 -12 -11 -0.8 10.2
0 -12 -11 -0.2 4
12 0 -11 4.2 11.4
-12 12 -11 4.2 11.3
-12 12 11 2.7 20.5
12 -12 -11 2.4 11.3
0 -12 11 17.7 11.4
-12 12 11 14.3 13.2
-12 0 11 -3.7 11.1
0 12 -11 9.5 12.8
7 6 -11 0.2 11.7
7 -13 11 10.2 19.7
-7 -6 -11 0.9 4.2
-13 7 -11 12.3 12.9
13 -7 -11 1.9 10
7 -13 11 -0.8 11.1
-6 -7 11 -0.5 11.3
6 -13 -11 17.4 10
-7 13 11 11.5 13.7
-6 13 -11 0.5 12.8
-13 6 11 13.4 13.9
-6 -7 11 -0.6 20.6
6 -13 -11 -0.4 12
13 -6 11 0.9 20.3
-13 7 11 -3.1 31.4
6 -13 11 7.4 10.8
-6 -7 -11 0.2 3.7
6 7 -11 5.4 12.6
6 -13 11 -2.3 18.3
-13 6 -11 7.5 13.6
13 -7 11 7.2 20.8
-7 -6 11 -4.8 20.1
-7 -6 11 3.5 10.9
-7 13 -11 2.8 13
7 -13 -11 0.4 11.6
-6 13 11 1.1 11.9
-13 7 11 10.6 13.6
7 -13 -11 6.8 9.9
13 -6 -11 8 10.3
-8 13 11 38.3 14.9
13 -8 -11 33 10.9
-5 13 -11 34.4 13.5
5 -13 -11 27.8 10.1
8 -13 11 14.5 20.6
-5 -8 11 43.1 12.3
5 -13 -11 19 12.4
-13 5 11 22.4 12.8
-5 -8 11 30.8 21.3
-13 8 -11 45.5 14.6
8 -13 11 47.3 12.7
8 5 -11 63.49 14.1
5 -13 11 -1.5 18.5
-5 -8 -11 24.1 11.1
5 -13 11 51.39 12.5
-13 8 11 52.99 15.4
-8 -5 11 41.8 21.3
8 -13 -11 23.3 12.8
13 -8 11 15 21.7
13 -5 -11 42.3 11.7
-8 -5 11 62.79 14
8 -13 -11 46 11.2
-13 8 11 19.8 22.6
-13 5 -11 34.1 13.8
-8 13 -11 43.4 14.3
5 8 -11 40.9 13.5
4 -13 -11 29.8 12.4
-9 13 11 56.39 16.5
9 -13 11 22.3 20.6
4 -13 -11 53.39 11.7
-4 13 -11 47.5 13.8
-4 -9 11 52.59 21
9 -13 11 76.79 14
13 -9 -11 49.5 11.3
-4 -9 11 72.59 13.9
-13 9 -11 24 13.1
9 4 -11 66.69 13.9
4 -13 11 -0.2 24.2
9 -13 -11 38.6 10.8
13 -4 -11 34.3 10.9
-9 -4 11 32.3 21
-9 -4 11 77.39 14.6
-13 9 11 26.1 14.4
-4 -9 -11 32.5 11.5
4 9 -11 36.2 12.9
4 -13 11 64.39 13.1
-9 13 -11 39.1 14.2
13 -9 11 50.89 24.1
-13 9 11 35.9 21.6
9 -13 -11 37.9 12.6
-9 13 -11 69.69 15
-13 4 -11 64.09 14.7
-3 13 -11 30.5 13.4
-10 13 11 20.5 13.6
-3 -10 11 -1.5 18.5
10 3 -11 13.2 12.1
-10 13 11 -4.4 24.5
10 -13 11 4.5 19.7
-13 10 -11 33.3 13.7
-10 -3 -11 -0.1 4
13 -10 -11 2.8 8.8
3 -13 -11 26.9 10.4
10 -13 11 36 12
-13 3 11 11.5 10.8
-3 -10 11 22.3 11.1
3 -13 -11 5.7 11.9
3 10 -11 14.6 11.7
-10 13 -11 4.2 11.4
-13 10 11 4 13.4
-10 13 -11 15.8 12.9
-13 3 -11 7.1 11.6
-10 -3 11 8 11.6
-13 10 11 0.2 20.5
10 -13 -11 14.9 9.7
-3 -10 -11 -0.6 3.8
10 -13 -11 6.9 12.4
13 -3 -11 5.7 10
3 -13 11 13.7 11.3
13 -10 11 -5.5 22.9
-10 -3 11 7.7 18.6
-3 -10 -11 5.2 11
11 -13 11 4.8 24.4
-11 13 11 -3 23.5
-11 13 11 28.3 13.7
-2 -11 11 46.7 12
-2 13 -11 33.1 14.4
2 -13 -11 53.09 11.7
-13 11 -11 49.5 14.6
13 -11 -11 0.8 12.7
13 -11 -11 2.3 7.8
2 -13 -11 31 13
-13 2 11 27.1 11.7
11 2 -11 48.1 13.5
-11 -2 11 33.1 12.2
-13 11 11 11.2 21.1
-11 13 -11 40 14.4
-11 13 -11 44.9 12.3
13 -11 11 9 20.6
11 -13 -11 49.99 13.1
-2 -11 -11 58.39 13.1
2 -13 11 49.6 12.1
-13 11 11 48.2 14.8
-11 -2 11 -2.8 17.9
13 -2 -11 39.2 11.9
11 -13 -11 30.5 10.1
-1 13 -11 17.1 13.2
12 1 -11 25 12.1
-13 12 -11 2.6 11.4
-13 1 11 18.9 11.4
1 -13 -11 16 11.8
1 -13 -11 24.5 10.9
-12 13 11 25 13.5
-13 12 -11 30.3 13.5
-1 -12 11 33.6 11.5
13 -12 -11 24.1 11.2
13 -12 -11 2.6 11
12 -13 -11 27 12.8
-13 12 11 16.4 12.9
13 -1 -11 29.5 11.8
12 -13 -11 3.6 8.1
-12 13 -11 35.9 11.8
-12 -1 11 22.9 11.4
-13 12 11 -3.6 20
-1 -12 -11 27.5 10.7
1 12 -11 3.1 10.7
-12 13 -11 23.7 13.2
13 -12 11 2.3 25.7
1 -13 11 27.6 11.4
0 13 -11 3.4 10.9
-13 13 -11 10.7 12.2
-13 0 11 14.6 11
-13 13 -11 6.3 9.4
0 -13 11 12.8 10.8
13 0 -11 14.1 11.3
-13 13 11 7.9 12.4
13 -13 -11 12.2 12.1
0 -13 -11 10.6 12
0 -13 -11 22.1 11
-7 -7 11 0 11
-7 -7 11 -0.7 18.4
-7 -7 -11 0.5 4.2
-7 14 -11 1.5 13.1
7 -14 -11 4.7 12.4
14 -7 11 4 29.2
7 7 -11 4.3 11.2
14 -7 -11 0.3 9.5
-14 7 11 4 12.8
7 -14 11 13.1 11.5
-7 14 11 1.9 11.2
7 -14 -11 8.1 10.4
-14 7 -11 10.5 12.6
-6 -8 11 51.29 12.4
6 -14 -11 50.79 11.5
6 -14 -11 51.79 14.2
-14 6 11 37.4 13.8
14 -8 -11 27.4 9.8
-6 14 -11 42.2 13.4
8 6 -11 54.89 13.2
-14 8 -11 72.09 15.5
8 -14 11 48.5 12.3
-8 14 11 43.5 14.1
-6 -8 11 0.8 19.1
-8 -6 11 8.6 19.2
6 -14 11 30.1 11.3
-8 14 -11 78.49 15.9
6 8 -11 52.39 13.1
-14 6 -11 24.2 12.8
8 -14 -11 58.19 13.4
-14 8 11 42 14.5
14 -6 -11 49.5 11.3
8 -14 -11 50.59 11.7
14 -8 11 1.6 19.9
-8 -6 11 80.39 15
9 5 -11 7.7 11.2
-5 14 -11 -5.7 12.1
14 -9 -11 0.7 8.2
-5 -9 11 4.1 10.6
5 -14 -11 8.6 12.7
-5 -9 11 -5.6 29.5
-9 14 11 -3.4 12.6
9 -14 11 3.7 10.7
-9 -5 -11 -1.9 3
-14 9 -11 9.1 12.1
5 -14 -11 5.5 9.7
14 -5 -11 8.3 10.1
9 -14 -11 -1.9 9.9
5 -14 11 9.1 10.4
-9 -5 11 8 11.3
9 -14 -11 9.3 11.7
-5 -9 -11 -0.3 4
-9 -5 11 4.2 18.2
5 9 -11 6 11.7
-14 5 -11 15.6 13.3
-14 9 11 7.4 12.9
14 -9 11 0.5 21.1
-9 14 -11 14.2 13.1
4 -14 -11 113.69 14.7
-4 14 -11 71.19 15.1
10 -14 11 124.49 16.1
4 -14 -11 60.89 14.5
-10 14 11 73.69 15.9
-14 10 -11 74.19 15
-4 -10 11 111.59 15
4 -14 11 132.69 15
-10 -4 11 101.49 14.8
4 10 -11 113.19 15.4
10 -14 -11 110.29 15
14 -4 -11 69.69 12.4
-10 14 -11 126.09 15.9
-14 10 11 129.29 18.3
-10 14 -11 62.19 14.5
-14 4 -11 86.19 14.9
10 -14 -11 99.39 15.1
3 -14 -11 113.89 14.1
-3 14 -11 69.59 14.4
3 -14 -11 68.49 14.3
-3 -11 11 89.89 13.6
-14 11 -11 111.39 16.8
-14 3 11 48.9 12.2
11 -14 11 65.89 13.2
-11 14 11 64.49 14.7
-11 14 -11 90.59 14.7
3 -14 11 97.69 13.5
-11 -3 11 97.69 14.9
3 11 -11 73.89 13.3
11 -14 -11 79.39 14.3
-14 11 11 105.59 17.2
-11 14 -11 49.3 13.9
14 -3 -11 88.39 13
2 -14 -11 7.9 10.6
12 -14 11 4.6 11.1
12 2 -11 14.2 11
2 -14 -11 -0.7 3.4
14 -12 -11 3.3 10.5
2 -14 -11 12.9 12.3
-2 -12 11 20.6 11.3
-14 2 11 15.9 11.1
-14 12 -11 -0.5 11.8
-2 14 -11 2.7 12.6
-12 14 11 10.5 12.1
-12 14 -11 9.2 12.7
-12 14 -11 4.2 10.6
-14 12 11 16.4 12.4
12 -14 -11 2.5 11.6
2 -14 11 -0.6 10.5
12 -14 -11 3.2 11.2
-2 -12 -11 -1.4 3.1
-12 -2 11 5.5 10.8
14 -2 -11 7.3 10.3
-14 1 11 10.5 10.8
-1 -13 11 11.7 10.5
13 1 -11 1.5 11.4
-14 13 -11 12.1 12.2
14 -13 -11 12.4 11
-1 14 -11 5.1 11.5
1 -14 -11 -0.7 3.7
1 -14 -11 4.9 11.7
-13 14 11 5.7 11.8
1 -14 -11 6.1 9.4
13 -14 -11 8.7 11.2
-13 -1 11 14 11.1
-1 -13 -11 1.9 11.4
-14 13 11 -0.6 11.9
1 -14 11 9.4 10.2
14 -1 -11 2.4 10.7
-13 14 -11 9.6 12.3
-1 -13 -11 1.2 4.2
-13 14 -11 7.8 9.9
-14 14 11 -5.9 11.1
14 0 -11 1.5 10.1
0 -14 -11 0.7 3.8
0 -14 11 7.6 9.7
-14 0 11 8.3 10.5
-14 14 -11 1.8 11.6
0 14 -11 -0.7 9.1
0 -14 -11 3.2 12
14 -14 -11 -5.3 10.9
0 14 11 11.7 13
7 -15 -11 2.1 12.1
-8 15 11 5 16.6
-7 -8 11 10.5 10.8
7 -15 -11 6.9 9.7
-15 7 11 9 12
-7 15 -11 12 12.7
15 -8 -11 4.4 12.2
-15 8 -11 13.6 12.1
8 -15 11 9.6 11.2
8 7 -11 4.5 11.4
-15 8 11 -7 12.1
-8 15 -11 3.1 11.6
8 -15 -11 7 9.5
-15 7 -11 6.9 11.7
8 -15 -11 -1.4 11.6
-8 -7 11 4.8 10.7
7 8 -11 -0.9 10.8
15 -7 -11 -0.4 8
7 -15 11 17.5 10.9
-7 -8 -11 -1.1 2.9
-15 9 -11 9.6 11.7
-9 15 11 0.1 11.6
-15 6 11 1.5 10.6
9 6 -11 16.1 11.6
-6 -9 11 9.5 10.8
9 -15 11 10 10.9
6 -15 -11 9.8 9.7
6 -15 -11 6.9 12.2
-6 15 -11 13.1 11.9
-9 15 11 5.3 14
6 -15 11 10.1 10.3
-15 9 11 3.8 12.4
6 9 -11 19.8 11.9
-9 -6 11 15.5 11.4
9 -15 -11 12.5 11.4
9 -15 -11 18.3 9.9
15 -6 -11 14.6 9.1
-15 6 -11 11.2 13.2
-9 15 -11 17.9 12.3
-5 -10 11 54.39 12.2
5 -15 -11 41.5 11.2
10 5 -11 41 12.3
-5 15 -11 51.19 13.8
-10 15 11 43.5 13.4
-15 10 -11 71.09 14.3
5 -15 -11 52.19 13.6
10 -15 11 60.59 13.1
-10 15 11 40.9 14.2
5 -15 11 38.6 11.2
-15 5 -11 37.9 13
10 -15 -11 38.2 12.4
15 -5 -11 34.7 10.3
10 -15 -11 30.9 10.8
-10 -5 11 34.3 11.8
5 10 -11 34.9 12.1
-10 15 -11 22.2 11.4
-15 10 11 55.39 14.4
-15 4 11 -2.1 8.9
4 -15 -11 18 10.4
-11 15 11 17.5 12.4
-15 11 -11 10.6 11.4
-4 15 -11 17.3 12.3
11 4 -11 18.1 10.8
15 -11 -11 1.5 10.6
4 -15 -11 11.3 12.2
-4 -11 11 11.2 10.6
11 -15 11 17.4 10.7
-11 -4 11 9.7 10.3
15 -4 -11 2.5 9.6
4 11 -11 2.6 10.9
-4 -11 -11 -0.1 3
11 -15 -11 8.2 10.7
4 -15 11 6.7 9.8
-11 15 -11 3.7 12.2
-15 11 11 8.5 12
-11 15 -11 -1.9 9.9
11 -15 -11 2.4 8.1
-3 -12 11 21.1 10.7
-12 15 11 24.8 12.1
-15 12 -11 9.5 11
-15 3 11 18.2 10.5
3 -15 -11 24.1 12.5
12 3 -11 13.5 10.8
3 -15 -11 23.9 10.3
-3 15 -11 15.3 12.3
15 -12 -11 12.7 10.5
12 -15 11 30.5 11.4
3 -15 11 20.9 10.5
-12 15 -11 12.5 10.1
3 12 -11 1.8 9.5
-12 15 -11 6.3 11.7
-3 15 11 23.6 13.6
-12 -3 11 11.7 10.5
12 -15 -11 15.4 10.9
-15 12 11 29 12.5
15 -3 -11 20.8 9.8
-13 15 11 26.8 12.3
2 -15 -11 30.6 12.8
-2 15 -11 24.4 12.2
-15 2 11 20.4 10.4
2 13 11 31.9 13.1
15 -13 -11 19.3 10.9
-2 -13 11 34.9 11
13 2 -11 38.6 12
-15 13 -11 54.79 12.9
13 -15 11 31.6 11.2
-13 15 -11 24.7 10
2 -15 11 26.9 10.1
13 -15 -11 29.5 11.4
-13 -2 11 35.4 11.7
-2 -13 -11 -3.5 11.3
-13 15 -11 27.5 12.4
-2 15 11 38.4 13.7
15 -2 -11 32.2 10.2
-15 13 11 38.1 12.3
-14 15 11 24.5 11.9
-15 14 -11 6.4 11.1
14 -15 11 18 10.4
-1 -14 11 17.3 9.5
1 -15 -11 26.7 12.1
14 1 -11 15.2 10.8
1 14 11 10.4 12.3
-1 15 -11 22.3 10.4
-15 1 11 20.9 10.4
15 -14 -11 21.1 11.6
-14 -1 11 17.5 10.2
-1 15 11 27.5 13.4
14 -15 -11 9.7 10.3
1 -15 11 9.3 8.7
15 -1 -11 20.9 9.6
-1 -14 -11 20.6 12
-15 14 11 16.4 11.7
-14 15 -11 2 11.1
-15 15 -11 26.1 11.2
15 0 -11 28.6 9.8
0 -15 -11 36.8 12.1
-15 0 11 31.9 10.3
15 -15 11 26.8 10.8
-15 15 11 19.6 11.9
0 15 11 25.4 12.3
15 -15 -11 36.2 10.9
8 8 -11 33 11.4
-8 16 11 47.5 14.6
-8 -8 11 47.8 12.6
8 -16 -11 30.1 10.6
-8 16 -11 44.7 13.1
8 -16 11 28 10.1
8 -16 -11 32.1 11.9
-16 8 11 40.2 12.9
-16 8 -11 30.6 12.2
-7 16 -11 14.4 11.6
7 -16 -11 16.8 9.8
9 -16 11 15.9 9.8
-7 -9 11 18.3 10.8
-16 7 11 0.1 10.1
7 -16 -11 14.1 11.6
-16 9 -11 17.1 11.1
9 7 -11 13.9 10.9
-9 16 11 18.6 13.7
-16 9 11 1.7 11.4
7 9 -11 1.1 10.7
-7 16 11 4.4 12.7
7 -16 11 16.5 9.4
-9 16 -11 20.7 11.6
9 -16 -11 13.8 10.9
9 -16 -11 15.7 9.3
-9 -7 11 2 10.2
-16 7 -11 19.4 12.9
-10 -6 -11 -0.4 3.4
-6 16 -11 9.7 11.2
10 -16 11 2.5 9.8
-10 16 11 1.5 10.4
6 -16 -11 -1.5 9.1
-16 10 -11 7.5 10.9
6 -16 -11 13 11.6
-6 -10 11 8.1 10.5
10 6 -11 9.7 10.1
-10 16 11 14.9 13
10 -16 -11 12.6 10.5
-6 -10 -11 -0.5 3.5
-16 6 -11 7.9 11.7
-10 16 -11 5.5 10.5
-16 10 11 0 11.3
-10 -6 11 7.5 10.2
-6 16 11 5.3 13
6 -16 11 0.4 9.2
6 10 -11 16 11.2
10 -16 -11 7.5 8.5
-5 16 -11 17 11.5
-5 -11 11 4.7 10.4
5 -16 -11 11.4 10
-11 -5 -11 0.8 3.8
5 -16 -11 1 4
-16 11 -11 14.4 10.9
5 -16 -11 7.9 11.4
16 -11 -11 1.2 12.4
11 5 -11 11 10.2
-11 16 11 -0.5 10.9
11 -16 11 6.7 10.4
-11 16 11 -2.6 15.2
5 -16 11 5.3 8.7
-16 11 11 19 12
11 -16 -11 12 10.8
-5 16 11 16.3 12.8
16 -5 -11 2.3 7.7
-11 -5 11 28.1 10.5
5 11 -11 16.2 11.2
-11 16 -11 13 10
-16 12 -11 24.6 10.7
4 -16 -11 28.6 12.1
-12 16 11 20.5 11.7
-4 -12 11 29.4 10.7
4 12 11 -5.6 10
16 -12 -11 18.3 9.8
-16 4 11 -2 8.3
12 4 -11 47.5 11.6
12 -16 11 20.6 10.2
4 -16 -11 39.5 10.7
-4 16 -11 22.2 11.7
-4 16 11 26 12.9
-16 12 11 21.3 11.9
4 -16 11 0.7 8.5
12 -16 -11 17.6 10.4
-12 16 -11 4.6 10.8
-12 16 -11 24.1 10
4 12 -11 26.1 10.8
-12 -4 11 34.1 10.8
16 -4 -11 2.9 7.7
-16 3 11 39.6 10.2
-3 -13 11 60.79 11.5
3 13 11 30.9 11.8
-3 16 -11 65.59 12.7
-13 16 11 60.29 12.8
16 -13 -11 49.7 10.9
3 -16 -11 47.9 11.9
13 3 -11 55.39 11.4
-16 13 -11 54.99 11.7
13 -16 11 47.5 11.5
-13 16 -11 44.4 10.5
-13 -3 11 36.4 10.6
-3 16 11 33.3 12.6
-13 16 -11 39.6 12.2
16 -3 -11 24 8.9
13 -16 -11 45.3 10.7
-16 13 11 50.69 13.3
-16 2 11 44.2 10.6
2 14 11 34.8 12.2
-14 16 11 49.5 12.7
-2 -14 11 19.6 9.3
16 -14 -11 40.6 10.9
-2 16 -11 37.9 10.2
2 -16 -11 49.9 12.4
14 2 -11 29.8 10.5
-16 14 -11 30.2 11.3
14 -16 11 40 10.6
-16 14 11 32 12.1
14 -16 -11 38.9 10.6
-14 16 -11 29.3 11.1
-2 16 11 33 12.5
-14 -2 11 42.8 10.9
-2 -14 -11 0.6 12.6
16 -2 -11 25.5 8.5
-16 15 -11 9.8 10.1
-16 1 11 11.9 9.3
16 -15 -11 6.9 9.3
-15 16 11 17.6 11
15 1 -11 24.2 9.8
1 -16 -11 22.4 10.6
15 -16 11 20.2 9.9
1 15 11 8.5 11.5
16 -1 -11 7.7 7.5
-15 16 -11 17.8 10.3
-1 -15 -11 11.4 10.1
-1 16 11 16.3 12
-15 -1 11 14.4 9.2
-16 15 11 19 11.4
15 -16 -11 19.3 9.9
-16 16 -11 62.99 11.6
-16 0 11 65.09 11
0 16 11 55.09 13.3
16 -16 -11 75.99 11.9
16 0 -11 49.1 8.8
-16 16 11 81.79 12.4
16 -16 11 53.19 10.9
-17 9 -11 8.9 10.1
9 -17 11 1.4 8.1
9 8 -11 8.6 9.9
8 -17 -11 17.2 9.5
-8 17 -11 15.9 10.8
-9 17 11 8.3 13
8 -17 -11 1.6 10.5
-8 -9 11 14.5 10
-17 8 11 0.2 10.2
-17 9 11 7.7 10.9
8 9 -11 22.4 10.3
9 -17 -11 18.1 10.8
-8 17 11 5.2 13.3
-9 17 -11 16 10.6
-8 -9 -11 0.6 3.6
-9 -8 11 11.4 10.2
-17 8 -11 5.8 11.7
9 -17 -11 11.2 9
10 -17 11 0.7 8.1
-7 17 -11 12 10.7
-10 17 11 18.9 12.9
7 -17 -11 18.1 9.6
7 -17 -11 -0.6 9.7
-7 -10 11 7 9.9
-17 10 -11 13.4 10.4
10 7 -11 15.7 10.1
10 -17 -11 13 10.2
-17 7 -11 10.7 11.3
-10 17 -11 15.8 10
-17 10 11 7.6 11.7
-7 17 11 24.6 14
7 10 -11 8.6 10.2
-10 -7 11 14.9 9.4
-11 17 11 1.8 14.9
-11 17 11 4.6 16.6
-6 17 -11 16.4 11
11 -17 11 13.1 8.7
11 6 -11 14.3 10
-17 11 -11 11.6 10.2
6 -17 -11 23.4 10.7
-6 -11 11 11.2 9.5
-11 17 -11 12.2 9.5
-11 -6 11 10.1 9.5
6 11 -11 25.9 10.4
11 -17 -11 12.7 9.7
-17 11 11 8.8 11.4
-6 17 11 15.1 13.8
12 5 -11 23.2 10
-5 -12 11 15.2 9.9
12 -17 11 3.5 8.7
5 -17 -11 10.1 10.5
-12 17 11 10.6 11
17 -12 -11 -0.4 14.6
-17 12 -11 13.3 10.1
-5 17 -11 16.4 10.9
-5 -12 -11 0.4 3.3
-5 17 11 13.3 12.9
-17 12 11 0.3 11.3
-12 -5 11 11.5 9.1
-12 17 -11 6.5 9.2
5 12 -11 23.3 10.2
12 -17 -11 2.4 9.1
17 -13 -11 -0.7 8.9
-4 -13 11 6.1 8.5
13 -17 11 16.7 8.3
4 -17 -11 18.2 11.2
-4 17 -11 17.8 10.6
-13 17 11 15.6 11.1
-17 13 -11 14.7 9.8
13 4 -11 9.5 9.8
-4 17 11 3.5 12.7
-17 13 11 9 11.4
13 -17 -11 10.5 9.1
-13 17 -11 15.2 8.8
-13 -4 11 16.4 9.8
-17 14 -11 34.2 10.3
14 -17 11 15.4 8.4
-14 17 11 27.3 11.3
14 3 -11 44.7 10.6
-3 17 -11 27 9.3
3 -17 -11 38.2 11.5
-17 3 11 20.1 8.5
17 -14 -11 29.1 9.5
-17 14 11 40.7 11.4
14 -17 -11 50.79 10.7
-14 -3 11 32.3 10
-14 17 -11 4.5 16
-3 17 11 27.2 12.3
-15 17 11 31.6 10.6
-17 15 -11 43.1 10.8
-17 2 11 34.6 9.2
17 -15 -11 34.1 9.6
15 -17 11 14.9 7.8
2 15 11 4.7 12.8
15 2 -11 35.3 9.7
2 -17 -11 39.5 11
-17 15 11 26.5 11.5
-15 -2 11 43.5 10.5
15 -17 -11 33.6 9.5
-2 17 11 26 12.1
-15 17 -11 14.8 9.8
-17 16 -11 36.9 10.3
-17 1 11 41.9 9.8
1 -17 -11 5.9 9
17 -16 -11 30.3 8.8
-16 17 11 54.89 11.7
1 16 11 7 9.3
16 -17 11 3 10.1
-16 17 -11 40.3 10.4
-1 17 11 39.9 12.7
-16 -1 11 54.19 11
16 -17 -11 49.4 9.7
17 -16 11 73.19 11.6
-17 16 11 62.39 12.2
-17 17 -11 19.8 10.6
-17 0 11 21.9 10.7
0 -17 -11 -0.9 2.7
-17 17 11 21.2 12.3
0 17 11 4.5 10
17 -17 -11 1.4 6.9
-18 9 -11 27.1 11.7
-9 18 -11 22.8 10.1
9 9 -11 15.5 9.4
9 -18 -11 17 9.9
-9 -9 11 16.5 9.3
-9 18 11 7.5 13
10 8 -11 5.5 9.1
-10 18 11 -1.4 12.1
-10 -8 -11 0 3.3
-8 18 -11 4.1 10.3
-18 10 -11 4.4 10.6
8 -18 -11 10.9 9.5
-8 -10 11 9 9.5
10 -18 -11 6.5 9.5
-10 -8 11 1.9 8.9
-8 18 11 5 12.8
-8 -10 -11 -0.5 2.8
-18 8 -11 1.7 9.3
-18 10 11 7.4 10
-10 18 -11 -0.1 9
8 10 -11 2.9 9.4
11 7 -11 3.4 8.9
-7 18 -11 10.5 10.3
-7 -11 11 18.9 9.3
-18 11 -11 11.4 10.2
7 -18 -11 9.3 9.6
7 -18 -11 1.3 4
7 11 -11 9.9 9.9
-11 18 -11 9.5 8
11 -18 -11 14 9.4
-18 11 11 15.1 11.1
-11 -7 11 16.5 9
-7 18 11 14.3 13
6 -18 -11 -0.8 2.4
-18 12 -11 2.7 9.9
6 -18 -11 4.7 8.8
-6 18 -11 10.9 9.7
-6 -12 11 4.5 8.6
12 6 -11 5.5 8.8
6 12 -11 10.3 9.7
-12 18 -11 5.6 8.9
12 -18 -11 -2.3 9.1
-6 -12 -11 -0.5 3
-12 -6 11 6.1 9.1
-6 18 11 7.2 12.8
-18 12 11 -2 11
5 -18 -11 9.6 9.7
13 5 -11 3.2 9
-18 13 -11 8.9 10.2
-5 18 -11 16.5 9.5
13 -18 -11 14.1 9.2
-5 18 11 17 13.1
-13 -5 11 6.3 9.2
5 13 -11 0.1 11.3
-13 18 -11 16.3 8.6
-18 13 11 11.7 11.2
-18 14 -11 23.8 9.8
-14 18 11 0.1 8.8
4 -18 -11 29.4 10.5
14 4 -11 32.2 10
-4 18 -11 26.7 8.8
-14 -4 11 18.5 9.5
-4 18 11 11 12.3
-18 14 11 7.7 10.9
14 -18 -11 28.6 10
-15 18 11 31.6 9.6
15 3 -11 29.7 9.2
3 -18 -11 24.3 9.2
-18 15 -11 27.8 10.5
15 -18 -11 32 9.4
-18 15 11 31.6 12
-3 18 11 10.8 12.8
-15 -3 11 34 10.5
2 -18 -11 -0.9 2.7
-18 16 -11 9.1 11.3
-16 18 11 -2.9 10
-16 -2 11 -3.6 10.2
-2 -16 -11 -1.9 2.4
-18 16 11 0.2 11.1
-2 18 11 8.9 12.6
18 -16 11 -0.7 7.3
16 -18 -11 0.6 6.5
9 -19 -11 9.1 9.4
9 -19 -11 0.2 3.1
-10 19 11 7.1 11
-9 19 -11 6.1 9.6
10 9 -11 8.4 9.8
-9 -10 11 5.1 9
-19 10 -11 5.2 10.3
-10 -9 11 24.8 10.3
-9 19 11 15.7 14
10 -19 -11 13.9 9.6
9 10 -11 18.7 10
-10 19 -11 14.5 9.2
-8 -11 11 0.9 7.1
8 -19 -11 1.4 9.9
11 8 -11 12.3 9.7
-19 11 -11 10.9 11.4
-8 19 -11 10.4 9.3
-19 11 11 -0.3 14.9
-11 -8 11 13.1 9.6
8 11 -11 10.3 9.3
-8 19 11 18.4 13.8
11 -19 -11 21.5 9.5
-11 19 -11 13.3 9.4
7 -19 -11 0 3
-19 12 -11 2.6 11
12 7 -11 6 9.3
7 -19 -11 4.4 9.4
-7 19 -11 7.5 9.8
7 12 -11 5.4 9
-7 -12 -11 1.5 4.1
12 -19 -11 6.3 9.3
-7 19 11 -7.1 13.7
-19 12 11 6.4 10
-12 -7 11 -3.6 9.6
-12 19 -11 0.1 9.4
-6 19 -11 8.8 9.6
13 6 -11 0.2 9.7
6 -19 -11 -0.4 2.9
6 -19 -11 13 9.9
-19 13 -11 3.6 11.2
-13 19 -11 1 6.4
-13 -6 11 4.1 9.3
-19 13 11 4.2 11.3
13 -19 -11 6.1 9.5
-6 -13 -11 -0.2 2.9
-6 19 11 8.1 13.9
5 -19 -11 -0.4 2.9
-5 19 -11 6.3 8.4
5 -19 -11 3.5 7.9
-19 14 -11 2.5 10.8
14 5 -11 11.7 9.9
-14 -5 11 10.6 10.4
-19 14 11 11.8 12.8
-5 19 11 2.3 14.2
14 -19 -11 10.4 9.3
0 0 -12 509.45 34.4
0 0 12 692.53 45.4
-1 0 -12 160.58 18.4
1 0 12 204.98 27.6
1 -1 -12 155.08 18.1
0 -1 -12 165.68 18.5
-1 1 12 185.78 26.3
0 -1 12 123.79 23.8
1 -1 12 131.09 23.1
1 0 -12 115.69 15.7
0 1 -12 164.68 17.7
-1 1 -12 120.49 17.8
0 -1 12 183.88 26.7
-1 0 12 203.88 27.9
1 -1 12 106.09 23.6
0 1 12 158.68 27.1
1 -2 12 369.76 36.6
-1 2 -12 262.97 23.4
-1 -1 12 359.76 34.5
2 -1 12 270.37 34.1
-1 -1 -12 248.78 24.1
1 -2 12 369.56 36.2
-2 1 12 367.26 34.1
-1 -1 12 319.47 33.9
-2 1 -12 252.27 23.6
1 -2 -12 260.97 23.8
1 1 12 373.66 35.2
-2 0 -12 126.09 18.6
0 -2 12 108.79 23.3
0 -2 -12 161.08 17.9
-2 2 12 125.39 22.3
0 2 -12 113.79 15.4
2 -2 12 179.28 27.7
-2 2 -12 121.99 15.3
0 -2 12 133.89 23.2
2 0 12 181.98 26.6
2 -2 -12 97.69 14.7
0 2 12 121.69 21.8
-2 0 12 168.98 28.7
1 -3 -12 5.1 8.2
-2 3 12 50.39 20.9
1 -3 -12 31.9 12.1
-3 1 12 35.1 19.7
3 -2 -12 4 12
3 -1 12 28.8 19.6
2 1 -12 2.9 14.8
3 -1 12 -0.7 17.5
3 -2 -12 31.2 10.7
-1 3 -12 25.8 11.6
-2 -1 -12 35.6 13
2 -3 12 34.4 20.5
-1 -2 12 52.19 19.9
-3 2 -12 27.3 11.5
1 2 12 32.8 17.2
2 1 -12 3.4 13.9
-1 -2 12 17.9 18.4
2 -3 12 46.6 20.2
-1 -2 -12 30 12.4
-2 3 -12 37.2 11.9
-3 2 12 25.5 18.9
-1 3 12 31.2 17.7
3 -2 12 39.2 20.3
2 -3 -12 24.6 9.6
1 2 -12 20 11.6
-2 -1 12 25.3 17.9
1 -3 12 37.7 20.3
2 1 12 10.4 17.1
1 -3 12 36.5 20.6
3 -2 12 25 20
-2 -1 12 41.5 19.8
-3 1 -12 38.8 13.2
3 -1 -12 13.1 9.6
2 -3 -12 24 11.9
3 -3 -12 151.18 16.9
-3 3 12 243.08 30.6
0 3 -12 151.68 18.1
-3 3 -12 151.48 18.2
0 3 12 184.38 30.4
0 -3 12 218.98 32.4
-3 0 -12 159.08 19.8
3 0 12 210.08 31.2
3 -3 12 224.88 31.9
-3 0 12 161.18 27.9
-3 0 12 229.48 31.7
0 -3 -12 150.28 19.3
3 0 -12 135.89 17
0 -3 12 234.58 31.3
2 2 12 217.58 28.9
-2 -2 12 193.98 31.8
4 -2 12 178.48 27.7
2 -4 -12 135.89 16.1
-2 4 12 181.18 29.6
2 -4 12 225.38 32.3
-4 2 12 209.88 30.3
-2 4 -12 130.59 17
-2 -2 12 183.18 30.1
2 -4 12 93.89 14.5
-4 2 -12 139.89 18.8
-2 -2 -12 142.59 18.8
4 -2 12 218.58 31.9
2 -4 12 179.08 32.2
4 -2 -12 141.69 17.4
2 -4 -12 135.59 18.1
1 3 12 128.39 24.7
4 -1 12 88.99 22.3
-4 3 -12 84.89 14.2
-1 -3 12 128.99 24.7
1 -4 -12 52.19 10.7
3 -4 12 124.59 25.9
3 -4 12 102.69 24.2
-3 4 12 88.49 20.8
3 1 -12 63.09 12.1
-3 -1 -12 104.29 15.4
-1 4 -12 94.89 14.6
-4 1 12 117.49 24.3
-1 -3 12 109.59 23.3
1 -4 -12 71.89 13.6
4 -3 -12 90.79 13.4
3 -4 -12 69.59 11.9
4 -1 -12 85.59 13.3
-3 -1 12 62.49 19.6
4 -3 12 93.19 23
3 1 12 107.99 24.2
1 -4 12 58.79 12.8
3 -4 -12 60.79 13.1
1 -4 12 104.59 25.3
1 3 -12 38.4 11.5
-3 4 -12 85.29 14.1
1 -4 12 98.79 24.3
4 -3 12 77.29 22.3
-1 4 12 113.59 24
-3 -1 12 89.79 22.4
-1 -3 -12 88.09 14.7
-4 3 12 101.79 21
-4 1 -12 60.89 13.4
0 4 -12 9.3 11.2
0 -4 12 9.9 10.7
-4 4 12 8.7 17.2
4 -4 12 -0.3 18.7
4 -4 12 12.6 19.7
4 -4 -12 7.9 9.4
4 -4 12 2.8 9.6
0 -4 -12 11.8 11.9
0 -4 12 1.2 18.6
-4 4 -12 8.2 11.1
0 -4 -12 0.9 7.6
4 -4 -12 9.1 10.5
-4 0 12 -7.4 17.6
4 0 -12 7.9 10
0 -4 12 -2.3 18.1
-4 0 12 16.5 18.7
4 0 12 2.4 17.6
0 4 12 23.2 18.9
-4 0 -12 -0.4 11.8
-2 -3 12 6.1 10.2
2 3 12 9.2 18.3
3 -5 12 13.4 20.5
-3 5 12 7.7 16.4
-2 -3 12 9.8 18.2
-3 -2 -12 2.4 11
5 -2 12 -3.8 18.9
5 -3 -12 6.2 9.8
2 -5 -12 4.7 9.5
-2 5 -12 7 10.7
3 -5 12 3 10.7
-2 -3 12 1.7 18.5
5 -2 12 6.1 18.5
-5 3 -12 -6 11.3
-5 2 12 0.4 17.3
3 -5 12 9.7 20.8
2 -5 -12 15.5 12.2
3 2 -12 4.1 9.4
-5 3 12 0.9 13.1
5 -3 12 11.9 20.9
2 -5 12 3.8 10.3
5 -3 12 5.1 18.8
3 -5 -12 12.4 9.5
2 -5 12 10.4 20
-3 -2 12 -3.6 9
2 -5 12 2.1 18.8
-5 3 12 -2.7 17
-2 -3 -12 8.4 11.4
-2 5 12 4.1 17.6
-3 -2 12 -2 19.3
3 -5 -12 9.5 11.4
-3 -2 12 0.5 17.9
-5 2 -12 13.9 11.8
5 -2 -12 6.1 10.6
-3 5 -12 16.7 11.4
3 2 12 2.1 18.3
-1 -4 12 30.4 19
-1 -4 12 39.5 11.5
5 -1 12 49.9 21
4 -5 12 26.1 19.8
-1 -4 12 39.4 19.8
5 -4 -12 23.7 10
-4 -1 -12 40.4 12.8
1 -5 -12 16.8 9
-5 1 12 -1.3 18.8
1 4 12 44.3 20.5
4 -5 12 25.7 10.8
-4 5 12 34.9 13.8
-5 4 -12 23.6 11.1
-1 5 -12 27.5 11.7
4 1 -12 36.2 11.2
1 -5 -12 35.1 12
4 -5 12 43.2 21.5
-5 1 12 37.3 19.2
-4 5 12 41.1 18.7
1 -5 12 27.5 11.9
-4 -1 12 36.4 20
-1 -4 -12 47.3 12.7
4 -5 -12 27.9 12.2
5 -4 12 32.5 20.6
-5 1 -12 23.7 11.8
-5 4 12 46.9 19.6
4 1 12 36.6 21.6
1 4 -12 26.6 11.6
-1 -4 -12 8.6 8.4
1 -5 12 19 18.6
-5 4 12 23.1 13.5
5 -1 -12 24.6 10.5
-1 5 12 26.7 18.7
-4 -1 12 32.1 19.5
-4 5 -12 38.9 12.3
4 -5 -12 30 10.1
1 -5 12 36.6 20.4
5 -4 12 28 21.7
0 -5 -12 60.29 11.1
5 0 12 73.39 22.1
-5 0 12 65.79 20.8
-5 5 12 118.79 17.5
-5 0 -12 71.09 14
5 -5 12 108.29 25.5
5 -5 12 85.59 14.2
-5 0 12 96.49 22.4
0 -5 -12 80.79 14.1
5 -5 -12 84.69 12.7
0 -5 12 52.39 20
-5 5 12 60.99 18.8
5 -5 12 60.09 21.4
0 -5 12 97.79 14.7
0 -5 12 74.99 21.7
0 5 12 123.39 25.4
0 5 -12 67.99 14.4
-5 5 -12 75.19 13.8
5 0 -12 80.09 13.2
3 -6 -12 34.5 12.8
-3 6 -12 17.6 11.2
-6 3 12 49.5 15.1
-3 -3 12 34.2 11.2
-3 -3 -12 25 11.7
-3 -3 12 31.9 19.2
-6 3 -12 31.5 12.6
-6 3 12 25.5 18.3
-3 6 12 44.3 19.1
-3 -3 12 2.4 19.2
3 3 -12 28.4 11.5
3 -6 12 41.8 21.3
6 -3 -12 27.9 10.8
3 -6 -12 33.2 10.6
3 -6 12 30.5 20.4
6 -3 12 27.1 19.9
-3 6 12 34.2 13.8
6 -3 12 32.1 20.9
3 -6 12 26.6 10.9
3 3 12 42 19.1
-6 2 12 30.2 13.6
2 4 12 31.8 19.9
6 -4 -12 50.79 11.5
-4 6 12 40.8 14.1
-2 -4 12 46.8 20.4
4 2 -12 45.8 12.8
4 -6 12 47.6 12.7
6 -2 12 40.8 21.7
-6 4 -12 43.2 12.7
4 -6 12 51.59 22
-4 6 12 71.99 20.9
2 -6 -12 49.1 13.1
2 -6 -12 41.8 10.9
-2 6 -12 50.69 12.9
-2 -4 12 45.9 12.4
6 -2 12 1.6 18.8
-6 2 12 49.99 20.4
-2 -4 12 3.5 18.6
-6 4 -12 45.6 15.5
4 -6 12 49.7 22.3
-4 -2 -12 41 12.5
6 -2 -12 75.19 12.9
2 -6 12 71.89 14.2
2 -6 12 73.39 22.3
6 -4 12 62.49 21.4
2 -6 12 60.09 21.6
-4 -2 12 74.39 22.8
-4 -2 12 32.2 18.9
4 -6 -12 45.5 12.8
-2 -4 -12 55.29 12.3
-4 -2 12 56.29 12.5
4 -6 -12 78.89 12.6
6 -4 12 51.69 22.1
-6 4 12 82.69 21.3
-6 4 12 88.49 16.3
-4 6 -12 65.69 13.5
4 2 12 60.29 21.9
-2 6 12 86.39 22.4
-6 2 -12 61.29 13.7
6 -5 -12 46.5 11.6
-1 6 -12 42.7 12.7
-6 1 12 22.9 13
1 -6 -12 56.09 13.5
-6 5 -12 54.19 13.5
-6 1 12 47.6 20.7
5 -6 12 51.99 21.3
-5 -1 -12 47.2 12.6
-5 6 12 60.59 15.6
5 1 -12 46.1 12.8
-1 -5 12 2.4 22.4
-5 6 12 30.4 18.1
1 -6 -12 41.4 10.6
-6 5 -12 49.99 16.3
1 5 12 65.99 22.5
6 -1 12 43.4 21.4
-1 -5 12 44.3 11.9
-1 -5 12 33.2 18.5
5 -6 12 72.49 23.7
5 -6 12 24.5 11.4
-6 1 12 -1.7 18.7
1 -6 12 51.79 21.1
1 5 -12 32.4 12.1
-1 6 12 47.5 19.4
-1 -5 -12 50.49 12.2
6 -5 12 39.6 20.3
-5 6 -12 46.8 12.3
-6 5 12 29.3 18
-5 -1 12 21.2 17.5
5 1 12 44.2 21
-6 1 -12 45.4 13.2
5 -6 -12 46.4 10.8
-6 5 12 67.29 16.2
6 -1 -12 62.89 12.9
1 -6 12 27.2 19.1
6 -5 12 55.59 22
-5 -1 12 55.89 21.3
-1 -5 -12 29.7 9.8
5 -6 -12 36.4 12
1 -6 12 58.09 13
-6 6 -12 36.9 12.6
6 0 12 42.2 22.4
6 0 -12 30.8 11.4
-6 6 12 29.1 14
0 -6 -12 22.7 9.9
-6 0 12 18.9 17.8
0 -6 12 34.2 20.3
-6 0 -12 31.6 12.3
0 6 -12 34.1 13.5
6 -6 12 45.2 23.2
0 -6 -12 25.3 12
-6 6 -12 28 15.3
-6 0 12 15.7 17.3
0 -6 12 22 11.6
6 -6 12 38.4 21.1
0 6 12 32.3 19.5
6 -6 -12 41.8 11.3
-6 6 12 53.09 20.7
-7 3 12 113.69 17.6
-3 7 -12 73.69 13.8
7 -4 -12 72.29 12.3
4 3 -12 83.79 14.8
3 4 12 103.19 24.4
7 -3 12 88.99 24.2
4 -7 12 125.69 25.8
-7 4 -12 80.59 14.2
-3 -4 12 101.39 22.9
4 -7 12 80.69 14.1
-7 4 -12 109.29 17.8
7 -3 12 51.79 20.4
-4 7 12 115.59 17.7
-7 3 12 86.99 21.9
-4 7 12 71.19 20.2
3 -7 -12 115.19 14.4
-4 -3 -12 81.89 13.6
-3 -4 12 84.29 13.8
4 -7 12 80.39 23.4
4 -7 -12 85.29 12.8
4 3 12 71.49 21.7
3 -7 12 93.39 14.7
-3 7 12 80.49 15.7
3 -7 12 48.9 20.4
7 -4 12 89.79 23.9
3 -7 12 88.79 22.4
-4 -3 12 59.49 12.8
7 -4 12 106.69 26.1
-4 -3 12 91.49 24
-7 4 12 67.79 15.9
-3 7 12 76.89 21.2
-4 7 -12 100.69 15.6
3 4 -12 39.5 12.4
-7 4 12 93.49 22.1
7 -3 -12 98.29 14.2
-7 3 -12 71.89 14.4
-3 -4 -12 81.59 14
-5 -2 -12 19.7 10.9
-7 5 -12 13.8 12.2
5 2 -12 11.2 11.6
5 -7 12 26.1 21.9
-2 -5 12 15.1 10.7
5 -7 12 5.8 10.2
-5 7 12 10.5 17.5
-7 5 -12 14.9 14.9
-2 -5 12 21.4 18.9
2 5 12 2.6 18.6
7 -5 -12 25.5 10.6
-7 2 12 14.6 19.2
-2 7 -12 25.5 12.4
-5 7 12 31.4 14.9
7 -2 12 9 20.2
2 -7 -12 14.1 9.5
-7 2 12 18.9 13.6
5 -7 12 21.9 19.4
-2 7 12 50.39 20.4
2 5 -12 3.6 12.9
-7 5 12 42.2 15
5 -7 -12 44.1 10.9
-2 7 12 33.7 14
7 -2 -12 40.2 11.3
-2 -5 -12 58.39 13.2
5 2 12 27.2 20.9
-7 2 -12 31.9 12.1
-7 5 12 35.5 19.1
2 -7 12 59.69 22
2 -7 12 7.1 19.3
-5 -2 12 39.6 12.3
-5 -2 12 42 20.4
7 -5 12 61.09 24.3
7 -5 12 51.59 21.7
-2 -5 -12 34.6 10.2
2 -7 12 53.19 13.2
-5 7 -12 47.6 13.2
-6 7 12 176.48 27.1
6 -7 12 100.29 14.9
6 -7 12 116.49 24.6
-7 6 -12 124.99 16.2
-1 -6 12 145.79 16.5
-6 7 12 114.29 17.5
7 -6 -12 161.08 16.1
-6 -1 -12 89.39 13.9
6 -7 12 173.28 29.3
6 1 -12 115.89 15.7
1 -7 -12 121.49 13.9
-7 6 -12 140.39 19.9
7 -1 12 151.88 28.8
-1 -6 12 150.68 26.7
-1 7 -12 84.09 14.9
1 6 12 94.39 22.2
7 -1 -12 139.09 17.8
-7 1 -12 105.99 14.7
-7 6 12 177.58 30.3
6 1 12 171.58 27.6
1 6 -12 129.89 18.9
6 -7 -12 134.49 16.2
-6 7 -12 125.09 17.9
-6 -1 12 128.09 17.2
-1 7 12 169.18 26.1
-1 7 12 135.49 19.7
1 -7 12 138.59 18.3
-1 -6 -12 124.79 16.1
-6 7 -12 103.29 18.2
7 -6 12 164.78 28.9
-7 6 12 130.69 17.8
7 -6 12 205.48 30.5
1 -7 12 191.38 31.1
-6 -1 12 135.59 25.4
7 0 12 47.8 22.3
0 7 -12 43 13.7
7 -7 12 62.79 21.9
0 -7 12 65.99 12.9
7 -7 -12 73.39 12.7
-7 7 -12 71.29 14.5
0 -7 12 62.99 21.6
-7 7 12 58.69 15.2
-7 7 12 47.3 19.9
0 -7 -12 39.6 10.8
-7 0 12 25.7 18.8
7 -7 12 60.09 26
-7 7 -12 64.59 16.8
0 7 12 10 17.6
-7 0 12 22.2 10.3
7 0 -12 76.49 14.4
-7 0 -12 43.3 11.6
-4 -4 -12 113.39 17.4
-4 -4 12 179.58 32.3
4 -8 -12 127.79 16.4
-8 4 -12 131.19 18
8 -4 12 114.89 26
-4 8 -12 119.79 18.2
-8 4 12 159.88 18.9
-4 -4 12 128.99 19.5
4 -8 12 175.68 18.4
8 -4 -12 121.89 17.2
-8 4 12 118.59 24.3
-4 8 12 132.49 25
4 -8 12 203.38 30.2
-8 4 -12 170.18 20.6
8 -4 12 135.49 26
4 4 -12 143.79 19.7
-4 8 12 160.58 19.5
4 -8 12 81.59 22.1
-5 8 12 58.19 14.7
-5 8 12 63.79 21.9
-8 5 -12 58.49 16.6
5 -8 12 40.4 11.3
8 -3 12 3 20.1
8 -5 -12 59.19 11.7
3 -8 -12 52.99 11.2
-5 -3 -12 51.99 12.5
-3 8 -12 41.4 12.6
5 -8 12 36.4 21.4
-8 3 12 68.19 15.5
-8 3 12 35.4 20
-3 -5 12 47.7 12.2
8 -3 12 62.99 24.6
5 3 -12 34.6 12.6
3 5 12 2.6 25.4
-8 5 -12 48.3 13.1
5 -8 12 65.99 22
-3 -5 12 63.19 22.3
-8 3 -12 86.09 16.9
3 5 -12 72.89 14.2
-5 -3 12 97.69 24.4
8 -5 12 71.19 21.7
-8 5 12 100.29 16.7
-3 8 12 77.59 16.4
8 -3 -12 93.09 14.1
-5 8 -12 77.29 14.3
3 -8 12 69.69 21.3
-8 5 12 99.09 24.3
5 -8 -12 86.79 12.9
3 -8 12 74.39 13.5
8 -5 12 134.59 29.2
-3 -5 -12 103.39 15.2
-5 -3 12 102.09 15.2
-8 3 -12 74.39 13.8
-3 8 12 83.89 22.4
6 -8 12 24.6 21.9
-6 8 12 33.9 20.3
-6 8 12 27.5 13.6
-8 2 12 13.1 12.5
8 -2 12 12.3 22.1
6 2 -12 13.1 11.8
-8 6 -12 20.9 15.3
8 -6 -12 17.1 9.7
-2 -6 12 25.8 11.6
-2 -6 12 13 18.8
6 -8 12 37.7 20.2
6 -8 12 14.6 10.5
-8 6 -12 17.5 11.9
2 -8 -12 13.8 9.4
-2 8 -12 11.1 11.9
-6 -2 -12 16 10.4
-8 2 12 4.7 18.3
-6 -2 12 20.1 11.6
-8 2 -12 11.5 10.5
8 -2 -12 18.4 10.1
2 6 -12 -1.7 10.2
2 6 -12 4.3 13
2 -8 12 22.8 11.5
6 2 12 6.6 19.3
-6 -2 12 4.7 19.1
-2 -6 -12 19 10.4
-8 6 12 34.3 20.9
-6 8 -12 20.7 12.3
2 -8 12 11.9 18.2
6 -8 -12 21.1 9.8
-6 8 -12 11.6 15.2
-8 6 12 39.8 14.2
8 -6 12 30.5 20.7
-2 8 12 30 13.8
-2 8 12 15.6 19
7 -8 12 120.39 25.7
7 -8 12 55.99 12.6
-1 -7 12 97.79 24.4
8 -7 -12 64.69 12.2
-8 7 -12 101.19 18.9
1 -8 -12 106.69 14
8 -1 12 79.89 25
-8 7 -12 92.49 15.2
7 1 -12 72.29 14.3
7 -8 12 112.79 28.2
-1 8 -12 103.19 16.2
-7 8 12 70.59 21.5
-7 8 12 105.79 17.4
-1 -7 12 121.49 15.1
-7 -1 12 66.19 13.2
8 -7 12 75.29 22.2
1 -8 12 72.79 21.9
-7 -1 12 81.99 22.5
8 -1 -12 95.79 13.9
-7 8 -12 79.99 17.2
7 -8 -12 87.29 12.8
1 -8 12 100.39 14.5
1 7 -12 56.99 13.8
-7 8 -12 70.99 13.9
-8 7 12 69.39 22
-1 -7 -12 59.69 12.1
-8 8 -12 61.19 16.9
8 0 12 4.4 21.3
8 -8 -12 39.6 10.9
8 0 -12 64.79 13.5
-8 0 12 1.8 19.6
8 -8 12 74.19 24.2
-8 8 -12 46 13.2
-8 8 12 68.09 24.5
-8 0 12 38.6 11.9
0 -8 12 61.99 21.4
0 -8 -12 46.2 11.6
0 8 -12 59.59 14.8
0 -8 12 85.29 13.7
-8 8 12 79.89 15.9
-9 5 -12 23 15.6
-5 9 12 11.1 20.3
-5 -4 -12 10.6 11.4
5 4 -12 13.1 12
9 -4 12 6.6 20.3
5 -9 12 32.1 11.8
-4 -5 12 17.1 19.7
-9 4 12 27.4 14.7
-9 4 12 14.4 20.8
9 -5 -12 14 9.7
4 -9 -12 10.5 9.4
-5 9 12 20.6 13.7
5 -9 12 0.8 19.1
-9 5 -12 4.9 11.5
-4 -5 12 15 11.4
-4 9 -12 9.6 11.5
5 -9 12 9 21
9 -4 12 14.3 22.7
4 5 -12 15.8 12.4
-9 5 12 -5.4 20.6
-5 9 -12 16.6 12.3
-9 4 -12 12.8 14.2
4 -9 12 10.1 10.8
-9 5 12 19.4 13.9
-5 -4 12 4.3 11.2
-9 4 -12 1.1 10.5
4 -9 12 3.4 19
9 -4 -12 9.8 10.2
9 -5 12 -4.1 19.2
-4 9 12 11.5 13.8
-5 -4 12 2.4 20
-4 -5 -12 0.7 3.9
-4 9 12 0.8 18.6
-4 -5 -12 6.3 9.5
5 -9 -12 17.7 10.1
-3 -6 12 37.6 11.8
-6 9 12 40.9 14.3
6 -9 12 59.39 22.8
-3 -6 12 56.79 21.9
-3 9 -12 49.1 13.5
-6 9 12 48.8 22.3
6 -9 12 40.8 21
9 -6 -12 54.39 11.6
9 -3 12 47.5 25.2
6 3 -12 48.9 12.8
6 -9 12 41.1 11.8
-9 3 12 45.8 15.1
-9 3 12 3.5 20
3 -9 -12 52.59 11.1
-9 6 -12 60.09 16.9
-6 -3 -12 44.8 11.7
-9 6 -12 67.89 14.4
-9 6 12 34.7 21.4
-6 -3 12 43.1 20.9
-3 9 12 60.69 14.8
3 -9 12 51.29 13.3
-9 6 12 45.3 15
-3 9 12 4.3 18.5
6 -9 -12 36.7 10.4
9 -6 12 44.3 21.2
-9 3 -12 47 15
-6 9 -12 41.2 15.1
-3 -6 -12 33.8 11.8
-6 9 -12 61.39 13.9
9 -3 -12 49.1 11.9
3 6 -12 41.9 12.9
-6 -3 12 60.79 13.1
3 -9 12 53.09 22
-2 -7 12 87.99 14.2
7 -9 12 62.59 23.5
-2 9 -12 60.29 13.8
7 -9 12 102.69 24.6
-9 7 -12 52.99 13.3
2 -9 -12 78.99 12.5
9 -7 -12 71.29 12.4
-2 -7 12 68.49 21.8
9 -2 12 37.1 22.8
7 2 -12 68.39 13.8
-7 9 12 88.99 24.3
7 -9 12 66.69 13.6
-9 7 -12 81.09 17.8
-7 9 12 79.09 16
-7 9 -12 78.29 17.3
-7 9 -12 73.09 14.6
-7 -2 12 61.79 23
9 -2 -12 68.29 12.5
-9 7 12 64.19 15.5
-7 -2 12 65.09 13.3
9 -7 12 62.09 23.1
2 -9 12 70.79 22
7 -9 -12 42.3 10.3
-2 9 12 28.9 14.2
-9 7 12 73.89 23.2
2 -9 12 59.59 12.2
-2 -7 -12 81.39 13
8 1 -12 -6.9 11.4
-1 -8 12 5.7 18.1
9 -1 12 2.5 22.1
1 -9 -12 8.4 9.9
9 -8 -12 20 10.3
-8 9 12 15.4 21.2
-9 8 -12 5.6 12
-9 8 -12 8.5 14.7
8 -9 12 -7.4 18.6
-1 9 -12 7.5 13
-9 1 12 -0.1 10.4
-8 9 12 9.7 12.7
-1 -8 12 12.3 11.1
-8 9 -12 8.5 12.1
-1 -8 -12 -1 3.6
-8 9 -12 11.8 14.9
-9 8 12 6.6 21.9
8 -9 -12 6.1 8.9
1 -9 12 -1.6 18
1 -9 12 3.6 10.1
1 8 -12 10.8 12.4
9 -1 -12 1.2 10
-1 -8 -12 17.8 10.7
-9 8 12 23 13.8
-8 -1 12 -10.6 18.9
-8 -1 12 3 11.1
9 -8 12 10.4 19.4
9 -9 12 -2.4 19.3
-9 0 12 -2.4 11.6
-9 9 -12 -3.6 14.4
0 -9 12 0 10.3
-9 9 12 2.6 13.5
-9 9 -12 0.8 11.9
0 -9 12 0.3 17.9
9 -9 -12 9.4 9.3
0 9 -12 1.8 12.7
-9 0 12 -2.8 25
0 -9 -12 6.7 10.4
0 -9 -12 1.2 4.8
9 0 -12 -3.4 10.9
-9 9 12 20.1 21.5
-5 10 12 32.5 14.9
-5 10 12 7.9 20.1
10 -5 12 1.5 20.3
-10 5 12 11.9 13.7
-10 5 -12 5 14
5 5 -12 9.2 12.3
10 -5 -12 5.8 9.9
5 -10 12 21.8 20.3
-5 10 -12 8.6 11.1
-5 -5 -12 0.1 3.7
5 -10 12 9.6 10.5
-10 5 -12 3.2 11.1
-5 -5 12 2.8 19
5 -10 -12 17 9.1
-5 -5 12 15.8 11
-10 5 12 3.7 21.1
-10 4 12 68.09 15.7
6 4 -12 74.29 14.6
-10 6 -12 63.99 16.6
4 -10 -12 98.19 13.6
-10 6 -12 53.39 12.6
-4 -6 12 68.89 13.4
6 -10 12 50.99 22.1
-6 10 12 59.09 15.4
-4 -6 12 87.49 23.8
6 -10 12 82.89 13.8
10 -6 -12 75.19 12.3
-6 10 12 70.59 22.9
10 -4 12 58.19 25.3
-4 10 -12 76.99 14.3
-4 10 12 87.59 16.6
-6 -4 12 80.29 13.9
6 -10 -12 119.69 14.4
-4 -6 -12 64.09 12.1
4 -10 12 139.89 16.5
10 -6 12 83.19 24
-6 10 -12 108.29 16
-6 -4 12 90.09 23.3
10 -4 -12 67.89 12.2
-10 6 12 131.89 18.9
-10 6 12 80.29 24.3
4 6 -12 99.19 15.2
4 -10 12 102.99 24.4
-10 4 -12 105.09 17.2
-3 -7 12 29.9 20.6
7 3 -12 50.89 13.3
-10 7 -12 36.5 12
7 -10 12 37.8 12
7 -10 12 40.4 20.7
10 -7 -12 34.9 10.9
10 -3 12 27.7 22.6
-3 -7 12 32.3 12.2
-3 10 -12 28.2 12.4
3 -10 -12 55.69 12.1
-7 10 12 35.1 21.7
-7 10 12 34.6 14.4
-10 3 12 27.8 13.1
7 -10 12 12.3 25.3
-10 7 -12 30.8 15.4
3 -10 12 14.1 10.5
-10 7 12 27.4 14.3
-3 10 12 7.7 13.1
-7 -3 12 18 11.1
-7 10 -12 34.3 15.1
10 -7 12 13.2 20.4
-7 10 -12 16.6 11.8
-7 -3 12 14.8 21
3 7 -12 24.3 12.2
10 -3 -12 18.4 9.7
-3 -7 -12 10.8 10.2
-10 3 -12 29.3 14.3
7 -10 -12 27.9 10.2
-10 7 12 38.3 23.6
3 -10 12 30 19.6
-10 8 -12 64.99 17.3
-10 8 -12 35 12.6
-2 -8 12 45.2 12.1
8 2 -12 53.59 13.6
8 -10 12 45.2 21.4
8 -10 12 25.8 11.1
10 -8 -12 54.89 11.7
10 -2 12 3.7 32.2
-2 -8 12 47.4 21
-8 10 12 29.7 21.7
-8 10 12 33.8 14.4
2 -10 -12 64.39 12.5
-2 10 -12 26.5 12.5
10 -2 -12 56.49 11.7
-2 -8 -12 62.09 12.2
-10 8 12 68.69 24.6
-8 -2 12 36.5 21.1
-8 10 -12 67.29 16.7
2 -10 12 57.99 20.1
-8 10 -12 93.89 15.8
8 -10 -12 72.49 12.2
2 -10 12 71.79 12.8
10 -8 12 72.19 23.1
-10 8 12 98.29 16.9
-8 -2 12 77.99 13.7
1 -10 -12 -7.7 9.3
1 -10 -12 -0.7 3.8
-1 -9 12 14.8 10.9
-10 1 12 7.3 11.2
-9 -1 -12 -0.2 3.4
-9 10 12 10.6 13.6
-10 9 -12 16.9 12.5
-10 9 -12 7 14.6
10 -9 -12 7 9.8
-9 10 12 18.2 21.6
9 1 -12 7.3 11.4
-1 -9 12 2.5 18.7
9 -10 12 8.7 20.1
-1 10 -12 5.9 12.7
-9 -1 12 3.4 11.8
-10 9 12 8.2 13.5
9 -10 -12 4.6 9.3
1 -10 12 12.5 18
1 -10 12 7.7 10.5
-1 -9 -12 -1.5 3.8
10 -9 12 2.7 19.5
10 -1 -12 9.1 10.5
1 9 -12 12.7 12.5
-9 10 -12 6.3 12.1
-1 -9 -12 15.1 10.1
-9 -1 12 -2.9 18.4
-10 9 12 7.8 21.2
-9 10 -12 -2.3 14.3
10 -10 12 13.8 20.9
-10 10 12 -1.5 14
0 -10 -12 1.5 4.8
-10 10 -12 12.3 11.9
0 -10 12 11.1 10.3
0 10 -12 15.1 13.1
0 -10 -12 15 10.1
-10 10 12 -7.4 21.8
0 -10 12 5.2 17.6
-10 10 -12 4 14.3
-10 0 12 3.6 11.1
10 0 -12 2.8 11.1
10 -10 -12 8 9.2
-5 11 -12 0 11
-5 -6 12 27.6 11.9
-6 11 12 17.3 13.6
-6 -5 -12 2.3 4.7
-11 6 -12 22.8 14.7
6 -11 12 26.5 11.7
-11 5 12 29.7 14.8
11 -6 -12 6.6 10
-5 -6 12 11.2 19.4
6 5 -12 19.9 11.9
5 -11 -12 14.4 9.8
6 -11 12 8.7 19.3
11 -5 -12 24.7 10.3
6 -11 -12 14.9 9.4
-6 -5 12 44.6 22.1
-6 -5 12 33.1 12.1
-11 6 12 -6.8 21.1
-5 -6 -12 13 9.5
-6 11 -12 36.4 13.5
5 -11 12 22.3 18.9
5 6 -12 33.7 12.9
-11 6 12 34.5 15.4
-5 11 12 25.3 14
-11 5 -12 33 15.4
5 -11 12 20.9 11
11 -6 12 5.7 20
-4 -7 12 180.78 31
4 -11 -12 134.09 16.3
-11 4 12 90.69 16.5
7 -11 12 140.19 18.2
11 -7 -12 112.59 13.9
-11 7 -12 112.89 18.2
-4 -7 12 139.89 18.4
7 4 -12 119.79 15.6
7 -11 12 112.39 24.9
-4 11 -12 141.79 17.1
-7 11 12 122.39 17.6
-7 -4 12 106.79 14.7
4 -11 12 110.09 23.7
-11 4 -12 142.09 18.6
-4 -7 -12 124.99 15
11 -7 12 79.29 23
11 -4 -12 128.19 14.9
-7 11 -12 76.49 15.8
4 -11 12 159.98 16.6
7 -11 -12 92.29 12.8
-11 7 12 90.29 24
-7 -4 12 111.09 25.8
4 7 -12 124.79 16
-11 7 12 98.29 17
-4 11 12 58.79 14.1
-3 11 -12 41.4 12.6
8 3 -12 60.29 13.7
8 -11 12 47.5 21.2
-8 11 12 -2.1 21.1
11 -8 -12 60.19 11.8
-11 8 -12 72.09 16.5
-3 -8 12 40.1 20.7
-11 8 -12 45.6 12.8
8 -11 12 79.09 13.8
-3 -8 12 60.99 12.7
3 -11 -12 54.19 11.9
-8 11 12 68.29 15.7
3 -11 12 33.2 18.9
3 8 -12 30.2 12
8 -11 -12 31 10.2
-8 11 -12 29.5 15
-11 8 12 48.5 15
-11 8 12 15.9 21.6
-8 -3 12 50.99 13.2
-8 11 -12 42.7 12.6
11 -8 12 28.3 20.9
-3 -8 -12 27.5 10.9
11 -3 -12 38.3 11
-8 -3 12 19.8 20
3 -11 12 37.9 11
-2 11 -12 28.7 13.1
-2 -9 12 26.6 11.7
-11 9 -12 12.8 11.8
-11 9 -12 19.7 14.7
-9 11 12 36.4 14.5
11 -9 -12 18.4 9.8
9 2 -12 31.3 12.3
2 -11 -12 11.6 10.3
-2 -9 12 18.5 19.5
9 -11 12 15.8 20.5
-9 11 12 1.3 20.7
9 -11 12 17.1 11
-11 2 12 11.8 10.6
-9 11 -12 19.9 15.5
-11 9 12 21.3 22.1
9 -11 -12 35.2 11.1
-9 11 -12 42.2 12.6
2 9 -12 -2.3 10
-9 -2 12 -1.1 19.1
-9 -2 12 31.6 12.1
2 -11 12 25.3 10.8
2 -11 12 16.2 17.9
-2 -9 -12 21.5 11
-11 9 12 32.3 14.1
11 -9 12 26.2 20.8
11 -2 -12 35.2 11
11 -10 -12 7.8 9
-10 11 12 8.7 13.1
-10 11 12 -1.8 20.9
-1 -10 12 21.4 10.9
1 -11 -12 18 10.3
10 -11 12 17.9 19.6
1 -11 -12 0.9 4.5
10 -11 12 12.3 10.7
-11 10 -12 13.9 14.2
10 1 -12 23.5 12.2
-1 11 -12 9.1 12.7
-1 -10 12 5.3 18.3
-11 10 -12 18.8 12
-10 -1 -12 -0.1 3.8
-11 1 12 5.8 11.2
-11 10 12 1.6 21.9
11 -10 12 3.3 19.5
-10 11 -12 9.3 14.6
-1 -10 -12 1.2 4.9
-1 -10 -12 11.3 10.8
1 -11 12 -2 17.5
-11 10 12 9.7 13.4
1 10 -12 6.4 12
-10 11 -12 15.6 11.6
1 -11 12 4.8 10.1
-10 -1 12 2.5 11.3
11 -1 -12 5.2 9.5
10 -11 -12 3.1 9.4
11 -11 -12 12.5 9.8
0 11 -12 11.4 12.4
11 -11 12 5.9 19
-11 11 12 16.4 13.7
-11 11 12 -1.6 20
0 -11 12 3.8 10.2
-11 11 -12 10 11.4
11 0 -12 0.4 10.4
-11 11 -12 10.4 13.7
-11 0 12 3 11.2
0 -11 -12 0.1 4.1
0 -11 -12 -3.7 9.3
-6 12 -12 147.19 17.3
-6 -6 12 68.79 23
6 -12 -12 136.09 15
6 6 -12 100.49 15.4
6 -12 12 123.19 15.2
12 -6 -12 96.69 13.6
-12 6 -12 157.98 19.3
-6 -6 12 125.29 18
-6 12 12 93.49 16.6
-12 6 12 88.89 16.3
-7 12 12 45.6 14.9
-5 12 -12 40.6 12.5
-12 5 12 51.89 14.7
-12 7 -12 52.79 15.6
5 -12 -12 59.19 11.5
7 5 -12 37.2 12.3
-5 -7 12 71.09 13.3
7 -12 12 12.9 19.1
7 -12 12 81.39 13.8
12 -7 -12 61.89 12.2
-5 -7 12 15.3 19.2
-5 12 12 17.6 12.7
5 7 -12 38 12.3
12 -5 -12 26.3 10.4
12 -7 12 2.4 29.4
5 -12 12 40.3 11.2
-7 -5 12 52.99 12.6
-12 5 -12 50.69 15.1
-7 12 -12 44.5 13.3
-5 -7 -12 34.5 11.3
-7 -5 12 1.4 19.5
-12 7 12 28 14.1
5 -12 12 6.2 18.1
7 -12 -12 58.19 11.5
-4 -8 12 17.6 18.6
-8 12 12 50.59 15.3
-12 4 12 19.7 13
-4 -8 12 75.69 13.4
8 -12 12 0.3 19.2
4 -12 -12 90.19 13.5
12 -8 -12 51.79 11.4
8 -12 12 61.09 12.8
-12 8 -12 60.59 15.3
8 4 -12 42.8 12.2
-4 12 -12 25.4 11.9
12 -4 -12 41.4 10.9
-12 8 12 -4.6 23.4
-4 -8 -12 64.09 12.5
-8 -4 12 82.89 14.1
-8 12 -12 74.09 14.3
12 -8 12 0.8 19.9
-12 8 12 57.29 15.5
8 -12 -12 58.29 11.4
4 -12 12 70.49 12.4
-12 4 -12 61.29 15.2
4 8 -12 32.1 12.2
-8 12 -12 46.2 14.4
9 3 -12 149.09 19.3
3 -12 -12 136.09 16.1
-3 -9 12 125.59 17.5
-9 12 12 138.09 18.5
9 -12 12 136.69 18.4
-3 12 -12 152.48 18.1
12 -9 -12 145.09 16.3
-3 -9 -12 100.19 14.1
-9 12 -12 120.49 17.7
12 -3 -12 101.69 13.6
-9 -3 12 109.99 15.2
3 9 -12 113.29 15.1
3 -12 12 154.08 16.2
-9 12 -12 83.99 16.4
9 -12 -12 114.19 15.4
-12 9 12 149.59 18.9
-12 10 -12 9.6 14
-10 -2 -12 0.2 3.7
-2 12 -12 3.9 12.2
-10 12 12 9.6 13.4
-2 -10 12 2.1 10.6
12 -10 -12 3.3 9
10 -12 12 0.2 10.4
10 -12 12 2.7 33.5
-12 10 -12 -0.9 10.5
2 -12 -12 0.6 5
10 2 -12 6 11.1
2 -12 -12 11.7 10
-12 2 12 2.7 10.3
-12 10 12 9.9 13.1
-10 -2 12 5.4 11.9
2 -12 12 7.4 10.4
12 -2 -12 6.8 10.5
-2 -10 -12 -0.5 3.6
10 -12 -12 6.1 8.9
-12 10 12 -2.5 20.8
-10 12 -12 15.2 14.5
-2 -10 -12 3.9 10.4
-10 12 -12 -9 10.8
12 -10 12 2 19.6
-12 1 12 28.7 11.5
-1 -11 12 53.49 12.2
1 -12 -12 32 10.6
12 -11 -12 19.5 9.9
-12 11 -12 29.6 14.4
-11 12 12 35.4 13.6
11 -12 12 48.4 12.8
-1 12 -12 32.5 12.9
11 1 -12 43.6 12.8
-12 11 -12 30.2 11.5
12 -1 -12 35.2 10.9
-12 11 12 35.3 13.3
1 11 -12 7.1 10.6
11 -12 -12 20.6 9.4
-11 12 -12 17.2 13.8
1 -12 12 47.4 11.8
-1 -11 -12 37 11
-11 -1 12 21.2 11.2
-11 12 -12 33.9 12.3
0 -12 -12 0.5 4
0 -12 12 6.3 9.7
0 12 -12 0.7 11.2
-12 12 -12 13.1 11.1
12 -12 -12 10.9 8.9
-12 0 12 6.3 10.7
12 0 -12 -2.9 10
-12 12 -12 4.3 12.9
0 -12 -12 -8.2 9.4
-12 12 12 10 12
7 6 -12 64.09 13.6
-7 13 12 61.09 15
-13 7 -12 100.09 17.2
-13 6 12 75.59 15.6
6 -13 -12 77.19 12.3
7 -13 12 63.79 12.2
-6 -7 12 79.79 13.1
-6 13 -12 52.29 12.3
13 -7 -12 66.89 11.6
7 -13 -12 73.39 12
-13 6 -12 85.09 16.5
-13 7 12 87.39 15.7
-7 13 -12 80.99 14
6 7 -12 67.69 13.8
-7 -6 12 129.69 15.7
6 -13 12 93.79 13.9
13 -6 -12 85.49 12.8
-13 5 12 104.99 15.7
-8 13 12 111.19 17.4
8 5 -12 108.29 15.2
8 -13 12 118.69 17.6
5 -13 -12 172.78 16.7
13 -8 -12 123.69 16.1
-5 -8 12 126.39 17.1
-5 13 -12 102.79 15
5 -13 12 106.59 15.8
-13 5 -12 160.58 18.5
-8 13 -12 122.39 16.9
-5 -8 -12 138.69 15.2
-13 8 12 135.69 17.8
5 8 -12 128.59 16.2
13 -5 -12 128.49 16.6
8 -13 -12 119.59 15.5
-8 -5 12 120.49 18.4
-4 -9 12 66.59 12.8
4 -13 -12 44.1 10.5
-9 13 12 35.7 14.1
-4 13 -12 21 11.4
13 -9 -12 36.7 10.3
9 4 -12 67.19 13.6
-13 9 -12 38 14.8
9 -13 12 62.89 13
-4 -9 -12 21.7 11
4 9 -12 20.8 11.3
-13 9 12 22 12.8
13 -4 -12 33.5 10.7
-9 13 -12 27.2 11.6
4 -13 12 34.1 11.3
-9 -4 12 26.2 11.6
9 -13 -12 23.8 10
-9 13 -12 20.4 12.8
-3 -10 12 8.2 10
-10 13 12 5.7 12.2
-10 -3 -12 -0.6 3.7
13 -10 -12 11.2 8.7
10 3 -12 -0.3 10.2
3 -13 -12 -0.3 4.4
10 -13 12 10.9 10.3
-13 3 12 -2.4 8.8
-3 13 -12 1.6 11
-13 10 -12 2.9 13.2
3 -13 -12 13.2 9.7
3 10 -12 8.6 10.1
13 -3 -12 12.6 9.7
-10 13 -12 10.2 10.7
3 -13 12 -2.6 9.4
10 -13 -12 4.9 9.2
-10 -3 12 9.6 11.7
-10 13 -12 6 12.9
-3 -10 -12 2.9 10
-13 10 12 7.5 12.1
-3 -10 -12 -0.3 3.8
-11 13 12 7.9 12.1
11 2 -12 6.8 10.3
11 -13 12 13.6 10.7
-2 13 -12 15.9 11.7
2 -13 -12 10.5 9.9
13 -11 -12 11.3 8.6
-2 -11 12 16.6 10
-13 11 -12 8.8 13.3
-13 2 12 12.8 10.2
-11 -2 12 5.1 10.6
-11 13 -12 15.8 10.8
13 -2 -12 11.3 9.9
-2 -11 -12 5.3 9.6
-11 13 -12 8.9 13.8
11 -13 -12 20.4 9.4
2 -13 12 7.2 9.8
-2 -11 -12 0.8 4.1
-13 11 12 -1.1 11.8
-13 12 -12 2.8 9.5
13 -12 -12 2.1 7.6
-1 -12 12 4.7 9.7
-13 12 -12 -0.6 12.9
-13 1 12 10 10.4
-1 13 -12 19.9 11.7
12 1 -12 19.2 11.2
-12 13 12 20.9 12
12 -13 12 18.4 10.7
1 -13 -12 20 10.3
-1 -12 -12 15.4 10.1
-12 13 -12 25.5 13.8
1 -13 12 18.5 10.3
-13 12 12 8.7 11.4
13 -1 -12 10.6 10
-12 13 -12 9.9 10.5
12 -13 -12 7.4 8.5
-12 -1 12 6.7 10.1
-13 13 -12 32.4 13.1
13 0 -12 41.1 10.5
0 -13 12 53.09 11.1
-13 13 -12 17.3 9.3
-13 0 12 29.5 10.6
-13 13 12 14.8 11.5
0 13 -12 14.1 10.1
13 -13 12 50.79 12.5
0 -13 -12 34.3 10.1
-14 7 12 127.89 18.2
-7 -7 12 134.79 17
7 -14 12 127.39 16.6
-14 7 -12 146.29 18.8
-7 14 -12 123.09 16.9
7 7 -12 129.79 17.6
14 -7 -12 142.29 15.7
6 -14 -12 28.2 9.7
8 -14 12 50.19 11.9
-14 6 12 28.6 12.2
8 6 -12 59.69 12.7
-6 -8 12 54.19 11.9
-6 14 -12 31.8 11.3
14 -8 -12 30.5 9.9
-14 8 -12 73.99 15.7
-8 14 12 27.2 12.4
8 -14 -12 27.4 10
-8 14 -12 21.9 10.8
-14 8 12 23.2 12.4
6 -14 12 22.4 10.1
-14 6 -12 20 13.5
14 -6 -12 24.9 10
6 8 -12 22.8 11.1
-8 -6 12 20 10.9
9 -14 12 24.9 10.4
5 -14 -12 26.7 10.2
-5 -9 12 22.4 10.5
-14 9 -12 27.1 14.2
9 5 -12 22.4 10.8
-5 14 -12 11.3 10.8
-9 14 12 14.4 12.3
14 -9 -12 17 8.6
5 9 -12 20.9 11.1
5 -14 12 20.6 10.3
9 -14 -12 2.3 12.7
14 -5 -12 12.3 9.8
9 -14 -12 17.9 9.9
-14 5 -12 18.6 12.7
-9 14 -12 23.8 11.6
-14 9 12 13.1 12
-9 -5 12 27.7 11.4
-14 10 -12 31.7 13.9
10 4 -12 57.99 12.5
4 -14 -12 18.2 9.6
-10 14 12 22.8 12.5
-4 14 -12 41.3 12
10 -14 12 46 11.9
14 -10 -12 2.7 7.3
-10 14 12 -6.5 10.4
-4 -10 12 53.89 12.1
14 -4 -12 39 10.4
10 -14 -12 36.7 10.4
-10 14 -12 23.8 10.7
-10 -4 12 31.2 11.6
10 -14 -12 0.4 15.9
4 10 -12 28.5 11.1
4 -14 12 41.4 11.1
-14 10 12 29.7 13.2
-10 14 -12 28.4 12.6
14 -11 -12 2 10.7
-3 14 -12 4.8 10.6
11 3 -12 3.7 9.9
-14 11 -12 3.8 11.9
-11 14 12 0.4 11.3
-3 -11 12 9.8 9.7
3 -14 -12 0.6 9.2
11 -14 12 11.7 10.1
-14 3 12 -1.7 8.5
3 -14 -12 1 4.3
11 -14 -12 6.4 9
11 -14 -12 -0.9 14.4
14 -3 -12 20.6 9.7
-11 -3 12 4.7 10.3
-3 -11 -12 -0.7 3.4
3 -14 12 9.2 9.9
3 11 -12 -2.2 8.9
-11 14 -12 3.9 10
-14 11 12 7.2 11.9
-11 14 -12 12.7 12.9
-12 14 12 6.6 11.2
-2 14 -12 13.5 11.3
-14 2 12 19.9 10.2
12 -14 12 11.4 10.1
-14 12 -12 10.9 12
12 2 -12 26.9 11.1
2 -14 -12 12.8 9.2
-2 -12 12 18.4 10.1
12 -14 -12 3 7.6
-12 -2 12 18.6 10.3
-12 14 -12 14.7 10.5
-12 14 -12 11.6 12.5
14 -2 -12 10 9.1
-14 12 12 17.1 11.5
2 -14 12 16.3 10
-1 14 -12 3.7 10.3
-14 13 -12 4.1 12.5
-1 -13 12 11.3 9.2
1 -14 -12 -0.8 3.4
13 -14 12 1.9 9.6
-14 1 12 2.9 9.5
13 1 -12 8.7 9.5
-13 14 12 7.5 10.7
14 -1 -12 0.1 8.9
1 -14 12 10.3 9.2
-13 14 -12 6.9 8.9
-13 -1 12 12.8 10.1
-13 14 -12 21.5 12.7
-14 13 12 0.4 10.4
-14 14 12 10.4 10.7
0 14 12 27.6 12.1
-14 0 12 28.7 10.1
-14 14 -12 32.7 12.6
14 0 -12 24.7 9.1
0 -14 12 31.3 9.5
14 -14 12 35.6 10.8
8 7 -12 42.6 11.4
7 -15 -12 28.7 9.9
-15 8 -12 54.19 14
-7 -8 12 64.49 12.5
8 -15 12 30.9 10
-7 15 -12 52.89 12.3
-8 15 12 42.1 14
7 -15 -12 2.9 9.7
-15 7 12 27.5 11.7
-8 15 -12 36.3 10.8
-15 7 -12 60.39 14.2
-7 15 12 42.2 13.7
7 -15 12 36.2 10
8 -15 -12 36.6 10
7 8 -12 37.9 10.9
15 -7 -12 23.9 8.4
8 -15 -12 5.7 10
-8 -7 12 79.19 13.2
-15 8 12 39.2 12.5
6 -15 -12 90.29 12.3
-6 -9 12 111.79 15.2
-6 15 -12 109.69 15.3
9 -15 12 108.99 15.7
-9 15 12 58.39 14.2
-9 15 12 63.19 12.9
9 6 -12 119.69 15.6
9 -15 -12 55.89 10.9
-9 15 -12 64.29 11.9
-15 6 -12 78.09 14.5
-9 -6 12 75.49 12.6
6 -15 12 100.79 12.7
6 9 -12 65.49 12.1
15 -6 -12 71.59 11
-15 9 12 75.09 14
-6 15 12 106.39 16.3
-15 10 -12 13.1 12.3
-10 -5 -12 3 4.8
10 5 -12 8.2 9.8
-5 15 -12 13.2 10.6
5 -15 -12 0.4 15.4
-5 -10 12 13.6 9.8
-10 15 12 5.2 10.8
5 -15 -12 1.6 4.5
10 -15 12 25.5 10.6
-10 15 12 6.6 11.5
5 -15 -12 13.1 9.4
-5 -10 -12 2.1 5
10 -15 -12 14.5 8.7
10 -15 -12 1.2 9.2
15 -5 -12 16 8.6
-5 15 12 10.9 12.6
-15 10 12 5.9 11.7
-10 15 -12 18.6 10.2
5 -15 12 12.3 9.3
5 10 -12 14.4 10.3
-10 -5 12 25.3 10.6
-15 11 -12 17.4 11.7
11 4 -12 24.3 10.2
-11 15 12 17.2 11
11 -15 12 14.4 10
-4 -11 12 13.1 9.7
-4 15 -12 6.7 10
4 -15 -12 17.9 9.6
-11 15 -12 2.9 10.2
15 -4 -12 16 9.1
11 -15 -12 0.4 8.5
-15 11 12 19.1 11.2
4 11 -12 16 9.8
-4 15 12 31.7 13.7
-11 -4 12 22.3 10.5
-11 15 -12 8.8 9.9
11 -15 -12 3 7.6
4 -15 12 20 9.3
-3 -12 12 4.5 9.2
-15 3 12 -1.3 9.2
3 -15 -12 11 8.9
-3 15 -12 10.5 9.9
3 -15 -12 0.6 3.5
-12 15 12 16.8 10.8
12 3 -12 27.3 10.5
12 -15 12 8.7 9.5
-15 12 -12 21.6 11.7
3 -15 12 5.7 8.8
-12 15 -12 14.4 11.6
-3 15 12 15.8 12.6
15 -3 -12 7.7 8.4
-12 15 -12 9.5 9.3
-3 -12 -12 1.1 3.8
-15 12 12 5.9 10.5
12 -15 -12 -0.7 8.9
-12 -3 12 17.7 9.7
-2 -13 12 6.8 9.1
-15 13 -12 20.2 12.4
-15 2 12 16.2 8.6
13 2 -12 13.9 9.5
13 -15 12 9 9.6
2 13 12 3.8 11.3
2 -15 -12 -0.5 3.4
-2 15 -12 11.2 9.7
-13 15 12 7.4 10
-13 15 -12 7.6 8.2
15 -2 -12 11 8.4
-13 15 -12 16.8 11.7
-13 -2 12 6.2 9.5
2 -15 12 12.4 8.4
-2 15 12 13.4 12
-15 13 12 7.4 10.3
14 1 -12 11.3 8.3
14 -15 12 8.1 9.6
-1 -14 12 10.2 8.4
-14 15 12 10.8 10.5
-15 1 12 9.3 8.6
-15 14 -12 15.6 11.3
1 14 12 11.3 11.5
-1 -14 -12 2 4.2
15 -14 12 12.7 9.9
-14 15 -12 20.1 11.8
15 -1 -12 8.2 8.5
-15 14 12 5 9.9
-1 15 12 16.1 11.3
1 -15 12 3 7.5
-14 -1 12 9.1 8.8
0 15 12 -3 10.5
-15 0 12 1.6 8.1
15 0 -12 1.5 7.8
0 -15 -12 0 2.9
15 -15 12 7.2 9.5
-15 15 -12 6.5 10.9
-15 15 12 -1.6 10
-16 8 -12 73.39 13.6
8 8 -12 50.19 10.9
-16 8 12 36.3 11.5
-8 16 -12 87.99 12.8
-8 16 12 56.89 13.9
8 -16 12 71.49 10.8
8 -16 -12 63.69 11
-8 -8 12 57.59 11.3
-7 16 -12 19.4 9.7
7 -16 -12 2.8 9.6
-7 -9 12 32.5 10.9
-9 16 12 22.8 12.4
9 7 -12 27.9 10.4
9 -16 12 29.3 9.5
-16 9 -12 17.1 11.7
7 -16 -12 22.4 9
7 -16 12 15.8 9.3
-9 -7 12 26.3 10.5
9 -16 -12 4.9 9.7
7 9 -12 20.7 10.2
-16 9 12 7.7 10.8
-9 16 -12 21.3 9.5
9 -16 -12 21 9.4
-16 7 -12 27.7 11.6
-7 16 12 24.5 12.6
6 -16 -12 0.6 10.8
6 -16 -12 0.9 3.8
-6 16 -12 9.7 9.4
-10 -6 -12 -1.1 3.1
10 -16 12 3.4 8.8
6 -16 -12 10.2 8.9
10 6 -12 -1.3 9
-10 16 12 3.2 10.5
-16 10 -12 4 11.3
-6 -10 12 10.2 9.4
-10 16 12 5.7 11.4
10 -16 -12 5.4 7.9
-10 16 -12 6.5 9.6
-16 10 12 8.7 10.9
-6 16 12 5.8 11.9
6 10 -12 6 9.5
10 -16 -12 -1.4 9.2
-6 -10 -12 0.7 3.7
6 -16 12 8.6 8.5
-10 -6 12 6.4 9.1
11 -16 12 7.9 9.7
5 -16 -12 0.2 3.4
11 5 -12 11.1 9.7
-16 11 -12 5.6 11.4
-5 -11 12 8 9.6
5 -16 -12 8.3 8.9
-11 16 12 8.6 9.9
-5 16 -12 9.8 9.6
5 -16 12 -0.9 8
5 11 -12 2.6 8.9
-5 -11 -12 0 3.2
-11 16 -12 1.4 9
-11 -5 12 0.6 9.5
11 -16 -12 0.8 9.1
-5 16 12 9.3 12.4
-16 11 12 4.3 10.4
12 4 -12 8.1 9.7
-16 12 -12 0.8 10.7
4 -16 -12 -0.1 3.5
-4 -12 12 9.3 9.2
-4 16 -12 10.1 9.2
12 -16 12 11.5 9.5
-12 16 12 2.2 9.9
-12 16 -12 5.1 8.6
-4 -12 -12 -0.4 3.2
-12 -4 12 19.2 9.8
12 -16 -12 0.4 9.1
4 -16 12 -1.4 8.6
-4 16 12 13.6 11.8
-16 12 12 6.2 10.7
16 -4 -12 1.5 7.3
3 -16 -12 0 3.2
13 3 -12 13 9.7
-13 16 12 15.6 10.4
-3 -13 12 7.3 9
13 -16 12 9 9.8
3 13 12 -5.7 10.5
-16 13 -12 4.1 10.9
-3 16 -12 4.6 9.2
-13 -3 12 4.5 9
-16 13 12 0 10.4
-3 16 12 15.4 11.8
-13 16 -12 9 7.9
-13 16 -12 4.1 11.6
16 -3 -12 3.1 6.5
-3 -13 -12 -1.2 2.7
-2 -14 12 -2.7 6.9
2 14 12 -0.5 9.1
-14 16 12 6.6 10.2
-16 2 12 -1.1 7.1
2 -16 -12 -1.4 2.7
-16 14 -12 1 10.9
14 2 -12 8.6 8.3
-2 16 -12 1.9 7.7
14 -16 12 3 9.6
-2 16 12 5.7 11.9
-14 16 -12 -4.4 9.4
16 -14 12 -0.2 9.8
16 -2 -12 0.5 6.3
-14 -2 12 1.8 9
-16 14 12 -3.4 10.3
-2 -14 -12 1.3 3.6
15 -16 12 -3.4 9.3
1 15 12 5.6 9.5
-15 16 12 10.3 10.3
-16 1 12 -5.2 7
15 1 -12 -2.8 7.5
1 -16 -12 -0.8 3.2
-16 15 -12 10.8 11.3
16 -15 12 2.2 9.5
-1 16 12 0.8 11.4
16 -1 -12 1.3 7
-1 -15 -12 -0.7 2.9
-15 16 -12 8 9.8
-16 15 12 6 10.6
-15 -1 12 -2.6 9.1
-16 16 -12 10.9 11
-16 16 12 9.1 11.9
16 -16 12 2.5 8.9
0 -16 -12 -0.7 3.1
-16 0 12 9.1 7.5
0 16 12 5.3 9.2
-17 9 -12 6.3 11
9 8 -12 0.9 8.9
-8 17 -12 7.4 9.1
8 -17 -12 -1 8.1
9 -17 12 -1.2 9.4
8 -17 -12 9.4 8.1
-9 17 12 2.5 11.9
-8 -9 12 4.5 9.1
-9 -8 -12 -0.4 2.8
-17 8 -12 7.9 10.8
-8 17 12 0.8 12.3
9 -17 -12 9.2 7.7
9 -17 -12 -2.5 8
8 9 -12 6.4 8.9
-8 -9 -12 0.6 3.3
-9 -8 12 -6.1 8.6
-17 9 12 7.4 9.1
-9 17 -12 5.6 9.4
-7 -10 12 15.7 9.6
7 -17 -12 -0.1 3.1
-10 17 12 5.8 9.5
-7 17 -12 7 8.9
-17 10 -12 23.6 12.1
10 -17 12 -0.2 6.9
7 -17 -12 1 9.5
-10 -7 -12 -1.1 2.5
10 7 -12 19.6 9.7
10 -17 -12 1.9 8.5
-17 10 12 9.4 10.6
-10 17 -12 1.5 9
-10 -7 12 13.4 9.4
-7 -10 -12 -0.5 2.8
-7 17 12 6.2 12.5
7 10 -12 11.9 9.5
-6 17 -12 22.1 9.2
11 -17 12 3.1 6.9
-17 11 -12 9.3 11
-6 -11 12 18.8 9.5
11 6 -12 35.9 10.5
11 -17 -12 0.9 8.2
-11 17 -12 25.3 9.4
-11 -6 12 18.5 9.4
6 11 -12 26 9.5
-17 11 12 8 10.8
-6 17 12 20.4 13.2
-5 17 -12 11.9 9.4
-5 -12 12 22 9.3
12 5 -12 28.8 9.5
-17 12 -12 33.9 11.3
12 -17 12 0.5 7
-12 -5 12 20.5 9.7
-17 12 12 21.2 11.1
-5 17 12 18.8 13.2
-12 17 -12 21.3 9
-4 -13 12 1.9 7.1
-13 17 12 5.6 9.1
13 -17 12 1.7 7.4
-17 13 -12 6 10.8
4 -17 -12 -0.7 2.4
-4 17 -12 0.7 8.6
13 4 -12 6 9.9
-4 17 12 -2.6 11.9
-13 -4 12 0 8.5
-4 -13 -12 0.8 3.6
-13 17 -12 2.6 7
-17 13 12 -1.4 10.6
3 -17 -12 0.6 3.2
-14 17 12 3.2 8.8
-17 14 -12 4.9 11.2
14 3 -12 10.2 8.4
-17 14 12 5.4 10.9
-3 -14 -12 3.3 4.6
-14 -3 12 6.7 9.7
-3 17 12 1.6 13
17 -14 12 6.7 10.3
15 2 -12 -4.2 7.7
-17 15 -12 -4.1 11.6
-15 17 12 -1.1 9.7
2 -17 -12 1.5 3.9
-15 -2 12 -5.6 9.9
-2 -15 -12 -0.6 3.6
-2 17 12 2.5 13.7
-17 15 12 1.9 11.6
17 -15 12 -8.1 10.1
-9 -9 12 -3.6 9.2
9 9 -12 16.6 11.3
-9 -9 -12 0.6 3.4
-9 18 -12 2.8 9.6
-9 18 12 12.7 11.8
9 -18 -12 -0.2 2.8
-8 -10 12 13.3 9.8
-18 10 -12 13.3 11.6
-8 18 -12 14.7 10.5
10 8 -12 16.3 10.2
-8 18 12 9.9 13.8
-10 18 -12 7.2 9.7
-10 -8 12 3.4 9.3
-8 -10 -12 0.5 3.7
8 10 -12 17.6 9.7
11 7 -12 21.9 10
-7 18 -12 23.8 10.6
-7 -11 12 22.7 9.7
-18 11 -12 11.2 11.9
-11 18 -12 25.8 10.2
-11 -7 12 22.7 10.4
7 11 -12 19.7 9.1
-18 11 12 1.6 8.8
-7 18 12 21.1 14.3
-6 18 -12 4.2 10.2
6 -18 -12 0.5 3.3
-6 -12 12 -2.2 9
-18 12 -12 5.9 11.6
12 6 -12 6.3 9.9
-12 -6 12 6.2 10.2
-18 12 12 0.7 10.9
-6 18 12 -6.7 14.1
-6 -12 -12 2.2 4
-12 18 -12 7.5 9.2
13 5 -12 8 10.6
5 -18 -12 2.7 4.6
-5 18 -12 9.2 9.5
-18 13 -12 3.6 12
-18 13 12 9.3 11.8
-13 -5 12 14.4 10.5
-5 18 12 9.7 14.6
0 0 -13 3.7 14.5
0 0 -13 2 13.5
0 0 13 17.5 19.3
0 -1 -13 4 9.3
-1 1 -13 19.5 13
1 -1 -13 9.4 10
0 1 -13 32.6 13.8
0 -1 13 24 19.8
1 0 13 13.9 18.2
1 0 -13 10.1 9.9
-1 0 13 21.5 19.5
0 -1 -13 9.3 12.3
-1 0 -13 13.4 13
1 -1 -13 16.3 12.7
-1 1 13 13.1 18.6
1 -1 13 10.7 17.5
0 1 13 7.1 18.4
1 0 -13 28.1 14.2
-1 2 -13 48.8 14.6
2 -1 13 32.4 20.1
1 1 13 30.2 19.6
-2 1 13 41.6 20.6
2 -1 -13 30.3 11.4
1 -2 -13 25.1 10.6
-1 -1 13 -0.7 29.9
1 1 -13 63.69 15
-1 -1 13 49 22.2
2 -1 -13 46.2 14.1
1 -2 13 1.5 18.6
-1 -1 -13 57.89 14.6
-1 2 13 59.29 22.1
1 -2 -13 57.19 14.9
-2 1 -13 56.19 14.8
1 -2 13 49 21.1
2 -2 13 9.1 19.6
2 -2 -13 22.7 13.4
0 -2 -13 4.2 12.5
0 -2 13 20.4 19.2
0 -2 13 7 17.9
0 -2 13 -0.6 13.1
0 2 13 -1.2 19.4
-2 0 -13 9.2 12.5
2 -2 -13 3.6 10.5
2 -2 13 -1.6 20.5
2 0 -13 16.1 13.8
-2 0 13 0.3 19.4
2 0 -13 2.5 10.2
0 2 -13 8.4 13.3
0 -2 -13 11.3 10
2 0 13 10 19.3
-2 2 13 11.2 18.2
-2 2 -13 8.6 12.8
-3 1 13 32.2 19.6
-1 -2 13 -0.7 8.9
2 1 -13 24.4 11.2
1 -3 -13 29.7 12.3
-1 -2 13 33.6 21.1
1 -3 -13 32.6 11.1
2 -3 13 29.5 20.9
-1 3 -13 28.9 13.1
-1 -2 13 10.4 17.9
3 -1 13 21.4 20.1
3 -2 -13 26.5 11
2 -3 13 21 19.8
-2 3 13 38.9 20.9
2 1 -13 30.5 14.3
-2 -1 -13 47.6 13.8
-3 2 -13 32.8 13.3
1 2 13 29.3 20
2 -3 13 10.1 10.9
3 -2 -13 22.5 13
-1 -2 -13 24 12.8
-2 -1 13 45.4 21.2
-1 -2 -13 1.4 8.2
2 -3 -13 31.5 12.6
-3 2 13 31.5 19.3
2 1 13 34.4 18.8
3 -1 -13 26.3 11.2
-1 3 13 45.8 20.9
1 -3 13 16.4 19.2
1 2 -13 33.7 14
-2 3 -13 29.7 12.9
-2 -1 13 0 19.6
3 -2 13 34.4 21.2
1 -3 13 28.1 11
-3 1 -13 39.1 14
1 -3 13 40.3 20.6
1 2 -13 0.4 9.2
3 -1 -13 14.8 13.1
2 -3 -13 26.3 10.8
0 -3 13 48.3 21.1
0 -3 13 48.2 11.8
-3 3 -13 41.2 13
0 -3 -13 63.49 14.3
3 -3 -13 59.19 14.6
-3 3 13 37.9 19.2
3 -3 13 43.3 21.3
3 0 -13 55.09 12.6
-3 0 13 87.59 24.4
0 3 13 65.09 22.5
0 -3 -13 40.1 10.6
-3 0 -13 35.1 13.3
0 3 -13 45.6 13.8
3 -3 13 43.3 20.8
3 0 -13 46 14.3
3 0 13 59.29 22.3
0 -3 13 46.3 20
3 -3 -13 39.2 11.3
2 -4 -13 29.2 12.4
4 -2 -13 -4.6 10.1
4 -2 -13 17.8 12.1
2 -4 13 19.9 20.1
-2 -2 13 5.5 9.8
-2 4 13 18.5 18.9
-2 4 -13 23.4 12.7
2 -4 -13 8.7 10.2
4 -2 13 16.4 19.7
-4 2 -13 8.2 13.1
2 -4 13 15 11.2
2 2 13 13.8 19.3
-2 -2 13 7.9 19.5
2 -4 13 -3.6 19.7
2 2 -13 12.7 13.8
-2 -2 -13 25.5 12.7
2 2 -13 13.1 11
-4 2 13 7.4 17.5
-2 -2 13 17 17.8
4 -1 13 8.6 20.8
-1 -3 13 30 20.4
4 -3 -13 22.8 10.7
3 -4 13 14.2 21
4 -3 -13 19.5 12.2
3 1 -13 13.9 13.3
1 -4 -13 12.9 12.1
-3 -1 -13 13.8 11.9
-1 4 -13 19.3 12.8
-3 4 13 18.3 19.1
3 -4 13 19.1 11.7
-4 1 13 31.1 20
-1 -3 13 15.6 10.4
3 -4 13 9.5 20.5
1 3 13 16 19.3
-4 3 -13 13.1 12.1
3 1 -13 23.7 11.7
-1 -3 13 12.8 19.2
1 -4 -13 20.1 10.2
-3 -1 13 -3 15.6
-3 -1 13 -1.6 19.7
-4 1 -13 20.6 12.9
4 -3 13 22.2 20.3
1 3 -13 2.9 11.4
-3 4 -13 15.3 11.4
3 1 13 30.8 20.5
4 -3 13 3.6 9.8
-1 -3 -13 27.1 11.9
3 -4 -13 21.7 12.4
-4 3 13 7.7 17.3
3 -4 -13 15 10.6
1 -4 13 13.1 19.6
1 -4 13 16.3 11.4
4 -3 13 6 20.1
4 -1 -13 13 11.2
4 -1 -13 3.3 10.3
-1 4 13 33.7 20.5
-1 -3 -13 19.6 9.7
-3 -1 13 9.6 20.3
1 -4 13 15.7 20
1 3 -13 23.4 13.9
-4 4 -13 19.2 12
0 -4 13 17.2 19.4
0 4 -13 19.6 12.8
-4 0 -13 16.3 12.7
4 -4 -13 15.9 10.2
-4 4 13 35 14.5
0 4 13 6.9 19.8
4 -4 13 18.1 21
4 -4 13 10.3 11
4 -4 13 22.5 20.9
4 -4 -13 21.4 12.8
0 -4 -13 8.2 10.1
-4 4 13 16.8 17.9
4 0 -13 6.3 12.6
0 -4 13 6.7 19.5
4 0 -13 5.6 10.6
0 -4 -13 17.9 11.8
-4 0 13 19.4 19.6
4 0 13 33.3 22.1
0 -4 13 4.3 10.8
2 -5 -13 91.79 13.3
5 -3 -13 102.89 14.1
-5 3 -13 125.79 17.2
-3 5 13 80.79 15.8
-5 2 13 99.09 16.5
-2 -3 13 61.39 12.6
-5 2 13 106.89 22.6
3 -5 13 80.59 23.7
2 -5 -13 94.59 14.9
3 2 -13 57.09 12.8
-2 -3 13 83.09 22.4
-3 -2 -13 101.59 14.5
3 -5 13 77.09 14
-2 5 -13 72.39 13.6
5 -2 13 113.09 26.4
3 -5 13 119.49 25.6
-3 5 13 112.29 23.6
2 3 13 94.69 24.1
5 -3 13 117.49 26.1
-5 3 13 59.99 20
3 2 13 85.39 23
2 -5 13 85.29 23.6
5 -2 -13 62.19 12.3
-5 2 -13 85.09 14.6
2 3 -13 101.29 16.8
2 -5 13 58.29 13.3
-2 5 13 110.59 23.7
2 3 -13 52.39 12
-5 3 13 121.79 17.9
3 -5 -13 105.89 15.5
-3 -2 13 61.99 21.2
-3 5 -13 99.49 15.6
-2 -3 -13 107.19 15.4
-3 -2 13 81.09 13.6
3 -5 -13 104.99 13.9
-3 -2 13 29.4 19.9
2 -5 13 102.29 24.5
-1 -4 13 5.9 19.1
5 -4 -13 7 11.2
-5 1 13 6.7 18.5
-5 1 13 28.3 14.8
-5 4 -13 14.4 12.5
1 4 13 0.4 20.4
5 -1 13 5.6 21
-1 5 -13 16.8 11.9
4 1 -13 16.9 11.4
-4 5 13 10.5 17.5
-4 -1 -13 19.1 12.1
-1 -4 13 4.3 18.5
4 -5 13 6.2 21.3
4 -5 13 8.6 20.2
-1 -4 13 15.1 10.6
1 -5 -13 11.7 9.9
4 -5 13 16 11.2
1 -5 -13 23.8 11.9
5 -4 -13 13.2 10.4
-4 5 13 19.3 13.2
5 -4 13 15.7 11.2
-5 1 -13 16.4 12.8
-1 5 13 11.6 18.5
4 -5 -13 9.7 11.9
-4 5 -13 21.1 11.9
-4 -1 13 2 10.3
1 -5 13 13.8 20
4 1 13 12.9 20.2
5 -1 -13 11.6 10.4
5 -4 13 -0.6 20
1 -5 13 17.1 19.5
-4 -1 13 2.9 18.5
5 -4 13 9.1 21.5
-5 4 13 20.8 18.3
1 4 -13 14.9 13
1 -5 13 14.7 11.2
4 -5 -13 7.5 10
-5 4 13 29.6 14.6
-4 -1 13 -0.3 19.5
-1 -4 -13 21.3 10.2
-1 -4 -13 16.8 11.7
0 -5 13 0.9 29.6
5 -5 -13 18.9 12.2
0 -5 13 21.5 11.3
0 -5 -13 32.6 11.2
-5 5 13 28.3 13.9
-5 0 -13 26 12.4
0 5 -13 29.6 13.2
-5 5 -13 40.7 13.4
-5 0 13 17.8 18
5 -5 -13 36.4 11
0 -5 13 29 20.5
-5 0 13 35.4 14.5
5 -5 13 14.5 20.7
5 -5 13 17.6 11.8
5 -5 13 10.2 20.6
-5 5 13 29.4 19.5
5 0 13 27 22.2
0 -5 -13 24.4 12.4
5 0 -13 38.7 11.9
0 5 13 20.5 20.3
-3 6 -13 14.4 11.1
3 3 -13 16.1 11.4
3 -6 13 15.8 11.4
-6 3 -13 22.3 13.3
-3 6 13 11.3 17.7
-3 -3 13 11.9 19.7
3 -6 -13 22 10.1
3 -6 13 7.2 19.4
-6 3 13 16.3 13.9
6 -3 13 2 10.5
3 3 13 10.9 19.3
3 -6 13 11.6 20.2
6 -3 -13 26 10.8
-3 6 13 17.6 13.4
3 3 -13 2.6 13.2
-3 -3 -13 11.4 10.7
-6 3 13 17.7 19.2
6 -3 13 16.8 21.1
-3 -3 13 7.4 11.2
6 -4 -13 40.5 11.5
2 4 13 30.7 20.1
-4 -2 -13 51.29 12.9
4 -6 13 35.7 11.5
-6 4 -13 39.3 13
-6 2 13 15.4 19.1
-2 -4 13 42.5 20.5
4 2 -13 42.8 11.9
-4 6 13 38.5 19
6 -2 13 40.1 22.5
2 -6 -13 52.99 11.6
-2 -4 13 33.8 11.2
-6 2 13 64.79 16.2
-2 6 -13 25.8 12
4 -6 13 24.9 21
4 -6 13 13.4 20.7
-4 6 13 52.49 14.3
-2 -4 -13 18.1 10
2 4 -13 24.1 10.6
-2 -4 -13 36.1 12.5
-6 2 -13 42.6 13
6 -4 13 35.6 21.6
-6 4 13 35.7 18.8
4 2 13 46.2 21.3
2 -6 13 9.9 20
6 -4 13 5.3 20.3
-4 -2 13 37 12.1
-2 6 13 16.9 18.6
2 -6 13 26.6 20
-4 -2 13 24.8 19.8
6 -2 -13 51.59 12.4
-2 6 13 52.69 14.3
-4 6 -13 37.2 12.5
2 4 -13 32.3 14.6
6 -4 13 32.4 12.1
-6 4 13 66.39 15.9
4 -6 -13 56.69 12
2 -6 13 38 11.9
-5 -1 -13 34 12.1
6 -5 -13 24.1 10.6
-6 5 -13 36.6 13
-1 -5 13 27.9 11.2
5 -6 13 30 22.7
5 -6 13 34.5 21.4
5 -6 13 28.7 11
-5 6 13 41.3 14.8
-6 1 13 13.3 18.6
-1 -5 13 47.4 21.7
1 -6 -13 31.4 10.6
-1 6 -13 30 12.5
5 1 -13 34.4 12.2
6 -5 -13 12.2 11.2
6 -1 13 42.1 22.3
1 5 13 7.6 19
-6 1 13 31.6 15.6
-5 6 13 34.1 18.8
-1 6 13 18.3 18.7
6 -5 13 20.6 11.3
1 5 -13 33.3 14
6 -5 13 23.6 20.5
-6 1 -13 38.8 12.6
-5 6 -13 40 12.8
1 -6 13 16.2 10.5
-1 -5 -13 35 11.3
-5 -1 13 28.8 11.2
6 -1 -13 38.3 12.1
5 1 13 32.8 21
-6 5 13 52.69 15
-6 5 13 23.5 18.5
1 -6 13 44.8 20.6
-1 -5 -13 47.7 13.3
6 -5 13 35 22
-5 -1 13 22.6 13
-5 -1 13 -1.9 22.7
5 -6 -13 29.1 10.6
-6 6 13 42.6 14
0 -6 13 24.8 10.6
6 0 13 40.7 21.8
6 -6 13 46.8 22.3
6 0 -13 53.29 12.5
-6 6 -13 44 12.6
-6 6 13 42.7 20.7
6 -6 -13 45.4 10.9
0 6 -13 48 14
0 6 13 7.6 18.4
-6 0 -13 36.2 11.8
0 -6 13 45.5 20.3
-6 0 13 36.5 14
6 -6 13 25.4 11.7
0 -6 -13 45.3 11.5
6 -6 13 42.2 22.5
4 -7 13 2.4 19.7
-4 7 13 9 17.9
7 -3 13 11.3 20.8
4 3 -13 8.2 10.8
3 -7 -13 7.1 9.3
4 -7 13 7.5 10.7
-3 -4 13 1.9 10.9
-7 4 -13 13.6 12.7
3 4 13 2.9 20.3
-3 7 -13 10.3 11.1
-7 3 13 18.8 14.6
-4 7 13 2.7 12.9
-7 3 13 2.9 18.4
-3 -4 13 16.3 20.1
7 -4 -13 9.1 9.6
-4 -3 -13 9.8 10.9
4 -7 13 20.6 20.5
3 4 -13 10.2 11.1
-4 -3 13 -3.3 18.6
-3 7 13 22.8 13.8
-3 -4 -13 -3.9 10.6
7 -3 -13 11.7 10
-3 7 13 7.1 19.5
4 -7 -13 13 9.7
7 -4 13 0.1 21.1
-4 7 -13 1.3 11.4
-7 4 13 11.7 19.7
3 -7 13 4.3 29
3 -7 13 8.9 10.6
4 3 13 6.3 20.5
-7 4 13 19.9 13.9
3 4 -13 3.3 12.6
7 -4 13 5.9 34.1
-4 -3 13 12.3 11.2
-7 3 -13 16.2 12.7
-3 -4 -13 4 9.5
7 -4 13 1.2 10.9
3 -7 13 10.6 18.8
5 -7 13 31.5 11.5
5 -7 13 46.3 22.1
-7 2 13 3.9 18.3
-2 7 -13 28.2 12.3
5 -7 13 36.7 21
7 -2 13 39 22.3
-2 -5 13 21.3 10.7
-7 2 13 48.2 15.5
-5 7 13 33.9 19.4
-7 5 -13 39.6 13.1
2 5 13 3.2 29.3
-2 -5 13 39.6 20.5
5 2 -13 48.7 12.2
7 -5 -13 53.99 11.7
2 -7 -13 48.2 11.4
-5 -2 -13 26.4 11.1
-5 7 13 46.7 14.1
7 -5 13 23.2 12.1
-7 2 -13 45.3 13.2
-5 -2 13 31.8 11.6
5 2 13 4.2 19.1
7 -5 13 33.2 22.7
2 5 -13 32.8 13.1
7 -2 -13 35.3 11
-7 5 13 33.4 13.9
7 -5 13 9.4 19.2
-2 7 13 35.5 14.3
2 -7 13 27.7 11.3
5 -7 -13 26 9.6
-5 7 -13 45.6 13.3
-5 -2 13 3.3 18.7
-7 5 13 29.8 19.6
-2 -5 -13 18.3 10.5
2 5 -13 27.5 10.9
-2 7 13 13.7 18.2
2 -7 13 34.6 20.9
-7 1 13 29.1 13.9
-7 6 -13 23.2 12.2
-1 -6 13 12.9 18.3
6 1 -13 23.1 11.4
-1 7 -13 24.4 13.2
6 -7 13 20.9 21.5
1 -7 -13 19.4 10.1
7 -6 -13 25.6 10.2
6 -7 13 19.1 20.5
-6 -1 -13 10.6 10.8
-1 -6 13 26.2 10.9
6 -7 13 22.9 11.2
-6 7 13 28 13.3
-6 7 13 32.6 20.6
7 -1 13 23.7 21.7
-7 6 13 27.1 13.6
6 1 13 2.5 20.6
7 -6 13 21.2 20.2
-1 7 13 -2.8 19.8
6 -7 -13 22.3 10.1
1 -7 13 12.8 17.9
-7 1 -13 29 12
7 -6 13 10.6 11.2
-6 -1 13 30.2 11.6
-1 7 13 28.4 14.2
-1 -6 -13 22.1 10.8
1 -7 13 19.5 10.2
1 6 -13 13.7 13.2
-6 7 -13 19.8 12
7 -1 -13 27.6 10.7
-7 6 13 9.9 19.6
7 -6 13 21.3 21.5
-7 7 -13 40.5 13.6
7 0 13 2.6 20.8
7 -7 -13 31.1 10.3
0 -7 -13 45.6 11.4
-7 0 -13 49.5 12.1
0 -7 13 35.9 11.6
7 0 -13 54.99 12.5
-7 0 13 37 11.5
7 -7 13 25.5 11.2
7 -7 13 32.2 21.9
7 -7 13 48.9 21.4
0 7 -13 49.6 14.3
0 -7 13 29.2 19.4
-7 0 13 -0.3 12.2
0 7 13 37.2 14.1
-7 7 13 42.4 20.2
-7 7 13 66.09 16.1
-4 -4 -13 36.5 12.7
-4 -4 13 20.3 11
4 4 -13 26.7 12.2
4 -8 13 8.4 19.5
8 -4 13 41.9 23.1
4 -8 13 33.3 11.7
-4 8 -13 32.9 12.3
-8 4 -13 27.5 13
8 -4 -13 37.8 10.8
4 -8 -13 38.7 11.2
-4 8 13 39.6 14.4
-4 8 13 9.9 18.2
-8 4 13 52.89 15
-4 -4 13 22.5 19.4
-8 4 13 25.9 20.3
-5 -3 -13 57.19 13.1
8 -3 13 41.6 22.7
-8 3 13 69.79 16.2
5 3 -13 69.89 13.2
-3 8 -13 49.9 13.3
-8 5 -13 69.79 15.3
5 -8 13 65.99 13.2
5 -8 13 49.3 22.3
-5 8 13 39.8 20.3
5 -8 13 5.5 23.5
-3 -5 13 36.5 12
8 -5 -13 57.09 11.2
-3 -5 13 50.79 21.5
3 -8 -13 52.99 11
-5 8 13 48.7 14
-3 -5 -13 65.19 12.8
-5 8 -13 74.19 14.8
-8 5 13 73.29 15.7
8 -5 13 43.9 23.2
-3 8 13 50.29 15.5
-8 3 -13 79.29 14.6
3 5 -13 47 13
-5 -3 13 43.3 11.9
3 -8 13 47.2 19.7
3 -8 13 50.39 11.8
-5 -3 13 30.9 19.1
8 -5 13 2.4 23.4
3 5 -13 3.7 14.2
-8 5 13 53.39 22.7
5 -8 -13 60.89 11.2
8 -3 -13 76.49 13
-2 -6 13 80.99 13.7
-8 2 13 64.29 15.7
2 -8 -13 96.19 13.3
8 -2 13 40.7 22.5
-8 6 -13 87.89 15.4
-6 8 13 82.69 15.4
-6 -2 -13 79.69 13.4
-2 -6 13 60.39 21.2
6 -8 13 70.79 23.6
6 2 -13 91.49 14.1
6 -8 13 79.09 13.7
-2 8 -13 80.69 14.9
8 -6 -13 89.79 13.3
-6 8 13 66.99 22.5
6 -8 -13 96.29 13.1
-8 6 13 62.79 23.7
8 -6 13 69.79 24.4
-6 8 -13 117.19 16.2
-8 6 13 95.49 16.4
-6 -2 13 77.39 13.8
2 -8 13 94.59 14.1
2 6 -13 55.39 12.5
8 -2 -13 96.29 13.4
2 -8 13 64.79 21.3
-2 -6 -13 84.79 13.7
-2 8 13 80.69 16.5
2 6 -13 96.69 16.2
-8 2 -13 82.29 14.3
7 1 -13 18.7 10.8
7 -8 13 8.8 10.1
-8 1 13 -1.8 9.2
-8 7 -13 13.1 12.8
1 7 13 6.6 12.3
1 -8 -13 14.8 10
7 -8 13 6.3 20.1
-8 1 13 8.3 13.3
1 -8 -13 1.1 4.6
-1 -7 13 10.9 19.1
-7 -1 -13 25.6 11.1
-7 8 13 8.3 19.5
-1 8 -13 9.3 12.6
-1 -7 13 19.1 11
8 -7 -13 11 9.8
8 -1 13 3.2 23.8
7 -8 13 6.5 19.5
-7 8 13 19.9 14.3
1 -8 13 10.2 9.9
1 -8 13 17.7 18.7
-7 -1 13 24.9 11.2
8 -7 13 14.5 19.3
-7 8 -13 12 11.6
7 -8 -13 12.2 8.9
-8 7 13 18.9 14
-8 7 13 7.4 20.1
8 -1 -13 22.3 10.8
-1 -7 -13 9.2 10.6
8 -7 13 0.7 21.3
8 -7 13 11 10.8
-8 1 -13 16.3 10.6
1 7 -13 23.7 13.5
-1 8 13 19.8 14
-8 8 13 7.9 12.7
0 -8 13 5.7 10.3
-8 0 13 3.6 10.9
8 -8 13 3 19.6
0 -8 -13 -0.1 3.9
-8 0 -13 3.9 9.5
0 8 13 1.4 11.8
8 -8 13 -1 9.9
8 -8 13 24.7 21.2
-8 8 -13 7.1 11.8
0 8 -13 7.8 13
0 -8 13 16.3 18.2
0 -8 -13 1.2 10.2
-8 8 13 19 21.4
8 0 -13 13.5 10
8 -8 -13 -0.9 8.9
-5 9 13 89.39 15.8
9 -5 -13 70.79 11.8
-9 5 -13 116.09 16
9 -4 13 52.09 23.3
-4 -5 13 102.69 14.5
-4 -5 13 87.79 22.8
5 4 -13 74.09 13.7
-9 4 13 92.49 15.8
5 -9 13 70.79 22
-9 5 13 57.49 14.7
4 5 -13 96.99 15
-5 9 -13 105.49 15
-5 -4 13 60.59 12.6
-5 -4 13 38.5 19.9
4 -9 13 117.29 15.1
-9 4 -13 76.99 14.1
9 -4 -13 102.89 13.1
4 -9 13 66.19 21.1
9 -5 13 93.19 25.9
-4 9 13 73.39 15.6
5 -9 -13 84.19 12.3
9 -3 13 7 21.6
9 -6 -13 59.09 11.2
-6 9 13 18.1 19.5
3 -9 -13 61.69 11.9
-3 -6 13 26.9 19.7
-3 -6 13 53.09 12.6
6 -9 13 68.29 13.3
-3 9 -13 41.7 12.7
6 -9 13 24.2 20.5
-9 3 13 41 13.9
-9 6 -13 44 13.6
-6 9 13 41.7 14.2
6 3 -13 55.99 13.3
-9 3 -13 45.4 12.4
3 6 -13 32.1 12
3 -9 13 29.7 19.7
-6 -3 13 -4.1 18.9
3 -9 13 35.5 10.8
-9 6 13 51.19 15
-9 6 13 24.3 20.2
-6 9 -13 57.09 13.5
-6 -3 13 52.39 12.6
9 -6 13 45.1 23.7
9 -3 -13 50.29 11.1
6 -9 -13 54.49 11.1
-3 -6 -13 28.8 10.7
-3 9 13 35 14.2
9 -6 13 1.6 23.7
-9 7 -13 45.6 16
7 -9 13 20.5 20.2
7 2 -13 45.8 11.9
-2 9 -13 28.7 13.1
-9 2 13 33.5 13.3
-7 -2 -13 39 11.7
-2 -7 13 15.9 19.7
-9 7 -13 43.6 13.4
-2 -7 13 53.59 12.7
2 -9 -13 62.29 12.3
-7 9 13 23.5 12.8
9 -7 -13 29.1 10.1
7 -9 13 22.5 10.8
-7 9 13 28.5 20.5
-9 2 -13 20.9 10.1
2 7 -13 17.6 10.6
2 -9 13 52.49 11.6
9 -7 13 21.9 22.4
7 -9 -13 40 10
-2 9 13 26.7 13.4
2 7 -13 25.1 12.8
-7 9 -13 30.3 12
9 -2 -13 44.7 11.2
-9 7 13 9.2 20.1
-9 7 13 56.49 15.2
-2 -7 -13 46 12.2
2 -9 13 16.1 17.7
-7 -2 13 22.5 11.5
9 -7 13 3.9 19.5
8 -9 13 25.7 20.5
9 -8 -13 77.49 11.4
-9 8 -13 56.19 15.7
1 -9 -13 76.29 12.8
-8 -1 -13 58.09 11.4
-1 9 -13 80.59 15.5
-9 1 13 45.3 11.3
8 -9 13 6.7 38.2
-8 9 13 30.8 21.3
8 -9 13 117.19 15.5
-1 -8 13 108.69 14.5
-9 8 -13 73.99 14.4
-8 9 13 66.99 14.8
8 1 -13 82.59 12.8
1 8 -13 63.29 14.4
1 -9 13 25.4 19.2
9 -8 13 27 21.6
9 -8 13 78.09 13.9
-8 9 -13 69.89 14
8 -9 -13 58.59 11.2
-8 -1 13 67.89 13.1
-9 8 13 33.5 21.4
1 -9 13 81.89 13.3
-1 -8 -13 54.49 11.9
-9 8 13 61.59 14.5
9 -1 -13 84.19 13.3
-9 9 -13 26.9 14.9
9 -9 13 1.6 19.2
-9 9 -13 24.4 12.4
9 -9 13 35.6 12.1
0 -9 13 7.2 17.8
9 -9 -13 24.6 9.3
-9 0 13 23.6 11.5
-9 9 13 44.3 14.7
0 -9 -13 27.1 11.5
9 -9 13 4.8 29.8
0 -9 13 24.4 10.5
0 9 -13 36.2 13.8
-9 9 13 -7.2 19.7
9 0 -13 41.6 11.3
-5 10 13 87.39 15.6
-5 -5 13 109.89 15.1
10 -5 -13 110.89 14.1
5 -10 13 81.39 13.2
-5 10 -13 115.49 16.4
5 5 -13 96.29 15.2
5 -10 -13 116.59 13.6
-10 5 13 61.59 15.3
-10 5 -13 93.49 14.4
-4 10 -13 36.1 12.7
10 -6 -13 61.39 11.4
-10 4 13 48 14.5
6 -10 13 48.1 11.4
-6 10 13 43.6 13.7
10 -4 13 5.6 32.9
6 4 -13 42.7 12.4
-4 -6 13 0.9 18
-10 6 -13 55.59 13.1
4 -10 -13 51.59 11.1
-4 -6 13 49.4 12
6 -10 13 24.8 19
-10 6 -13 63.89 16.5
4 6 -13 61.09 13.4
-10 4 -13 32.8 11
-10 6 13 67.49 15
-6 -4 13 85.89 13.8
10 -4 -13 77.39 12.8
10 -6 13 13.9 20.9
-4 -6 -13 48 11.2
4 -10 13 78.99 12.9
-6 10 -13 73.39 14
4 -10 13 32.3 19.2
6 -10 -13 54.99 10.7
-4 10 13 47.5 14.6
-6 -4 13 -5.7 23
-10 7 -13 81.29 17.5
-7 10 13 90.89 15.9
3 -10 -13 121.09 14.1
10 -7 -13 68.29 12.2
7 3 -13 62.49 12.9
-10 7 -13 84.59 14.5
-3 10 -13 85.89 14.9
7 -10 13 88.69 14.1
-3 -7 13 99.89 14
-10 3 13 78.59 15.1
-7 -3 13 76.39 13
-3 10 13 51.09 14.7
7 -10 -13 47.2 10.5
-10 7 13 42.3 14
3 -10 13 81.99 12.9
-10 7 13 -5.7 20.6
3 -10 13 1.6 17.1
10 -3 -13 80.89 12.8
-3 -7 -13 37.2 11.1
3 7 -13 35.2 11.8
10 -7 13 16.6 21.6
8 -10 13 2.4 19.1
8 2 -13 9.6 10.6
-10 8 -13 14.3 14.6
-2 10 -13 18.1 12
-10 2 13 0.4 11.7
-2 -8 13 28.7 11.3
-8 10 13 27.7 13.3
-2 -8 13 0 17.7
-8 10 13 -5.1 22.4
8 -10 13 19.6 11.1
-10 8 -13 25.9 12.9
2 -10 -13 24 10.3
10 -8 -13 12.1 9
2 -10 13 0.6 17.3
2 8 -13 3.5 11.4
-10 8 13 -6.5 19.7
-2 10 13 -2.2 11.3
2 8 -13 0.8 9.5
-2 -8 -13 34.5 11.2
10 -8 13 7.3 21.2
-10 8 13 10.4 12.9
-8 -2 13 36.4 11.6
8 -10 -13 35.9 10
-8 10 -13 23.9 12
-2 -8 -13 -0.5 3.5
10 -2 -13 24.5 9.8
2 -10 13 35 11
-1 10 -13 5.5 12.7
-1 -9 13 9.9 10.3
9 -10 13 0.6 25.2
10 -9 -13 9 8.5
9 1 -13 21.8 10.6
1 -10 -13 11.5 9.3
-10 9 -13 4.6 13.9
-9 10 13 12.7 13.2
9 -10 13 12.8 11.1
-10 1 13 2.4 10
1 -10 -13 0.1 3.8
-10 9 -13 16.9 12.5
-1 -9 13 0 27.5
-9 10 -13 7.8 11.4
-9 -1 13 10.1 11
10 -1 -13 13.9 10
-10 9 13 -5 23.8
-1 -9 -13 -2.9 9.3
-9 10 -13 5.7 14
10 -9 13 0.2 10.8
9 -10 -13 11 9
1 -10 13 12.5 9.6
-10 9 13 12 12.6
1 9 -13 11.3 12.5
-10 0 13 45.6 12
10 -10 -13 43.9 10.4
-10 10 -13 57.09 15.5
0 -10 -13 69.69 12.3
0 -10 13 67.99 11.9
-10 10 -13 56.69 13.2
10 0 -13 86.49 12.8
10 -10 13 97.39 14.6
-10 10 13 62.09 14.4
0 10 -13 67.19 14.4
5 -11 -13 56.09 11.4
6 5 -13 22.9 11.2
-5 11 -13 48 12.7
-11 5 13 41.4 14.1
-11 6 -13 48.8 15.6
11 -6 -13 40.5 10.6
6 -11 13 56.69 12.4
-11 6 -13 2.3 10.2
-6 11 13 27.7 13.7
-5 -6 13 30.8 11.1
-5 11 13 16 13.3
6 -11 -13 34.6 10.3
-6 -5 13 46.8 11.5
-11 6 13 46 14.1
-5 -6 -13 4.3 8.9
5 -11 13 37 11
5 6 -13 29.9 12
-6 11 -13 19.4 11.3
11 -5 -13 25.4 9.5
-11 7 -13 53.79 12.2
11 -7 -13 82.19 12.2
-11 7 -13 67.79 16.3
-7 11 13 58.69 14.7
-11 4 13 33.8 13.3
7 -11 13 49.6 12
7 4 -13 63.59 13.3
4 -11 -13 52.39 11
-4 11 -13 70.19 14.5
-4 -7 13 57.09 12.1
4 7 -13 42.6 12.1
-11 7 13 55.39 15
-4 -7 -13 49.1 11.5
-7 -4 13 68.89 12.9
7 -11 -13 72.59 11.6
11 -4 -13 39.1 10.6
4 -11 13 43.1 10.6
-4 11 13 47.7 13.9
-7 11 -13 51.99 12.3
3 -11 -13 6.8 9.6
-8 11 13 5.2 12.5
-11 3 13 -0.2 10.9
8 3 -13 5.1 10.1
-8 -3 -13 -0.1 3.4
-3 -8 13 12.5 9.9
3 -11 -13 -1.2 3.7
8 -11 13 12.6 10.6
-11 8 -13 7.5 11.9
-3 11 -13 -4.6 10.7
11 -8 -13 5.5 9.1
-11 8 -13 -3.3 13
3 8 -13 3 10.5
-3 11 13 0 14.1
3 -11 13 -0.8 9.4
-8 11 -13 -2.9 11.2
11 -3 -13 7.3 9.4
-8 -3 13 3.5 10.7
-3 -8 -13 -1.2 3.9
-11 8 13 3.3 12.3
8 -11 -13 3 9.1
-3 -8 -13 -0.2 10
11 -9 -13 46.3 10.4
-2 -9 13 60.89 12.1
-9 11 13 43.7 13.9
9 -11 13 49.7 11.8
-2 11 -13 51.19 13.6
-11 9 -13 63.29 13.5
9 2 -13 58.89 12.2
-11 9 -13 62.09 15.7
2 -11 -13 45.9 10.5
-9 -2 13 55.69 12.8
2 -11 13 47.3 11.2
-9 11 -13 41.8 12.3
-11 9 13 61.89 14.4
-2 -9 -13 57.09 12.2
9 -11 -13 40.5 9.8
11 -2 -13 33 10.2
10 1 -13 47.3 10.8
11 -10 -13 58.09 11
10 -11 13 64.19 12.6
1 -11 -13 85.69 12.4
-11 10 -13 65.09 13.2
-11 1 13 51.19 11.5
-10 11 13 63.59 14.4
-1 -10 13 52.99 11.2
-1 11 -13 69.79 14.1
-11 10 -13 60.19 15.5
1 10 -13 39.8 12.2
-10 11 -13 29.7 14.1
-11 10 13 24.1 12.6
-10 -1 13 38.8 11.7
1 -11 13 37.7 10.4
11 -1 -13 38.4 10.2
-1 -10 -13 52.19 12.2
10 -11 -13 26 9.8
-10 11 -13 54.89 12.9
11 -10 13 61.49 13.2
0 -11 -13 52.69 11.1
11 0 -13 60.99 11.5
11 -11 -13 58.29 10.8
-11 0 13 48.1 11.7
-11 11 -13 38 14.2
0 11 -13 56.39 13.5
-11 11 -13 43.6 11.9
11 -11 13 54.99 11.6
0 -11 13 49.7 10.8
-11 11 13 32.5 12.1
-6 -6 13 13.7 10.5
-6 12 13 17.5 13.1
-12 6 13 9.5 13.3
6 -12 -13 6.1 9.2
6 6 -13 6.9 10.9
6 -12 13 14 10
12 -6 -13 17.8 9.6
-6 12 -13 15.5 11.4
-5 12 -13 5.8 10.3
-12 5 13 11.6 13
7 -12 13 8.2 10.3
-7 12 13 8.4 12.7
-12 7 -13 4.5 12.5
-7 -5 -13 0.5 3.8
12 -7 -13 15.6 9.5
7 5 -13 12.9 10.4
-5 -7 13 10.5 9.9
5 -12 -13 13.6 9.5
5 -12 13 5.1 9
-12 7 13 1.2 13.2
5 7 -13 1.6 10.8
-7 -5 13 15.8 10.7
12 -5 -13 4.7 9.2
-5 -7 -13 0.2 3.4
-5 -7 -13 10.2 9.3
7 -12 -13 7.2 9.2
-7 12 -13 4.4 10.2
-5 12 13 4.1 12.1
8 4 -13 52.39 12.3
-4 -8 13 52.59 11.4
8 -12 13 42.1 11
-4 12 -13 29.6 11.6
-8 12 13 52.99 14
4 -12 -13 67.59 12.1
12 -8 -13 52.49 10.8
-12 8 -13 34.1 13.6
-8 -4 13 32.8 11.5
-12 8 13 25.6 13.4
12 -4 -13 49.3 11.1
-8 12 -13 53.39 12.3
4 -12 13 44.9 11.1
-4 -8 -13 55.39 11.7
8 -12 -13 33.7 10
4 8 -13 49.99 12.2
-12 9 -13 105.79 17
-3 -9 13 104.49 13.6
9 3 -13 75.29 12.4
3 -12 -13 96.09 12.9
-3 12 -13 82.19 14.1
12 -9 -13 55.59 10.8
9 -12 13 104.39 14
-9 12 13 58.49 13.8
12 -3 -13 51.29 10.6
-3 -9 -13 52.99 11.5
-9 12 -13 63.79 12.8
-12 9 13 35 12.3
-9 -3 13 67.79 12.7
3 9 -13 48 11
3 -12 13 77.99 12.1
9 -12 -13 76.89 11.6
-12 10 -13 47.1 14.6
-12 10 -13 14.8 10.9
10 -12 13 35.9 11.3
-12 2 13 -2 8.5
-10 12 13 23.4 11.9
10 2 -13 34.2 10
2 -12 -13 34.4 10.5
-2 -10 13 23 9.7
12 -10 -13 20.8 8.8
-2 12 -13 25.8 11.9
10 -12 -13 27.2 10
-2 -10 -13 14.3 10.3
-10 -2 13 20.4 10.9
2 -12 13 29.1 10.3
-12 10 13 25.3 12.2
-10 12 -13 21.1 11.4
12 -2 -13 21.1 9.6
-12 11 -13 42.1 13.7
-12 1 13 28.5 10
11 1 -13 54.59 11.2
11 -12 13 62.89 12.4
-1 -11 13 44.7 10.4
-11 12 13 39.8 12.5
-1 12 -13 45.5 12.5
12 -11 -13 43.7 9.9
1 -12 -13 51.49 10.9
-12 11 -13 58.39 12.2
-11 -1 13 36.3 10.5
-11 12 -13 51.29 12.3
11 -12 -13 39.5 9.6
12 -11 13 61.99 12.3
1 -12 13 56.09 11.2
-12 11 13 31.8 12.5
12 -1 -13 42.2 10.4
-11 12 -13 28.1 13.5
-1 -11 -13 35.3 10.5
0 12 -13 30.8 10.7
-12 0 13 28.7 10.2
-12 12 -13 49.1 11.5
0 -12 -13 48.4 10.6
12 0 -13 46.2 10.1
12 -12 13 39.4 10.7
-12 12 -13 45.4 13.5
12 -12 -13 42.2 9.6
-12 12 13 37.4 12.2
0 -12 13 49.4 10.2
-13 6 13 4.7 11.4
7 -13 13 4.9 9.1
-6 -7 13 3.1 9.4
-6 13 -13 3.9 10
-7 -6 -13 -0.7 3.7
7 6 -13 2.7 10.2
6 -13 -13 1.5 9.5
-7 13 13 15.1 12.8
13 -7 -13 4.7 8.6
-13 7 -13 1.8 12.3
7 -13 -13 0.8 9.1
6 7 -13 -8.7 9.6
-6 -7 -13 0.6 3.8
6 -13 13 7.8 8.9
-6 13 13 1.6 11.1
-7 13 -13 5.9 10.4
13 -6 -13 12.5 9
-7 -6 13 1.8 9.9
-13 7 13 7.7 11.6
-5 13 -13 18 10.7
5 -13 -13 26.6 9.5
-13 5 13 13 10.8
-5 -8 13 25.7 9.8
13 -8 -13 19.1 8.7
8 5 -13 19.8 10
-8 13 13 11.9 11.7
-13 8 -13 22.3 13.2
8 -13 13 27.3 10.9
-8 -5 13 38.9 11.3
-8 13 -13 28.8 11.2
5 -13 13 27.2 10.4
13 -5 -13 16.1 9.2
5 8 -13 20.8 10.9
-13 8 13 24.2 11.9
8 -13 -13 23 9.5
9 4 -13 19 10.6
13 -9 -13 11.5 8.7
-13 9 -13 22.1 13.2
9 -13 13 24.8 11.1
-9 13 13 4.3 11.4
-4 13 -13 9.5 10.3
-4 -9 13 19.1 9.7
4 -13 -13 23.2 9.4
13 -4 -13 17.9 9.1
-13 9 13 16.7 11.9
-9 13 -13 19.2 10.6
-9 -4 13 21.2 10.9
4 9 -13 16.9 10.2
4 -13 13 23.7 9.6
9 -13 -13 20 9.4
-10 13 13 11.9 10.9
10 -13 13 38.3 10.7
10 3 -13 33.4 10.9
13 -10 -13 19.1 8.5
-13 10 -13 28 13.4
-3 13 -13 30.7 11.2
-3 -10 13 40.4 10.5
3 -13 -13 21.4 9.6
-10 -3 13 19.4 10.4
-10 13 -13 13.5 10.3
3 -13 13 30.2 9.9
13 -3 -13 22.8 9.6
10 -13 -13 20 9.2
-13 10 13 11.8 11.3
11 2 -13 27.3 9.6
13 -11 -13 16.8 8.3
-13 11 -13 20.2 12.5
-2 13 -13 13.6 10.4
-13 2 13 -1.5 11.6
11 -13 13 26.1 10.1
-2 -11 13 22.1 9.6
2 -13 -13 16.7 9.2
-11 13 13 6.8 10.3
13 -2 -13 6.2 8.7
-13 11 13 10.1 10.6
-11 13 -13 11.8 9.9
13 -11 13 14.6 10.6
11 -13 -13 18.8 9
-11 -2 13 11.9 10
2 -13 13 13.4 9.5
-12 13 13 6.1 10.1
13 -12 -13 1.3 7.1
-13 12 -13 1.2 11.2
-1 -12 13 13.3 8.8
1 -13 -13 7 8.7
-13 1 13 1.2 8.8
1 -13 -13 -0.1 3.5
-1 13 -13 13.4 10.1
12 -13 13 6.2 9.3
12 1 -13 6.1 8.4
-12 -1 13 -1 9
1 -13 13 11.6 9.1
-12 13 -13 7 9.5
13 -1 -13 -2.5 8
13 -12 13 7.6 9.8
12 -13 -13 6 7.7
-1 -12 -13 0.2 3.9
-12 13 -13 11.3 11.8
-13 12 13 -1.1 10.4
-13 13 -13 23.1 10.9
-13 0 13 27.7 9.3
-13 13 13 29 11.4
13 -13 13 48.9 11.1
13 0 -13 35.7 9.4
0 -13 13 40.8 9.5
7 -14 -13 11.9 8.3
-14 7 13 1.2 10.5
7 7 -13 6.5 10
-7 -7 -13 1.2 4.1
-7 -7 13 6 9.3
7 -14 13 10.2 8.9
14 -7 -13 9.3 8.4
-7 14 -13 5.7 9.8
-14 8 -13 -0.3 11.9
-6 14 -13 4.4 9.8
14 -8 -13 6 7.9
8 -14 13 14.3 9
-8 -6 -13 0.7 3.7
8 6 -13 -2 9.4
-14 6 13 1.3 9.8
-8 14 13 11.2 10.8
-6 -8 13 5.1 9.1
6 -14 -13 -1.5 3
6 -14 -13 7.7 8.6
8 -14 -13 2.2 8.3
14 -6 -13 8.1 8.4
6 -14 13 7 8.7
6 8 -13 7 9.9
-8 -6 13 9.1 9.4
-6 -8 -13 -1.5 3.1
-8 14 -13 4.3 9.2
-14 8 13 10.9 10.8
-9 14 13 9.9 10.9
9 5 -13 -4.8 9.1
-14 9 -13 1.6 11.8
-5 14 -13 2.1 9.4
9 -14 13 9.3 9.4
5 -14 -13 1.3 4.5
-9 -5 -13 0.2 3.4
-9 14 13 3.2 10.7
14 -9 -13 7.9 7.2
-5 -9 13 5.8 9.5
5 -14 -13 4.6 8.8
5 9 -13 2.4 9.6
-9 14 -13 7 9.8
-14 9 13 -3.1 11
9 -14 -13 9.1 9.1
14 -5 -13 11.9 8.6
5 -14 13 14.6 9.2
-9 -5 13 8.8 9.4
10 -14 13 24.9 9.7
-14 10 -13 14.8 11.8
-4 -10 13 17 9.1
4 -14 -13 18.8 9.2
10 4 -13 16.8 9.5
-10 14 13 11.7 10.6
-4 14 -13 30.3 10.3
14 -10 -13 2 6.9
-10 -4 13 11.4 9.4
14 -4 -13 10.9 8.6
-10 14 -13 10.9 9.7
4 -14 13 17.6 9.3
4 10 -13 0.6 8.9
-14 10 13 12 10.8
10 -14 -13 15.9 8.5
-3 -11 13 16.5 9
-14 11 -13 18.9 12.1
11 -14 13 23.1 9.8
3 -14 -13 25.9 9.2
-3 14 -13 36.1 10.5
-11 14 13 16.6 10.4
11 3 -13 16 9
3 -14 13 27.2 9.3
-11 -3 13 14.2 9.4
14 -3 -13 17 8.7
-14 11 13 20.2 10.5
14 -11 13 28.5 10.5
-11 14 -13 29.6 10
11 -14 -13 14.4 8.3
2 -14 -13 10.4 8.6
-2 14 -13 19.6 9.8
-2 -12 13 18.7 8.9
12 -14 13 12.1 9.3
-14 12 -13 10.2 10.9
-12 14 13 16.1 10.1
12 2 -13 10.6 8.4
-2 14 13 27 11.5
14 -2 -13 28.1 9.2
-12 14 -13 15.2 9.4
14 -12 13 23.6 10.4
-14 12 13 20.4 10.8
-12 -2 13 6.9 8.7
2 -14 13 14.6 8.6
-1 -13 13 6.4 8.5
-14 13 -13 12.4 11.2
-13 14 13 16.1 9.8
-14 1 13 1.7 7.2
1 13 13 11.6 11.2
13 1 -13 24.8 8.8
13 -14 13 14.2 9.2
-13 -1 13 11.2 8.4
14 -13 13 11.8 9.5
-1 14 13 15.7 11.6
-14 13 13 13.9 10.5
14 -1 -13 14.6 8.4
1 -14 13 9.2 8.6
-14 0 13 13.9 7.8
14 0 -13 11.2 8.4
-14 14 13 1.2 9.5
0 14 13 -1.2 10.3
14 -14 13 11.7 9.7
0 -14 13 13.6 8.3
7 -15 -13 -0.5 3.2
-8 -7 -13 -0.6 3
15 -8 -13 2.1 9.1
8 7 -13 -0.7 9
-7 -8 13 0.5 9
8 -15 13 8.2 8.6
-15 7 13 5 9.7
-7 15 -13 10.1 9.2
-8 15 13 0.7 11.5
7 -15 -13 10.1 8.5
-15 8 13 13.1 10.4
7 -15 13 4.2 8.5
7 8 -13 9.5 9.6
-7 15 13 4.5 11.7
-8 -7 13 5.7 8.9
8 -15 -13 5.3 8.2
15 -7 -13 3.7 7.2
-7 -8 -13 0.1 3.5
-8 15 -13 4.6 9.1
9 6 -13 17.9 9.9
-9 15 13 5.3 10.2
6 -15 -13 12.4 8.4
-6 -9 13 13.3 9
-9 15 13 2.4 9.8
-15 9 -13 14.9 11.4
9 -15 13 18.4 9.2
-6 15 -13 19.3 10.1
-9 15 -13 15.3 9.2
15 -6 -13 2.6 7
9 -15 -13 16.7 8.3
6 -15 13 13.6 8.8
6 9 -13 8.2 9.1
-9 -6 13 10.9 9.5
-15 9 13 8.4 10.4
-6 15 13 7.3 12
10 5 -13 12.6 9.1
5 -15 -13 32 9.5
10 -15 13 22.3 9.4
-5 15 -13 14.7 9.6
-10 15 13 11 9.3
-15 10 -13 16.5 12
-5 -10 13 15.4 9.1
15 -5 -13 10.6 7.3
5 -15 13 16.7 9
10 -15 -13 14.7 7.6
-15 10 13 12.8 10.2
5 10 -13 10.6 8.2
-5 15 13 25 12.2
-10 -5 13 9.7 8.9
-10 15 -13 13.4 9.4
4 -15 -13 3.2 8.2
-4 15 -13 -0.6 9.1
11 4 -13 6.8 8.4
-4 -11 13 9.4 8.7
4 -15 -13 -0.9 3
-15 11 -13 7.3 11
11 -15 13 4.9 9.3
-11 15 13 8.9 9.9
-11 15 -13 7.3 9.3
-4 15 13 4.5 11.5
-4 -11 -13 -0.2 3.4
15 -4 -13 8.2 7.8
-11 -4 13 8.9 8.7
4 -15 13 5 8.7
-15 11 13 8.1 10.2
11 -15 -13 6.3 11.5
-3 15 -13 5 9
12 -15 13 4.4 9.4
3 -15 -13 -0.5 2.7
-15 12 -13 4.1 10.7
3 12 13 -3.5 8.1
-12 15 13 6.4 9.3
-3 -12 13 1.6 8.8
12 3 -13 9.1 8.2
15 -3 -13 12 7.6
-12 -3 13 11 9.1
-3 15 13 8.5 11.6
-15 12 13 3.8 9.9
3 -15 13 14.3 8.5
-3 -12 -13 1 4.1
-12 15 -13 6.4 8.8
15 -12 13 11.5 9.7
2 -15 -13 -2.3 2.4
-13 15 13 -0.2 9.1
13 -15 13 10.4 10.5
-2 -13 13 1.8 8.7
2 13 13 5.2 9.2
-2 15 -13 3.4 11.2
13 2 -13 13.6 8.6
-15 13 -13 0.6 11
2 -15 13 0 6.8
-13 -2 13 4.7 8.6
-2 -13 -13 0.1 3.4
-2 15 13 -1.2 11.7
15 -13 13 6 9.7
15 -2 -13 4 7.2
-15 13 13 -4.3 9.6
-14 15 13 -0.7 10.7
1 14 13 1.5 9.5
-1 -14 13 -1.6 7.6
14 -15 13 -5.3 9.8
1 -15 -13 -1 2.9
14 1 -13 6.4 8.7
-15 14 13 -7.5 11
-1 -14 -13 -0.9 3.1
15 -14 13 10.2 10.4
-14 -1 13 4.9 8.1
-1 15 13 4.9 12
15 -1 -13 8.8 7.3
-15 15 13 9.5 11.8
0 15 13 8.2 10.4
8 8 -13 7.1 9.5
8 -16 13 4.4 8.2
8 -16 -13 5.4 7.8
8 -16 -13 -0.1 3.4
-8 -8 13 7.8 9.1
-8 -8 -13 -1.2 2.7
-8 16 -13 1.1 8.9
-8 16 13 11.6 11.7
-9 16 13 6 9.6
-9 -7 -13 -0.8 3
7 -16 -13 0.3 3.6
9 7 -13 6 9.4
7 -16 -13 10.9 8.3
-7 16 -13 9.8 9.7
-7 -9 13 4.6 9.2
9 -16 13 4.3 8.4
-7 -9 -13 0 3.4
-7 16 13 6.4 12
9 -16 -13 7.9 7.3
7 9 -13 -2.3 9.2
7 -16 13 7.7 7.9
-9 16 -13 7.3 9.9
-9 -7 13 3 8.8
-16 9 13 2.9 9.8
-6 -10 13 26 9.4
-6 16 -13 32.4 10.5
10 -16 13 38.5 9.9
10 6 -13 31.9 10.2
6 -16 -13 33 9.4
-10 16 -13 26.6 10
6 -16 13 11.6 7.3
-6 16 13 30.7 12.5
6 10 -13 20.4 8.5
-10 -6 13 33 9.9
-16 10 13 18.6 11.2
-5 -11 13 8.5 9.3
-16 11 -13 4.6 11.7
11 5 -13 -2.2 8.6
11 -16 13 7.1 8.6
5 -16 -13 1.4 3.9
-5 16 -13 -0.5 9
-11 16 -13 0.2 9.1
-5 -11 -13 -0.6 3.2
-5 16 13 4.3 12.5
-16 11 13 1.7 10.8
-11 -5 13 0.8 8.9
-12 16 13 -0.5 8.1
-4 16 -13 21.4 9.4
-4 -12 13 20.1 9.7
-16 12 -13 17.2 11.6
12 4 -13 27.5 9.5
12 -16 13 19.3 9.3
-12 16 -13 18.5 8.6
-16 12 13 17.8 11.6
-4 16 13 23.3 12.6
-12 -4 13 18 9.6
16 -12 13 29.2 11
-16 13 -13 1.1 11.6
3 -16 -13 0.5 3.9
-3 -13 13 -0.7 6.6
13 3 -13 15.8 9.8
13 -16 13 3.8 8.9
-13 16 13 11.2 9.5
-3 16 13 27.1 14.1
-16 13 13 18 11.9
16 -13 13 19.6 11.3
-13 -3 13 8.8 9.6
2 -16 -13 1 5.1
-2 -14 -13 -1.4 3.7
-8 -9 13 3.8 9.5
8 -17 -13 -0.9 3.3
-8 17 -13 1.6 10.7
9 8 -13 12 10.8
-8 -9 -13 1.1 4.2
9 -17 -13 1.1 4.1
8 9 -13 3.7 9
-8 17 13 9.9 12.6
-9 -8 13 0.3 9.8
-9 17 -13 3.2 10.7
10 7 -13 14 10.2
7 -17 -13 2.4 4.5
-7 17 -13 11.9 10.8
-7 -10 13 3.3 9.9
-10 -7 13 1.9 10.1
7 10 -13 2 7.1
-10 17 -13 1.8 10.4
-7 17 13 9.8 15
10 -17 -13 -0.4 3.3
-7 -10 -13 1.1 3.7
11 6 -13 12.6 10.1
-6 17 -13 12.4 10.8
6 -17 -13 0.9 4.1
-6 -11 13 5.8 9.1
-11 -6 13 13.6 10.2
-6 -11 -13 1.7 4.4
17 -11 13 2.9 10.7
-17 11 13 1.1 8.1
-11 17 -13 2.1 9.8
-6 17 13 11.3 13.9
0 0 14 1.6 20
0 0 -14 2.5 10.1
0 0 -14 18 12.4
-1 1 -14 21.1 12.7
1 -1 -14 6.4 10.8
1 0 -14 25 11.2
1 0 14 27.3 21.7
0 -1 -14 25.9 10.7
-1 1 14 16.8 20.7
0 1 -14 32.9 13.4
1 -1 -14 33.4 12.7
-1 0 -14 19.7 12.2
0 1 14 22.7 20.9
-1 0 14 27.2 20.9
0 1 -14 2 10
1 0 -14 28.2 13.2
1 -1 14 36.8 21.8
0 -1 -14 38.1 12.4
0 -1 14 16.8 20.7
2 -1 -14 15.4 12.6
1 -2 14 -0.9 8.8
1 -2 -14 5.5 11.2
-2 1 14 1.3 19.8
1 1 14 18.4 20.8
-2 1 -14 8.1 12.7
1 -2 14 -3.9 20
1 -2 -14 8.9 10.8
-1 2 -14 13.1 12.5
1 1 -14 17.7 13.5
2 -1 14 8 20.2
1 1 -14 7.8 10.3
-1 2 14 17.6 19.9
-1 -1 -14 0.7 9.5
-1 -1 14 2.9 21.1
-1 -1 -14 13.3 12.4
2 -1 -14 2.4 10.6
0 -2 14 84.89 23.7
2 -2 -14 56.69 12.6
0 2 14 83.99 23.5
0 2 -14 73.29 14.8
0 -2 -14 73.09 12.9
-2 0 -14 100.09 15.7
-2 2 -14 113.79 16.8
2 -2 14 80.79 23.3
0 -2 -14 68.69 13.5
2 0 14 91.99 24.3
-2 0 14 52.29 21.8
2 0 -14 47.1 12.2
-2 2 14 84.79 23.6
2 0 -14 88.09 16.2
2 -2 -14 64.79 13.9
1 2 14 35.9 21.6
-2 -1 -14 38.9 12.5
3 -2 -14 31.6 13.1
-1 -2 14 30.3 21
-2 3 14 30.6 19.4
-1 3 -14 33.4 13.9
3 -1 14 48.1 22.4
3 -2 -14 15.3 10.6
-3 2 -14 51.89 14.9
-3 1 14 40.9 20.8
1 -3 -14 15.4 10.5
-1 -2 14 14.6 10.4
2 -3 14 18.2 19.9
1 -3 -14 34.2 12.4
2 1 -14 29.2 11.9
2 -3 14 14.3 10.8
2 1 -14 44.2 14.8
-1 3 14 32.6 19.8
1 -3 14 36.2 11.1
-2 -1 14 26.2 20.6
1 -3 14 12 19.7
-3 1 -14 38.8 13.6
1 2 -14 51.39 14.7
2 1 14 30.3 21
3 -2 14 32.8 22.6
3 -1 -14 35 13.1
-2 3 -14 29.7 13.6
-3 2 14 25.7 19
3 -1 -14 29.1 11.1
-1 -2 -14 26.8 10.4
1 2 -14 18.1 10.6
2 -3 -14 27.3 11.3
2 -3 -14 36.1 12.6
-1 -2 -14 38.3 12.6
3 -3 14 -5.3 20.5
3 -3 -14 -0.1 10.5
0 -3 14 5.5 10.1
-3 3 14 13.8 13.3
3 0 14 0.2 19.2
0 -3 -14 -4.4 10.1
0 -3 14 1.8 19.5
3 -3 14 4.1 11.5
-3 3 14 3.7 17.7
3 0 -14 -0.5 13.2
-3 0 -14 -3.3 11.2
3 0 -14 7.5 11.1
-3 3 -14 4 12.8
3 -3 -14 5 11.7
-3 0 14 5.6 18.1
0 -3 -14 -0.2 11.2
0 3 -14 13.1 13.6
0 3 14 11.7 19.5
-2 -2 -14 4.2 9.4
2 -4 14 11.6 10.5
4 -2 14 6.3 20.6
-4 2 -14 5.7 12.6
-4 2 14 4.7 17.6
2 2 14 5.3 19.4
2 2 -14 13.5 14.2
-2 4 -14 10.8 13.3
2 -4 14 -3.8 19.4
-2 -2 14 2.2 23.7
4 -2 -14 4.7 10.4
-4 2 14 20.5 14.3
2 -4 -14 13.4 10.3
-2 4 14 1.1 18
-2 -2 -14 13.2 11.2
4 -2 -14 1.7 12
-2 -2 14 5.5 10.8
2 2 -14 1.5 10.5
2 -4 -14 9.9 11.5
4 -3 -14 23.7 10.8
-1 -3 14 22 11.1
3 -4 14 20.4 11.9
-4 3 -14 45 14.2
-4 1 14 35.1 14.4
-4 1 14 15.8 18.8
1 -4 -14 25.6 10.9
4 -1 14 12.8 20.7
3 1 -14 24.7 11.5
4 -3 -14 26.1 12.8
-3 4 14 6.7 18.4
-1 4 -14 25.4 13.7
1 -4 -14 31.5 11.8
-3 4 14 36.8 13.9
3 -4 14 19.5 20.3
1 3 14 22 20.3
-3 -1 -14 33.8 12.6
3 1 -14 30.3 13.8
-1 4 14 19.6 18.6
1 3 -14 19.1 10.4
3 1 14 28.2 20.7
1 -4 14 0.6 19.3
3 -4 -14 28.7 12
-3 4 -14 28.7 13.2
-4 1 -14 25.1 12.4
4 -3 14 8 21.3
-3 -1 14 -2.4 19.1
-4 3 14 48.4 14.6
-3 -1 14 -1 8.9
-1 -3 -14 14.4 10.5
4 -1 -14 24.4 10.8
3 -4 -14 42.5 11.7
1 3 -14 39.3 14.8
-4 3 14 -0.5 17.4
4 -3 14 12.8 11.7
4 -1 -14 30.2 12.5
1 -4 14 22.4 10.8
-1 -3 -14 34.5 12.5
-4 0 14 7 14
-4 4 14 6.5 13.2
-4 4 -14 9.6 12.9
-4 0 -14 2.3 11.7
4 0 -14 15.2 12.9
0 4 -14 13.4 13.6
0 4 14 -5.2 18.5
-4 0 14 0.1 19
0 -4 -14 4.5 11.4
4 -4 -14 1.6 11.9
4 -4 14 -1.7 11.2
4 -4 14 12.8 21.1
0 -4 14 2.6 27.3
0 -4 -14 6.1 10.3
-4 4 14 7.5 17.8
4 0 14 14.2 19.3
4 0 -14 0.4 10.1
4 -4 -14 0.7 9.8
0 -4 14 6.1 10.5
-5 2 14 22.8 13.6
-5 3 -14 8.3 12.2
3 -5 14 3.3 10.5
3 2 -14 17.1 13.8
2 3 14 -11.1 19.8
5 -3 -14 19.2 11.7
3 2 -14 14.2 10.9
2 -5 -14 6.9 10
-2 -3 14 10.5 11
-3 5 14 18.8 12.9
2 -5 -14 15.9 11.9
-2 5 -14 2.9 12
-3 -2 -14 8.4 10.5
-5 2 14 12.5 18.3
5 -2 14 2.9 22
-3 5 14 13.1 19.5
3 -5 14 4.3 19.6
3 -5 14 -0.4 23.5
5 -3 -14 19.8 10.2
-5 3 14 6.7 18.1
3 -5 -14 6.7 9.6
-2 -3 -14 25.7 11.7
3 -5 -14 22.3 12.7
5 -2 -14 10.7 10.3
-3 -2 14 24.9 11.3
5 -2 -14 11 10.8
2 3 -14 18 14.4
5 -3 14 20.1 21.7
-2 5 14 16.2 12.8
-5 3 14 28.1 13.9
5 -3 14 2.4 10.4
-2 -3 -14 7 10.1
2 -5 14 13 10.9
-2 5 14 8.9 18
-3 5 -14 15.2 13.2
2 -5 14 0.9 31.3
2 3 -14 24.2 11.5
-5 2 -14 21.5 12.3
3 2 14 18.9 20.2
2 -5 14 -2.4 18.3
5 -4 -14 32.3 12.4
4 1 -14 34.2 11.9
5 -4 -14 31.5 10.8
-1 5 -14 40.6 13.7
-4 -1 -14 34 11.4
4 -5 14 14.5 19.8
-5 1 14 50.09 15.7
-4 5 14 57.09 14.5
-4 5 14 29 19.5
-5 4 -14 42.7 13.7
1 -5 -14 42.9 11.4
-5 1 14 -1.4 24.2
-1 -4 14 27.7 11
5 -1 14 20.9 20.8
1 4 14 -1.2 18.5
4 1 -14 25.2 12.1
1 -5 -14 48.9 13.3
4 -5 14 39.5 12.5
5 -1 -14 25.8 10.6
-5 4 14 20 18.5
-4 -1 14 45.9 14.6
4 1 14 1 19.3
5 -4 14 19.4 22.2
5 -1 -14 6.5 9.9
1 4 -14 41.3 15.7
-1 -4 -14 27.9 11.5
1 4 -14 3.2 9.4
5 -4 14 30.2 12.1
-4 5 -14 32.7 12.7
1 -5 14 0.1 18.3
-1 5 14 19.7 18
-1 5 14 34.3 13.5
-5 4 14 46.8 14.2
4 -5 -14 40.2 10.9
-5 1 -14 39.3 12.7
-4 -1 14 10 9.7
1 -5 14 17.4 10.5
-1 -4 -14 18.8 11
-5 5 14 15.4 13.2
-5 5 14 8.6 18.1
0 5 -14 3.5 13.3
5 -5 14 3.1 19.9
-5 0 -14 6 11
5 0 14 6.4 18.9
-5 5 -14 12.8 12.8
0 -5 14 -0.1 19.3
5 -5 -14 11.2 9.6
0 -5 14 18.6 10.5
-5 0 14 17.6 13.8
5 -5 14 4.1 10.8
5 0 -14 2.5 10.3
0 -5 -14 -7.3 10
0 5 14 0.5 18.1
-6 3 -14 36.3 13.1
6 -3 14 1.6 9.4
-3 6 -14 26.9 13.3
3 3 -14 20.9 13.9
-3 -3 -14 15.9 10.7
6 -3 14 31 22.3
6 -3 -14 28.5 10.2
-3 6 14 19.4 13.2
3 -6 14 -0.5 19.1
3 -6 -14 20.5 10
-3 -3 14 13.8 11.3
3 3 -14 20.9 10.9
3 -6 14 20.3 10.7
-3 6 14 9 17.6
-6 3 14 -2.8 18
-6 3 14 39.6 14.7
-6 4 -14 2.6 12.4
4 2 -14 5.6 11.1
4 -6 14 3.5 31.6
6 -4 -14 2.7 9.1
-2 6 -14 -0.3 11.7
-4 6 14 2.9 18.4
-4 -2 -14 6.4 10.4
-6 2 14 8.7 13.6
6 -2 14 1.2 20.8
-4 6 14 4 12.6
2 -6 -14 2.8 9.6
4 -6 14 0.9 28.5
4 -6 14 9 10.8
4 2 -14 8.9 10.5
-2 -4 14 0.5 10.9
-6 4 14 1.8 18.1
-2 6 14 9.6 12.4
-4 6 -14 15.3 12.1
6 -2 -14 3.1 9.1
-2 -4 -14 16.4 10.7
6 -4 14 4.5 20.6
2 -6 14 6.5 9.6
-6 2 -14 8.2 11.5
4 -6 -14 2.8 9
6 -4 14 -3.2 10.5
2 4 -14 17.9 10.8
-4 -2 14 6.4 10.6
2 -6 14 -1 18.2
-6 4 14 17.8 12.4
2 4 -14 11.5 15
-2 -4 -14 8.2 11.4
-2 6 14 -3 17.7
-4 -2 14 14.9 13.5
-5 -1 -14 10.2 10.3
6 -1 14 8 19
-6 1 14 18.6 15
5 -6 14 0 10.4
5 1 -14 5.6 10
5 -6 14 2.6 20.5
-1 6 -14 14.5 13.6
1 -6 -14 2.5 10
-1 -5 14 7.5 10
6 -5 -14 18.7 10
-5 6 14 19.5 12.1
-5 6 14 2.4 17.9
-6 5 -14 7.5 12.6
-5 -1 14 5.2 10.2
6 -5 14 4.3 10.9
-6 1 -14 17.8 11.7
6 -1 -14 5.1 10.2
1 5 -14 18.3 14.5
1 -6 14 14.2 10.6
-5 6 -14 14.2 12
-6 5 14 4.1 18.3
1 5 -14 2.8 14.6
1 -6 14 1.7 18.8
-5 -1 14 14 14.1
-1 6 14 14.9 13.9
-1 -5 -14 9.4 10.3
5 -6 -14 7.9 8.7
6 -5 14 4.1 20.8
-6 5 14 13 12.4
0 -6 14 8.1 9.9
-6 0 14 -2 8.7
6 -6 -14 9.8 9.1
0 6 14 4 13.1
6 -6 14 3.1 19.6
-6 6 -14 4.9 11.7
-6 6 14 -8 17.8
0 -6 -14 10.2 10.8
-6 6 14 9.3 12
6 0 -14 10 9.7
-6 0 -14 14.6 10.6
6 -6 14 9.3 11
0 -6 14 -0.1 22.9
0 6 -14 2.8 13.5
-6 0 14 24.1 13.8
-4 7 14 70.99 14.8
-3 -4 14 47.2 12.2
4 -7 14 -0.2 22.6
7 -3 14 3.2 20.8
-7 4 -14 61.89 14.2
7 -4 -14 66.99 12.1
4 -7 14 39.9 11.5
4 3 -14 46.2 12.2
-3 7 -14 45.2 13.6
-7 3 14 54.79 14.8
-4 -3 -14 50.39 11.8
3 -7 -14 56.09 11.8
3 4 -14 34.9 13.3
3 -7 14 -1.8 18.9
3 -7 14 36.7 11.3
7 -3 -14 51.99 11.6
-3 7 14 23.5 13.5
7 -4 14 11.6 20.6
-7 4 14 -4.6 21.9
7 -4 14 24 11.3
-3 -4 -14 16.4 10.5
-7 4 14 58.99 15
-4 7 -14 29.9 12.2
3 4 -14 31.4 11.4
4 -7 -14 44.5 11
-7 3 -14 26.1 12.2
-4 -3 14 33.4 11.4
-5 7 14 18.1 12.6
7 -2 14 2.9 23
-2 7 -14 7.1 11.9
7 -5 -14 19.7 9.7
2 -7 -14 14.6 10.3
-2 -5 14 6 10.6
-7 2 14 27.8 13.9
-5 7 14 -3.6 17.4
5 -7 14 12.7 10.8
-7 5 -14 17.8 12.6
-5 -2 -14 8.4 10.5
5 2 -14 8.5 10.1
2 -7 14 -0.8 18
-7 2 -14 4.3 11
-2 7 14 -0.1 13.2
7 -2 -14 9.4 9.3
2 -7 14 2.8 9.5
-7 5 14 10.5 12.6
7 -5 14 1.2 20.8
-5 7 -14 4.4 11.5
7 -5 14 1.2 10.4
2 5 -14 0.6 10
-5 -2 14 -3.7 10.2
2 5 -14 22 14.6
-5 -2 14 0.2 12.8
5 -7 -14 10.1 9.1
-7 5 14 -0.1 18
-2 -5 -14 4.7 11
6 -7 14 31.4 11.4
-6 7 14 71.39 15.3
-7 6 -14 50.49 13.5
-1 7 -14 25.7 13.1
-6 -1 -14 46.1 12
-7 1 14 36.6 14
1 -7 -14 48.1 11.5
1 6 14 52.39 14.4
-6 7 14 -2 17.8
7 -6 -14 35 9.6
-1 -6 14 52.89 12.1
6 1 -14 51.99 11.8
1 -7 14 54.89 11.5
-1 7 14 39.2 14
7 -1 -14 51.09 11
7 -6 14 50.09 12.8
-7 1 -14 55.49 12.3
1 -7 14 -0.4 26
-7 6 14 92.89 16.2
-7 6 14 -2.2 18.7
-1 -6 -14 48 12.3
1 6 -14 68.99 15.9
7 -6 14 3.6 20.5
-6 7 -14 49.8 13.4
-6 -1 14 32.8 11
6 -7 -14 73.19 12
-7 7 14 -5.9 21.1
7 0 -14 37.3 10.3
0 -7 -14 40 11.5
-7 0 14 18.7 12.7
-7 0 14 16.1 9.4
0 7 14 61.09 14.9
7 -7 -14 42.5 10.1
0 7 -14 48.1 14.1
-7 7 14 39.6 13.3
-7 7 -14 59.19 14.4
-7 0 -14 35.9 12.1
0 -7 14 58.39 11.6
7 -7 14 47 11.7
-4 8 -14 5.3 11.5
8 -4 -14 8.7 8.8
-8 4 -14 3 11.7
8 -4 14 2 10.7
8 -4 14 2.3 25.7
4 4 -14 3.7 10.1
-4 -4 14 3.8 10.4
4 -8 14 2.6 9.4
-8 4 14 4.2 12.5
4 -8 -14 -0.2 9
-4 8 14 12.5 12.5
8 -3 14 2.6 10.6
-3 -5 14 18.2 10.6
5 -8 14 16.1 10.5
-8 5 -14 18.3 12
-8 3 14 12.9 12.8
8 -5 -14 14.6 9.6
5 3 -14 12.8 10.7
-3 8 -14 12.7 11.8
3 -8 -14 20.7 9.7
-5 8 14 17.1 12.4
-5 -3 14 12.8 10.4
-5 8 -14 6.2 10.9
5 -8 -14 -0.4 8.9
8 -5 14 -2.5 10.4
3 5 -14 10.7 10.5
-3 -5 -14 9.2 10.3
-8 5 14 1.7 12.6
3 5 -14 3.7 13.1
8 -5 14 4.7 24.2
-8 3 -14 15.6 11.6
8 -3 -14 13.8 9.5
3 -8 14 1.6 9.2
-3 8 14 12.1 12.5
-6 8 14 30 13.5
6 2 -14 19.1 10
8 -6 -14 41.1 10.1
2 -8 -14 31 10.5
6 -8 14 32.1 11.6
2 6 14 17.9 13.2
-6 -2 -14 36.7 11.5
-2 -6 14 22.1 11.1
-8 6 -14 34 13.2
-8 2 14 25.4 13.5
-2 8 -14 21.3 12.7
-8 2 -14 30.1 11.4
8 -6 14 21.5 11.4
8 -6 14 4.3 29.3
8 -2 -14 31.2 9.9
-8 6 14 25.5 13.1
-2 8 14 22.4 12.8
-6 -2 14 17.6 10.6
2 6 -14 13.6 9.3
2 -8 14 21.8 10.7
6 -8 -14 35.6 9.7
-2 -6 -14 18.3 10.3
2 6 -14 29.9 14.5
-6 8 -14 27.6 11.9
8 -7 -14 14.3 8.6
-8 1 14 1.4 11.3
-1 -7 14 11.5 10.2
-8 7 -14 15.1 12.6
1 7 14 7.2 13
-7 -1 -14 10 10.3
-1 8 -14 10.2 12
7 -8 14 10 10.2
7 1 -14 18.1 9.6
1 -8 -14 17.2 10.4
-7 8 14 8.1 11.8
-7 -1 14 13.9 10.6
8 -7 14 5.2 10.3
-7 8 -14 18.4 12.6
8 -1 -14 13.5 9.8
-8 7 14 5.9 11.6
7 -8 -14 21 9.5
-1 -7 -14 3.9 9.6
-1 8 14 10.1 12.5
1 7 -14 15 14.4
1 -8 14 12.1 9.8
-8 1 -14 18.3 10.2
0 8 -14 15.9 13.1
0 -8 -14 29.7 10.1
0 -8 14 34.7 10.7
-8 8 -14 21.5 12.2
-8 8 14 25.6 12.5
8 -8 14 26.2 10.5
8 0 -14 23.7 9.8
-8 0 14 10.8 9.7
0 8 14 14.8 11.5
8 -8 -14 31.2 9.6
-8 0 -14 16.4 9.9
-5 9 14 -3.9 12.7
4 -9 -14 14.3 9.5
9 -4 14 -5 10
-9 5 -14 3.8 11.4
4 -9 -14 0.2 3.8
9 -5 -14 -8.2 8.6
-9 4 14 11.5 12.5
5 -9 14 1 9.2
-4 -5 14 4.3 9.7
5 4 -14 -1.1 9.6
-4 9 -14 5.8 11
-5 9 -14 4.1 11.4
4 -9 14 6 9.1
5 -9 -14 0.1 3.8
4 5 -14 5.9 10
-9 4 -14 2.8 10.9
-9 5 14 2.7 11.9
5 -9 -14 2.9 8.8
-5 -4 14 1.8 10.1
-4 -5 -14 6.3 9.1
9 -4 -14 5.1 8.8
-4 9 14 5.2 12.3
9 -5 14 8.8 10.6
-3 9 -14 2.6 11.1
3 -9 -14 14.5 9.7
6 3 -14 10.9 10.3
-9 3 14 6.7 12.6
-9 6 -14 12.8 12.2
9 -6 -14 3 8.6
-3 -6 14 11.9 9.9
6 -9 14 21 11
3 -9 -14 -0.8 3.6
-6 9 14 2.2 11.8
3 6 14 3.5 11.7
-6 -3 14 11.9 10.2
-3 9 14 7.8 12.5
3 6 -14 -2 9.7
6 -9 -14 5 8.8
-9 3 -14 7.6 10.1
-6 9 -14 3.8 11.2
-3 -6 -14 7.9 10
-9 6 14 7.9 12.2
-3 -6 -14 0.4 3.1
9 -6 14 1.4 10.5
9 -3 -14 -1.4 8.3
3 -9 14 10.2 9.5
-9 2 14 12.7 11.9
9 -7 -14 15.1 8.5
-7 9 14 20.9 12.4
7 2 -14 13.8 9.6
-9 7 -14 17.1 12.4
-2 9 -14 16.1 12.5
-2 -7 14 17.2 10.1
2 -9 -14 10.1 9.6
7 -9 14 17.9 10.1
2 7 -14 11.5 12.9
2 -9 14 14.2 9.6
9 -2 -14 12.5 8.6
-2 -7 -14 14.5 10.1
2 7 -14 2.7 10.7
-9 7 14 11.3 11.9
-2 9 14 7.2 12.4
-7 -2 14 22.4 10.8
-7 9 -14 17.6 11.9
7 -9 -14 9.6 9
9 -7 14 15.5 10.8
-9 2 -14 6.8 9.2
1 -9 -14 19 10.2
-1 -8 14 17.4 10.2
9 -8 -14 34.9 9.7
8 1 -14 34.5 10.7
8 -9 14 21 10.7
-8 9 14 21.3 12.2
-9 8 -14 32.3 13.2
-1 9 -14 28.9 13
1 -9 14 21.6 9.6
-1 -8 -14 0.5 4
-8 -1 14 21.9 10.5
8 -9 -14 26.3 9.9
-1 9 14 -1.6 10.6
-9 1 -14 9.9 8.9
-1 -8 -14 10.8 9.8
-8 9 -14 21.1 11.8
9 -1 -14 12.2 8.8
1 8 -14 26.6 14.1
9 -8 14 9.1 10.1
-9 8 14 30.2 12.5
-9 0 14 12.6 9.8
-9 9 -14 12 11.6
-9 9 14 14.9 11.6
9 -9 -14 13.6 8.8
9 -9 14 15.1 10.3
0 9 -14 19.1 12.8
0 -9 -14 3 9.2
9 0 -14 23 9.1
0 -9 14 22.3 10.2
5 -10 -14 0.3 3.7
5 -10 -14 -3.6 8.5
10 -5 -14 1.6 8.1
-5 10 14 5.7 11.8
10 -5 14 7.1 10.3
-5 -5 -14 -0.4 3.1
-10 5 14 15 12.3
5 5 -14 -3.5 9.3
-5 10 -14 4.8 11
-10 5 -14 5.6 10.5
5 -10 14 8.4 9.4
-5 -5 14 3.4 9.8
6 -10 14 15.6 9.6
-6 10 14 12.1 12
-4 10 -14 1.4 10.7
6 4 -14 3.4 9.3
10 -6 -14 3.5 8.3
-4 -6 14 9.5 9.8
-10 4 14 12.6 12.8
4 -10 -14 8.7 9.2
-10 6 -14 14.5 11.2
10 -4 14 6 9.5
4 -10 14 5.7 9.1
4 6 -14 9.5 9.5
6 -10 -14 18.6 9
10 -6 14 6.3 10.5
-10 6 14 7.1 12.4
10 -4 -14 4.5 8.3
-10 4 -14 5 9.2
-4 10 14 1.9 12
-6 -4 14 3.5 9.6
-4 -6 -14 1.2 9
-6 10 -14 13 10.9
-4 -6 -14 0.5 3.8
-10 7 -14 22.5 11.8
-3 10 -14 34.6 12.2
7 3 -14 35.1 10.5
7 -10 14 34.4 10.3
10 -7 -14 26.9 9.4
3 -10 -14 47.7 11
-7 10 14 21.6 12.3
-10 3 14 27.7 12.6
-3 -7 14 29.6 10.2
-3 -7 -14 22.8 10.2
-7 -3 14 28 11.1
-10 3 -14 3.8 8.2
-3 10 14 24.2 12
10 -3 -14 35.4 10
-7 10 -14 30.3 11.2
10 -7 14 12.2 10.4
3 -10 14 30.4 10.4
3 7 -14 17.2 9.7
-10 7 14 20.5 12.4
7 -10 -14 21.3 9.3
8 -10 14 17.4 10.3
-8 10 14 -1.7 11.6
-2 -8 14 8.9 9.1
2 -10 -14 22.2 10.1
-2 10 -14 4.7 11.4
2 -10 -14 -0.1 3.6
10 -8 -14 7.4 8.2
-10 8 -14 9.6 11.9
8 2 -14 3.4 8.8
2 8 -14 4.9 18.8
-10 8 14 15.9 11.9
8 -10 -14 10.2 8.9
-2 10 14 -1.9 10.2
-8 -2 14 16 10.5
10 -2 -14 4.1 8.3
2 -10 14 7.9 8.8
-2 -8 -14 10 9.8
-8 10 -14 13.1 11.6
10 -8 14 14.4 10.5
-1 10 -14 24.7 11.9
1 -10 -14 13.9 9.2
9 1 -14 23.5 9.8
-9 10 14 15.7 11.5
-10 9 -14 22.5 12
9 -10 14 32 10.3
-1 -9 14 26.2 9.5
10 -9 -14 22.8 8.8
-9 10 -14 14 11.9
10 -1 -14 14.6 8.7
1 9 -14 20.3 12.7
-9 -1 14 11 10.1
1 -10 14 16.8 9.5
-1 -9 -14 15.1 9.8
10 -9 14 7.3 9.6
-10 9 14 28.9 12.8
9 -10 -14 13.4 8.6
0 10 -14 3.7 11.6
-10 0 14 9.7 9.4
10 -10 -14 17.8 8.3
0 -10 -14 1.7 4.8
-10 10 -14 11.9 11.2
10 0 -14 11.1 8.3
-10 10 14 22 11.3
0 -10 14 22.5 9.4
10 -10 14 17.5 10
0 -10 -14 14.1 9.1
-5 -6 14 12.4 10.1
6 -11 14 24.7 9.6
11 -6 -14 22 8.9
-6 11 14 21.5 12.5
-5 11 -14 16.1 11.2
-11 6 -14 5.1 9.3
5 -11 -14 34.1 10
11 -5 14 11.2 10.2
-11 5 14 13.3 11.8
6 5 -14 14.8 9.9
-6 11 -14 6.5 10.1
11 -6 14 19.1 10.7
6 -11 -14 14.5 9.1
-11 6 14 11 12.3
11 -5 -14 14.5 8.5
5 -11 14 12.9 8.8
5 6 -14 4 9.3
-5 11 14 10.5 12.3
-6 -5 14 13.3 9.7
4 -11 -14 1 4.5
-7 -4 -14 -0.1 3.2
4 -11 -14 11 9.2
11 -7 -14 -0.1 8
-11 7 -14 -0.3 10
-4 11 -14 2.5 10.8
7 4 -14 2.2 9
-4 -7 14 3.8 9
-7 11 14 -4.1 11.1
7 -11 14 3.4 8.9
-11 4 14 6.9 11.4
11 -4 14 2.1 9.7
4 7 -14 7.4 9.2
11 -4 -14 1.1 8.2
-11 7 14 3.9 11.1
-7 11 -14 10.4 10.6
-7 -4 14 6.4 9.7
-4 11 14 11.9 11.8
11 -7 14 5.2 9.8
7 -11 -14 18.4 8.7
-4 -7 -14 2.7 9.2
-4 -7 -14 -0.3 3.5
4 -11 14 13.1 9.1
11 -8 -14 34 9.1
8 3 -14 33.7 10
-3 -8 14 28.7 9.8
-8 11 14 29.6 11.9
-11 8 -14 45.3 11.5
8 -11 14 28.7 9.9
-3 11 -14 16.2 11
3 -11 -14 53.19 10.5
3 8 -14 0.1 8
11 -3 -14 30 9.4
-11 8 14 18.3 12.1
11 -8 14 15.1 9.9
3 -11 14 29.1 9.5
-3 -8 -14 13.5 9.6
-8 -3 14 23.1 10.3
8 -11 -14 20.6 8.6
-8 11 -14 32 11
-2 11 -14 17.1 11.1
9 2 -14 12.7 8.9
2 -11 -14 28.6 9.2
-9 11 14 23.3 11.6
9 -11 14 14.6 9.5
11 -9 -14 21.9 8.4
-2 -9 14 22.9 9
-11 9 -14 18.7 10.9
11 -2 -14 13.6 8.8
-9 -2 14 23.5 10.1
-2 -9 -14 5.9 9.4
-11 9 14 7.6 12
11 -9 14 14.9 9.8
-9 11 -14 21.1 10.8
-2 -9 -14 0.5 4
9 -11 -14 21.7 8.7
2 -11 14 6.9 8.6
-11 10 -14 9.5 10.5
10 1 -14 3.7 8.1
-10 11 14 3.6 10.9
1 -11 -14 2.5 8.9
-1 -10 14 8.6 8.7
10 -11 14 4.5 9.1
1 -11 -14 -2.1 3.2
11 -10 -14 4.4 8
-1 11 -14 5.4 10.6
-1 -10 -14 -3.7 8.9
-1 -10 -14 2.4 4.8
-11 10 14 6.2 10.6
11 -10 14 1.4 9.7
10 -11 -14 7 8.5
-10 11 -14 11.1 10.6
11 -1 -14 3.3 8.6
-10 -1 14 5 9.2
1 -11 14 2.7 8.7
0 -11 14 -1 7.7
11 0 -14 6.1 8.4
-11 11 -14 7.8 10.7
11 -11 14 1.8 8.7
0 -11 -14 -5.4 8.4
-11 0 14 1.8 8.1
0 11 -14 1.6 10.1
-11 11 14 3.8 10.2
0 -11 -14 -1 3.2
11 -11 -14 0.6 7.9
-6 12 14 7.8 11.3
12 -6 14 0.5 9.4
6 6 -14 8.5 8.8
12 -6 -14 9.4 8.6
-6 -6 14 9.5 9.3
6 -12 -14 9.6 8.8
-6 12 -14 13.7 10.4
6 -12 -14 0.3 4.2
6 -12 14 10.9 8.5
-12 6 14 4.6 11
7 -12 14 33.1 9.4
5 -12 -14 27.9 9.7
-12 5 14 14.9 10.8
-7 12 14 19.5 11.7
-5 -7 14 40.2 10.4
12 -7 -14 29.7 8.8
7 5 -14 28.9 9.5
-5 12 -14 21.5 10.4
12 -5 14 23.7 10.3
12 -5 -14 26.1 8.5
12 -7 14 27.5 10.6
-7 12 -14 29.9 10.5
7 -12 -14 25.5 9
-7 -5 14 13.5 9.7
5 -12 14 20.5 8.8
-12 7 14 20.3 11.2
5 7 -14 22.6 9.3
-5 12 14 -0.2 10.3
8 4 -14 34.8 9.7
8 -12 14 35.6 9.8
-4 -8 14 51.09 10.6
-8 12 14 21 12.3
4 -12 -14 48.3 9.7
12 -8 -14 45.2 9.4
-4 12 -14 43.8 11.4
-12 8 14 14.4 11
4 -12 14 31.4 9.6
-8 -4 14 15.2 9.4
-8 12 -14 24.8 10.2
8 -12 -14 21.9 8.9
12 -4 -14 38.2 9.6
-4 -8 -14 18.1 9.1
4 8 -14 22.4 8.7
12 -8 14 27.1 10.4
3 -12 -14 0.5 8.2
-3 12 -14 6.3 10.3
3 -12 -14 -1.3 3.3
9 3 -14 5.5 8.3
9 -12 14 12.3 9.4
-9 12 14 8.8 10.6
-3 -9 14 8.2 8.5
12 -9 -14 6.3 7.5
-9 -3 14 -4.5 9.3
12 -3 -14 2.7 7.6
-3 -9 -14 3.2 9.2
-3 -9 -14 -1.2 3
-9 12 -14 2.4 9.8
3 -12 14 2.1 8.5
9 -12 -14 -0.8 8
-12 9 14 6.6 10.4
12 -9 14 2.5 9.5
-10 12 14 22.1 10.6
10 -12 14 15.4 9.3
-12 10 -14 2.8 10.5
2 -12 -14 24.9 9
-2 12 -14 18.9 10.2
-2 -10 14 25.8 9
12 -10 -14 19.7 8.1
10 2 -14 20 8.6
-2 -10 -14 0.4 3.7
-10 12 -14 9.1 10.4
12 -2 -14 16.7 8.6
-12 10 14 7.4 9.9
-2 -10 -14 8.3 9.4
-10 -2 14 6.2 8.8
12 -10 14 14 9.6
2 -12 14 11.8 9
10 -12 -14 8.8 8.1
12 -11 -14 10.3 7.6
-1 -11 14 15.1 8.1
11 -12 14 21.3 9.5
11 1 -14 19.3 8.6
1 -12 -14 0.8 3.8
-12 11 -14 6.7 8.8
1 -12 -14 27.7 9.8
-11 12 14 11.7 9.4
-1 12 -14 9.5 9.5
12 -11 14 13.4 9.5
-11 12 -14 17 10.6
11 -12 -14 14.5 8
-11 -1 14 8.7 8.4
-12 11 14 0.6 9.8
12 -1 -14 9.7 8.1
-1 -11 -14 13.2 9.3
1 -12 14 7.3 8.1
12 0 -14 1.6 7.9
12 -12 -14 1.6 6.8
0 -12 -14 0.7 8.6
-12 0 14 -1 8.1
-12 12 14 7.1 9.4
0 -12 -14 -1.1 3.3
-12 12 -14 4.7 8.3
12 -12 14 7.1 9.6
0 -12 14 12 8.1
-6 -7 14 19.1 9.3
13 -7 -14 6.4 7.6
6 -13 -14 1.8 4.5
6 -13 -14 16 7.9
-6 13 -14 15.5 9.7
13 -6 14 6.1 8.7
-7 -6 -14 0.8 3.3
-7 13 14 7.2 10
7 6 -14 3.5 8.5
7 -13 14 20.3 8.7
-13 6 14 8.4 9.5
-7 -6 14 10.8 9.1
7 -13 -14 6.3 7.7
-7 13 -14 13.6 9.7
-13 7 14 3 10
13 -7 14 10 9.4
6 -13 14 7.2 8.3
13 -6 -14 8.7 7.9
-6 -7 -14 0.2 3.3
6 7 -14 12.1 8.9
-5 -8 14 10.5 8.7
5 -13 -14 0.4 3.8
-8 -5 -14 0.2 3.2
5 -13 -14 5.8 8.3
8 -13 14 7 8.6
-5 13 -14 11 9.3
8 5 -14 0.2 8.3
13 -8 -14 2.1 7.6
-8 13 14 4.1 10
13 -5 -14 5.7 8.2
-8 -5 14 2.1 9.2
-5 -8 -14 -0.2 3.3
8 -13 -14 11.1 8
-13 8 14 2.5 10.6
5 8 -14 5.7 8.4
13 -8 14 3.1 9.3
-8 13 -14 6.9 9.3
5 -13 14 9.1 8.1
4 -13 -14 57.49 9.9
9 -13 14 92.99 11.8
13 -9 -14 83.49 11.7
-4 -9 14 67.19 10.5
9 4 -14 105.49 12.2
-9 13 14 50.19 11.7
-4 13 -14 90.49 12.4
4 -13 14 59.89 10.3
-9 -4 14 58.89 10.7
13 -4 -14 68.49 10
13 -9 14 51.49 10.6
9 -13 -14 68.59 10.5
-9 13 -14 48.7 10.9
-13 9 14 29.5 10.8
10 3 -14 21.9 9.1
-3 -10 14 18.3 8.8
10 -13 14 29.4 10
-3 13 -14 23.8 10.6
13 -10 -14 25.9 7.8
3 -13 -14 22.2 8.9
-10 13 14 12.5 9.4
10 -13 -14 25.4 8.8
-10 13 -14 13.7 10.1
-10 -3 14 3.8 8.3
13 -3 -14 5.2 7.7
3 -13 14 11.6 8.9
-13 10 14 9.9 9.8
13 -10 14 16.8 9.4
11 -13 14 2.6 9
2 -13 -14 6.4 8.5
-2 13 -14 6 9
11 2 -14 7.3 8.1
2 -13 -14 0.5 3.8
-2 -11 14 -0.2 8.1
-11 13 14 -0.2 9.4
13 -11 -14 2.7 6.2
13 -11 14 -3.1 9
11 -13 -14 0.1 7.3
-13 11 14 4.7 9.7
2 -13 14 0.7 8
13 -2 -14 4.8 7.9
-11 13 -14 2 10
-11 -2 14 2.7 8.5
-2 -11 -14 -0.2 3.4
12 1 -14 17.5 8.7
12 -13 14 26 9.5
-12 13 14 16.7 9.9
-1 -12 14 28.5 9.5
-13 12 14 2.8 9.7
-12 -1 14 7.4 7.5
13 -12 14 9.4 9.5
-12 13 -14 5.4 8.1
1 -13 14 5.8 8.3
-1 -12 -14 0.6 3.7
13 -1 -14 10.3 8.1
0 -13 -14 -1.2 3.3
13 0 -14 5.6 8.4
-13 13 14 1.8 10
0 -13 14 4.8 9
0 13 14 -1.6 11.3
13 -13 14 1.7 10.4
-14 7 14 6.3 8.4
7 -14 14 6 8.4
7 -14 -14 0.5 3.8
-7 -7 -14 0.1 3.4
7 7 -14 -1.4 8.3
-7 14 -14 -3.4 9.1
14 -7 -14 3.7 6.8
14 -7 14 8.3 8.7
7 -14 -14 1.3 7.6
-7 -7 14 7.7 9.3
-7 14 14 1.8 11.7
-6 14 -14 40.5 10.8
8 6 -14 24.3 8.6
-6 -8 14 38 9.4
-8 14 14 33.9 11.2
8 -14 14 34.2 9.1
6 -14 -14 24.2 8.8
14 -8 -14 11.1 6.5
6 -14 14 40.2 9.8
14 -8 14 29.2 9.8
-8 -6 14 25 9.4
-6 14 14 33.2 12.6
6 8 -14 29.6 9
8 -14 -14 28 8.7
-14 8 14 15.4 10.4
-8 14 -14 36.6 10.7
14 -6 -14 33.8 8.5
9 5 -14 32.5 9.6
-9 14 14 14.9 8.9
-5 -9 14 44.7 9.8
-5 14 -14 44.8 10.5
9 -14 14 38.2 9.6
5 -14 -14 34.1 8.4
14 -5 -14 31.4 8.1
5 -14 14 33.5 9.2
-5 14 14 37.9 12.9
-14 9 14 18.4 10.4
14 -9 14 35.2 9.5
9 -14 -14 31.6 8.1
-9 14 -14 30.7 10.1
-9 -5 14 27.9 9.5
-10 14 14 18.7 9.3
-4 -10 14 40.9 10.2
10 4 -14 36.3 9.5
10 -14 14 15.8 9.2
-4 14 -14 44.4 10.5
4 -14 -14 18.7 8.7
-14 10 14 14.2 10.3
14 -10 14 19.7 9.2
-4 14 14 24.8 12.4
4 -14 14 20.8 9
-10 14 -14 44 11.5
10 -14 -14 31.3 7.9
-10 -4 14 36.1 9.3
14 -4 -14 22.8 8.1
-3 -11 14 19.4 9.7
-3 14 -14 10.7 8.9
-11 14 14 7.5 9.6
11 -14 14 13.7 9.5
11 3 -14 15.7 8.6
3 -14 -14 12.9 8.7
11 -14 -14 4.4 8.5
3 -14 14 7.9 8.7
-11 -3 14 5.3 8.5
14 -11 14 23 10
-3 -11 -14 1 3.9
14 -3 -14 10.8 8
-3 14 14 1.5 12.1
-14 11 14 5.5 10.2
-11 14 -14 -2 10.2
2 -14 -14 1 4
12 -14 14 27.7 10.7
-12 14 14 12.3 10.3
12 2 -14 24 9.7
2 12 14 9.2 9.1
-2 -12 14 26.3 9.8
-2 14 14 17 12.7
-12 -2 14 10 8
14 -2 -14 11 8.1
14 -12 14 18.1 10.4
-14 12 14 18.7 10.5
-12 14 -14 6.2 12.9
2 -14 14 12.9 8.8
-1 -13 14 11.6 8.8
1 13 14 13.2 8.9
13 1 -14 15.5 9.7
13 -14 14 22 10.8
-13 14 14 7.2 10.6
-14 13 14 18.7 10.9
14 -1 -14 13.9 8.5
1 -14 14 0.8 6.9
14 -13 14 27 11.4
-1 14 14 23.4 13
-7 15 -14 32 10.8
8 7 -14 21.1 9.3
-8 15 14 -0.2 8.3
7 -15 -14 22 8.5
-7 -8 14 4.7 9.4
8 -15 14 21.8 9.4
-7 15 14 29.9 12.2
-8 -7 14 29.2 9.8
8 -15 -14 21.1 8.2
7 8 -14 15.9 8.2
7 -15 14 24.3 9.5
-8 15 -14 21.2 10.7
15 -8 14 24.7 8.8
-6 -9 14 16.4 9.9
9 6 -14 0.4 9.3
-6 15 -14 2.3 10.4
6 -15 -14 13.5 8.6
9 -15 14 20.1 9.9
-9 15 -14 19.8 10.7
15 -9 14 11.5 9.3
-9 -6 14 11.8 9.6
9 -15 -14 6 6.9
-15 9 14 10.6 9.4
-6 15 14 33.4 13.4
6 -15 14 16.3 9.6
-5 -10 14 38.5 10.2
10 -15 14 30.2 9.7
-5 15 -14 47.1 11.2
10 5 -14 48.9 10.6
5 -15 -14 46.9 11.6
-5 15 14 61.09 14.9
-15 10 14 34.6 11.6
-10 15 -14 41.8 12.3
-10 -5 14 38.3 10.8
15 -10 14 47.5 11.2
5 -15 14 39.2 9.3
11 -15 14 26.5 10.2
-4 -11 14 34.2 10.3
11 4 -14 36.2 10.1
-4 15 -14 34.6 10
-15 11 14 11.6 11
-11 -4 14 24.6 9.8
15 -11 14 27.7 11.3
4 -15 14 0.2 6
-11 15 -14 34.1 11
-4 15 14 11.8 13.4
-4 -11 -14 2.7 4.8
0 0 15 2.4 19
0 0 -15 8.6 11.4
0 0 -15 0.1 9.7
-1 0 15 1 25.7
0 -1 -15 48.8 11.6
1 0 15 2.8 20.3
-1 1 -15 106.29 15.6
0 -1 -15 59.29 12.7
1 -1 15 -0.1 19.3
1 -1 -15 80.19 13.3
0 1 -15 87.89 15.3
1 -1 -15 52.59 12.6
-1 0 -15 95.39 14.9
0 1 15 0.5 19.4
1 0 -15 77.09 14.1
0 -1 15 2.2 29.5
1 0 -15 51.09 11.7
1 -2 -15 42.8 11.9
-1 2 15 -0.9 18.2
-2 1 15 -0.8 25.1
2 -1 15 -0.5 19.8
1 1 -15 40.8 13.4
1 1 15 -1.1 19.3
-2 1 -15 26.7 11.9
1 -2 15 -1.1 11.7
1 -2 -15 30.2 11.4
1 1 -15 35.2 11.5
-1 -1 -15 2.1 9.4
-1 -1 -15 49.2 12.7
2 -1 -15 18.7 11.1
-1 2 -15 35.1 12.8
2 -1 -15 37.7 12.6
2 -2 -15 17.1 10.8
2 0 -15 13.2 10.9
2 -2 -15 4.1 11.2
0 2 15 0.7 18.9
2 0 -15 22.4 12.2
0 -2 -15 16.2 10.8
-2 2 15 7.3 12.1
-2 0 -15 16.3 11
-2 2 15 -1.7 17.9
0 -2 -15 11.1 10.6
-2 2 -15 15.2 12.2
2 -2 15 2.9 21.8
2 0 15 7.2 19.4
0 -2 15 -1.9 8.8
0 2 -15 21.3 12.5
3 -1 15 1.6 22.3
3 -2 -15 7.5 10.2
-2 3 15 0.3 20.1
-2 -1 -15 6.5 10.3
-2 3 15 9.4 12.3
2 1 -15 4.3 12.3
2 1 -15 2.9 10.9
1 -3 -15 -6.9 10.4
3 -2 -15 0.8 11.1
-1 3 -15 3.8 12.6
1 -3 -15 4 10.6
-3 1 15 8.7 13.4
2 -3 15 4.1 9.2
-3 2 -15 -8.2 11
-1 -2 15 1.7 9.1
-1 3 15 -2.4 21
3 -1 -15 4.6 10.4
1 2 -15 12.6 13.1
1 -3 15 2.7 9.9
-1 -2 -15 2.5 9.8
1 2 -15 5.9 10.2
3 -1 -15 2.2 11.8
-2 3 -15 5.1 12.1
-3 1 -15 13 11.1
2 -3 -15 9.9 11.1
3 -2 15 2.9 26.6
-3 2 15 7.5 12.2
2 1 15 2.6 28.3
-1 -2 -15 15.7 11
2 -3 -15 4.3 10.2
-3 3 -15 13.6 12.3
3 -3 -15 -3.1 9.7
0 -3 15 0.6 9.7
3 0 -15 7.5 11.8
-3 0 -15 10.4 10.4
3 -3 -15 11.5 11.6
-3 0 15 7 13.1
-3 3 15 11.6 12
0 3 -15 14.1 13.1
0 -3 -15 7 10.7
3 -3 15 -0.3 8.9
3 0 -15 11.2 10.4
0 -3 -15 11 10.8
-2 -2 -15 9.4 10.4
2 -4 -15 10.5 12.1
2 -4 15 -7 9.5
2 2 -15 3.2 10.2
2 2 -15 -7.1 12.9
-2 -2 15 4.6 9.5
-2 -2 -15 4.1 13.1
2 -4 -15 2.1 9.8
-2 4 -15 6.6 12.8
-4 2 15 3.9 12.6
-4 2 -15 1.2 11
4 -2 -15 4.8 9.8
-2 4 15 4 11.7
4 -2 -15 1.4 11.2
4 -3 -15 64.89 12.1
-3 -1 -15 86.99 13.8
3 1 -15 75.29 14.5
-4 1 15 59.49 14.4
1 -4 -15 94.79 14.9
-4 3 -15 89.69 14.9
4 -3 -15 70.39 13.7
3 -4 15 51.09 11.8
-1 4 -15 114.39 16.8
3 1 -15 65.69 12.4
1 -4 -15 65.39 12.3
-1 -3 15 52.09 11.9
-3 4 15 63.09 13.8
4 -1 -15 66.79 12.5
3 -4 -15 93.69 14.1
-1 4 15 95.79 15.4
-1 -3 -15 67.39 12.3
-3 -1 15 105.89 16.6
-1 -3 -15 76.19 12.7
-3 4 -15 101.79 15.7
-4 1 -15 91.99 13.7
-4 3 15 58.09 13.5
3 -4 -15 54.09 11.4
1 3 -15 109.69 16.5
4 -1 -15 76.39 13.7
1 -4 15 49.4 11.5
4 -4 15 24.2 10.8
4 0 -15 33.9 11.1
0 4 15 27.2 12.7
-4 0 -15 51.49 12.1
-4 0 15 36.9 13.6
0 -4 -15 39.8 12.1
-4 4 15 39.3 13
0 -4 15 34.9 11.1
4 -4 -15 31.8 10
0 -4 -15 38.8 11.6
4 0 -15 38 12.2
0 4 -15 43.6 14
-4 4 -15 61.19 13.7
2 -5 -15 29.8 10.9
-2 -3 15 38.2 11.1
-5 3 -15 68.89 13.8
5 -3 -15 35.7 12.2
-3 5 15 63.59 14.3
-2 5 -15 75.19 15.7
-5 2 15 47.6 14.1
5 -3 -15 40.7 11.3
-3 -2 -15 43.1 11.2
3 -5 15 36.3 10.7
3 2 -15 30.8 11.2
3 2 -15 37.7 13.1
-3 5 -15 40.8 13.3
2 3 -15 27.7 10.7
5 -3 15 0.5 10.5
-3 -2 15 40.1 13.8
5 -2 -15 26.1 10.7
2 3 -15 25.6 13.3
-2 -3 -15 11.5 9.4
-5 3 15 26.4 12.8
3 -5 -15 36.5 10.9
-2 -3 -15 36.5 11.6
-5 2 -15 42.5 12.4
2 -5 15 29.3 10.6
-2 5 15 25.2 12.1
-3 -2 15 18.5 9.9
5 -2 -15 30.3 10.4
4 1 -15 30.8 11
-5 1 15 56.49 14.8
1 -5 -15 38.4 11.5
4 -5 15 22.7 10.6
4 1 -15 27.9 11.4
-1 5 -15 40.5 13.3
-5 4 -15 28.8 12.5
5 -4 -15 38.3 10.8
-4 -1 -15 23.2 10.7
-1 -4 15 39.4 11.6
-4 5 15 55.19 14.1
-4 -1 15 49.3 14.4
5 -1 -15 28.3 9.9
-4 5 -15 52.39 14.1
1 -5 15 34.2 10.6
4 -5 -15 43.9 10.8
-1 5 15 45.5 13.8
1 4 -15 3 14.2
5 -1 -15 7.9 10.2
-5 4 15 43.8 13
-5 1 -15 35.3 11.4
5 -4 15 26.4 10.7
-1 -4 -15 41.5 11.8
1 4 -15 41.2 14.2
0 -5 -15 46.5 11.5
5 -5 15 36.2 11
-5 5 15 36.2 12.1
0 -5 15 31.6 10.4
0 5 15 64.09 14.3
5 -5 -15 68.19 11.5
-5 0 -15 50.69 11.8
-5 0 15 65.99 15.7
5 0 -15 61.39 11.6
-5 5 -15 81.99 15
0 5 -15 48.4 14
3 3 -15 -1.1 12.2
3 -6 15 -0.7 9.1
6 -3 -15 8 9.1
-3 6 -15 7.5 12.2
3 3 -15 2.9 9.6
3 -6 -15 -2.8 9.6
-3 -3 15 -1.6 11.8
-3 6 15 6.2 11.9
-3 -3 -15 8.5 10.5
-3 -3 15 3 9.7
-6 3 15 11.7 12.3
-6 3 -15 6.5 11.6
4 2 -15 117.29 15.8
-2 -4 15 73.99 13.8
4 -6 15 78.39 12
2 -6 -15 123.19 14.7
-2 -4 15 80.89 12.5
-6 2 15 123.59 18.3
6 -4 -15 109.99 13.7
-2 -4 -15 115.19 14
2 4 -15 104.09 15.7
2 4 -15 71.39 11.7
4 -6 -15 117.39 15.4
-4 -2 15 101.79 15.1
-2 6 15 141.69 17.1
6 -4 15 109.59 14
-6 2 -15 114.39 16.3
2 -6 15 98.99 14.8
6 -2 -15 103.59 14.6
-4 -2 15 132.79 16.5
-6 4 15 118.29 16.8
-6 1 15 42.4 13.8
-5 -1 -15 42.1 10.8
-6 5 -15 65.69 13.7
1 -6 -15 41.7 11.2
-5 6 15 64.29 14.1
5 -6 15 33.3 10.8
1 5 15 12.7 12.5
5 1 -15 45.9 10.8
6 -5 -15 60.89 10.7
-1 6 -15 48.6 14.2
-1 -5 15 47.2 11.3
-1 -5 -15 71.69 13.4
5 -6 -15 56.29 10.6
1 -6 15 39.4 10.5
6 -5 15 48.1 12.2
-1 6 15 53.69 14.2
-5 6 -15 63.89 14
6 -1 -15 66.99 11.5
-6 5 15 83.89 15
-5 -1 15 50.49 13.7
-6 1 -15 39.3 10.9
1 5 -15 50.49 14.1
0 6 -15 3.3 13.6
0 -6 15 11 10.1
-6 6 -15 17.8 12.5
-6 0 -15 7.2 10.3
6 -6 -15 11.2 8.4
0 -6 -15 8.1 10.7
6 -6 15 12.5 10.7
-6 0 15 8.3 12.4
0 6 15 5.1 12.8
-6 6 15 11.5 11.3
6 0 -15 6.9 9.2
-7 3 15 113.19 16.9
7 -4 -15 78.89 11.5
-3 7 -15 109.79 15.6
-7 4 -15 120.79 15.2
3 -7 -15 98.89 12.7
-3 -4 15 72.69 12.4
-4 7 15 58.89 13.3
4 -7 15 88.39 12.4
4 3 -15 62.39 11.8
3 -7 15 64.39 11.1
7 -3 -15 101.39 13.1
-4 -3 15 67.99 12
4 -7 -15 112.19 13.6
3 4 -15 49.1 10.8
-3 7 15 73.19 13.9
-7 4 15 67.69 14
7 -4 15 58.89 11.6
5 -7 15 13.5 9.6
-7 5 -15 22.3 11.9
-7 2 15 10.6 13.1
5 2 -15 10 9.3
-2 7 -15 15.6 12.7
2 5 15 15.3 12.9
2 -7 -15 16.1 9.9
7 -5 -15 14.8 8.3
-5 -2 -15 13.9 10.5
-5 7 15 34.4 12.9
-2 -5 15 8.4 9.4
-5 -2 15 15.2 10.1
7 -5 15 23.1 10.8
7 -2 -15 24.2 9.4
-2 -5 -15 20.9 10.1
-5 7 -15 28.1 11.9
-7 5 15 23 12.7
2 5 -15 17.4 12.5
-7 2 -15 17.7 10.3
5 -7 -15 26.7 9.6
-2 7 15 19.7 11.9
2 -7 15 17.7 9.6
2 5 -15 3.5 8.1
-1 -6 15 160.18 16.7
-6 7 15 157.78 18.4
-7 1 15 149.39 18.1
6 -7 15 144.99 16.9
-7 6 -15 157.68 18.4
7 -6 -15 170.18 16
1 6 15 137.49 18.6
-1 7 -15 168.58 19.7
6 1 -15 165.38 16.3
1 -7 -15 187.38 17.1
-6 -1 -15 146.69 16.7
7 -6 15 161.48 17.5
6 -7 -15 168.68 16.3
-7 1 -15 140.59 17.1
-6 7 -15 195.28 19.7
-1 7 15 151.38 18.2
7 -1 -15 171.98 16.4
1 6 -15 180.88 19.7
-7 6 15 149.88 17.6
1 -7 15 158.88 16.4
0 7 15 31.5 13.3
7 0 -15 35.8 10
-7 7 15 31.5 11.8
-7 0 15 0.1 9.5
-7 7 -15 34.4 12.2
0 -7 15 32.7 10.2
7 -7 15 24.9 10.9
7 -7 -15 31.4 9.5
0 7 -15 32.1 13.9
-7 0 -15 36.1 10.7
0 -7 -15 22.4 11.1
8 -4 15 -0.3 9.1
-4 -4 15 7.9 9.4
4 -8 15 -2.1 8.4
-8 4 15 15 11.3
-4 8 -15 5 11
4 -8 -15 2.9 8.7
8 -4 -15 -0.8 7.9
-8 4 -15 10.1 10.4
-4 8 15 7.7 11.4
4 4 -15 7.1 9.2
-8 3 15 60.89 13.2
-3 -5 15 73.19 12
8 -5 -15 75.39 10.5
5 -8 15 70.79 11.6
-8 5 -15 87.09 13.2
3 5 15 42.4 12.8
-5 8 15 61.49 13.4
-3 8 -15 82.49 13.9
5 3 -15 84.49 12.3
3 -8 -15 70.49 11.5
8 -5 15 66.79 12.2
-5 -3 15 94.29 14
3 5 -15 73.09 11.1
-3 8 15 88.39 14.4
5 -8 -15 97.59 13.7
-8 3 -15 117.19 13.9
3 -8 15 93.29 13.7
8 -3 -15 136.99 14.2
-8 5 15 50.69 12.8
-2 -6 15 55.99 11.1
6 -8 15 53.89 10.7
-8 2 15 45.9 12.7
2 -8 -15 60.09 11.3
-6 8 15 40 11.9
2 6 15 55.89 13.6
6 2 -15 48.3 10.3
8 -6 -15 52.29 9.5
-8 6 -15 84.89 13.7
-2 8 -15 60.19 13.7
2 6 -15 32 11.8
6 -8 -15 59.99 10.5
-2 -6 -15 55.89 11.1
-8 2 -15 51.59 10.6
8 -2 -15 55.79 10
8 -6 15 57.09 11.6
2 -8 15 50.59 10.2
-2 8 15 46 13
-6 -2 15 38.2 10.5
-8 6 15 47.2 12.8
8 -7 -15 62.79 10.6
1 7 15 35.6 11.4
-8 7 -15 59.89 12.8
-1 8 -15 60.29 13.8
-7 8 15 24.6 11.3
7 1 -15 59.99 10.8
1 -8 -15 49.7 10.2
-1 -7 15 58.49 10.9
7 -8 15 63.99 11.4
-1 -7 -15 47.2 10.9
8 -7 15 67.99 12.1
1 -8 15 47.6 10.7
8 -1 -15 47.7 9.8
-7 8 -15 55.69 12.9
7 -8 -15 61.49 10.3
1 7 -15 58.19 13.2
-8 1 -15 54.89 10.8
-1 8 15 36.4 12.3
-8 7 15 36.8 11.9
8 -8 15 75.99 12.2
8 -8 -15 72.59 11.2
0 8 -15 78.99 15.2
0 -8 15 77.69 12.1
0 -8 -15 83.59 11.9
8 0 -15 61.89 10.6
-8 8 15 70.49 13.4
-8 8 -15 100.79 14.2
-4 9 -15 44.7 12.7
5 -9 15 34.9 9.5
5 4 -15 52.39 10.6
-9 5 -15 49.3 11.5
9 -5 -15 50.19 9.4
-9 4 15 37 12.3
-5 9 15 23.1 11.3
-4 -5 15 52.69 10.5
4 -9 -15 44 10.3
-9 4 -15 43.5 10.6
9 -4 -15 77.39 11.3
9 -5 15 34.6 10.7
-4 9 15 33.6 12.3
5 -9 -15 59.79 10.6
4 5 -15 54.19 10.4
-9 5 15 40.5 12
-5 -4 15 58.19 10.9
4 -9 15 44.1 10
-5 9 -15 77.89 13.7
6 -9 15 2.3 8.4
-9 3 15 0.3 10.8
-3 9 -15 1.4 11
6 3 -15 0 8.2
-9 6 -15 1.9 10.6
-6 9 15 -3.4 10.5
9 -6 -15 5 7.5
3 -9 -15 4.7 9.1
-3 -6 15 1.6 8.6
-3 -6 -15 6.4 8.6
9 -3 -15 -0.3 7.6
6 -9 -15 -2.4 7.9
3 -9 15 9.9 8.3
9 -6 15 -3.5 9.5
3 6 -15 3.2 7.8
-6 -3 15 0.6 9.3
-9 3 -15 5.7 8.8
-3 9 15 1.9 10.8
-9 6 15 8.1 10.9
-6 9 -15 10.3 10.6
7 2 -15 80.29 11.5
7 -9 15 94.39 12.3
-2 9 -15 106.89 14.8
2 -9 -15 95.09 12.3
9 -7 -15 102.99 12.7
-7 9 15 77.19 13.7
-2 -7 15 57.89 10.5
-9 7 -15 136.09 15.1
7 -9 -15 88.39 11.2
-2 -7 -15 69.89 11.3
-7 -2 15 70.19 11.3
2 -9 15 79.29 10.8
9 -2 -15 103.79 12.5
-9 7 15 52.69 12.4
9 -7 15 70.29 11.7
-2 9 15 48.9 11.7
-9 2 -15 95.19 11.3
8 -9 15 45 10.7
8 1 -15 44.5 10
9 -8 -15 45.7 9.3
-1 -8 15 54.79 10.2
1 -9 -15 36 9.6
-9 8 -15 49.8 12
-1 9 -15 52.89 13.1
-8 9 15 42.9 12.1
-8 9 -15 56.49 12.7
-1 -8 -15 52.39 11.1
9 -1 -15 74.89 10.7
1 8 -15 39.8 12.7
9 -8 15 47 10.4
1 -9 15 67.29 10.6
-9 8 15 45.9 12.1
8 -9 -15 64.49 10.3
9 0 -15 2.6 7.9
-9 9 -15 8.6 10.6
0 9 -15 5.5 11
-9 9 15 1.8 10.6
0 -9 15 8.5 8.1
9 -9 -15 14.4 8.1
0 -9 -15 7.2 8.7
9 -9 15 7.3 9.1
0 -9 -15 0.6 3.1
-10 5 15 -2.9 10.6
-5 10 -15 1.7 10.6
-5 10 15 1 10.9
5 5 -15 -0.4 8.3
10 -5 15 0.6 8.9
5 -10 -15 -0.4 8.1
-10 5 -15 5.4 8.7
5 -10 15 0.6 8
10 -5 -15 14.5 8.3
-5 -5 15 -2.5 8.4
4 -10 -15 6 8.6
6 4 -15 4.5 8.4
10 -6 -15 0.5 7.4
-10 4 15 8.1 11.2
-6 10 15 5 10.6
6 -10 15 6.6 8.4
-10 6 -15 9.8 9.5
-4 10 -15 -3.2 10.2
-4 -6 15 5.4 8.3
4 -10 15 7.4 8.4
-6 10 -15 -0.1 9.9
-10 4 -15 2.3 8.6
-10 6 15 11.5 11.4
-6 -4 15 -2.5 8.7
-4 10 15 16.3 11.3
6 -10 -15 8.7 8.7
4 6 -15 1.2 7.8
10 -6 15 8.5 9.4
10 -4 -15 6.6 7.8
-10 7 -15 9.5 10.5
7 -10 15 3.3 8.2
10 -7 -15 9.3 7.5
-3 10 -15 13.8 10.8
7 3 -15 5.2 8.4
3 -10 -15 -2.2 8.6
-3 -7 15 -0.6 8
-10 3 15 0.1 9.9
-7 10 15 -0.3 10
-3 -7 -15 11.4 8.8
10 -7 15 15.5 9.8
-7 10 -15 19.4 10.7
10 -3 -15 12.5 7.7
-10 7 15 16.5 11
-3 10 15 9 10.3
-7 -3 15 6.4 9
7 -10 -15 11.7 8.2
3 -10 15 18.5 8.9
-2 -8 15 1 8
-8 10 15 8.9 10.6
8 -10 15 9.7 8.7
2 -10 -15 -0.1 3.3
-2 10 -15 1.9 10.9
10 -8 -15 4.4 7.6
-10 8 -15 7.9 10.2
8 2 -15 0.2 7.9
2 -10 -15 3.3 8.2
10 -2 -15 -0.7 8
-8 -2 15 7 8.7
-10 8 15 2.4 10.5
2 -10 15 1.1 8
-8 10 -15 9.9 10.8
8 -10 -15 4.2 7.6
-2 -8 -15 2 9.3
10 -8 15 7.4 9.1
10 -9 -15 30.8 8.7
-1 -9 15 27.8 8.8
-9 10 15 15.3 10.3
9 -10 15 37.9 9.9
9 1 -15 26 9.1
1 -10 -15 23.8 8.9
-1 10 -15 26.8 11.6
-10 9 -15 38.2 11.1
-9 10 -15 40.9 12.2
1 -10 15 21.3 8.4
-1 -9 -15 28.2 9.8
9 -10 -15 33.1 8.3
10 -9 15 19.4 9.1
10 -1 -15 30.7 8.5
-10 9 15 24 11.6
-9 -1 15 -2.8 12.9
-10 10 -15 52.89 11.8
0 -10 -15 37.7 9.9
0 10 -15 6.2 14.8
0 -10 15 41.4 9.3
10 -10 -15 48.2 8.7
10 0 -15 42.7 9
10 -10 15 35.9 9.7
-10 10 15 39.9 10.8
-6 11 15 20.5 10.8
-5 -6 15 0.1 8.5
11 -6 -15 -2.2 7.1
5 -11 -15 4.7 7.8
6 -11 15 7.2 8.2
6 5 -15 8.3 8.1
-5 11 -15 -2.7 10
-11 5 15 5.9 10.4
-11 6 15 9.2 10.8
-5 11 15 6.2 10.4
-6 11 -15 8.5 10.2
11 -5 -15 2.8 7.7
5 -11 15 -1.9 7.8
11 -6 15 0.7 8
5 6 -15 4 8
-6 -5 15 4.6 8.8
6 -11 -15 4.1 8.3
7 4 -15 4.8 8.6
11 -7 -15 5.6 7.5
4 -11 -15 5.3 8
-4 -7 15 5.3 7.9
-11 4 15 1.1 9.8
7 -11 15 11.1 8.4
-4 11 -15 -1.1 10.3
-7 11 15 5.1 10.2
4 -11 -15 -0.1 3.7
11 -7 15 5.2 8.7
4 -11 15 6.8 8
-7 11 -15 0.4 10
-7 -4 15 7.3 9
-11 7 15 8.9 10.3
-4 11 15 -0.1 15.2
7 -11 -15 11.2 8.2
11 -4 -15 2.4 7.8
8 3 -15 -2.7 7.9
11 -8 -15 1.8 7.1
-3 11 -15 -4.2 10.3
-8 11 15 0.7 10.2
-11 8 -15 4.4 8.3
8 -11 15 3.9 7.9
3 -11 -15 0.4 2.9
3 -11 -15 4.5 8.3
-3 -8 15 5.7 7.9
3 -11 15 3.8 8.1
-11 8 15 2.8 10.4
-8 -3 15 2.7 8.3
11 -3 -15 2.8 7.6
-3 -8 -15 0 3.5
11 -8 15 9.8 9
-8 11 -15 2.8 10.5
-3 -8 -15 5.8 7.3
8 -11 -15 6.3 8.3
-11 9 -15 1.9 8
-2 -9 15 13.7 8.3
2 -11 -15 16.9 8.8
-9 11 15 14.9 9.6
9 2 -15 21.9 8.7
11 -9 -15 13.4 7.6
-2 11 -15 10.1 10.4
9 -11 15 21.1 9
-9 11 -15 12.6 10.6
-9 -2 15 11.1 7.6
2 -11 15 21 8.6
11 -9 15 13.1 9.1
-2 -9 -15 4.6 9.1
-11 9 15 10.7 10.9
9 -11 -15 17.4 8.1
11 -2 -15 12.4 8
10 -11 15 15.9 9
-1 -10 15 14.5 8.2
-1 11 -15 2.5 9
-11 10 -15 8.3 8.5
10 1 -15 9.2 8.4
1 -11 -15 11.6 9.2
11 -10 -15 6.8 7.4
-10 11 15 6.8 9.9
-11 10 15 12.7 10
11 -1 -15 7.9 8.2
-1 -10 -15 3.8 9.2
10 -11 -15 13.7 7.8
11 -10 15 8.2 9.2
1 -11 15 9.7 8.2
-10 11 -15 21.6 11.4
11 -11 15 6.9 9.6
0 -11 -15 0 3.1
11 -11 -15 5.2 7.3
-11 11 15 8 10
11 0 -15 -2.2 8.1
-11 11 -15 6.8 8.5
0 -11 -15 4.7 9.1
0 -11 15 -3.3 8.3
6 -12 -15 8.5 7.6
-6 12 15 -0.5 8.4
6 6 -15 15.1 8.2
-6 12 -15 8.8 10.4
-6 -6 15 12.4 8.5
-12 6 15 3.3 9.7
6 -12 15 15.3 8.7
12 -6 -15 12.1 7.4
-5 12 -15 4.8 10.1
5 -12 -15 6.5 7.9
-7 12 15 7.2 9.6
7 5 -15 0.7 8.3
-5 -7 15 12.6 9
7 -12 15 6.3 8.5
5 -12 -15 -0.1 2.6
12 -7 -15 3.8 7.1
5 -12 15 3.8 8
-7 -5 15 5.7 8.6
12 -5 -15 4.8 7.5
-7 12 -15 5.1 10.2
5 7 -15 1.9 7.2
7 -12 -15 8.9 8.2
12 -7 15 9.1 7.9
-12 7 15 3.7 10.3
-8 12 15 2.8 8.8
4 -12 -15 -0.2 2.6
12 -8 -15 3.5 7.2
4 -12 -15 -6.9 7.9
-4 12 -15 3 9.9
8 -12 15 10.7 8.6
-4 -8 15 2.2 8.3
8 4 -15 4.5 8.3
12 -8 15 4.1 8.9
-4 -8 -15 0 3.3
-12 8 15 -6.2 10.4
8 -12 -15 -1 7.9
4 -12 15 -2.5 8.2
-8 12 -15 -4 10.1
12 -4 -15 5.8 7.9
-8 -4 15 3.4 8.5
3 -12 -15 -4.5 8.6
-9 12 15 4 9.4
9 3 -15 10.5 8.2
12 -9 -15 6.6 7.5
-3 -9 15 -0.4 8.3
9 -12 15 -5.5 8.7
-3 12 -15 15.9 10.4
3 -12 -15 -0.1 2.7
-3 -9 -15 -0.1 2.6
12 -9 15 5.4 9.2
-9 -3 15 3.7 7.5
12 -3 -15 3.1 8.1
9 -12 -15 0.2 7.9
-12 9 15 6.3 10.2
3 -12 15 7.4 8.7
-9 12 -15 6.4 10.5
-2 -10 15 9.6 9.1
2 -12 -15 1.1 3.1
-2 12 -15 7.3 8.8
12 -10 -15 5.4 6.5
10 2 -15 13.4 8.8
2 -12 -15 8.8 9.5
10 -12 15 14.1 9
-10 12 15 2.4 9.2
12 -10 15 10.3 9.6
-12 10 15 9.3 10.1
12 -2 -15 6.2 8.5
-2 -10 -15 1.3 3.3
-10 -2 15 -3.2 12.3
2 -12 15 11.8 8.6
10 -12 -15 7 8
-10 12 -15 5 11.3
12 -11 -15 3.6 5.9
11 1 -15 14.9 9.2
-11 12 15 4.1 10.6
-1 -11 15 11.7 8.9
11 -12 15 19.7 9.2
1 -12 -15 20 10
12 -1 -15 23 9.7
-12 11 15 15.9 10.9
11 -12 -15 3.5 6.2
12 -11 15 17 10.8
-11 12 -15 2.6 7.6
1 -12 15 16.1 9.2
-12 12 15 12.2 11.3
-6 13 -15 0.5 10.9
6 -13 -15 4.2 8.5
-7 13 15 1.3 8.7
-6 -7 15 8.3 9.4
7 6 -15 9.1 8.4
13 -7 -15 4.3 6.9
7 -13 15 6.5 9.1
13 -6 -15 -0.3 7.3
6 7 -15 4.4 9.9
-7 -6 15 -3.3 8.5
7 -13 -15 4.2 8.5
6 -13 15 12.2 9.2
-13 7 15 1.3 8.3
-7 13 -15 -1.4 11.1
-5 -8 15 8.5 9.6
5 -13 -15 -5.7 8.5
-5 13 -15 -5.2 11
5 -13 -15 0.3 3.4
-8 13 15 1.7 8.6
8 -13 15 2.3 8.9
13 -8 -15 2.5 6.2
8 5 -15 1.3 8.8
5 -13 15 -8.2 8.6
-8 13 -15 -2.6 10.9
13 -8 15 1.6 7.1
-13 8 15 -1.2 10.7
-8 -5 15 8.7 9.5
13 -5 -15 8.7 8
8 -13 -15 1.4 8
9 4 -15 2.7 9.4
-4 13 -15 2.6 10.6
-9 13 15 4.7 8.6
13 -9 -15 3.2 5.9
4 -13 -15 0 2.6
9 -13 15 4.8 9.4
4 -13 -15 -1 9
-4 -9 15 3.4 9.4
-9 13 -15 13.6 11.7
4 -13 15 3.5 9.4
13 -9 15 3.7 9
-13 9 15 -3.8 10.5
13 -4 -15 4.2 8.5
9 -13 -15 -4 7.3
-9 -4 15 1.7 8.7
-3 -10 15 16.3 9.7
-3 13 -15 8.1 8.1
3 -13 -15 21.1 10.8
-10 13 15 7.5 10.9
10 -13 15 21.8 9.5
10 3 -15 10.7 8.9
13 -3 -15 11.7 9
-10 13 -15 18.1 11.2
3 -13 15 12.9 9.4
13 -10 15 29.9 10.7
10 -13 -15 9.6 6.2
-13 10 15 17.6 11.1
-10 -3 15 -0.4 6
-3 13 15 23.3 13.8
0 0 -16 3.1 9.9
0 0 -16 0.4 10.1
1 0 -16 3.9 9.9
1 0 -16 8.3 10.2
0 1 -16 4.1 10.9
-1 0 16 -9.4 11.6
0 -1 -16 6.1 9.1
1 -1 -16 4.1 9.7
1 -1 -16 4.1 10.3
-1 0 -16 -0.2 9.5
-1 1 -16 3.3 10.6
-1 1 16 4.7 11.4
0 -1 -16 3.9 10.2
-2 1 16 9 11.9
1 -2 -16 3.1 9.9
-1 2 16 12.7 11.5
-1 2 -16 6.8 10.4
2 -1 -16 3.1 9.4
1 1 -16 -2 8.3
-2 1 -16 4.7 10.4
2 -1 -16 10.7 10.7
-1 -1 -16 6.2 9.8
1 -2 -16 -3.5 10.5
1 1 -16 -2.5 10.8
-1 -1 16 7.9 11.8
0 -2 -16 12.8 10.5
-2 0 16 10.6 11.7
2 0 -16 3.1 9.5
2 -2 -16 7.9 10.3
2 -2 -16 14 11.1
-2 2 -16 5.6 10.6
0 -2 -16 4.3 10
0 2 16 8.4 11.7
2 0 -16 6 10.8
-2 0 -16 11.1 9.8
0 2 -16 2.3 10.6
-2 2 16 11.6 11.5
1 -3 -16 35.5 10.5
-3 2 -16 32.8 11.2
-1 -2 16 25.8 12.5
3 -2 -16 26.3 10
2 1 -16 31.2 11.6
-2 3 16 46.2 12.7
3 -2 -16 36.1 12
2 1 -16 38.1 10.5
-1 3 -16 48.5 12.4
-2 -1 -16 40.9 11.2
-3 1 16 16.6 12
2 -3 -16 33.2 10.5
1 2 -16 45 12.3
-1 -2 -16 5 13.7
-1 3 16 38.1 12.9
-1 -2 -16 38 11.2
-2 3 -16 38.1 11.7
3 -1 -16 34.6 10.4
-2 -1 16 20.6 12.4
-3 2 16 51.19 13.3
3 -1 -16 20.6 10.9
-3 1 -16 44.9 11.4
-3 3 -16 1 10.7
3 0 -16 4.8 9.8
-3 0 16 7 11.8
-3 0 -16 7.8 9.8
-3 3 16 0.6 10.9
0 -3 16 -0.7 8.3
0 3 16 7.1 11.3
3 -3 -16 6.4 9.4
0 3 -16 2.1 11.1
0 -3 -16 9.1 9.8
3 0 -16 4.2 10.6
2 -4 -16 1.2 9.4
2 2 -16 0.6 11
-2 4 16 5.7 11.1
2 2 -16 0 8.9
-4 2 16 -1 10.6
-2 4 -16 11.3 11.3
2 -4 16 -0.2 8.7
-2 -2 -16 10.1 10.1
-2 -2 16 8.5 12.1
4 -2 -16 5.9 9
-4 2 -16 -2.4 9.4
-4 3 -16 104.59 14.1
-1 -3 16 75.79 14.1
3 1 -16 79.39 11.9
4 -3 -16 93.89 11.9
-3 -1 -16 85.09 12.6
1 -4 -16 85.79 12.9
1 3 16 51.79 12.5
-1 4 -16 62.89 13
-3 4 16 55.89 12.3
-4 1 16 72.89 13.9
3 1 -16 61.29 12.1
-3 4 -16 79.39 13.4
4 -1 -16 79.59 12
-4 1 -16 93.89 12.6
3 -4 -16 88.89 12.9
1 -4 16 73.89 11.4
-4 3 16 68.49 12.4
4 -1 -16 67.49 12.5
-1 4 16 108.89 15.1
-3 -1 16 80.49 14.6
1 3 -16 69.79 13
-4 4 16 26.9 11
0 -4 16 14.8 9.1
0 4 16 23.3 12
0 4 -16 25.3 12
4 0 -16 34.6 10.3
4 -4 16 -1.3 8
4 -4 -16 25.8 9.6
-4 4 -16 26.5 10.8
-4 0 16 27.4 12
0 -4 -16 27.4 10.4
4 0 -16 9.8 9.4
-4 0 -16 19 9.7
3 -5 16 6.2 8.4
3 2 -16 17.6 9.3
-2 -3 16 5.3 8.3
-5 3 -16 9.8 10
2 3 16 12.3 11.7
-3 5 16 21.7 11.5
3 2 -16 9.4 10.6
-2 5 -16 7.2 10.9
5 -3 -16 12.2 8.5
-5 2 16 10.7 11.4
-2 -3 16 21.6 11.6
2 -5 -16 13.6 9.8
-3 -2 16 27.9 12
-5 2 -16 19.5 9.6
-2 5 16 9.2 11.2
-5 3 16 9.5 11
-3 5 -16 32.3 11.5
5 -2 -16 8.2 8.6
2 3 -16 18.2 11.6
2 -5 16 12.6 8.9
2 3 -16 1.5 9.3
3 -5 -16 15.6 9.3
-1 5 -16 8.5 11.4
-4 5 16 13.6 10.9
1 4 16 12.6 10.6
5 -4 -16 10.6 9
-1 -4 16 7 8.5
-4 -1 -16 15.4 10.4
4 1 -16 10.2 9.6
4 -5 16 7.2 8.5
-1 -4 16 10.5 11.2
1 -5 -16 5 9.8
-5 4 -16 9.2 10.1
-5 1 16 16.5 11.7
-1 5 16 14.3 11.4
-5 1 -16 18.5 9.9
1 4 -16 19.5 11.6
-5 4 16 7.7 11
-4 -1 16 8.5 10.9
5 -1 -16 16.4 9
4 -5 -16 13.9 9.1
1 -5 16 9.1 9.1
-4 5 -16 9.2 11
-1 -4 -16 5.1 9.6
-5 5 -16 31.6 11.3
0 5 -16 18.9 11.4
5 -5 16 12.1 8.5
0 -5 -16 18.4 10.5
5 0 -16 23.9 9.4
0 5 16 16.8 11.2
-5 0 -16 8.4 8.6
-5 5 16 7.5 10.6
0 -5 16 15.9 9.1
-5 0 16 16.5 11.4
5 -5 -16 23.6 9.5
3 3 -16 27.9 8.9
-3 6 16 15.8 10.5
-6 3 16 17.2 11.5
3 3 -16 4.9 10.2
3 -6 16 27.8 9
-6 3 -16 45.1 10.8
3 3 16 5.1 11.3
-3 -3 16 20.6 8.8
-3 6 -16 40.3 11.6
-3 -3 16 1.6 11.7
3 -6 -16 35.6 10
6 -3 -16 20.5 8.5
-6 2 16 13.3 11.7
-2 6 -16 30 11
4 -6 16 13.3 8.7
-4 6 16 29 11.2
6 -4 -16 34.2 9.4
-6 4 -16 22.5 10.6
-2 -4 16 20.1 9.2
2 -6 -16 8.7 9.4
2 4 16 19.6 11.6
4 2 -16 32.4 9.8
-6 4 16 24.1 11.4
2 4 -16 24.4 10.7
6 -2 -16 36.1 9.2
-4 -2 16 0.6 10
4 -6 -16 32.7 10.1
-4 6 -16 17.6 10.5
-2 6 16 27.2 10.8
2 -6 16 20.8 9.3
-6 2 -16 38 10.1
-1 -5 16 13.6 8.8
1 5 16 11.2 11.5
1 -6 -16 12 10.3
6 -5 -16 15.5 8.4
5 1 -16 10.2 9.2
-6 1 16 13.6 10.9
-5 6 16 1.2 10.5
5 -6 16 4.1 8.3
-6 5 -16 18.2 10.4
-1 6 -16 -3 10.5
-1 6 16 1.7 10.4
5 -6 -16 15.1 8.7
6 -1 -16 14.4 9.2
6 -5 16 5.7 8.2
-6 1 -16 18.6 10
-6 5 16 1.2 9.9
1 5 -16 18 11.6
-1 -5 -16 9.6 9
-5 6 -16 22.5 11.1
1 -6 16 8.8 9
-5 -1 16 0.3 10.3
-6 6 -16 -0.3 9.8
0 -6 16 5.6 8.1
6 -6 -16 11.2 9.1
0 6 -16 -0.8 10.7
-6 6 16 -0.1 10.6
6 -6 16 5.6 8.1
0 6 16 11.3 10.3
-6 0 16 3.6 9.2
-6 0 -16 5.1 9.9
0 -6 -16 0.4 8.8
6 0 -16 7.7 8.9
-3 7 -16 2.4 10.3
4 -7 16 6.5 8.2
-7 3 16 6.9 10.6
4 3 -16 1.7 8.4
3 -7 -16 12 9.8
3 4 16 3 11.1
-7 4 -16 10.2 9.8
-4 7 16 11.1 11.1
7 -4 -16 8.3 7.8
-3 -4 16 6 8.2
7 -3 -16 11.5 8.3
-7 3 -16 6.5 9.6
-7 4 16 4.5 10.8
-4 -3 16 2.5 7.8
-3 7 16 8 10.5
3 -7 16 9.7 8.2
4 3 16 -2.2 10.9
-4 7 -16 3.2 10.5
4 -7 -16 8.3 8.8
3 4 -16 1.8 9.3
7 -5 -16 -0.6 7.6
2 5 16 -1.9 11
5 2 -16 4.4 8.5
-5 7 16 5.5 9.5
-2 -5 16 4.7 8.1
-7 5 -16 -1.3 9.5
2 -7 -16 4.6 9.6
-2 7 -16 3 10.7
5 -7 16 -4.4 8
-7 2 16 5.8 10.4
5 -7 -16 1.1 8.2
2 5 -16 4.1 11
7 -2 -16 4.3 8.1
2 -7 16 9.5 8.5
-7 2 -16 10.6 9.6
-7 5 16 2.3 10.2
-2 7 16 2.9 10.3
-5 7 -16 4.9 10.6
1 6 16 -1.8 9.7
-1 7 -16 4.7 10.6
-7 6 -16 6.3 10.4
-6 7 16 1.9 9.8
6 1 -16 3.4 8.1
7 -6 -16 1.8 7.8
6 -7 16 3.7 8.1
-1 -6 16 4.1 8.2
-7 1 16 0.2 9.8
1 -7 -16 9.4 8.9
7 -6 16 6.7 7.6
-1 7 16 12.9 10.6
-7 1 -16 4.2 9.5
6 -7 -16 3.6 7.9
-6 7 -16 0.8 10
1 6 -16 3 10
-1 -6 -16 6.3 8
-7 6 16 2.8 10
7 -1 -16 4.3 8.5
1 -7 16 7.9 8.6
7 0 -16 4.5 8.3
7 -7 16 11.7 8
7 -7 -16 11.6 8.1
0 -7 16 5.5 7.9
0 7 -16 15.5 10.7
-7 7 -16 9.8 10.6
0 7 16 -1.8 9.6
-7 7 16 1.9 10.4
0 -7 -16 11.1 8.6
-4 8 16 6.4 9.9
4 4 16 4.3 9
-4 -4 16 12.3 8.1
-4 8 -16 8.3 10.2
8 -4 -16 10.7 8
-8 4 16 9.6 10.4
4 4 -16 3.8 7.3
4 -8 -16 21.9 9.1
4 -8 16 13 8.3
-8 4 -16 11.7 9.4
3 5 16 -4.5 9.9
-3 -5 16 7.3 8
8 -5 -16 9 7.7
5 3 -16 9.9 8.5
5 -8 16 3.8 8
-3 8 -16 2.8 10.1
-8 3 16 2.2 10.4
-8 5 -16 9.2 9.5
-5 8 16 4.3 10
3 -8 -16 14.4 9.1
-3 8 16 3.4 9.7
8 -3 -16 5.7 7.6
-5 8 -16 8.8 10.3
5 3 16 -0.6 10.1
3 -8 16 6.9 8
5 -8 -16 3.8 8.1
-8 3 -16 12.9 9.6
-5 -3 16 9.1 8
-8 5 16 -4.2 10.7
-2 8 -16 0.5 10.1
-8 6 -16 10.4 9.9
-2 -6 16 2.5 7.5
6 -8 16 0.2 7.6
2 6 16 -0.4 12.6
6 2 -16 -4.6 8.4
2 -8 -16 4.9 8.8
-8 2 16 5.1 9
8 -6 -16 2.1 7.5
-6 8 16 0.9 10.3
2 -8 16 8.1 8.6
8 -2 -16 6.5 8.6
6 -8 -16 7.7 8.1
-8 2 -16 4.6 9.2
-8 6 16 3.7 10.2
8 -6 16 -3.2 7.2
-6 8 -16 -3.8 9.7
-2 8 16 7.8 9.7
1 -8 -16 10.2 9.4
7 1 -16 9.9 8.3
7 -8 16 3.9 7.2
-1 -7 16 6.7 7.8
-7 8 16 7.2 10.3
-8 7 -16 9.7 10.5
-1 8 -16 16.2 10.4
8 -7 -16 8.1 7.9
-7 8 -16 11.9 10.4
7 -8 -16 11.9 8.1
-1 -7 -16 21.1 8.4
-1 8 16 -2.2 8.5
8 -7 16 17.9 8.2
-8 7 16 13.9 10.9
1 -8 16 14.5 7.8
8 -1 -16 12.8 8.6
-8 8 16 -0.5 10
-8 8 -16 16.3 11
0 -8 -16 4.6 9.1
8 -8 16 9.1 8
8 0 -16 4 8.1
0 -8 16 3.1 7.8
8 -8 -16 8.1 8.4
0 8 -16 4.1 8.8
5 -9 16 2.7 7.7
-5 9 16 6.6 10.2
-9 5 -16 13.4 9
-4 9 -16 5.2 10.4
-4 -5 16 5.2 7.9
9 -5 -16 16.1 7.9
5 4 -16 13.5 8.2
-9 4 16 6.7 10.5
4 -9 -16 4 9
-5 -4 16 8.3 7.5
-5 9 -16 -2.3 10
-9 5 16 5.3 10.5
-4 9 16 -0.4 9.9
4 -9 16 8.4 7.7
9 -4 -16 -6.1 7.3
5 -9 -16 3 8.4
-9 4 -16 7.9 8.4
6 3 -16 2.6 8.6
-6 9 16 6.3 9.9
-3 9 -16 1.5 9.8
-9 6 -16 19.7 9.7
-3 -6 16 6.3 7.7
-9 3 16 4.5 8.5
3 -9 -16 0.9 8.2
9 -6 -16 9.2 8
6 -9 16 11.6 8.1
9 -3 -16 10.2 7.6
-6 9 -16 11.6 10.7
-6 -3 16 -0.4 7
-9 6 16 11.2 10.9
-3 9 16 9.6 9.6
3 -9 16 5.4 8
-9 3 -16 3.5 7.6
6 -9 -16 -1.3 8.2
-7 9 16 3.1 9.9
7 2 -16 3.4 8.7
-2 9 -16 1.1 10.2
-2 -7 16 1.7 7.4
9 -7 -16 3.7 7.7
2 -9 -16 1 8.4
-9 7 -16 12 10.2
7 -9 16 1.6 7.4
-9 7 16 8.9 10.7
-2 9 16 -0.3 16
7 -9 -16 9.4 8.6
-7 9 -16 1.8 10.3
9 -7 16 5.7 7.2
9 -2 -16 10.9 8.6
2 -9 16 10.4 8.3
-8 9 16 2.9 10.5
-1 9 -16 4.4 9
-9 8 -16 1.9 10.3
9 -8 -16 -1.2 7.6
8 -9 16 3.2 8.2
8 1 -16 -0.8 8.3
-1 -8 16 4.5 8.2
1 -9 -16 7.9 9.5
-1 -8 -16 3 7.6
-8 9 -16 1.2 10.7
9 -1 -16 3.5 8.5
-9 8 16 10 10.7
8 -9 -16 5.9 8
9 -8 16 -1.2 7.3
1 -9 16 3.3 7.9
-9 9 -16 14.1 10.7
0 -9 16 12.6 8.7
9 -9 16 10.7 8.6
0 -9 -16 7.6 9.3
9 0 -16 3 8.5
9 -9 -16 7 8.1
-9 9 16 3.6 10.4
-5 -5 16 7.2 8.3
-5 10 16 6.5 9.4
-5 10 -16 12.3 10.9
-10 5 16 4.7 9.9
5 -10 16 15.3 8.3
10 -5 -16 10.8 8.4
5 -10 -16 11.7 8.9
-6 10 16 7 9.9
-10 4 16 0.7 10
4 -10 -16 12 9
10 -6 -16 4 7.8
6 4 -16 6.5 8
-4 10 -16 -0.9 10.4
6 -10 16 4.9 8.6
-4 -6 16 2.7 8.1
-6 10 -16 4.4 10.6
10 -4 -16 8.2 8.4
-4 10 16 2.2 9.1
4 -10 16 0.8 8.5
6 -10 -16 -1.9 8.7
-10 6 16 -4 11
-6 -4 16 2.1 7.1
-7 10 16 -4.4 10.1
-10 7 -16 3.1 10.7
3 -10 -16 -0.4 8.8
7 -10 16 -1.3 8.1
-3 -7 16 4.6 8.5
10 -7 -16 -2.1 8.3
7 3 -16 1.1 8.6
-3 10 -16 -4.4 10.1
7 -10 -16 0.2 8.8
-10 7 16 7.1 11
-7 10 -16 -4.8 10.5
10 -3 -16 -3.9 8
3 -10 16 -2.3 8.6
2 -10 -16 14.9 10.2
8 -10 16 10.2 8.9
-10 8 -16 6.8 7.9
8 2 -16 3.5 9.4
-8 10 16 1.3 9.9
-2 10 -16 8.6 9.5
-2 -8 16 6.3 9
10 -8 -16 16.6 8.3
10 -8 16 6.1 6.7
-8 10 -16 11.5 11.4
10 -2 -16 13 9.4
8 -10 -16 13.7 9
-10 8 16 4.9 10.9
2 -10 16 7.8 8.9
-1 -9 16 6.1 8.8
-10 9 -16 3.3 7.6
-9 10 16 15.6 11.4
10 -9 -16 5.4 8.6
1 -10 -16 6 9.8
9 -10 16 2.1 8.8
9 1 -16 2.8 9.1
9 -10 -16 10.1 9.1
1 -10 16 0.7 9.2
-10 9 16 -3.1 10.6
10 -1 -16 0.6 9.2
10 -9 16 2.5 8.3
-9 10 -16 6.8 11.3
-10 10 16 -4.7 10.8
5 -11 -16 3.7 9
-5 -6 16 4.6 9.1
6 -11 16 1.7 9.1
-5 11 -16 13.9 11.9
-6 11 16 3.7 7.8
11 -6 -16 7.1 8.8
-11 6 16 0 7.9
-6 -5 16 1 6.7
6 -11 -16 -2.1 8.7
-6 11 -16 -2.3 11.5
5 -11 16 5.8 9.5
11 -5 -16 -1.4 8.9
-7 11 16 0.6 9.7
-4 11 -16 5.3 11.6
-4 -7 16 5.3 9.2
4 -11 -16 7.5 9.7
7 4 -16 -3.2 8.5
7 -11 16 4.6 9.2
11 -7 -16 9.9 9.1
11 -4 -16 13.1 9.3
-7 11 -16 9.2 11.8
7 -11 -16 3.9 9.1
-11 7 16 0 10.6
4 -11 16 4.6 9.3
-8 11 16 -2.7 10.6
-11 8 16 5.2 11.8
0 0 17 -8.4 10.9
0 0 -17 -1.8 8.9
0 -1 -17 6.5 9.8
1 0 17 5.7 11.2
1 0 -17 3.5 9.6
1 -1 17 5.2 11.5
-1 0 -17 1.2 9.7
0 -1 17 7.6 12
-1 1 -17 9.8 9.4
1 -1 -17 3.3 9.6
-1 1 17 5 11.2
0 1 -17 7.7 9.4
0 1 17 8 11.2
-1 0 17 -1.4 11.2
-2 1 -17 -1.7 9.1
1 1 17 2.1 10.7
-2 1 17 -5 11.4
2 -1 -17 3.6 7.8
-1 2 -17 6.4 9.2
-1 -1 -17 7.9 9.3
-1 2 17 1.2 10.9
1 -2 17 3.6 11.6
-1 -1 17 10.7 11.6
1 1 -17 6.3 9.6
0 -2 17 4 11.8
2 0 17 0.6 10.9
-2 0 17 0 11.2
-2 0 -17 -3.4 9.3
-2 2 -17 -6.3 8.8
2 -2 -17 2.1 8.3
0 2 17 6.4 11
2 0 -17 -0.2 10
-2 2 17 4 11.5
0 2 -17 1.4 9
-2 3 17 7.2 10.1
-1 -2 17 5.7 11.3
3 -2 -17 1.2 8.8
1 -3 -17 1.8 7.6
1 2 17 5.6 10.8
-3 1 17 0.9 10.5
-1 3 -17 4.6 9.6
2 1 -17 1.8 8.9
-3 2 -17 -5.2 9
-2 -1 17 4.8 11.8
-1 3 17 7 11.1
-3 2 17 2.9 10.1
2 -3 -17 8.3 9
2 1 17 -3.4 11.1
3 -1 -17 0.1 8.3
1 2 -17 1.3 9.7
1 -3 17 19.4 11.9
-3 1 -17 1.9 8.9
-2 3 -17 1.1 9.2
0 -3 17 12.4 11.6
-3 3 -17 5.8 8.7
-3 0 17 -1.1 10.2
0 3 -17 6.5 9.4
3 -3 -17 8.2 9.2
3 0 -17 5.4 7.2
-3 0 -17 2.9 9.6
0 3 17 4.5 11
-3 3 17 1.4 10.1
-2 4 17 10.6 10.1
-2 4 -17 4.2 8.8
-4 2 -17 9.4 9.5
2 -4 -17 1.9 9
2 2 -17 0.8 8.2
-2 -2 17 6.5 11.9
2 2 17 0.2 11
-4 2 17 4.2 11
4 -2 -17 -2.8 8.6
-1 4 -17 6 10.2
1 -4 -17 4.1 7.8
4 -3 -17 4.4 8.7
-1 -3 17 0.8 10.8
3 1 -17 1.1 9.2
-4 3 -17 6 9.1
-4 1 17 -0.8 10.5
1 3 17 17 11.6
-3 4 17 4.1 10.5
-4 1 -17 1 9.5
3 -4 -17 3.2 9
3 1 17 7.2 11
1 -4 17 8.9 11.1
-4 3 17 9.5 11.4
-1 4 17 3.1 9.8
-3 4 -17 1 8.7
4 -1 -17 4.9 8.5
-3 -1 17 8.2 10.2
1 3 -17 11.1 9.2
-4 4 -17 1.5 9.3
0 4 17 -2.8 9.4
-4 4 17 -0.5 11
0 -4 17 4.7 9.6
4 0 -17 6.2 8.1
4 -4 -17 4.1 8.8
-4 0 17 6.3 10.8
0 4 -17 2.9 9.4
5 -3 -17 -2.6 8.7
2 3 17 -10.1 10.8
-2 5 -17 7.2 9.7
-5 3 -17 10.6 10
-5 2 17 8.3 10.4
2 -5 -17 5.2 9.5
-3 5 17 6.8 10.4
-3 5 -17 3.7 9.7
-3 -2 17 0.2 9.3
-5 2 -17 3.5 9.5
-2 5 17 0 9.9
5 -2 -17 7.5 8.9
-5 3 17 -0.8 9.9
3 -5 -17 13.5 9.1
3 2 17 0.9 10.8
-5 1 17 9.2 10.1
1 -5 -17 2.4 7.4
1 4 17 -4.2 11.1
-4 5 17 7.7 10.1
-1 5 -17 -2.4 9.5
5 -4 -17 6 9.1
4 1 -17 5.3 6.8
-5 4 -17 6.3 9.6
1 -5 17 3.5 8.9
-1 5 17 -2.5 10.1
5 -1 -17 9.6 8.8
4 1 17 -5.8 11.1
-5 4 17 -4.4 9.8
-4 -1 17 -1.5 9.2
-4 5 -17 2.1 9.2
1 4 -17 5.6 8.3
-5 1 -17 0.1 10
4 -5 -17 2.6 9
-5 0 17 -0.2 8.4
5 0 -17 -10.3 7.8
0 5 -17 10.1 8.7
5 -5 -17 -0.3 9
-5 5 17 -7.1 9.9
-5 5 -17 5.6 9.7
0 5 17 1.4 9.9
-3 6 17 1 9.9
6 -3 -17 -0.2 8.5
3 -6 -17 4.5 10
-3 6 -17 4.3 9.9
3 3 17 5.2 10.8
-6 3 17 12.8 11.2
-6 3 -17 -6 10
2 -6 -17 21 10.4
-4 6 17 3.6 10.5
-2 6 -17 14.2 9.9
-6 2 17 7.4 10.5
2 4 17 3 10.7
-6 4 -17 25.8 10.5
6 -4 -17 17.2 9.6
-6 2 -17 16 10.3
4 2 17 -3.3 10.7
2 -6 17 -1.8 8
4 -6 -17 10 9.7
6 -2 -17 13 8.8
-6 4 17 -3.5 10.7
-4 6 -17 7.6 10.3
-2 6 17 4.2 10
5 1 -17 6.4 7.5
-6 5 -17 8.8 10.5
1 -6 -17 6.9 7.2
-5 6 17 1.6 10.8
-1 6 -17 7.1 9.5
6 -5 -17 4.9 9
1 5 17 7.5 9.2
-6 1 17 2.2 8.6
-5 6 -17 13.1 10.4
6 -1 -17 1.8 8.4
5 -6 -17 7.4 9.3
5 1 17 3.1 11.2
-6 5 17 11.8 11.3
1 -6 17 -2.1 6.8
-1 6 17 2.1 10.7
0 6 -17 3.2 8.6
0 -6 17 -0.1 7.3
-6 6 17 2.2 11
-6 6 -17 10.1 10.9
0 6 17 5.5 8.9
6 0 -17 3.6 8.9
6 -6 -17 6.6 9.1
3 -7 -17 15.9 9.6
3 4 17 2.3 11.2
-7 4 -17 -4.6 10.1
-7 3 17 0.9 10.2
7 -4 -17 7.2 9.5
-3 7 -17 -4.8 10.1
4 -7 17 0.7 7
-4 7 17 -1.4 10.3
-3 7 17 3.2 10.3
4 -7 -17 -2.2 10.5
4 3 17 -3.6 9.1
-7 4 17 6.3 9.8
7 -3 -17 12.1 9.2
-4 7 -17 1.4 10.7
-7 3 -17 11.3 10.6
3 -7 17 2.5 6
7 -5 -17 11.2 9.2
-7 5 -17 -4.2 10.3
-2 7 -17 2.9 10.5
2 -7 -17 2.9 9.2
-7 2 17 0.3 14.3
-5 7 17 0.9 11.3
-5 7 -17 13.7 10.6
-7 5 17 -1.3 11.5
5 2 17 -0.6 8.6
7 -2 -17 6.5 9.2
2 -7 17 4.6 6
5 -7 -17 11.4 9.7
-2 7 17 6.2 9.6
7 -6 -17 -4.6 9.1
-6 7 17 2.2 11.7
-1 -6 17 -0.6 9.4
1 -7 -17 3.8 7.4
6 1 -17 3.9 7.7
-1 7 -17 4.6 7.3
-7 6 -17 2.4 10.6
6 1 17 4.5 8.8
7 -1 -17 -0.2 9.4
6 -7 -17 -5.5 9.6
1 -7 17 -3.1 5.6
-1 7 17 0 8
-6 7 -17 9.8 11.9
-7 6 17 -5.7 11.5
-7 7 17 0.8 11.7
-4 8 17 2 10.6
-4 8 -17 5.4 11.3
-8 4 17 5.8 10.1
-8 4 -17 2.5 6.7
-5 8 17 -3.4 12.4
-3 8 17 9.9 8.5
-8 5 17 -5.1 10.6
-6 8 17 -4.6 11.3
-8 6 17 12 12.1
-1 0 18 13 11.7
0 1 18 23.5 12.5
1 0 18 31.5 14.4
1 -1 18 31 13.9
-1 1 18 20.3 12.2
0 -1 18 35.5 13.8
