#------------------------------------------------------------------------------
#$Date: 2019-11-03 11:42:51 +0200 (Sun, 03 Nov 2019) $
#$Revision: 221305 $
#$URL: file:///home/coder/svn-repositories/cod/cif/4/12/81/4128167.cif $
#------------------------------------------------------------------------------
#
# This file is available in the Crystallography Open Database (COD),
# http://www.crystallography.net/
#
# All data on this site have been placed in the public domain by the
# contributors.
#
data_4128167
loop_
_publ_author_name
'Cao, Chen-Chen'
'Chen, Cheng-Xia'
'Wei, Zhang-Wen'
'Qiu, Qian-Feng'
'Zhu, Neng-Xiu'
'Xiong, Yang-Yang'
'Jiang, Ji-Jun'
'Wang, Dawei'
'Su, Cheng-Yong'
_publ_section_title
;
 Catalysis through Dynamic Spacer Installation of Multivariate
 Functionalities in Metal-Organic Frameworks.
;
_journal_issue                   6
_journal_name_full               'Journal of the American Chemical Society'
_journal_page_first              2589
_journal_page_last               2593
_journal_paper_doi               10.1021/jacs.8b12372
_journal_volume                  141
_journal_year                    2019
_chemical_formula_moiety         'C96 H43 F24 N3 O32 Zr6'
_chemical_formula_sum            'C96 H43 F24 N3 O32 Zr6'
_chemical_formula_weight         2753.65
_chemical_name_common            LIFM-80
_space_group_crystal_system      tetragonal
_space_group_IT_number           131
_space_group_name_Hall           '-P 4c 2'
_space_group_name_H-M_alt        'P 42/m m c'
_symmetry_space_group_name_Hall  '-P 4c 2'
_symmetry_space_group_name_H-M   'P 42/m m c'
_atom_sites_solution_hydrogens   mixed
_audit_creation_method           SHELXL-2014/7
_cell_angle_alpha                90
_cell_angle_beta                 90
_cell_angle_gamma                90
_cell_formula_units_Z            2
_cell_length_a                   23.0470(12)
_cell_length_b                   23.0470(12)
_cell_length_c                   18.6989(15)
_cell_measurement_reflns_used    1247
_cell_measurement_temperature    173(2)
_cell_measurement_theta_max      51.4760
_cell_measurement_theta_min      4.2750
_cell_volume                     9932.2(11)
_computing_structure_refinement  'SHELXL-2014/7 (Sheldrick, 2014)'
_computing_structure_solution    'SHELXL-2014/7 (Sheldrick, 2014)'
_diffrn_ambient_temperature      173(2)
_diffrn_detector                 'CCD plate'
_diffrn_detector_area_resol_mean 10.6525
_diffrn_detector_type            Atlas
_diffrn_measured_fraction_theta_full 0.983
_diffrn_measured_fraction_theta_max 0.952
_diffrn_measurement_device       'four-circle diffractometer'
_diffrn_measurement_device_type  'SuperNova, Dual, Cu at zero, Atlas'
_diffrn_measurement_method       '\w scans'
_diffrn_radiation_monochromator  mirror
_diffrn_radiation_type           CuK\a
_diffrn_radiation_wavelength     1.54184
_diffrn_reflns_av_R_equivalents  0.1336
_diffrn_reflns_av_unetI/netI     0.1270
_diffrn_reflns_Laue_measured_fraction_full 0.983
_diffrn_reflns_Laue_measured_fraction_max 0.952
_diffrn_reflns_limit_h_max       14
_diffrn_reflns_limit_h_min       -27
_diffrn_reflns_limit_k_max       27
_diffrn_reflns_limit_k_min       -20
_diffrn_reflns_limit_l_max       21
_diffrn_reflns_limit_l_min       -13
_diffrn_reflns_number            16243
_diffrn_reflns_point_group_measured_fraction_full 0.983
_diffrn_reflns_point_group_measured_fraction_max 0.952
_diffrn_reflns_theta_full        67.684
_diffrn_reflns_theta_max         73.242
_diffrn_reflns_theta_min         3.836
_diffrn_source                   'micro-focus sealed X-ray tube'
_diffrn_source_type              'SuperNova (Cu) X-ray Source'
_exptl_absorpt_coefficient_mu    3.074
_exptl_absorpt_correction_T_max  1.00000
_exptl_absorpt_correction_T_min  0.53267
_exptl_absorpt_correction_type   multi-scan
_exptl_absorpt_process_details
;
CrysAlisPro 1.171.38.43 (Rigaku Oxford Diffraction, 2015)
Empirical absorption correction using spherical harmonics,
 implemented in SCALE3 ABSPACK scaling algorithm.
;
_exptl_crystal_colour            Colorless
_exptl_crystal_density_diffrn    0.921
_exptl_crystal_description       Block
_exptl_crystal_F_000             2704
_exptl_crystal_size_max          0.1
_exptl_crystal_size_mid          0.1
_exptl_crystal_size_min          0.1
_refine_diff_density_max         1.523
_refine_diff_density_min         -1.785
_refine_diff_density_rms         0.140
_refine_ls_extinction_method     none
_refine_ls_goodness_of_fit_ref   0.960
_refine_ls_hydrogen_treatment    mixed
_refine_ls_matrix_type           full
_refine_ls_number_parameters     289
_refine_ls_number_reflns         5157
_refine_ls_number_restraints     442
_refine_ls_restrained_S_all      1.052
_refine_ls_R_factor_all          0.1774
_refine_ls_R_factor_gt           0.1173
_refine_ls_shift/su_max          0.000
_refine_ls_shift/su_mean         0.000
_refine_ls_structure_factor_coef Fsqd
_refine_ls_weighting_details
'w=1/[\s^2^(Fo^2^)+(0.1200P)^2^+80.0000P] where P=(Fo^2^+2Fc^2^)/3'
_refine_ls_weighting_scheme      calc
_refine_ls_wR_factor_gt          0.2937
_refine_ls_wR_factor_ref         0.3377
_reflns_Friedel_coverage         0.000
_reflns_number_gt                2290
_reflns_number_total             5157
_reflns_threshold_expression     'I > 2\s(I)'
_cod_data_source_file            LIFM-80-solved.cif
_cod_data_source_block           LIFM-80
_cod_original_cell_volume        9932.2(13)
_cod_database_code               4128167
_shelx_shelxl_version_number     2014/7
_shelx_space_group_comment
;
The symmetry employed for this shelxl refinement is uniquely defined
by the following loop, which should always be used as a source of
symmetry information in preference to the above space-group names.
They are only intended as comments.
;
_oxdiff_exptl_absorpt_empirical_full_min 0.766
_oxdiff_exptl_absorpt_empirical_full_max 1.634
_oxdiff_exptl_absorpt_empirical_details
;
Empirical correction (ABSPACK) includes:
- Absorption correction using spherical harmonics
- Frame scaling
- Detector area scaling
;
_shelx_res_file
;

    F:\xray\CAOCHE~1\LIFM-80\tmp\2_sq.res created by SHELXL-2014/7

REM  exp_1518_a.res in P4(2)/mmc
REM R1 =  0.1229 for    2290 Fo > 4sig(Fo)  and  0.1797 for all    5157 data
REM    287 parameters refined using    444 restraints
REM Highest difference peak  2.367,  deepest hole -1.842,  1-sigma level  0.145
TITL exp_1518_a.res in P4(2)/mmc
CELL 1.54184 23.0470 23.0470 18.6989 90.000 90.000 90.000
ZERR 2.0000 0.0012 0.0012 0.0015 0.000 0.000 0.000
LATT 1
SYMM -Y, X, 0.5+Z
SYMM -X, -Y, Z
SYMM Y, -X, 0.5+Z
SYMM X, -Y, -Z
SYMM -X, Y, -Z
SYMM Y, X, 0.5-Z
SYMM -Y, -X, 0.5-Z
SFAC C H N O ZR F
UNIT 192 86 6 64 12 48
MERG 2
FMAP 2
GRID
PLAN 5
TEMP -100
BOND $H
EQIV $10 -X, 1-Y, Z
EQIV $11 X, 1-Y, -Z
EQIV $12 X, 1-Y, 1-Z
EQIV $13 1-X, 1-Y, Z
EQIV $14 1-X, Y, 1-Z
EQIV $15 Y, X, 1/2-Z
EQIV $16 1-X, Y, Z
EQIV $17 X, Y, 1-Z
FLAT 0.01 C1 C2 C3 C4 C5 C6 C7 C8 C8A
DFIX 1.39 0.01 C1 C2 C2 C3 C3 C4 C4 C5 C5 C6 C6 C1
DFIX 2.40 0.01 C1 C3 C2 C4 C3 C5 C4 C6 C5 C1 C6 C2
DFIX 2.80 0.01 C1 C4 C2 C5 C3 C6
FLAT 0.01 C7 O1 O2 ZR1 ZR2
SADI C7 O1 C7 O2
DFIX 1.50 0.01 C4 C7 C1 C1_$15
SADI C7 C3 C7 C5
SADI O1 C5 O2 C3
DFIX 1.39 0.01 C10 C11 C11 C12 C12 C13 C13 N1
DFIX 1.39 0.01 N1 C11_$10 C11_$10 C10
DFIX 2.40 0.01 C10 C12 C11 C13 C12 N1 C13 C11_$10
DFIX 2.40 0.01 N1 C10 C11_$10 C11
DFIX 2.80 0.01 C10 C13 C11 N1 C12 C11_$10
DFIX 1.50 0.01 C9 C10 C13 C13_$11
DFIX 1.50 0.01 C14 C15 C18 C19
DFIX 1.39 0.01 C15 C16 C16 C17 C17 C18
DFIX 2.40 0.01 C15 C17 C16 C18 C17 C17_$12 C16 C16_$12
DFIX 2.80 0.01 C15 C18 C16 C17_$12 C17 C16_$12
FLAT 0.01 C19 C20 C20_$16 C19_$13 N2 H20
DFIX 1.39 0.01 C19 C20 C20 C20_$16
DFIX 2.40 0.01 C19 C20_$16 C20 C20_$12
DFIX 2.80 0.01 C19 C19_$13 C20 C20_$13
DFIX 1.20 0.01 C20 C20_$17
DFIX 1.39 0.01 C19 C20A C20A C20A_$13
DFIX 2.40 0.01 C19 C20A_$13 C20A C20A_$12
DFIX 2.80 0.01 C20A C20A_$14
DFIX 1.50 0.01 C20 N2 C20A N2A
SADI N2 C19 N2 C20_$16 N2A C19 N2A C20A_$13
DFIX 0.930 0.001 C20 H20 C20A H20A
SADI H20 C19 H20 C20_$16
DFIX 1.50 0.01 C2 C8A C6 C8
SADI C8 C1 C8 C5 C8A C1 C8A C3
DFIX 1.33 0.01 C8 F1 C8 F2 C8 F3
DFIX 1.33 0.01 C8A F1A C8A F2A C8A F3A
DFIX 2.35 0.01 C6 F1 C6 F2 C6 F3
DFIX 2.35 0.01 C2 F1A C2 F2A C2 F3A
SADI F1 F2 F2 F3 F3 F1 F1A F2A F2A F3A F3A F1A
DFIX 0.95 0.001 C11 H11 C12 H12
SADI H11 C12 H11 C10 H12 C11 H12 C13
DELU 0.01 C1 C2 C3 C4 C5 C6 C7 C8 C8A F1 F2 F3 F1A F2A F3A
SIMU 0.01 C1 C2 C3 C4 C5 C6 C7 C8 C8A F1 F2 F3 F1A F2A F3A
DELU 0.01 C9 C10 C11 C12 C13 N1
SIMU 0.01 C9 C10 C11 C12 C13 N1
DELU 0.01 C14 C15 C16 C17 C18 C19 C20 C20A N2 N2A
SIMU 0.01 C14 C15 C16 C17 C18 C19 C20 C20A N2 N2A
DELU 0.01 ZR1 ZR2 O1 O2 O3 O4 O5 O6
SIMU 0.01 ZR1 ZR2 O1 O2 O3 O4 O5 O6
ISOR 0.01 C14 C15 N2
DELU 0.015 C7 O1 O2
SIMU 0.015 C7 O1 O2
DELU 0.03 C14 O4
SIMU 0.03 C14 O4
DFIX 0.880 0.001 N2A H2A2
DFIX 2.05 0.01 H2A2 C20A
DFIX 2.03 0.001 H17 H20A
DFIX 2.10 0.001 H17 H2A2
ABIN
L.S. 20
ACTA
WGHT    0.120000   80.000000
FVAR       0.27961   0.44443
ZR1   5    0.075412    0.500000    0.407024    10.50000    0.03846    0.12554 =
         0.03409    0.00000    0.00454    0.00000
ZR2   5    0.000000    0.391265    0.500000    10.25000    0.06342    0.09772 =
         0.06063    0.00000    0.00000    0.00000
PART 1
F1    6    0.276905    0.356711    0.205969    21.00000    0.45843    0.34263 =
         0.40380    0.00142    0.13690    0.06770
PART 2
F2A   6    0.115032    0.156120    0.405405   -21.00000    0.46864    0.33067 =
         0.39780    0.00763    0.14613    0.08029
PART 1
F3    6    0.215173    0.320646    0.129953    21.00000    0.45958    0.35602 =
         0.36420    0.02660    0.12302    0.09681
PART 2
F3A   6    0.207807    0.145050    0.393828   -21.00000    0.46501    0.33551 =
         0.40219    0.02845    0.07105    0.11969
PART 0
O1    4    0.113123    0.423128    0.359129    11.00000    0.10154    0.18102 =
         0.09176   -0.03707    0.01131    0.04640
O2    4    0.056507    0.338765    0.429113    11.00000    0.15032    0.14884 =
         0.16560   -0.04944    0.02531    0.06210
O3    4    0.049030    0.500000    0.293387    10.50000    0.08208    0.21627 =
         0.02585    0.00000   -0.00204    0.00000
O4    4    0.167051    0.500000    0.438800    10.50000    0.03756    0.21698 =
         0.06375    0.00000   -0.00308    0.00000
O5    4    0.075195    0.444601    0.500000    10.50000    0.12858    0.17301 =
         0.03329    0.00000    0.00000   -0.05791
O6    4    0.000000    0.445787    0.409540    10.50000    0.05023    0.12018 =
         0.11183    0.03105    0.00000    0.00000
PART 2
N1    3   -0.052314    0.500000    0.075691    10.25000    0.09621    0.40184 =
         0.03922    0.00000   -0.00423    0.00000
PART 0
C1    1    0.200810    0.237583    0.274503    11.00000    0.38303    0.28359 =
         0.34130   -0.02969    0.13281    0.12639
C2    1    0.164450    0.221979    0.330425    11.00000    0.38409    0.27328 =
         0.34372   -0.02337    0.12981    0.12522
PART 1
AFIX  43
H2    2    0.162454    0.182753    0.345839    21.00000   -1.20000
PART 0
AFIX   0
C3    1    0.130741    0.264557    0.363921    11.00000    0.34603    0.25854 =
         0.31890   -0.02019    0.11275    0.11415
AFIX  43
H3    2    0.105765    0.254221    0.402277    11.00000   -1.20000
AFIX   0
C4    1    0.133683    0.321772    0.341300    11.00000    0.30653    0.25332 =
         0.28276   -0.02473    0.09772    0.10026
C5    1    0.170083    0.337493    0.285514    11.00000    0.34650    0.27536 =
         0.30750   -0.02236    0.12677    0.11207
AFIX  43
H5    2    0.172003    0.376802    0.270409    11.00000   -1.20000
AFIX   0
C6    1    0.203986    0.295331    0.251509    11.00000    0.37653    0.29259 =
         0.33521   -0.02355    0.14125    0.12753
PART 2
AFIX  43
H6    2    0.228929    0.305792    0.213172   -21.00000   -1.20000
PART 0
AFIX   0
C7    1    0.096806    0.365744    0.379009    11.00000    0.22439    0.21564 =
         0.21347   -0.02326    0.05043    0.06371
PART 1
C8    1    0.244157    0.310405    0.190552    21.00000    0.40115    0.31900 =
         0.35142   -0.01735    0.15038    0.11756
PART 2
C8A   1    0.159135    0.160478    0.358176   -21.00000    0.42332    0.28177 =
         0.36901   -0.01379    0.11704    0.11892
PART 0
C9    1    0.000000    0.500000    0.266674    10.25000    0.09216    0.38205 =
         0.02451    0.00000    0.00000    0.00000
C10   1    0.000000    0.500000    0.187157    10.25000    0.09382    0.38666 =
         0.03245    0.00000    0.00000    0.00000
C11   1    0.052355    0.500000    0.150068    10.50000    0.09651    0.39299 =
         0.04039    0.00000    0.00502    0.00000
H11   2    0.088071    0.500000    0.175431    10.50000   -1.20000
PART 1
C12   1    0.052344    0.500000    0.075692    10.25000    0.09595    0.39720 =
         0.03947    0.00000    0.00479    0.00000
H12   2    0.088030    0.500000    0.050264    10.25000   -1.20000
PART 0
C13   1    0.000000    0.500000    0.039456    10.25000    0.09703    0.40007 =
         0.04060    0.00000    0.00000    0.00000
C14   1    0.188634    0.500000    0.500000    10.25000    0.11786    0.18365 =
         0.13766    0.00000    0.00000    0.00000
C15   1    0.253720    0.500000    0.500000    10.25000    0.12370    0.21622 =
         0.15325    0.00000    0.00000    0.00000
C16   1    0.283893    0.500000    0.435497    10.50000    0.10634    0.28796 =
         0.16667    0.00000    0.00534    0.00000
AFIX  43
H16   2    0.263264    0.500000    0.391512    10.50000   -1.20000
AFIX   0
C17   1    0.344439    0.500000    0.435463    10.50000    0.10589    0.33323 =
         0.18337    0.00000    0.00096    0.00000
AFIX  43
H17   2    0.365032    0.500000    0.391452    10.50000   -1.20000
AFIX   0
C18   1    0.374708    0.500000    0.500000    10.25000    0.10624    0.34853 =
         0.19284    0.00000    0.00000    0.00000
C19   1    0.439925    0.500000    0.500000    10.25000    0.10836    0.34690 =
         0.20401    0.00000    0.00000    0.00000
PART 2
F1A   6    0.150684    0.121507    0.306921   -21.00000    0.48847    0.29939 =
         0.39563   -0.03107    0.10453    0.07349
PART 1
F2    6    0.281468    0.266585    0.176931    21.00000    0.41063    0.37116 =
         0.39510   -0.02975    0.17201    0.14167
PART 0
C20A  1    0.469708    0.500000    0.435448    10.16667    0.10902    0.34409 =
         0.20384    0.00000    0.00151    0.00000
PART 2
H20A  2    0.453106    0.500000    0.390117    10.12498   -1.20000
PART 0
C20   1    0.468605    0.548442    0.469430    10.33333    0.11556    0.34520 =
         0.20929   -0.00087   -0.00079   -0.00692
PART 2
H20   2    0.448700    0.579685    0.449712    10.24999   -1.20000
PART 1
N2    3    0.436704    0.598464    0.437867    10.08333    0.17778    0.32005 =
         0.22724   -0.00769   -0.00572   -0.00781
AFIX  93
H2A   2    0.420232    0.624292    0.465961    10.08333   -1.20000
H2B   2    0.434325    0.602194    0.391122    10.08333   -1.20000
AFIX   0
N2A   3    0.437000    0.500000    0.365388    10.04166    0.11288    0.34837 =
         0.20417    0.00000    0.00043    0.00000
H2A2  2    0.439480    0.532208    0.340297    10.08332   -1.20000
HKLF 4

REM  exp_1518_a.res in P4(2)/mmc
REM R1 =  0.1173 for    2290 Fo > 4sig(Fo)  and  0.1774 for all    5157 data
REM    289 parameters refined using    442 restraints

END

WGHT      0.2000      0.0000

REM Highest difference peak  1.523,  deepest hole -1.785,  1-sigma level  0.140
Q1    1   0.0000  0.4273  0.3801  10.50000  0.05    0.64
Q2    1   0.0691  0.3518  0.4181  11.00000  0.05    0.63
Q3    1   0.1053  0.4155  0.3718  11.00000  0.05    0.54
Q4    1  -0.0294  0.3968  0.3850  11.00000  0.05    0.51
Q5    1   0.0000  0.4271  0.4313  10.50000  0.05    0.51
;
_shelx_res_checksum              50149
_shelx_hkl_file
;
   0   0   2 6414.49   86.76
   0   0   3   16.73    9.12
   0   0   4   34.89   10.45
   0   0   5   -0.41   10.86
   0   0   6 2455.33  100.77
   0   0   7   -7.99   12.61
   0   0   8  625.86   61.21
   0   0   9   -6.56   15.74
   0   1   2  396.19   20.55
   0  -1   2  370.10   22.42
  -1   0   2  350.47   21.23
  -1   0   3  303.90   23.73
   1   0   3  341.24   27.56
   0   1   3  334.33   24.70
   0  -1   3  316.27   26.51
   0  -1   4  645.63   43.35
   0   1   4  646.75   39.28
  -1   0   4  599.09   38.92
   1   0   4  605.64   41.32
   0  -1   5  736.43   52.59
   1   0   5  692.98   51.06
   0   1   5  741.13   48.97
  -1   0   5  684.24   46.85
   0  -1   6  332.26   36.86
   1   0   6  324.45   39.24
   0   1   6  356.27   37.91
  -1   0   6  325.28   36.60
   0   1   7  322.28   42.16
  -1   0   7  278.01   38.41
   0  -1   7  317.48   40.86
  -1   0   8  -10.57   17.19
   0   1   8   16.40   19.47
   0  -1   8  -12.63   14.21
  -1   0   9 6911.67  223.39
   0  -1   9 6950.38  221.42
  -1   0  10   16.65   18.45
  -1   1   1    3.45    2.18
  -1  -1   1   -2.23    2.45
  -1   1   2 2970.92   54.52
   1  -1   2 3027.65   68.78
  -1  -1   2 3037.91   65.02
  -1  -1   3   -0.24    4.38
  -1   1   3   -2.91    4.77
   1  -1   3    1.44    5.59
  -1  -1   4 1923.91   71.85
   1  -1   4 2009.91   75.12
  -1   1   4 1959.64   67.21
   1  -1   5   -2.32    8.95
  -1  -1   5    5.53   10.23
  -1   1   5  -12.05   12.23
  -1   1   6  936.06   61.81
   1  -1   6 1020.33   68.76
  -1  -1   6  957.51   65.14
  -1  -1   7  -25.59   12.05
  -1   1   7  -11.02    9.28
   1  -1   7  -29.46   14.82
  -1   1   8  381.76   48.00
  -1  -1   8  331.05   43.99
  -1  -1   9    7.55   14.37
  -1   1   9    9.49    9.37
  -1   1  10 5075.82  201.94
  -1  -1  10 5080.16  206.69
  -1  -1  11  -29.23   24.28
  -1   1  14  107.53   40.00
  -1   1  15  -11.58   17.73
  -1   1  16  264.00   51.48
   0  -2   0 8941.13   62.63
   0  -2   1   10.27    3.58
  -2   0   1   13.63    6.88
   0  -2   2 6252.51  100.09
  -2   0   2 6224.99   96.86
   0   2   3   91.05   12.81
   0  -2   3   79.47   14.54
  -2   0   3   73.99   14.15
   0  -2   4  723.62   45.32
  -2   0   4  667.47   42.69
   0   2   4  702.46   39.57
   0  -2   5  264.11   31.56
  -2   0   5  258.36   28.81
   0   2   5  255.65   28.55
  -2   0   6 1681.24   82.96
   0   2   6 1856.86   85.46
   0  -2   6 1779.76   89.20
   0  -2   7  272.06   38.94
  -2   0   7  275.62   38.39
  -2   0   8   37.08    8.70
   0  -2   8   45.45   17.14
   0  -2   9   14.40   15.74
  -2   0   9    9.69   16.78
   0  -2  10 3906.12  183.73
  -2   0  10 4012.67  181.68
  -2   0  11   -4.24   15.41
   0   2  14   62.39   33.09
  -2   0  14   58.92   22.21
  -2   0  15   37.93   26.68
   0   2  15   10.95   19.81
  -2   0  16  216.09   48.52
  -1  -2   0  264.18   16.42
  -2  -1   0  241.43   20.89
  -2  -1   1 4104.63   83.50
   1  -2   1 4111.41   68.96
  -1  -2   1 4186.50   69.47
  -2   1   1 4178.25   76.86
  -1  -2   2   -5.58    3.53
   1  -2   2   11.84    6.48
  -2  -1   2    1.16    5.20
  -2   1   2    4.16    5.96
  -1   2   2    3.22    3.18
   1  -2   3   41.44   12.98
  -1  -2   3   38.34   11.00
  -2  -1   3   30.84   11.19
  -2   1   3   30.17    8.80
  -1   2   3   34.72    7.81
  -2  -1   4  176.57   22.82
   1  -2   4  190.90   25.14
  -2   1   4  189.60   21.98
  -1   2   4  181.85   20.22
  -1  -2   4  212.70   25.70
  -2  -1   5  914.07   56.59
  -1  -2   5  931.84   58.04
  -2   1   5  911.19   53.81
  -1   2   5  953.62   53.07
   1  -2   5 1016.18   62.34
  -1  -2   6  157.83   25.47
  -2   1   6  164.97   25.44
  -1   2   6  165.56   25.89
  -2  -1   6  144.67   28.00
   1  -2   6  185.93   32.77
   1  -2   7  280.90   43.98
  -2  -1   7  260.59   37.24
  -1  -2   7  275.38   40.94
  -1   2   7  269.75   35.87
  -2   1   7  301.22   38.43
  -2  -1   8   57.04   21.05
  -2   1   8   18.79   13.59
  -1   2   8   27.65    8.67
   1  -2   8   24.71   17.31
  -1  -2   8   -2.12   15.98
  -2  -1   9 4379.51  179.20
  -1   2   9 4571.68  175.61
  -1  -2   9 4555.65  182.39
  -2   1   9 4500.12  175.20
  -1  -2  10   -0.67   18.00
  -2  -1  10    5.32   17.83
  -2   1  10   -7.35   13.31
  -2   1  11 2932.37  165.76
  -1  -2  11 2850.56  168.91
  -2  -1  11 2862.90  168.37
  -2  -1  12  -10.54   21.77
  -2   1  14   17.24   25.98
  -2  -1  14   18.60   20.95
  -1   2  14   51.95   23.60
  -2  -1  15  136.24   39.02
  -2   1  15  117.93   35.41
  -1   2  15  141.29   35.14
  -2   1  16   40.01   23.68
  -1   2  16   10.74   17.19
  -1   2  17  197.01   47.36
  -2   1  17  196.26   46.17
  -2   1  18   -6.89   18.50
  -2  -2   0 9999.00  131.87
  -2  -2   1    5.20    5.20
  -2   2   1    7.01    5.63
  -2  -2   2    1.89    4.48
  -2   2   2    8.63    4.30
  -2  -2   3   -9.98    9.62
  -2   2   3   -6.43    4.32
  -2   2   4  240.57   23.88
  -2  -2   4  215.68   27.20
  -2  -2   5    9.85   11.37
  -2   2   5   -7.00   12.68
  -2  -2   6  540.08   49.00
  -2   2   6  592.38   47.40
  -2   2   7    9.32   15.62
  -2  -2   7    0.38   11.27
  -2   2   8  110.76   24.23
  -2  -2   8  166.71   32.40
  -2   2   9    7.43   17.76
  -2  -2   9  -23.18   16.99
  -2   2  10 2035.25  128.21
  -2  -2  10 2143.99  136.64
  -2  -2  11   12.61   15.38
  -2  -2  12  535.97   77.86
  -2   2  14    5.56   18.70
  -2   2  15   -2.69   11.63
  -2   2  16  330.34   60.89
  -2   2  17  -19.49   11.55
  -2   2  18   80.19   27.22
   0  -3   0  253.10   12.86
   0  -3   1 1085.88   36.54
  -3   0   1 1092.11   49.53
  -3   0   2  120.64   16.17
   0  -3   2  119.80   14.99
   0  -3   3 1354.36   56.52
  -3   0   3 1269.78   54.72
   0  -3   4 2078.63   80.31
  -3   0   4 2085.71   76.16
   0  -3   5 1232.15   69.12
  -3   0   5 1196.41   65.29
  -3   0   6  928.93   63.55
   0  -3   6 1043.08   70.77
   0  -3   7  823.53   68.52
  -3   0   7  831.91   64.94
   0  -3   8  223.96   38.66
  -3   0   8  192.54   34.72
   0  -3   9 2176.99  128.29
  -3   0   9 2072.64  121.46
  -3   0  10   19.01   18.35
   0  -3  10  100.72   57.24
  -3   0  11 2054.84  142.30
  -3   0  12   80.12   33.91
   0   3  14   67.72   31.91
  -3   0  14   39.58   30.96
   0   3  15   88.96   37.89
  -3   0  15   60.25   24.88
  -3   0  16  210.41   53.26
   0   3  16  250.31   54.57
   0   3  17   80.80   29.38
  -3   0  17   87.67   31.83
  -3   0  18   42.16   20.91
  -1  -3   0 2568.50   50.94
  -3  -1   1   14.71    8.41
  -3   1   1    9.81    6.29
  -1  -3   1   16.88    6.81
  -1  -3  -1    2.37    4.18
   1  -3   1    2.51    3.50
   1  -3   2  246.36   22.84
  -3  -1   2  243.86   23.96
  -1  -3   2  245.65   21.68
  -3   1   2  254.62   23.46
  -1   3   2  220.96   10.97
  -1   3   3 1270.55   38.85
  -1  -3   3 1243.56   54.30
  -3   1   3 1215.56   51.48
   1  -3   3 1270.16   56.42
  -3  -1   3 1216.91   54.65
  -3  -1   4  342.42   33.31
  -1  -3   4  371.94   33.82
  -3   1   4  346.35   31.52
   1  -3   4  332.30   33.87
  -1   3   4  329.54   26.06
  -3  -1   5  911.28   58.12
  -3   1   5  895.34   53.80
  -1  -3   5  906.33   59.30
  -1   3   5  969.64   51.95
   1  -3   5  930.84   60.41
  -1  -3   6  849.08   63.36
   1  -3   6  933.98   67.18
  -3   1   6  874.59   59.67
  -1   3   6  957.20   59.89
  -3  -1   6  872.11   61.61
   1  -3   7  314.37   43.29
  -3   1   7  330.05   39.75
  -1  -3   7  288.97   41.45
  -1   3   7  325.81   39.05
  -3  -1   7  297.04   40.36
  -3  -1   8   42.02   19.41
   1  -3   8   41.74   22.47
  -3   1   8   44.35   20.39
  -1  -3   8   17.20   14.87
  -3   1   9   29.19   19.23
  -3  -1   9   14.79   16.22
  -1  -3   9   13.14   15.47
  -1  -3  10 1788.33  126.43
  -3   1  10 1739.64  122.40
  -3  -1  10 1722.07  124.69
  -3   1  11    7.85   10.97
  -1  -3  11   36.23   28.07
  -3  -1  11   19.36   15.86
  -3   1  12  635.45   86.69
  -3  -1  12  581.51   82.20
  -3  -1  13   28.60   28.29
  -3  -1  14    3.05   20.19
   1   3  14  -32.36   26.90
  -3   1  14  -22.14   12.03
  -1   3  14   10.19   21.96
  -3   1  15  167.10   48.70
  -1   3  15  108.30   36.73
  -3  -1  15  159.67   45.13
  -3   1  16  149.94   41.57
  -3  -1  16  209.03   52.08
  -1   3  16  251.29   51.98
  -3  -1  17  153.20   42.09
  -1   3  17  133.19   36.86
  -3   1  17  146.95   40.69
  -1   3  18   41.02   16.51
  -3   1  18   62.35   29.90
  -3   1  19  -36.40   21.27
  -3  -2   0  155.54   20.46
  -2  -3   0  136.93   17.21
  -3  -2   1  127.35   17.60
  -3   2   1  112.03   16.98
  -2  -3  -1  125.53   16.80
  -2  -3   1  133.74   15.52
  -2  -3   2   30.02    9.33
  -3   2   2   23.10    8.56
  -3  -2   2   12.50    8.62
  -2   3   2   12.79    4.85
  -3   2   3  654.47   35.84
  -2   3   3  663.69   29.37
  -2  -3   3  645.72   41.45
  -3  -2   3  660.04   41.00
  -2  -3   4  240.27   30.00
  -3   2   4  274.11   27.42
  -2   3   4  251.56   22.63
  -3  -2   4  246.69   28.68
  -2  -3   5   36.32   16.00
  -3  -2   5   20.17   14.11
  -3   2   5   32.89   13.17
  -2   3   5   44.26   14.44
  -3   2   6   91.36   19.71
  -2  -3   6   79.87   21.56
  -2   3   6   82.43   17.39
  -3  -2   6   83.51   19.75
  -2   3   7  326.52   39.24
  -2  -3   7  266.70   39.76
  -3  -2   7  292.00   40.02
  -3   2   7  278.09   35.91
  -3  -2   8   52.98   21.30
  -3   2   8    6.44   10.29
  -2  -3   8   30.90   16.16
  -2   3   8   41.75   16.77
  -3   2   9 1067.34   86.75
  -3  -2   9 1040.62   91.30
  -2  -3   9 1050.81   92.21
  -2   3   9 1100.58   83.70
  -3  -2  10  -24.67   10.91
  -3   2  10    0.23   10.58
  -3   2  11  322.41   57.16
  -2  -3  11  334.14   58.07
  -3  -2  11  352.19   58.93
  -2  -3  12  -17.90   20.51
  -3  -2  12  -14.65   26.59
  -3  -2  13   -2.66   13.81
  -3   2  14   79.94   33.85
  -3  -2  14    8.03   20.52
  -2   3  14   27.15   26.87
  -3  -2  15  177.38   48.75
  -2   3  15  202.72   50.62
  -3   2  15  131.51   37.94
  -3   2  16   44.22   28.21
  -3  -2  16   59.92   29.98
  -2   3  16   45.90   22.62
  -2   3  17  109.94   32.88
  -3   2  17   83.23   26.08
  -3   2  18    5.56   17.85
  -2   3  18   41.40   21.77
  -3   2  19   -7.49   17.47
  -2   3  19    2.68   12.92
  -3  -3   0  368.73   31.44
  -3  -3   1   24.93   11.44
  -3   3   2 1151.73   45.94
  -3  -3   2 1230.80   54.83
  -3  -3   3   -5.23    6.80
  -3   3   3  -13.22    7.59
  -3  -3   4  296.28   32.00
  -3   3   4  296.30   26.69
  -3   3   5    0.40    6.22
  -3  -3   5   -3.94    9.85
  -3  -3   6  428.10   45.41
  -3   3   6  457.21   41.08
  -3  -3   7   -8.83   17.70
  -3   3   7   11.86    7.52
  -3  -3   8    3.10   13.09
  -3   3   8   -8.79   13.16
  -3  -3   9   -1.04   17.84
  -3   3   9   14.00   13.54
  -3   3  10  -14.69   16.02
  -3  -3  10   27.89   21.90
  -3  -3  11   16.39   15.19
  -3  -3  12   16.09   13.17
  -3  -3  13    3.67   28.03
  -3   3  13    4.06   15.20
  -3   3  14   21.63   18.71
  -3  -3  14   57.90   41.14
  -3   3  15   -6.12   16.21
  -3   3  16   84.61   31.63
  -3   3  17  -10.76   24.07
  -3   3  18   13.71   19.30
  -3   3  19   23.98   20.31
  -3   3  20   -4.10   13.62
   0  -4   0 2067.96   43.05
  -4   0   1  226.39   27.26
   0  -4   1  232.99   19.30
   0  -4   2  275.13   23.32
  -4   0   2  234.69   25.78
  -4   0   3 3223.88   94.76
   0  -4   3 3197.07   91.17
   0  -4   4 1108.85   60.44
  -4   0   4 1108.54   59.77
  -4   0   5 3851.47  121.66
   0  -4   5 4122.91  129.78
  -4   0   6 1245.51   74.94
   0  -4   6 1249.63   78.46
   0  -4   7 1152.89   81.95
  -4   0   7 1158.06   79.27
   0  -4   8  386.63   49.48
  -4   0   8  356.66   45.35
   0  -4   9  183.62   38.57
  -4   0   9  127.32   35.62
   0  -4  10  493.00   69.41
  -4   0  10  505.23   68.35
  -4   0  11  106.56   36.12
  -4   0  12  223.07   52.97
  -4   0  13   58.41   29.88
  -4   0  13   49.28   28.85
  -4   0  14   -7.39   15.50
   0   4  14   -1.50   17.28
  -4   0  15  427.58   70.30
   0   4  15  485.59   74.36
  -4   0  16   53.75   26.72
   0   4  16   29.47   18.65
  -4   0  17  474.97   73.61
   0   4  17  400.90   64.20
   0   4  18   48.00   25.62
  -4   0  18  -11.44   15.27
  -4   0  19   17.54   16.83
  -1  -4   0   23.69    7.01
  -4   1   1   26.68   13.38
  -1  -4   1   23.59    7.12
  -1  -4  -1   31.00    6.63
  -4  -1   1   22.48   11.75
   1  -4   1   30.11    7.83
  -4   1   2  339.30   32.49
  -4  -1   2  360.87   31.92
   1  -4   2  382.94   28.84
  -1  -4   2  360.85   27.67
   1  -4   3   74.83   15.85
  -4   1   3   46.97   12.03
  -1  -4   3   68.01   18.76
  -4  -1   3   57.86   13.06
  -4   1   4 3719.53  106.94
  -1  -4   4 3761.09  110.63
   1  -4   4 3893.03  116.75
  -4  -1   4 3772.71  113.09
  -1  -4   5   41.00   13.04
  -4   1   5   52.51   16.10
  -4  -1   5   49.38   16.87
   1  -4   5   39.00   14.88
  -4  -1   6 1989.80   95.79
   1  -4   6 2127.10  102.94
  -1  -4   6 2090.49   99.87
  -4   1   6 2041.82   93.49
  -4   1   7  819.12   65.04
   1  -4   7  866.18   71.22
  -1  -4   7  819.04   69.17
  -4  -1   7  821.27   66.87
  -4  -1   8  398.89   49.41
  -4   1   8  505.98   56.62
  -1  -4   8  403.05   53.07
   1  -4   8  474.03   57.71
  -4   1   9  351.04   50.34
  -1  -4   9  326.17   50.36
  -4  -1   9  321.36   49.97
  -4   1  10   22.36   21.61
  -1  -4  10   40.38   15.71
  -4  -1  10   19.43   12.45
  -4  -1  11  292.80   55.09
  -4   1  11  319.21   55.79
  -1  -4  11  336.40   57.03
  -4   1  12   29.26   22.92
  -4  -1  12    0.44   20.70
  -4  -1  13  -13.61   30.39
  -1   4  13  -27.52   13.01
  -4   1  13  -19.64   17.16
  -4   1  14  110.39   34.67
  -4  -1  14   76.49   31.64
   1   4  14  122.65   37.59
  -1   4  15  133.37   40.25
  -4   1  15   98.42   37.79
   1   4  15  115.08   43.33
  -4  -1  15   37.35   20.19
  -4  -1  16  602.07   87.40
  -1   4  16  597.38   83.40
  -4   1  16  623.72   84.81
   1   4  16  594.80   79.04
  -4   1  17   15.31   16.92
  -1   4  17   23.37   22.18
  -4  -1  17   35.85   22.84
  -1   4  18  137.99   40.59
  -4   1  18  201.72   45.08
  -4  -1  18  150.27   44.87
  -4   1  19   -7.05   10.26
  -1   4  19  -16.01   12.77
  -4  -2   0   66.41   16.89
  -2  -4   0   71.27   12.90
  -2  -4   1   -0.43    5.17
  -2  -4  -1   -4.28    5.16
  -4  -2   1   13.57   11.95
  -4   2   1   -2.09    8.39
  -2  -4   2  346.83   28.61
  -4  -2   2  350.60   33.72
  -2   4   2  292.93   13.93
  -4   2   2  375.14   33.68
  -2   4   3  303.80   17.41
  -4  -2   3  300.89   31.66
  -4   2   3  313.44   28.99
  -2  -4   3  318.74   29.84
  -2  -4   4  808.23   52.51
  -2   4   4  776.03   35.83
  -4   2   4  745.79   46.07
  -4  -2   4  794.69   52.12
  -4  -2   5 1296.50   74.59
  -2  -4   5 1335.47   74.16
  -2   4   5 1351.66   58.29
  -4   2   5 1280.34   66.07
  -4   2   6  176.73   28.45
  -4  -2   6  160.03   28.33
  -2   4   6  220.57   28.81
  -2  -4   6  168.84   27.28
  -4  -2   7  665.90   61.43
  -2   4   7  664.62   53.33
  -4   2   7  683.26   58.69
  -2  -4   7  656.98   61.20
  -2   4   8  206.41   32.53
  -2  -4   8  141.29   29.33
  -4  -2   8  172.20   35.60
  -4   2   8  157.14   31.67
  -2  -4   9   14.28   22.57
  -4   2   9   -1.76    9.49
  -4  -2   9   22.21   16.68
  -4   2  10  -17.55   20.62
  -4  -2  10   36.37   22.62
  -2  -4  10   -1.81   12.25
  -4  -2  11   40.60   22.48
  -4   2  11   83.17   29.31
  -2  -4  11   64.53   26.12
  -4  -2  12   21.59   15.12
  -4   2  12    5.27   22.93
  -4  -2  13   48.39   21.00
  -4   2  13   -5.89   16.42
  -2   4  13   20.15   10.82
  -4  -2  13   58.60   29.84
   2   4  14   11.01   19.69
  -4  -2  14    8.65   15.05
  -2   4  14   44.72   28.44
  -4   2  14   54.25   30.24
  -2   4  15  270.92   57.94
  -4  -2  15  255.06   57.12
  -4   2  15  271.74   56.83
  -2   4  16   82.81   31.99
  -4   2  16   22.56   17.84
  -4  -2  16  129.86   47.90
  -2   4  17  255.14   50.03
  -4  -2  17  262.06   55.26
  -4   2  17  280.83   55.89
  -4  -2  18   90.53   33.97
  -4   2  18   52.50   26.24
  -2   4  18   13.48   15.74
  -4   2  19   25.34   17.87
  -2   4  19  -23.26   18.70
  -4   2  20   -2.82   13.67
  -4  -3   0   60.02   18.49
  -3  -4   0   45.61   12.54
  -3  -4  -1 1540.52   66.67
  -4  -3   1 1565.38   69.84
  -3  -4   1 1478.38   60.32
  -3  -4   2   16.49    8.42
  -3   4   2    9.05    5.21
  -4  -3   2   32.13   14.67
  -4   3   2   -6.34    9.71
  -4  -3   3 1240.89   63.12
  -3  -4   3 1201.15   60.31
  -3   4   3 1220.17   42.56
  -4   3   3 1211.59   53.93
  -4  -3   4  369.83   36.82
  -3   4   4  339.08   25.96
  -4   3   4  351.41   30.13
  -3  -4   4  347.96   36.54
  -4   3   5  298.94   32.61
  -3  -4   5  289.13   34.69
  -3   4   5  274.37   26.62
  -4  -3   5  276.77   33.91
  -4   3   6  160.88   24.64
  -3  -4   6  204.68   34.32
  -4  -3   6  215.89   33.93
  -3   4   6  187.85   24.25
  -4   3   7  124.98   24.12
  -3  -4   7  102.22   23.68
  -3   4   7  118.67   23.50
  -4  -3   7  139.35   30.63
  -4   3   8   67.95   17.04
  -3   4   8   64.18   18.14
  -4  -3   8   75.88   26.34
  -3  -4   8   39.43   16.98
  -4  -3   9   27.78   14.78
  -4   3   9    5.06   10.33
  -3   4   9   -5.15   15.78
  -3  -4   9   16.72   16.86
  -4   3  10   49.11   25.66
  -4  -3  10   28.68   17.40
  -3  -4  10   36.15   22.93
  -4   3  11  321.44   51.63
  -3  -4  11  305.53   55.74
  -4  -3  11  425.81   68.39
  -3  -4  12   -8.51   24.24
  -4  -3  12    7.66   16.91
  -4  -3  13  141.87   42.88
  -4   3  13  120.00   41.58
  -3  -4  13  110.73   40.70
  -4  -3  13   95.12   39.43
  -3   4  13   91.27   29.76
  -4  -3  14   26.27   32.42
  -4  -3  14   -8.74   24.53
  -4   3  14   51.33   28.83
  -3   4  14   46.22   21.72
  -4   3  15   44.54   20.04
  -3   4  15   25.34   16.52
  -4  -3  15   79.96   35.85
  -4  -3  16  112.20   42.56
  -3   4  16   50.35   21.77
  -4   3  16  105.97   34.35
  -3   4  17   32.07   24.42
  -4   3  17    9.88   16.96
  -4  -3  17   39.95   28.41
  -4   3  18   -2.43   12.51
  -3   4  18   24.60   12.58
  -3   4  19  -13.54   14.81
  -4   3  19   34.14   24.98
  -3   4  20    8.39    9.79
  -4   3  20   24.75   14.41
  -4  -4   0  268.24   32.09
  -4  -4  -1    3.46   11.01
  -4  -4   1   14.77    9.67
  -4   4   2 2370.81   78.86
  -4  -4   2 2513.95   89.20
  -4  -4   3    4.97    8.98
  -4   4   3   -0.44    5.92
  -4   4   4  109.18   16.68
  -4  -4   4  149.40   25.05
  -4  -4   5  -10.35    9.95
  -4   4   5   -4.99    5.91
  -4   4   6   54.11   12.82
  -4  -4   6   77.13   24.66
  -4   4   7   -9.09    7.50
  -4  -4   7   -6.49   15.63
  -4  -4   8  193.47   39.28
  -4   4   8  206.69   34.21
  -4   4   9   17.27    9.26
  -4  -4   9   22.78   24.10
  -4   4  10  996.87   85.99
  -4  -4  10  961.00   94.25
  -4  -4  11    6.96   13.47
  -4  -4  12 1029.08  113.80
  -4  -4  13    8.23   22.92
  -4  -4  13  -11.78   30.19
  -4   4  13   -7.59   18.12
  -4   4  14   66.92   31.93
  -4  -4  14   47.62   17.19
  -4  -4  14   36.33   25.12
  -4   4  15    6.85   12.88
  -4  -4  15  -14.59   18.43
  -4  -4  16   22.83   20.64
  -4   4  16  -25.62   27.16
  -4   4  17  -29.47   22.27
  -4   4  18   19.67   15.22
  -4   4  19   -2.98   11.08
  -4   4  20   46.54   23.20
  -4   4  21   -8.54    7.83
   0  -5   0 3004.12   58.14
  -5   0   1   -4.92   11.15
   0  -5  -1    3.94    2.21
   0  -5   1    0.82    5.22
   0  -5   2   79.02   13.32
  -5   0   2   62.99   17.03
  -5   0   3  820.57   53.87
   0  -5   3  810.38   49.12
  -5   0   4 5467.67  140.62
   0  -5   4 5569.13  140.35
   0  -5   5  144.20   24.20
  -5   0   5  162.67   27.67
  -5   0   6 6374.30  173.58
   0  -5   6 6527.70  184.27
   0  -5   7  957.32   76.35
  -5   0   7  974.20   74.14
   0  -5   8 1523.55  104.54
  -5   0   8 1554.00  100.74
   0  -5   9   62.11   31.00
  -5   0   9   28.40   11.83
  -5   0  10  158.60   38.40
   0  -5  10  154.20   35.68
  -5   0  11  155.91   42.02
  -5   0  12  127.28   35.79
  -5   0  13   34.75   24.74
  -5   0  13  -10.14   25.45
   0   5  13  -11.86   19.80
  -5   0  14  193.21   54.17
  -5   0  14  191.45   49.67
   0   5  14  177.17   43.87
  -5   0  15   33.36   20.90
   0   5  15  116.78   41.53
   0   5  16 1016.81  109.06
  -5   0  16  937.61  104.64
  -5   0  17   -4.46   11.57
   0   5  17   27.92   18.35
   0   5  18  202.67   45.01
  -5   0  18  299.48   57.27
  -5   0  19   17.42   13.90
  -5   0  20   25.84   20.11
  -1  -5   0  228.59   17.92
  -5  -1   0  240.06   33.59
  -5   1   1  478.93   45.72
   1  -5   1  488.77   30.57
  -5  -1   1  511.77   46.39
  -1  -5   1  497.70   30.64
  -1  -5  -1  508.66   22.40
   1  -5   2  177.25   22.14
  -1  -5  -2  156.11   14.04
  -1  -5   2  186.50   21.08
  -5   1   2  173.48   23.97
  -5  -1   2  173.30   23.78
  -1  -5   3 1927.36   75.80
  -5  -1   3 2009.05   84.21
   1  -5   3 2005.75   77.53
  -5   1   3 1991.57   80.86
  -5  -1   4  203.60   29.67
  -1  -5   4  225.54   30.91
  -5   1   4  193.28   28.36
   1  -5   4  232.87   31.74
  -5  -1   5 5721.04  156.55
   1  -5   5 5769.26  159.49
  -1  -5   5 5778.24  154.65
  -5   1   5 5752.03  150.34
  -5   1   6  383.57   46.19
  -1  -5   6  350.09   43.08
  -5  -1   6  399.67   45.95
   1  -5   6  400.99   46.64
  -5  -1   7 2423.83  120.50
   1  -5   7 2581.08  125.16
  -5   1   7 2412.24  116.57
  -1  -5   7 2410.54  120.56
   1  -5   8  436.48   54.68
  -5   1   8  493.96   56.76
  -5  -1   8  460.11   56.41
  -1  -5   8  467.76   56.63
  -5  -1   9   -8.56   12.41
  -5   1   9   17.73   13.51
  -1  -5   9   17.46   14.29
  -5  -1  10   26.53   20.88
  -1  -5  10   18.77   20.04
  -5   1  10   53.44   24.67
  -5   1  11  335.04   60.88
  -5  -1  11  350.54   62.54
  -1  -5  11  249.58   52.62
  -5   1  12  -20.86   19.13
  -5  -1  12   24.19   28.10
  -1   5  13   40.87   29.90
  -5  -1  13   69.28   31.94
   1   5  13   41.45   25.13
  -5   1  13   12.92   20.22
  -5   1  13   21.04   21.13
  -5  -1  13   64.08   32.51
  -5  -1  14   32.51   20.67
  -5   1  14   51.53   32.98
  -1   5  14   16.44   19.58
   1   5  14   44.00   32.93
  -5  -1  14   69.71   48.72
  -5   1  15  737.34   93.55
  -1   5  15  701.28   92.69
   1   5  15  756.94   90.22
  -5  -1  15  721.88   94.80
  -5  -1  16   15.55   24.85
  -5   1  16   -7.76   23.56
   1   5  16   34.08   29.33
  -1   5  16   22.11   12.31
  -5   1  17  713.43   89.08
   1   5  17  584.90   77.68
  -5  -1  17  614.04   84.41
  -1   5  17  581.52   78.56
  -5  -1  18   46.93   21.85
  -1   5  18   30.17   14.17
  -5   1  18   42.30   24.69
  -1   5  19  -31.00   20.86
  -5   1  19    8.20   13.19
  -5  -1  19   -7.41   11.17
  -5   1  20   -3.95   12.75
  -2  -5   0  697.71   36.04
  -5  -2   0  692.21   55.61
  -5   2   1 1668.76   81.89
  -2  -5  -1 1747.77   56.94
  -5  -2   1 1866.92   84.45
  -2  -5   1 1786.22   60.76
  -5  -2   2  339.13   35.16
  -2  -5  -2  364.03   29.51
  -5   2   2  362.37   39.25
  -2  -5   2  368.65   31.06
  -5  -2   3   65.03   16.17
  -5   2   3   50.46   14.83
  -2  -5   3   35.27   11.04
  -5  -2   4 2605.14  101.76
  -2  -5   4 2570.98   98.06
  -5   2   4 2580.29   93.47
  -2   5   4 2308.01   56.54
  -2  -5   5  114.50   26.33
  -5   2   5   93.38   19.68
  -5  -2   5  108.25   22.13
  -2   5   5  111.67   15.91
  -2  -5   6 2088.11  105.00
  -5  -2   6 2203.35  109.93
  -5   2   6 2247.75  101.53
  -2   5   6 2255.70   82.99
  -5  -2   7  277.58   42.42
  -2  -5   7  268.80   37.78
  -5   2   7  290.08   38.62
  -2  -5   8  422.51   54.10
  -5   2   8  492.62   55.14
  -5  -2   8  432.36   56.40
  -5  -2   9   16.60   15.06
  -5   2   9   17.38   20.75
  -5  -2  10  300.30   55.51
  -5   2  10  269.67   48.14
  -2  -5  10  200.25   41.90
  -2  -5  11   43.79   15.90
  -5   2  11   90.40   33.50
  -5  -2  11   69.31   31.17
  -2  -5  12   88.35   31.42
  -5  -2  12  108.80   39.28
  -5   2  12   38.52   11.80
  -2   5  13   55.78   25.13
  -5  -2  13   30.09   25.88
   2   5  13   57.34   27.56
  -5  -2  13   54.96   27.56
  -5   2  13   84.88   37.08
  -2   5  14  110.11   40.76
  -5  -2  14   94.86   29.80
   2   5  14   82.36   28.07
  -5   2  14  118.85   41.12
  -5  -2  14  126.29   47.41
   2   5  15    9.00   14.29
  -5  -2  15   32.11   24.49
  -2   5  15   52.93   25.14
  -5   2  15   -6.48   11.66
  -2   5  16  629.99   83.38
  -5  -2  16  623.43   88.52
  -5   2  16  595.24   84.53
   2   5  16  570.74   76.34
  -5   2  17  -33.90   25.40
  -2   5  17    4.11   15.26
  -5   2  18  162.30   43.75
  -5  -2  18  151.44   43.16
  -2   5  18  201.13   46.28
  -5  -2  19    5.50   17.79
  -5   2  19    7.61   12.73
  -2   5  19  -26.74   13.54
  -2   5  20   45.76   23.51
  -5   2  20   56.74   26.65
  -5  -3   0  282.93   34.75
  -3  -5   0  318.90   28.72
  -5  -3  -1   19.74   15.70
  -3  -5  -1    6.06    8.58
  -3  -5   1    1.66    6.86
  -5  -3   1    4.81   13.39
  -3  -5   2  593.29   40.51
  -5  -3   2  646.34   48.83
  -5   3   2  523.45   44.91
  -3   5   2  480.58   25.77
  -3  -5  -2  536.62   41.29
  -5  -3   3  191.77   27.88
  -5   3   3  207.32   27.47
  -3  -5   3  189.14   26.52
  -3   5   3  158.36   13.26
  -3  -5   4  467.31   43.15
  -3   5   4  426.59   26.20
  -5   3   4  425.11   37.68
  -5  -3   4  457.80   44.11
  -5   3   5  522.95   43.34
  -3   5   5  493.61   33.68
  -3  -5   5  494.11   49.24
  -5  -3   5  512.50   49.72
  -3  -5   6   -5.20    9.50
  -3   5   6   16.98    9.08
  -5  -3   6  -15.92   13.93
  -5   3   6   -4.89    8.18
  -3   5   7  611.97   50.28
  -5  -3   7  565.47   60.16
  -5   3   7  620.17   56.61
  -3  -5   7  529.53   57.79
  -5  -3   8  307.73   48.83
  -3   5   8  324.99   41.41
  -5   3   8  317.71   47.25
  -3  -5   8  302.27   47.09
  -5  -3   9  116.87   32.46
  -3  -5   9   99.40   27.21
  -5   3   9  125.73   31.33
  -5   3  10  874.40   85.36
  -3  -5  10  896.52   97.44
  -5  -3  10  828.03   87.29
  -3  -5  11  232.41   47.80
  -5  -3  11  183.19   44.98
  -5   3  11  170.76   41.69
  -3  -5  12  595.80   87.81
  -5  -3  12  620.87   90.56
  -3  -5  13   13.49   20.25
  -5  -3  13  -30.61   25.58
  -3   5  13   24.36   26.42
  -5  -3  13  -22.84   19.72
  -5   3  13   -5.32   17.82
  -5   3  14   94.85   36.03
  -5  -3  14   18.54   15.36
  -3   5  14   97.46   39.28
  -5  -3  14   -2.12   19.65
  -5   3  15  170.77   45.33
  -3   5  15  138.01   39.15
  -5   3  16  -39.34   28.96
  -5  -3  16   27.76   11.07
  -3   5  16  -31.58   16.34
  -5   3  17  141.46   40.73
  -5  -3  17  161.69   43.07
  -3   5  17  145.99   41.63
  -3   5  18   43.44   22.64
  -5   3  18    0.38   18.39
  -5  -3  18   43.67   28.10
  -3   5  19   10.12   16.68
  -5   3  19    4.79   16.14
  -3   5  20   63.16   23.49
  -5   3  20   72.27   27.93
  -5   3  21   11.57   15.72
  -5  -4   0   43.27   14.47
  -4  -5   0   44.33   10.52
  -4  -5  -1 3031.55  105.61
  -5  -4   1 3025.65  109.16
  -4  -5   1 3133.93   97.82
  -5  -4  -1 3062.23  118.50
  -4   5   2   35.10   11.32
  -4  -5   2   42.62   13.60
  -4  -5  -2   21.24   12.31
  -5   4   2   29.76   17.12
  -5  -4   2   34.68   15.41
  -4  -5   3  894.96   56.50
  -4   5   3  798.39   39.23
  -5   4   3  867.65   52.32
  -5  -4   3  851.60   56.77
  -4   5   4   68.73   12.95
  -5   4   4   55.47   12.54
  -4  -5   4   58.29   15.52
  -5  -4   4   62.51   17.03
  -4  -5   5   -8.47   11.95
  -4   5   5    2.71    7.16
  -5  -4   5    0.88   10.85
  -5   4   5   13.86   12.59
  -4   5   6   63.78   14.21
  -4  -5   6   46.38   20.86
  -5  -4   6   55.03   19.10
  -5   4   6   60.94   17.70
  -5   4   7    4.10   11.47
  -5  -4   7    4.12   11.91
  -4   5   7   -3.83    6.66
  -4  -5   7   -4.96   15.34
  -5  -4   8   16.73   18.63
  -4   5   8   -2.40    9.53
  -4  -5   8    4.63   15.04
  -5   4   8   -9.77   10.27
  -4  -5   9  617.67   72.68
  -5   4   9  645.84   66.40
  -5  -4   9  587.10   70.54
  -4  -5  10   64.45   26.15
  -5   4  10   75.99   26.22
  -5  -4  10   87.35   33.65
  -4  -5  11 2327.63  160.67
  -5  -4  11 2241.19  156.81
  -5   4  12    4.44   18.39
  -4   5  12   16.23   39.52
  -5  -4  12   33.69   13.59
  -4  -5  12  -19.42   23.33
  -4  -5  13  175.80   47.92
  -4  -5  13  228.29   59.23
  -5  -4  13  279.31   66.44
  -5   4  13  251.06   56.56
  -5  -4  13  170.46   44.53
  -4   5  13  209.07   49.21
  -4  -5  14  -11.70   11.61
  -5  -4  14   10.21   26.15
  -5  -4  14    3.43   13.13
  -4  -5  14   35.27   32.71
  -5   4  14  -12.32   15.24
  -4   5  14   18.55   24.30
  -5   4  15   17.56   28.98
  -4   5  15    4.39   15.27
  -5  -4  15   12.59   15.95
  -5   4  16   35.38   19.99
  -4   5  16   38.20   22.19
  -5  -4  16   18.35   12.44
  -4   5  17    4.59   15.88
  -5   4  17   -1.03   13.19
  -5  -4  17   13.03   12.16
  -4   5  18   50.26   27.11
  -5   4  18  -11.36   22.61
  -5   4  19   78.50   31.46
  -4   5  19   85.80   28.47
  -4   5  20    5.57    9.52
  -5   4  20   14.36   23.83
  -5   4  21   41.78   22.70
  -4   5  21   43.47   22.81
  -5  -5   0 1912.10   90.28
  -5  -5  -1    7.12   12.31
  -5  -5   1    7.11   16.47
  -5  -5  -2 3030.47  121.19
  -5  -5   2 3100.48  109.10
  -5   5   2 2987.18  102.84
  -5  -5   3    5.14    9.95
  -5   5   3   19.08   12.10
  -5   5   4    2.52    9.28
  -5  -5   4    1.02   15.09
  -5   5   5   -2.37    7.87
  -5  -5   5   -9.33   10.68
  -5   5   6  247.50   31.34
  -5  -5   6  220.33   35.65
  -5   5   7   -4.45    7.94
  -5  -5   7   -6.25   16.07
  -5  -5   8   60.58   25.04
  -5   5   8   48.56   20.09
  -5  -5   9   -6.66   19.93
  -5  -5  10 2596.32  157.73
  -5  -5  11  -51.00   30.43
  -5  -5  12 1687.41  148.24
  -5   5  12 1523.81  133.04
  -5   5  13   18.64   21.00
  -5  -5  13    5.18   16.47
  -5  -5  13   -0.45   20.40
  -5  -5  14   22.11   18.62
  -5  -5  14  -25.70   27.60
  -5   5  14    4.99   12.25
  -5  -5  15  -21.52   25.72
  -5   5  15  -17.59   25.90
  -5  -5  16  203.68   50.86
  -5   5  16  129.72   37.62
  -5   5  17   33.07   19.23
  -5   5  18   19.94   15.50
  -5   5  19    1.65   11.59
  -5   5  20   46.30   28.50
  -5   5  21    0.93   10.54
   0  -6   0 3662.12   70.97
  -6   0   1 1441.91   84.30
   0  -6   1 1398.09   52.47
  -6   0   2   79.85   23.53
   0  -6   2  105.35   16.77
  -6   0   3  103.76   24.62
   0  -6   3  106.87   19.49
   0  -6   4  741.22   52.88
  -6   0   4  755.86   56.06
   0  -6   5 5863.15  164.55
  -6   0   5 5813.48  162.72
  -6   0   6  335.63   44.32
   0  -6   6  342.85   43.16
  -6   0   7 4388.08  161.83
   0  -6   7 4294.47  164.34
  -6   0   8  647.24   67.20
   0  -6   8  592.07   65.66
  -6   0   9  291.62   49.37
   0  -6   9  248.63   45.71
  -6   0  10   29.00   13.25
   0  -6  10    7.78   11.68
  -6   0  11 1253.98  118.60
  -6   0  12   18.41   17.50
  -6   0  13   15.70   21.40
  -6   0  13   29.62   23.72
   0   6  13   14.38   20.21
  -6   0  14  -20.80   20.70
  -6   0  14   32.03   26.21
   0   6  14    0.86   13.19
  -6   0  15  744.11   97.63
   0   6  15  760.35   93.39
  -6   0  16   -1.34   12.16
   0   6  16   35.81   27.10
   0   6  17  716.80   88.36
  -6   0  17  804.10   97.47
   0   6  18  -12.07   19.60
  -6   0  18   13.41   10.86
  -6   0  19  -24.54   18.71
   0   6  19  -48.37   22.78
  -6   0  20  -11.96   10.33
  -6  -1   0 2780.55  117.52
  -1  -6   0 2777.62   66.80
  -1  -6  -1  110.41   11.48
  -6  -1   1  135.36   30.13
  -1  -6   1  102.80   15.55
   1  -6   1   92.75   14.14
  -6   1   1  150.66   30.23
  -6  -1   2   -7.89   16.93
  -1  -6  -2   -1.89    3.04
  -6   1   2   -7.23    9.90
  -1  -6   2  -11.60    7.06
   1  -6   2    1.91    9.61
  -6   1   3  110.90   21.72
  -1  -6  -3   74.52   10.42
   1  -6   3  131.13   20.89
  -6  -1   3  138.58   27.32
  -1  -6   3  145.41   23.35
  -1  -6   4 3428.63  114.22
   1  -6   4 3423.57  117.67
  -6   1   4 3356.23  116.37
  -6  -1   4 3284.54  122.56
  -6   1   5    6.97    9.76
   1  -6   5   19.71   12.21
  -1  -6   5   27.86   14.14
  -6  -1   5   18.05    8.77
  -1  -6   6 3989.88  147.19
   1  -6   6 4210.99  152.60
  -6  -1   6 4225.93  150.25
  -6   1   6 4193.98  146.11
  -1  -6   7  756.78   72.00
  -6   1   7  824.82   70.42
  -6  -1   7  768.00   70.13
   1  -6   7  779.80   72.56
  -6   1   8  475.34   56.81
   1  -6   8  428.45   59.37
  -6  -1   8  484.93   57.89
  -1  -6   8  438.37   59.18
  -6  -1   9   37.70   20.71
  -1  -6   9   40.98   13.92
  -6   1   9   47.31   15.44
  -6   1  10 1105.26  100.13
  -6  -1  10 1071.71  100.56
  -1  -6  10 1024.17  100.06
  -6  -1  11   14.86   21.51
  -1  -6  11  -11.93   23.49
  -6   1  11    0.96   14.62
  -6   1  12  410.53   72.83
  -6  -1  12  364.82   68.53
  -6  -1  13   12.10   16.56
  -1   6  13   -7.02   15.72
  -6   1  13   -5.35   18.69
  -6  -1  13  -16.24   25.39
  -6   1  13    4.74   25.95
   1   6  13   10.95   27.31
  -1   6  14  170.15   45.97
  -6   1  14  145.47   44.04
   1   6  14  130.02   44.96
  -6  -1  14  137.49   43.16
  -6  -1  14  115.44   39.50
  -6  -1  15   14.95   23.52
  -6   1  15   -3.38   15.56
   1   6  15  -19.69   19.57
  -1   6  15    0.59   17.48
  -1   6  16  971.75  105.37
  -6  -1  16 1097.07  114.52
   1   6  16  973.44  104.29
  -6   1  16  992.36  108.87
   1   6  17   33.98   27.41
  -1   6  17   44.38   26.47
  -6  -1  17   79.97   37.11
  -6   1  17   12.80   22.54
  -6  -1  18  222.54   49.22
  -6   1  18  229.66   50.50
  -1   6  18  201.23   43.87
   1   6  18  194.18   41.70
  -6  -1  19   -6.71   12.43
  -6   1  19   32.03   25.02
  -1   6  19   20.99   22.16
  -6  -1  20   18.68   16.44
  -6   1  20   70.30   22.52
  -1   6  20   55.61   26.43
  -6   1  21    0.90    6.72
  -2  -6   0  151.81   18.02
  -6  -2   0  204.85   34.22
  -6   2   1  152.71   31.94
  -2  -6  -1  100.77   13.58
  -6  -2   1  111.85   23.36
  -2  -6   1  132.74   19.12
  -2  -6  -2   74.36   13.01
  -6   2   2   96.19   20.55
  -6  -2   2   68.43   14.41
  -2  -6   2   73.83   15.58
  -6  -2   3  861.79   60.29
  -2  -6  -3  779.13   44.91
  -6   2   3  784.06   58.28
  -2  -6   3  867.59   55.23
  -6   2   4   15.91   14.72
  -6  -2   4  -13.20   11.91
  -2  -6   4   20.47   11.96
  -6   2   5 1671.36   86.00
  -2  -6   5 1688.57   88.88
  -6  -2   5 1660.53   89.80
  -6   2   6  227.86   35.33
  -6  -2   6  218.11   35.28
  -2  -6   6  190.03   33.34
  -2  -6   7  749.83   69.62
  -6   2   7  772.32   66.87
  -6  -2   7  841.96   74.14
  -2  -6   8  603.11   67.38
  -6   2   8  562.35   63.21
  -6  -2   8  621.94   67.81
  -2  -6   9  491.97   64.02
  -6   2   9  434.62   56.19
  -6  -2   9  404.40   59.59
  -2  -6  10  401.87   62.07
  -6  -2  10  411.58   63.82
  -6   2  10  445.71   63.56
  -2  -6  11  838.21   94.83
  -6  -2  11  857.64   97.07
  -6   2  11  984.71  100.71
  -2  -6  12  158.88   42.49
  -6   2  12  180.75   45.21
  -6  -2  12  199.18   51.50
  -6   2  13   -3.59   17.45
  -6  -2  13  -28.52   11.48
  -6  -2  13  -19.16   25.01
   2   6  13  -18.65   22.02
  -6  -2  14   66.14   36.10
  -2   6  14   -1.55   16.61
  -6   2  14   33.78   26.83
   2   6  14   23.14   12.76
  -6  -2  14  -16.76   23.91
  -6  -2  15  480.36   83.03
  -2   6  15  502.58   78.29
  -6   2  15  429.46   69.96
  -6  -2  15  597.43  100.27
   2   6  15  451.23   70.86
  -6  -2  16   24.68   28.89
   2   6  16   60.09   26.90
  -6   2  16    6.99   19.14
  -2   6  16   20.62   23.06
  -6   2  17  488.24   76.57
  -6  -2  17  463.30   75.92
   2   6  17  423.90   65.41
  -2   6  17  484.55   73.37
  -2   6  18  -22.72   18.57
  -6   2  18   12.03   22.21
  -6  -2  18   32.44   23.72
  -2   6  19   26.42   16.37
  -6   2  19   26.15   20.82
  -6  -2  19  -25.52   15.04
  -2   6  20   16.79   15.88
  -6   2  20    4.29   16.44
  -6   2  21   16.03   10.47
  -6  -3   0 1271.29   80.98
  -3  -6   0 1209.38   55.49
  -3  -6  -1 1035.70   51.94
  -6  -3   1 1116.06   71.53
  -3  -6   1 1075.16   54.84
  -6  -3  -1  992.30   73.06
  -3  -6   2   -2.75    8.43
  -3  -6  -2   -6.60   10.00
  -3   6   2    0.44    3.21
  -6   3   3  245.94   29.88
  -6  -3   3  266.68   37.37
  -3  -6  -3  265.60   32.06
  -3  -6   3  276.45   32.40
  -6   3   4  520.53   44.73
  -3  -6   4  564.83   49.94
  -6  -3   4  606.00   53.93
  -6   3   5   45.33   11.25
  -3  -6   5   51.93   14.75
  -6  -3   5   36.93   14.26
  -3   6   5   46.83    9.11
  -3  -6   6  282.58   41.32
  -6   3   6  351.56   41.87
  -6  -3   6  331.95   45.76
  -3   6   6  252.84   25.56
  -6   3   7  102.37   24.63
  -3  -6   7   44.33    9.34
  -6  -3   7   80.80   23.70
  -6   3   8   84.57   21.51
  -3  -6   8   48.76   17.91
  -6  -3   8   54.82   20.68
  -6   3   9  792.00   77.59
  -3  -6   9  779.56   82.53
  -6  -3   9  812.06   84.24
  -3  -6  10  902.10   94.57
  -6  -3  10  864.33   91.09
  -6   3  10  970.88   92.41
  -3  -6  11 1070.33  109.44
  -6   3  11 1148.84  106.93
  -6  -3  11 1247.56  117.80
  -6   3  12  150.24   42.93
  -6  -3  12  220.94   56.43
  -3   6  12  201.09   50.62
  -3  -6  12  198.45   49.06
   3   6  13   65.70   26.68
  -3   6  13   76.99   34.62
  -6  -3  13   70.31   36.96
  -3  -6  13   99.40   37.90
  -6   3  13   73.27   30.41
  -6  -3  13   64.40   28.44
   3   6  14   -1.94   12.14
  -6   3  14   -3.79   26.48
  -3   6  14   17.53   16.35
  -6  -3  14   19.55   21.87
  -6  -3  14   -0.83   15.21
  -6  -3  15   43.71   30.83
   3   6  15    8.46   13.88
  -6  -3  15   93.52   45.25
  -6   3  15   59.79   30.09
  -3   6  15   86.81   33.01
  -6  -3  16  310.72   64.74
  -3   6  16  283.94   56.75
  -6   3  16  341.58   66.29
  -3   6  17   11.32   20.76
  -6   3  17   14.65   12.36
  -3   6  18   44.47   27.29
  -6  -3  18   48.61   24.15
  -6   3  18   66.67   29.76
  -3   6  19   46.68   30.13
  -6  -3  19   71.95   29.06
  -6   3  19    5.11   18.37
  -3   6  20   41.82   23.35
  -6   3  20   10.96   16.27
  -6   3  21   42.58   19.84
  -3   6  21   39.01   27.36
  -4  -6   0  751.24   49.66
  -6  -4   0  770.39   62.76
  -4  -6  -1  184.56   27.88
  -4  -6   1  194.61   25.93
  -6  -4  -1  197.65   36.73
  -6  -4   1  179.71   28.08
  -6   4   2 1456.87   81.42
  -4  -6  -2 1487.81   76.92
  -4   6   2 1338.09   55.21
  -6  -4   2 1527.00   83.71
  -4  -6   2 1520.01   74.11
  -4  -6  -3    5.69    8.98
  -4  -6   3   -8.42   10.06
  -4   6   3   -0.43    3.23
  -6  -4   3   20.74   12.19
  -6   4   3   -9.03   16.86
  -4   6   4   10.06    4.60
  -4  -6   4   31.02   12.03
  -6  -4   4    2.65   11.50
  -6   4   4   27.25   13.62
  -6  -4   5  -11.07    9.54
  -6   4   5    2.31   12.93
  -4  -6   5   -7.51    8.24
  -4   6   5    2.46    3.62
  -6   4   6  129.99   25.12
  -4  -6   6  102.78   27.67
  -6  -4   6  127.91   29.28
  -4   6   6   83.44   16.24
  -4  -6   7    9.82   14.39
  -6   4   7    8.90    7.36
  -4  -6   8  231.35   43.22
  -6   4   8  253.67   40.07
  -6  -4   8  282.69   48.48
  -4  -6   9  518.74   67.11
  -6   4   9  469.94   56.11
  -6  -4   9  520.01   69.26
  -6  -4  10 2498.32  160.46
  -4  -6  10 2501.64  157.64
  -6  -4  11  340.19   66.03
  -4  -6  11  324.31   59.92
  -4   6  12 1006.36  106.92
  -6  -4  12  832.35   98.48
  -6  -4  12 1137.51  124.62
  -4  -6  12 1198.36  124.19
  -6   4  12 1054.57  109.44
  -4  -6  13   12.81   16.73
  -6   4  13   33.98   28.00
  -6  -4  13   22.99   22.18
  -4  -6  13   38.00   32.57
   4   6  13   13.43   11.90
  -4   6  13    2.54   21.40
  -6  -4  13   32.04   29.19
  -6  -4  14  -22.03   24.69
  -6   4  14   10.85   12.55
  -4  -6  14  -45.36   22.13
  -6  -4  14   28.50   32.99
  -4   6  14  -15.52   31.86
  -6  -4  15   31.75   23.87
  -6   4  15   10.05   14.59
  -6  -4  15   11.70   19.87
  -4   6  15   33.49   22.39
  -4   6  16  187.80   47.52
  -6  -4  16  210.63   54.03
  -6   4  16  215.38   56.32
  -6   4  17   65.43   31.43
  -4   6  17   56.39   26.12
  -6  -4  17   47.01   26.44
  -6  -4  18    4.23   18.89
  -4   6  18   -4.56   16.14
  -6   4  18    3.42   13.28
  -6   4  19   53.32   25.77
  -4   6  19    9.19   11.35
  -4   6  20   95.71   32.22
  -6   4  20   60.13   31.20
  -4   6  21   23.94   17.98
  -6   4  21   24.08   17.03
  -6  -5   0  276.46   36.84
  -5  -6   0  252.72   32.89
  -6  -5  -1 2582.06  117.47
  -5  -6   1 2523.07  101.03
  -5  -6  -1 2574.32  106.11
  -6  -5   1 2595.21  109.34
  -5   6   2    4.55    9.91
  -6  -5   2    5.95    9.01
  -6  -5  -2    5.87   10.89
  -5  -6  -2    9.47   15.40
  -6   5   2   -0.80   13.95
  -5  -6   2    7.55    7.30
  -6  -5   3  249.94   33.64
  -5   6   3  271.63   26.34
  -5  -6  -3  250.01   36.57
  -6   5   3  282.79   32.65
  -5  -6   3  266.18   33.05
  -5  -6   4   16.59   15.50
  -6  -5   4   10.26   10.03
  -5   6   4    5.46    6.55
  -6   5   4   20.03   11.57
  -6   5   5  330.47   35.47
  -5   6   5  312.42   29.01
  -6  -5   5  320.47   43.49
  -5  -6   5  347.59   42.48
  -5   6   6   74.78   16.96
  -5  -6   6   69.15   22.88
  -6   5   6   75.64   18.79
  -6  -5   6   72.73   26.11
  -5  -6   7  373.93   52.27
  -6   5   7  373.57   42.12
  -6  -5   7  406.91   54.41
  -6  -5   8  103.38   32.36
  -5  -6   8  119.21   29.68
  -6   5   8  116.04   27.89
  -6  -5   9 1201.84  104.22
  -5  -6   9 1220.55  105.98
  -5  -6  10  164.20   41.48
  -6  -5  10  187.54   46.96
  -5  -6  11 3277.37  194.71
  -6  -5  11 3000.11  189.05
  -6   5  12   34.58   22.49
  -5  -6  12   38.93   25.81
  -5  -6  12   43.30   30.55
  -6  -5  12   16.54   16.78
  -6  -5  12    1.12   15.28
  -5   6  12   37.24   19.15
  -5  -6  13  126.97   48.65
  -6  -5  13  137.30   45.24
  -6  -5  13  136.37   50.77
  -6   5  13  173.05   51.75
  -5  -6  13   99.45   38.59
  -5   6  13  104.84   36.22
  -5  -6  14   32.57   19.01
  -6  -5  14  -22.55   26.47
  -6  -5  14   -0.66   19.10
  -6   5  14   71.04   38.99
  -5   6  14   82.63   38.15
  -5  -6  14    7.31   20.04
  -5   6  15  264.81   59.07
  -6  -5  15  308.68   65.76
  -6   5  15  239.38   57.45
  -5  -6  15  179.28   53.46
  -5   6  16   34.66   25.88
  -6  -5  16   36.01   12.33
  -6  -5  17  115.18   32.67
  -5   6  17  148.64   40.29
  -6   5  17  109.40   38.42
  -5   6  18    2.85   18.98
  -6   5  18   16.14   20.78
  -5   6  19    0.39   12.76
  -6   5  19   26.94   18.52
  -5   6  20    0.91    8.85
  -6   5  20   11.50   14.78
  -6   5  21  121.69   31.89
  -5   6  21  124.96   32.69
  -6  -6   0 4543.87  147.38
  -6  -6  -1  -10.24   14.36
  -6  -6   1   -2.56   14.38
  -6  -6  -2 1235.43   83.93
  -6   6   2 1108.77   70.74
  -6  -6   2 1245.53   76.70
  -6   6   3   -7.22   11.71
  -6  -6  -3    5.81   12.88
  -6  -6   3   -3.77    7.83
  -6   6   4  714.81   46.56
  -6  -6   4  731.02   62.30
  -6   6   5   17.12   10.91
  -6  -6   5   12.48   12.58
  -6  -6   6 2034.11  117.47
  -6   6   6 1773.85   81.87
  -6  -6   7   -6.05   11.79
  -6  -6   8  100.84   32.78
  -6  -6   9   -8.51   19.99
  -6  -6  10 3024.40  177.06
  -6  -6  11   15.38   24.85
  -6   6  12 1309.90  122.34
  -6  -6  12 1298.50  134.30
  -6  -6  12 1055.23  117.66
  -6  -6  13   -8.39   15.78
  -6   6  13   16.00   15.52
  -6  -6  13    3.65   25.21
  -6  -6  14   34.72   17.25
  -6   6  14    9.74   15.65
  -6  -6  14   55.24   22.58
  -6   6  15    8.21   28.18
  -6  -6  15  -64.04   30.04
  -6  -6  16  431.70   73.28
  -6   6  16  498.05   77.13
  -6   6  17    2.75   15.35
  -6   6  18   14.68   24.48
  -6   6  19   -1.36    9.58
  -6   6  20   36.54   26.16
  -6   6  21  -14.47   14.96
   0  -7   0 4164.37   83.21
   0  -7   1  308.81   27.52
   0  -7  -1  233.97   15.05
   0  -7   2  236.41   26.45
  -7   0   2  248.78   36.88
  -7   0   3   80.20   16.87
   0  -7   3   93.03   19.38
   0  -7   4 1379.49   77.56
  -7   0   4 1338.03   79.84
  -7   0   5   88.33   20.71
   0  -7   5  110.73   24.34
  -7   0   6 5631.33  180.70
   0  -7   6 5695.64  183.34
   0  -7   7    0.97   10.85
  -7   0   7   28.24   15.77
   0  -7   8  610.58   69.19
  -7   0   8  615.21   68.63
  -7   0   9   18.74   14.84
   0  -7   9   21.40   21.84
  -7   0  10 1694.18  129.69
   0  -7  10 1583.44  124.45
  -7   0  11  -18.70   13.01
  -7   0  12  430.58   72.42
   0   7  12  468.63   75.86
  -7   0  12  543.02   82.25
  -7   0  13  129.13   46.09
  -7   0  13   87.23   32.21
   0   7  13   66.22   29.70
   0   7  14   65.38   30.53
  -7   0  14  119.48   40.87
  -7   0  14   65.83   27.64
  -7   0  15   36.34   27.35
   0   7  15   26.97   24.00
  -7   0  16  804.51  104.00
   0   7  16  876.67  100.85
  -7   0  17   24.19   24.63
   0   7  17   68.83   35.03
  -7   0  18  139.10   40.78
   0   7  18  116.17   38.01
  -7   0  19   38.65   18.61
   0   7  19   21.16   14.42
  -7   0  20   44.15   27.68
  -1  -7   0   91.48   13.33
  -7  -1   0   89.82   35.00
  -7   1   1  687.30   63.61
  -7  -1   1  709.78   62.82
  -1  -7  -1  620.73   27.81
   1  -7   1  615.04   38.43
  -1  -7   1  673.70   40.99
  -1  -7  -2    1.97    2.20
  -1  -7   2   -6.54    5.89
   1  -7   2    2.60    6.92
  -1  -7   3  116.02   21.33
   1  -7   3  115.77   19.44
  -7   1   3   94.18   16.93
  -7  -1   3  167.79   30.49
  -7   1   4  324.25   39.92
  -7  -1   4  320.89   38.67
   1  -7   4  342.11   39.90
  -1  -7   4  310.47   35.88
  -7  -1   5 1732.41   97.42
  -7   1   5 1827.14   96.34
  -1  -7   5 1744.37   92.26
   1  -7   5 1867.74   98.50
  -7  -1   6   29.60   14.76
   1  -7   6   20.56   11.26
  -1  -7   6   -4.89   12.81
  -7   1   6   21.47    9.02
  -7   1   7 2962.64  138.21
   1  -7   7 2870.42  138.39
  -1  -7   7 2915.33  142.34
  -7  -1   7 2951.38  142.65
   1  -7   8    9.60   16.89
  -7  -1   8   27.72   20.49
  -7   1   8    0.73   12.27
  -1  -7   8   16.79   14.26
  -1  -7   9  572.75   71.15
  -7   1   9  633.03   72.32
  -7  -1   9  618.04   76.23
  -1  -7  10  -14.88   12.19
  -7  -1  10  -33.73   22.67
  -7   1  10  -24.10   23.11
  -7  -1  11 1494.75  128.57
  -7   1  11 1523.93  128.94
  -1  -7  11 1372.96  123.85
  -7   1  12   40.78   20.15
  -7  -1  12   50.14   29.27
  -7  -1  12   21.52   11.67
  -1   7  12  -11.51   19.95
  -7   1  12   37.74   27.92
   1   7  13   19.80   20.50
  -1   7  13   -2.15   13.31
  -7  -1  13   17.05   23.75
  -7  -1  13   25.35   21.94
  -7   1  13   -5.42   12.62
  -7   1  13   19.79   24.80
   1   7  14   66.46   40.19
  -7  -1  14  -16.04   26.03
  -1   7  14   23.50   23.29
  -7   1  14   19.71   17.85
  -7  -1  14   34.21   29.46
  -7  -1  15  556.19   85.75
  -1   7  15  570.80   85.97
   1   7  15  555.32   81.90
  -7  -1  15  493.88   93.82
  -7   1  15  577.80   86.59
  -1   7  16  108.19   40.91
  -7  -1  16   92.01   39.37
   1   7  16   42.91   27.98
  -7   1  16   56.72   20.07
  -7   1  17  547.30   81.64
  -1   7  17  456.96   71.24
  -7  -1  17  457.61   74.98
   1   7  17  456.80   72.35
  -1   7  18   20.08   18.50
  -7  -1  18   21.76   19.22
  -7   1  18   22.04   17.23
   1   7  18   40.98   19.48
  -7   1  19   29.49   22.33
  -1   7  19   23.73   14.42
   1   7  19   34.17   21.99
  -7  -1  19   42.19   24.56
  -7   1  20  -24.76   19.11
  -7  -1  20   15.13   15.56
  -1   7  20  -23.48   16.75
  -7   1  21   77.61   28.32
  -7  -2   0 2743.93  129.35
  -2  -7   0 2622.96   75.62
  -2  -7   1  437.71   34.52
  -7   2   1  472.57   53.61
  -2  -7  -1  455.49   28.97
  -7  -2   1  491.04   52.31
  -7  -2   2    6.26   17.00
  -7   2   2   16.18   12.60
  -2  -7  -2   22.95    8.19
  -2  -7   2   42.54   13.74
  -2  -7  -3    8.41    4.01
  -2  -7   3   20.00   11.70
  -7  -2   3    4.51   12.80
  -7   2   3   -8.41   18.32
  -2  -7   4 1257.43   75.07
  -7   2   4 1202.45   77.41
  -2  -7  -4  993.24   50.84
  -7  -2   4 1234.93   80.40
  -7  -2   5    2.28   10.17
  -2  -7   5   35.82   18.59
  -7   2   5   24.03   14.98
  -7   2   6 1250.19   82.38
  -2  -7   6 1227.85   83.59
  -7  -2   6 1192.98   86.40
  -7  -2   7   34.01   18.91
  -2  -7   7    1.26   11.53
  -7   2   7   25.68   17.47
  -7   2   8   14.60   20.45
  -7  -2   8  -19.94   18.26
  -2  -7   8    3.48   12.94
  -7   2   9   40.96   18.13
  -2  -7   9   35.45   14.43
  -7  -2   9   35.58   13.17
  -7  -2  10 1409.99  121.10
  -2  -7  10 1261.37  114.84
  -7   2  10 1406.37  113.98
  -7  -2  11  193.90   48.14
  -2  -7  11  112.29   32.41
  -7   2  11  241.23   56.47
  -2  -7  12  378.97   68.74
  -2   7  12  362.00   67.30
  -7  -2  12  371.81   63.40
  -7  -2  12  439.01   76.83
  -7   2  12  340.01   61.25
  -7   2  12  445.51   74.41
  -7   2  13   26.30   24.67
  -2   7  13  -22.16   36.57
  -7  -2  13   13.04   22.99
   2   7  13   -3.66   12.78
  -7  -2  13   32.76   22.11
  -2   7  14   48.07   30.12
  -7   2  14   21.70   24.16
   2   7  14    4.56   14.03
  -7  -2  14   -0.92   20.75
  -7  -2  14   38.14   27.45
  -7  -2  15   25.22   25.43
  -2   7  15   59.32   30.71
   2   7  15   48.94   21.82
  -7   2  15   37.09   20.94
  -7  -2  15   58.28   33.06
   2   7  16  488.96   71.10
  -2   7  16  520.29   78.41
  -7  -2  16  509.62   82.08
  -7   2  16  587.36   83.22
  -7  -2  17   54.91   24.51
  -2   7  17   72.41   35.08
   2   7  17   91.69   31.41
  -7   2  17    5.87   16.10
  -7  -2  18   51.04   26.03
  -2   7  18   70.38   27.10
   2   7  18   90.46   30.01
  -7   2  18   87.72   33.99
  -7   2  19   -8.71   18.96
  -2   7  19   12.71   15.93
  -7  -2  19    7.56   11.63
  -7  -2  20   56.00   23.45
  -7   2  20   90.46   31.41
  -2   7  20   55.52   24.64
  -7   2  21   -0.86   12.33
  -7  -3   0  376.01   48.64
  -3  -7   0  374.05   31.58
  -7   3   1  405.84   54.20
  -3  -7  -1  420.19   33.09
  -7  -3   1  496.91   53.58
  -3  -7   1  428.65   36.20
  -7  -3  -1  428.94   55.36
  -7  -3   2  301.59   39.21
  -3  -7   2  322.77   32.96
  -3  -7  -2  345.17   31.02
  -7   3   2  338.83   43.52
  -3  -7   3   13.37   11.59
  -3  -7  -3   -1.53    9.64
  -7  -3   3    1.74   14.11
  -7   3   3  -21.38   10.31
  -3  -7  -4   19.93   10.22
  -7   3   4   47.20   17.19
  -7  -3   4   25.38   10.53
  -7  -3   5  200.32   33.31
  -3  -7   5  191.03   34.48
  -7   3   5  228.86   32.45
  -7  -3   6   45.63   18.44
  -3  -7   6   61.45   28.34
  -7   3   6   28.76   14.73
  -7  -3   7   -9.24   13.49
  -3  -7   7  -27.06   18.82
  -7   3   7   15.37   13.33
  -3  -7   8  130.17   35.99
  -7  -3   8  123.18   32.90
  -7   3   8   97.11   27.42
  -7  -3   9  925.56   93.06
  -3  -7   9  816.24   86.47
  -7   3   9  942.89   85.71
  -7  -3  10  749.25   87.44
  -7   3  10  812.54   85.03
  -3  -7  10  783.16   89.68
  -7   3  11  729.65   87.42
  -3  -7  11  705.96   89.77
  -7  -3  11  698.94   91.55
   3   7  12  174.39   48.83
  -7  -3  12  354.13   71.07
  -3   7  12  247.64   60.24
  -7   3  12  202.11   52.39
  -3  -7  12  280.72   61.20
  -7  -3  12  215.74   52.78
  -7  -3  13   15.11   13.97
   3   7  13   13.03   16.68
  -7  -3  13   33.25   22.01
  -3   7  13   21.12   24.93
  -7   3  13  -26.39   26.30
  -7  -3  14   -5.92   14.87
  -7   3  14  -11.52   13.44
  -7  -3  14  -10.88   13.85
   3   7  14    4.71   14.14
  -3   7  14   -6.32   19.06
  -7  -3  15   85.70   37.36
  -3   7  15  131.67   44.26
  -7   3  15  156.94   44.96
   3   7  15  100.11   30.78
  -7  -3  16  103.41   38.97
   3   7  16  115.04   37.89
  -3   7  16  109.17   46.75
  -7   3  16  112.61   39.80
  -7  -3  17  173.37   46.80
  -7   3  17  120.06   39.45
  -3   7  17  121.90   37.96
  -3   7  18   32.76   18.75
  -7   3  18   63.51   29.01
  -7  -3  18   35.63   24.12
  -3   7  19   -4.45   11.02
  -7   3  19    8.41   19.91
  -7  -3  19   41.57   26.28
  -7   3  20   26.68   21.12
  -3   7  20   26.61   23.00
  -7   3  21   52.18   19.09
  -3   7  21   52.73   21.30
  -4  -7   0 1572.93   72.83
  -7  -4   0 1704.97   98.40
  -4  -7  -1  981.12   57.86
  -7  -4  -1 1015.17   81.61
  -7  -4   1  985.06   71.69
  -7   4   1  934.28   75.92
  -4  -7   1  980.56   58.55
  -7  -4   2  163.75   29.99
  -4  -7   2  141.39   23.50
  -7   4   2  117.65   29.94
  -4   7   2   80.66   12.87
  -4  -7  -2  142.67   23.24
  -7  -4  -2  172.37   34.00
  -4   7   3   40.41    5.54
  -4  -7  -3   91.78   21.92
  -7  -4   3   72.26   19.98
  -7   4   3   52.13   15.28
  -4  -7   3   91.63   20.55
  -7   4   4   12.55   13.08
  -7  -4   4  -13.11   13.49
  -4  -7  -4    2.33   12.53
  -4  -7   4  -20.66   14.03
  -7  -4   5  191.17   34.48
  -4  -7   5  202.15   34.20
  -7   4   5  219.26   31.00
  -7   4   6   82.82   22.42
  -7  -4   6   76.19   26.94
  -4  -7   6   39.78   16.26
  -4  -7   7  278.44   45.34
  -7   4   7  289.66   41.12
  -7  -4   7  297.54   45.30
  -4  -7   8  353.38   54.07
  -7   4   8  437.76   56.46
  -7  -4   8  409.55   58.86
  -7  -4   9  773.87   85.80
  -7   4   9  835.89   79.42
  -4  -7   9  807.21   86.23
  -7  -4  10  618.65   81.49
  -4  -7  10  581.97   79.88
  -4  -7  11 1326.44  128.83
  -7  -4  11 1481.33  131.25
  -4   7  12  175.85   51.22
  -4  -7  12  365.37   69.75
  -7   4  12  297.13   61.58
  -7  -4  12  170.21   46.34
  -7  -4  12  280.61   61.22
  -4  -7  13    3.20   24.58
  -7   4  13   49.11   29.68
  -7  -4  13   25.85   17.93
   4   7  13   67.55   35.56
  -7  -4  13   15.29   24.41
  -4   7  13   57.86   31.16
   4   7  14    2.74   10.57
  -7  -4  14   20.21   17.10
  -4   7  14    7.59   14.42
  -7   4  14   28.78   33.45
  -7  -4  14   43.28   25.81
  -7   4  15  152.67   48.39
   4   7  15  181.72   42.31
  -7  -4  15  217.86   58.29
  -4   7  15  251.05   57.67
  -7  -4  16   30.80   28.09
  -4   7  16   32.06   24.75
  -7   4  16    7.18   20.72
  -7  -4  17   80.40   34.91
  -4   7  17  109.81   35.98
  -7   4  17   67.42   30.05
  -7  -4  18  -15.82   14.43
  -4   7  18  -33.59   29.14
  -7   4  18  -15.48   18.29
  -4   7  19   39.91   25.63
  -7   4  19   10.88   19.24
  -4   7  20   20.61   25.21
  -7   4  20   18.99   21.31
  -7   4  21   51.58   23.65
  -4   7  21   89.00   26.75
  -7  -5   0 3082.43  134.25
  -5  -7   0 3083.28  111.22
  -5  -7  -1  609.66   52.01
  -5  -7   1  585.78   49.46
  -7  -5  -1  601.73   62.68
  -7  -5   1  632.64   58.65
  -7  -5  -2  700.07   68.08
  -5  -7   2  933.79   63.60
  -5  -7  -2  905.89   66.33
  -7   5   2  783.12   66.95
  -7  -5   2  925.10   70.07
  -5   7   2  782.66   48.70
  -5  -7   3   51.07   13.84
  -5   7   3   33.06    8.47
  -7   5   3   11.49   15.57
  -5  -7  -3   49.22   17.32
  -7  -5   3   43.95   21.01
  -7   5   4  566.55   49.11
  -7  -5   4  574.77   56.86
  -5  -7  -4  512.85   53.96
  -5  -7   4  567.50   55.16
  -7   5   5  315.90   38.07
  -7  -5   5  320.67   43.10
  -5  -7   5  353.24   46.76
  -5  -7   6 2409.09  126.23
  -7  -5   6 2345.42  125.88
  -7   5   6 2434.24  108.74
  -7  -5   7  192.99   40.66
  -7   5   7  160.01   30.21
  -5  -7   7  172.26   34.76
  -7   5   8   53.45   23.66
  -7  -5   8   83.59   33.45
  -5  -7   8   38.06   14.55
  -5  -7   9  296.02   50.70
  -7  -5   9  303.25   51.96
  -5  -7  10 2200.88  153.34
  -7  -5  10 2254.35  155.45
  -7  -5  11  136.22   40.26
  -7   5  11  183.90   52.42
  -5   7  11  175.78   44.96
  -5  -7  11  231.14   58.88
  -5  -7  12  756.71  103.11
  -5   7  12  791.06   97.45
  -7  -5  12  855.49  108.20
  -7   5  12  767.21   98.91
  -5  -7  12  617.49   89.85
  -7  -5  12  689.32   93.77
  -5   7  13   44.83   20.92
  -5  -7  13   32.49   28.25
   5   7  13   67.51   35.61
  -5  -7  13   71.06   37.68
  -7  -5  13   57.49   27.66
  -7  -5  13    3.67   12.93
  -7   5  13   75.21   35.28
  -5  -7  14  -14.07   17.27
  -5   7  14   46.98   28.87
  -7  -5  14   47.06   25.30
  -5  -7  14   48.62   39.12
  -7   5  14   53.17   27.34
  -7  -5  14   37.97   36.04
  -5   7  15   23.64   38.43
  -7  -5  15    5.63   22.32
  -7   5  15    9.44   12.95
  -7   5  16  407.90   71.01
  -7  -5  16  360.52   70.17
  -5   7  16  406.68   73.37
  -7   5  17   27.54   15.80
  -7  -5  17    5.46   15.52
  -5   7  17  -15.14   25.38
  -7   5  18   40.11   20.72
  -5   7  18   20.09   17.56
  -7   5  19   16.67   20.05
  -5   7  19   31.14   28.02
  -5   7  20   82.77   31.92
  -7   5  20   57.85   29.57
  -7   5  21   12.87   10.64
  -5   7  21   11.13   14.42
  -6  -7   0  487.18   48.58
  -7  -6   0  434.77   48.41
  -6  -7  -1 2856.59  122.37
  -7  -6  -1 2759.23  131.09
  -7  -6   1 2779.34  121.57
  -6  -7   1 2786.41  113.65
  -7  -6   2   50.06   19.80
  -7   6   2   76.34   24.34
  -6  -7  -2   94.30   24.92
  -6  -7   2   61.96   16.00
  -7  -6  -2   78.39   26.54
  -6   7   2   52.78   17.41
  -6  -7   3    6.38    9.11
  -7  -6  -3   16.30   18.92
  -6   7   3   34.42   10.52
  -7  -6   3    0.59   13.19
  -6  -7  -3    2.10   14.89
  -7   6   3    3.36   12.33
  -6   7   4   41.85    9.87
  -7   6   4   56.20   15.07
  -6  -7  -4   59.97   24.15
  -6  -7   4   91.71   23.60
  -7  -6   4   82.36   22.53
  -6  -7   5 3418.58  145.87
  -7  -6   5 3288.21  146.35
  -7   6   5 3320.37  115.36
  -6  -7   6   50.47   16.43
  -7  -6   6   87.10   28.11
  -7   6   6   57.54   14.39
  -6  -7   7  576.29   67.47
  -7  -6   7  608.54   69.49
  -7  -6   8   28.29   22.27
  -6  -7   8   28.35   16.92
  -7  -6   9  812.18   89.91
  -6  -7   9  724.74   85.39
  -7  -6  10   54.46   28.23
  -6  -7  10   58.42   30.51
  -7   6  11 1839.56  144.40
  -6  -7  11 1914.12  153.05
  -6   7  11 1795.51  145.40
  -7  -6  11 1511.71  139.94
  -7  -6  11 2000.30  155.71
  -7  -6  12    9.29   21.87
  -6  -7  12  -14.54   27.29
  -6  -7  12    2.87   28.21
  -7   6  12   46.19   19.54
  -6   7  12   45.02   23.66
  -7  -6  12   42.96   34.77
  -7  -6  13   10.42   24.59
  -7   6  13    1.41   24.17
  -6  -7  13   16.43   22.05
  -6   7  13   25.51   15.90
  -7  -6  13   17.30   23.04
  -6  -7  13   57.16   29.26
  -7  -6  14   38.55   25.39
  -6   7  14   67.20   54.16
  -6  -7  14  118.98   48.96
  -7  -6  14   25.07   21.87
  -6  -7  14   15.33   21.09
  -7   6  14   71.07   28.15
  -7  -6  15  376.17   72.94
  -6  -7  15  363.02   71.82
  -6   7  15  319.40   61.88
  -7   6  15  350.31   65.60
  -7   6  16   36.03   28.00
  -7  -6  16    0.71   25.00
  -6   7  16  -16.33   19.07
  -6   7  17  365.47   67.98
  -7   6  17  300.06   65.49
  -6   7  18   15.89   14.95
  -7   6  18   -4.99   20.50
  -6   7  19    9.21   11.84
  -7   6  19   20.94   19.35
  -7   6  20   -4.02   16.55
  -6   7  20   21.85   16.83
  -6   7  21   53.66   24.90
  -7   6  21   14.97   18.07
  -7  -7   0 3966.57  150.88
  -7  -7  -1  -23.60   16.20
  -7  -7   1   -1.68    8.83
  -7  -7  -2  579.20   62.09
  -7   7   2  515.67   52.48
  -7  -7   2  502.97   53.17
  -7  -7  -3   -1.67   19.85
  -7  -7   3    2.84    9.80
  -7   7   3    0.67   11.91
  -7   7   4 3426.77  109.84
  -7  -7  -4 3385.84  164.36
  -7  -7   4 3704.32  150.28
  -7  -7  -5    1.51   15.85
  -7  -7   5   20.50   11.21
  -7  -7   6 2404.13  132.98
  -7  -7   7   -8.60   16.29
  -7  -7   8   43.24   21.07
  -7  -7   9   19.01   22.98
  -7  -7  10 1143.61  113.61
  -7  -7  11  -14.34   32.21
  -7   7  11  -48.45   25.52
  -7  -7  11  -26.78   26.51
  -7  -7  12  370.51   74.39
  -7  -7  12  406.02   75.63
  -7   7  12  477.91   77.50
  -7   7  13   23.95   19.08
  -7  -7  13  -20.55   19.81
  -7  -7  13   33.37   23.69
  -7  -7  14   19.76   31.74
  -7   7  14    5.81   20.94
  -7   7  15   42.28   26.31
  -7  -7  15   29.62   20.97
  -7   7  16  597.13   92.78
  -7   7  17   38.50   34.64
  -7   7  18  118.47   41.61
  -7   7  19   10.12   17.45
  -7   7  20    9.31   15.29
  -7   7  21   29.63   18.97
   0  -8   0  907.93   41.56
  -8   0   0 1068.86   85.25
   0  -8   1 1237.56   57.81
  -8   0   1 1232.81   91.15
   0  -8   2   93.65   18.89
  -8   0   2  101.91   26.41
   0  -8   3   -1.81    9.03
  -8   0   3   -8.17   15.04
   0  -8   4  117.29   24.96
  -8   0   4  120.18   25.86
   0  -8   5 1281.76   83.01
  -8   0   5 1175.93   82.58
   0  -8   6  576.78   59.58
  -8   0   6  508.47   55.53
   0  -8   7 2693.32  138.33
  -8   0   7 2761.81  141.63
  -8   0   8  397.02   56.30
   0  -8   8  477.86   63.90
  -8   0   9  483.86   65.53
   0  -8   9  412.54   61.62
  -8   0  10  193.05   45.24
   0  -8  10  144.58   40.70
  -8   0  11 1200.40  120.79
  -8   0  12   36.64   30.24
  -8   0  12   59.00   22.71
   0   8  12   37.96   24.84
  -8   0  13   31.81   15.65
   0   8  13   17.42   16.45
  -8   0  13  -23.13   29.66
   0   8  14   38.77   28.01
  -8   0  14  -34.77   31.43
  -8   0  15  370.89   74.39
   0   8  15  293.01   62.00
  -8   0  16   36.86   19.98
   0   8  16   65.73   31.78
   0   8  17  320.32   60.21
  -8   0  17  346.11   65.40
  -8   0  18   52.72   29.91
   0   8  18   82.37   29.91
   0   8  19   29.62   15.23
  -8   0  19   -3.82   10.92
  -8   0  20   -3.39    9.05
   0   8  20   21.34   15.77
  -8  -1   0 3676.41  154.09
  -1  -8   0 3555.77   86.40
  -1  -8   1  110.47   17.87
  -8  -1   1  150.46   34.64
  -8   1   1  119.04   31.93
  -1  -8  -1  103.56   12.53
   1  -8   2  181.24   24.58
  -1  -8   2  193.12   27.25
  -8   1   2  194.28   34.10
  -8  -1   2  155.63   28.97
   1  -8   3   17.37    7.70
  -1  -8   3   16.94   10.71
  -8   1   3  -26.84   20.02
  -8  -1   3   -3.64   18.37
  -8   1   4  402.51   48.42
   1  -8   4  450.47   45.71
  -1  -8   4  423.66   46.52
  -8  -1   4  399.69   46.50
  -1  -8   5  115.11   26.01
  -8   1   5   89.76   22.78
   1  -8   5  101.58   22.15
  -8  -1   5   99.47   26.90
  -1  -8   6 2578.30  128.50
  -8   1   6 2677.40  129.43
  -8  -1   6 2591.28  128.49
   1  -8   6 2702.81  129.85
  -1  -8   7  450.44   57.37
  -8  -1   7  440.08   55.83
   1  -8   7  461.12   58.34
  -8   1   7  512.11   60.50
  -8  -1   8  185.40   39.62
  -1  -8   8  135.30   33.00
  -8   1   8  137.39   34.46
   1  -8   8  195.50   42.30
  -8   1   9  264.57   47.95
  -8  -1   9  236.72   48.18
  -1  -8   9  279.82   51.01
  -1  -8  10 1233.82  112.48
  -8   1  10 1435.00  120.83
  -8  -1  10 1316.96  118.91
  -8   1  11   22.36   22.12
  -8  -1  11   -1.76   23.38
  -1  -8  11   -1.53   14.89
  -8  -1  12  253.64   54.17
   1   8  12  284.10   63.21
  -8   1  12  382.84   71.74
  -8  -1  12  281.42   61.37
  -1   8  12  330.89   65.28
  -8   1  12  276.34   59.06
  -8   1  13  135.54   49.33
  -8   1  13   67.50   36.56
  -8  -1  13   20.87   14.41
   1   8  13  109.37   40.74
  -8  -1  13  140.38   48.40
  -1   8  13  114.36   43.06
   1   8  14   32.40   20.72
  -8  -1  14    9.01   27.75
  -8   1  14   47.30   24.15
  -8  -1  14   48.77   33.11
  -1   8  14   64.77   30.33
   1   8  15   39.82   24.59
  -8  -1  15   48.65   27.99
  -8   1  15   13.88   13.35
  -1   8  15   25.87   21.24
  -8   1  16  453.30   77.52
  -8  -1  16  461.88   78.30
   1   8  16  438.16   71.91
  -1   8  16  460.13   76.66
   1   8  17   61.97   30.11
  -8   1  17   18.31   21.40
  -1   8  17   92.54   39.04
  -8  -1  17   30.17   25.64
   1   8  18  127.82   35.95
  -8  -1  18   54.86   28.73
  -1   8  18   72.00   28.27
  -8   1  18   30.71   25.55
   1   8  19   38.59   18.61
  -8  -1  19   14.72   15.91
  -1   8  19    0.50   11.98
  -8   1  19    5.87   12.53
  -8   1  20   80.83   33.67
  -1   8  20   78.77   28.97
  -8  -1  20   77.67   34.25
  -8   1  21   -6.86   13.22
  -2  -8   0   46.08   11.62
  -8  -2   0   83.90   33.50
  -2  -8  -1  493.27   31.17
  -2  -8   1  498.10   38.19
  -8  -2   1  529.34   58.36
  -8  -2  -1  571.19   62.64
  -8   2   1  478.19   54.65
  -8   2   2   57.60   25.20
  -2  -8  -2   33.38    8.20
  -8  -2   2   51.09   17.47
  -2  -8   2   32.75   10.65
  -8   2   3  -19.80   18.60
  -2  -8  -3   -0.19    2.54
  -2  -8   3  -10.84    9.26
  -8   2   4  206.32   36.56
  -8  -2   4  173.31   32.75
  -2  -8   4  211.26   32.92
  -2  -8  -4  101.67   13.00
  -2  -8   5  136.04   25.94
  -8   2   5  130.20   26.97
  -8  -2   5  133.25   31.15
  -2  -8   6  190.79   33.61
  -8  -2   6  189.20   36.58
  -8   2   6  220.99   36.77
  -8   2   7  361.75   52.02
  -8  -2   7  308.08   48.67
  -2  -8   7  260.35   43.36
  -2  -8   8   73.20   22.65
  -8   2   8  148.24   39.31
  -8  -2   8  135.55   35.33
  -8  -2   9  746.91   83.92
  -2  -8   9  590.03   76.25
  -8   2   9  791.98   84.18
  -8  -2  10   23.52   24.58
  -2  -8  10   -7.34   24.38
  -8   2  10  -34.91   29.02
  -8  -2  11  961.06  106.25
  -8   2  11  999.37  102.95
  -2  -8  11  854.48  102.32
  -2   8  12    4.10   24.47
  -8   2  12   22.01   25.06
  -2  -8  12   16.72   14.58
  -8  -2  12  -11.50   20.85
  -8  -2  12  -23.20   25.96
   2   8  12   -8.53   30.52
  -8  -2  13   13.46   20.76
   2   8  13  -26.71   13.72
  -8   2  13  -34.08   18.83
  -8  -2  13  -29.77   27.12
  -2   8  13   26.71   22.11
  -8  -2  14  -24.71   23.25
  -2   8  14   35.89   27.35
  -8  -2  14  -11.13   15.60
  -8   2  14   24.48   19.12
   2   8  14  -22.18   30.12
  -8   2  15  161.53   46.40
  -2   8  15  202.38   48.91
   2   8  15  106.37   36.04
  -8  -2  15  209.01   54.55
   2   8  16   56.97   27.73
  -8  -2  16   62.51   38.63
  -2   8  16   52.60   31.43
  -8   2  16  -10.01   15.26
   2   8  17  123.85   36.54
  -2   8  17  152.33   41.74
  -8   2  17  190.02   50.44
  -8  -2  17  229.11   55.77
  -2   8  18   25.28   20.78
  -8   2  18    7.19   14.56
  -8  -2  18   12.12   13.43
   2   8  18  -11.99   14.62
  -8   2  19   37.91   27.76
  -2   8  19   62.30   22.82
  -8  -2  19   24.59   12.10
  -8   2  20    2.06    8.68
  -2   8  20    2.31   10.00
  -2   8  21   73.78   23.35
  -8   2  21   47.69   19.62
  -8  -3   0 1406.37   96.32
  -3  -8   0 1324.92   62.20
  -3  -8   1  288.37   31.69
  -8  -3   1  350.72   49.55
  -3  -8  -1  294.61   27.91
  -8  -3  -1  307.69   45.88
  -8   3   1  308.64   47.21
  -3  -8  -2  115.47   17.02
  -8  -3   2   78.57   18.79
  -8   3   2  118.39   29.73
  -3  -8   2  117.70   21.10
  -3  -8  -3   19.10   11.98
  -8  -3   3   14.14   15.90
  -3  -8   3    0.38    9.17
  -8   3   3    0.61   14.79
  -8  -3   4   19.28   15.00
  -8   3   4   33.77   21.52
  -3  -8  -4   29.21   13.56
  -3  -8   4   15.68   10.44
  -3  -8   5  153.05   29.59
  -3  -8  -5  125.58   21.76
  -8  -3   5  111.32   24.48
  -8   3   5  172.50   30.00
  -3  -8   6   21.38   10.32
  -8   3   6   -1.93   10.21
  -8  -3   6   37.53   16.74
  -8  -3   7  150.47   36.42
  -3  -8   7  147.55   33.37
  -8   3   7  167.34   35.62
  -8  -3   8  293.20   50.92
  -3  -8   8  172.58   38.85
  -8   3   8  262.30   45.54
  -8   3   9   56.67   20.32
  -8  -3   9   30.49   20.13
  -3  -8   9    6.92   13.49
  -8  -3  10  749.77   90.00
  -3  -8  10  751.32   88.16
  -8   3  10  882.71   92.88
  -8   3  11  126.34   35.83
  -8  -3  11  233.38   52.19
  -3  -8  11  180.67   46.69
  -3  -8  12  319.51   68.22
  -8   3  12  333.25   63.62
  -8  -3  12  364.55   68.97
  -3   8  12  324.97   66.15
  -8  -3  12  356.42   73.52
  -8  -3  13   26.91   30.94
   3   8  13    8.93   20.76
  -8   3  13   24.91   21.54
  -3   8  13  -22.62   12.78
  -3  -8  13   56.25   35.18
  -8  -3  13   -5.58   22.61
  -8  -3  14  -39.78   25.62
   3   8  14   59.97   32.13
  -8   3  14   22.96   26.77
  -8  -3  14   17.64   14.38
  -3   8  14   20.15   23.06
  -3   8  15   43.96   26.96
   3   8  15   55.04   28.31
  -8  -3  15   57.34   23.54
  -8   3  15   28.22   20.89
  -3   8  16  112.97   48.24
  -8   3  16   28.55   18.83
   3   8  16   85.28   36.79
  -8  -3  16   54.25   28.23
  -3   8  17   69.45   29.82
  -8   3  17    4.44   13.55
  -8  -3  17   16.27   16.36
   3   8  17   32.47   24.81
  -8   3  18   -8.51   24.31
  -8  -3  18   11.96   11.30
  -3   8  18   11.44   15.25
  -3   8  19    8.83   12.86
  -8  -3  19   -9.82   13.04
  -8   3  19   -6.29   14.90
  -3   8  20   31.85   21.95
  -8   3  20   49.17   28.32
  -8   3  21   -2.17   11.46
  -3   8  21   26.52   15.12
  -8  -4   0 1583.90  101.28
  -4  -8   0 1422.36   70.66
  -4  -8  -1  716.22   49.36
  -8  -4   1  763.82   67.94
  -4  -8   1  747.63   53.15
  -8  -4  -1  750.45   72.52
  -8   4   1  726.01   74.19
  -8  -4   2  273.36   36.81
  -8  -4  -2  304.88   47.74
  -4  -8   2  295.00   35.13
  -4  -8  -2  267.46   30.74
  -8   4   2  304.24   47.95
  -8  -4   3  132.79   27.12
  -8   4   3  149.54   30.30
  -4  -8  -3  162.53   25.20
  -4  -8   3  143.73   24.24
  -4  -8  -4  324.27   37.60
  -8   4   4  365.79   45.12
  -8  -4   4  376.57   49.14
  -4  -8   4  389.77   45.36
  -4  -8   5  397.39   49.86
  -4  -8  -5  328.56   41.87
  -8   4   5  403.03   49.35
  -8  -4   5  396.79   49.36
  -8  -4   6 1235.66   91.89
  -4  -8   6 1260.53   91.79
  -8   4   6 1231.95   83.97
  -8   4   7  345.61   47.16
  -8  -4   7  353.52   53.12
  -4  -8   7  288.63   45.88
  -4  -8   8   -7.80   15.32
  -8   4   8    3.77   13.88
  -8  -4   8   -4.75   11.70
  -8   4   9  608.92   70.66
  -4  -8   9  632.48   79.78
  -8  -4   9  642.84   80.24
  -4  -8  10  543.28   75.77
  -8  -4  10  648.18   83.30
  -8  -4  11  260.26   54.63
  -4  -8  11  434.42   75.58
  -4   8  11  356.53   64.44
  -8   4  11  453.61   76.70
  -8  -4  11  418.26   72.94
  -8  -4  12  181.67   46.29
  -4   8  12  166.05   43.84
  -4  -8  12  194.18   52.69
  -8  -4  12  180.34   48.44
  -8   4  12  185.07   49.54
  -8  -4  13   72.59   28.51
  -4  -8  13  117.83   44.21
  -8   4  13   66.56   34.81
   4   8  13   67.29   33.00
  -8  -4  13   80.18   38.80
  -4   8  13   64.36   32.69
  -8  -4  14    3.46   27.94
   4   8  14    2.72   20.70
  -8  -4  14   42.88   21.28
  -8   4  14   28.22   30.78
  -4   8  14    2.42   14.37
  -8   4  15   41.50   23.32
   4   8  15   55.31   24.19
  -8  -4  15   50.50   34.60
  -4   8  16  178.74   49.43
   4   8  16  146.00   43.16
  -8  -4  16   71.94   33.13
  -8   4  16  137.81   44.35
  -4   8  17   28.08   21.82
  -8  -4  17  -10.43   23.81
  -8   4  17  -24.40   24.32
  -4   8  18    9.19   21.00
  -8   4  18   43.68   26.73
  -8  -4  18   71.89   32.51
  -8   4  19   76.43   32.56
  -4   8  19   48.68   26.31
  -8   4  20   30.75   20.45
  -4   8  20   58.52   26.85
  -8   4  21   15.42   11.34
  -4   8  21   45.07   21.41
  -8  -5   0 1877.46  110.97
  -5  -8   0 1805.58   87.01
  -5  -8   1 1718.49   86.35
  -5  -8  -1 1610.60   81.71
  -8  -5  -1 1697.86  108.28
  -8   5   1 1590.28  105.06
  -8  -5   1 1727.06  102.00
  -8   5   2  544.62   61.24
  -5   8   2  369.84   30.94
  -5  -8   2  561.53   50.29
  -8  -5  -2  568.30   65.92
  -5  -8  -2  571.53   51.27
  -8  -5   2  556.11   56.97
  -8  -5   3   12.88   12.92
  -8  -5  -3  -25.74   27.46
  -5  -8  -3   36.75   13.97
  -5  -8   3    7.60    8.94
  -8   5   3   -0.68   15.85
  -8   5   4  417.11   47.31
  -5  -8   4  349.61   45.49
  -5  -8  -4  427.12   49.79
  -8  -5   4  352.40   46.12
  -5  -8   5 2269.85  119.23
  -8   5   5 2238.98  108.23
  -8  -5   5 2173.14  118.57
  -5  -8  -5 2035.63  115.24
  -5  -8   6  363.76   52.57
  -5  -8  -6  278.66   45.35
  -8   5   6  338.48   43.79
  -8  -5   6  363.22   52.16
  -8  -5   7  509.92   64.79
  -8   5   7  524.62   56.82
  -5  -8   7  527.96   65.01
  -5  -8   8  294.01   50.20
  -8  -5   8  372.12   59.36
  -5  -8   9  298.91   55.77
  -8  -5   9  347.15   58.94
  -8  -5  10  194.78   50.41
  -5  -8  10  203.41   48.28
  -8  -5  11  906.84  105.27
  -8  -5  11  797.24   99.58
  -5  -8  11  845.88  104.73
  -5   8  11  890.76  105.44
  -8   5  11  857.57  101.97
  -8  -5  12  142.21   48.57
  -5  -8  12  149.69   51.18
  -8   5  12   91.67   35.16
  -8  -5  12  126.75   44.58
  -5   8  12  145.64   48.91
  -5  -8  12  116.10   55.12
  -5   8  13  -27.60   22.74
  -5  -8  13   63.59   29.92
  -8  -5  13  -48.90   34.90
   5   8  13   -0.26   14.62
  -8   5  13   68.94   35.23
  -5  -8  13  -11.61   25.00
  -8  -5  13   -7.07   15.74
  -8  -5  14  231.24   57.30
  -5  -8  14  177.00   57.16
  -5   8  14  142.89   42.74
  -8   5  14  132.30   46.32
  -8  -5  14  159.68   50.29
   5   8  14  133.66   45.21
   5   8  15  104.69   36.05
  -8  -5  15  163.31   52.62
  -5   8  15  230.45   58.18
  -8   5  15  150.69   49.52
  -8   5  16   -8.39   15.63
  -8  -5  16   24.23   17.04
  -8   5  17  153.16   50.59
  -5   8  17  216.11   52.11
  -8  -5  17  173.05   46.13
  -8   5  18   60.25   31.79
  -5   8  18   45.46   28.69
  -8   5  19   10.94    9.80
  -5   8  19   -4.08   18.81
  -8   5  20   30.86   19.50
  -5   8  20   34.41   20.70
  -8   5  21   15.90   18.19
  -5   8  21   35.58   19.06
  -6  -8   0 3208.75  124.71
  -8  -6   0 3187.18  145.65
  -8   6   1  779.73   75.81
  -6  -8  -1  883.99   66.89
  -8  -6  -1  870.53   80.35
  -6  -8   1  843.35   63.85
  -8  -6   1  946.50   74.95
  -6  -8   2  463.70   49.88
  -8  -6  -2  472.90   60.44
  -6   8   2  414.79   38.76
  -8  -6   2  519.10   54.46
  -8   6   2  457.96   56.93
  -6  -8  -2  486.05   53.33
  -8   6   3  233.82   37.73
  -8  -6   3  293.93   42.11
  -6  -8   3  271.94   38.88
  -6  -8  -3  272.48   41.02
  -8  -6  -3  234.16   42.37
  -6  -8   4 2843.11  131.19
  -6  -8  -4 2781.61  136.30
  -8   6   4 2781.58  116.45
  -8  -6  -4 2793.42  157.77
  -8  -6   4 2788.58  133.89
  -6  -8  -5  309.44   49.90
  -6  -8   5  358.33   50.02
  -8  -6   5  396.88   53.55
  -8   6   5  334.46   40.30
  -6  -8   6 1958.28  120.69
  -6  -8  -6 1698.40  120.77
  -8  -6   6 1915.95  123.68
  -6  -8   7  103.74   28.42
  -8  -6   7  162.61   39.24
  -6  -8   8   75.39   21.52
  -8  -6   8   19.29   12.45
  -6  -8   9   65.58   24.53
  -8  -6   9   66.22   23.80
  -8  -6  10  884.61  103.35
  -6  -8  10  805.15   96.69
  -8  -6  11   29.16   19.81
  -8  -6  11   18.28   27.59
  -8   6  11   18.49   25.63
  -6  -8  11   44.26   32.75
  -6  -8  11  -28.03   16.80
  -6   8  11   34.07   20.31
  -8   6  12  297.67   63.44
  -6   8  12  304.94   64.02
  -6  -8  12  307.47   65.96
  -6  -8  12  270.08   67.69
  -8  -6  12  220.39   61.63
   6   8  13   91.06   37.76
  -6   8  13    4.05   26.98
  -6  -8  13   60.47   28.21
  -8   6  13   85.20   42.40
  -8  -6  13  185.42   56.94
  -8  -6  13   64.77   32.97
  -6  -8  13   80.63   39.30
  -8   6  14   34.49   30.25
  -6   8  14   96.93   36.94
  -6   8  15  102.15   37.70
  -8   6  15  133.66   42.19
  -8  -6  15   74.55   29.25
  -8  -6  16  492.37   82.85
  -8   6  16  487.46   84.12
  -6   8  16  534.22   85.24
  -6   8  17   34.08   33.93
  -8   6  17   15.53   20.98
  -6   8  18   49.83   30.56
  -8   6  18   47.73   31.13
  -8   6  19   68.88   29.06
  -6   8  19    9.36   13.86
  -8   6  20   58.34   27.83
  -6   8  20   15.45    9.73
  -8   6  21   14.83   17.18
  -6   8  21   -0.30    9.30
  -8  -7   0  423.99   51.95
  -7  -8   0  425.08   49.68
  -8  -7   1 1960.06  107.61
  -7  -8  -1 1947.49  107.83
  -8  -7  -1 1887.53  114.29
  -8   7   1 1776.10  114.32
  -7   8   1 1682.53  102.30
  -7  -8   1 1966.02  105.28
  -7  -8   2   99.98   23.80
  -8  -7  -2  109.52   30.29
  -7   8   2   98.78   23.69
  -7  -8  -2   99.56   26.66
  -8   7   2   87.07   24.74
  -8  -7   2  122.09   27.34
  -8  -7  -3 1172.14   99.19
  -7  -8  -3 1187.45   92.65
  -8   7   3 1257.37   81.72
  -8  -7   3 1223.27   87.26
  -7  -8   3 1276.99   87.66
  -8  -7   4   40.94   21.18
  -7  -8   4   52.16   23.09
  -8   7   4   39.13   12.78
  -8  -7  -4   28.97   24.98
  -7  -8  -4   27.52   15.80
  -7  -8   5 2488.22  134.90
  -8  -7   5 2530.82  135.23
  -8  -7  -5 2319.75  152.81
  -7  -8  -5 2464.00  145.68
  -7  -8   6   59.00   27.10
  -7  -8  -6   72.44   29.25
  -8  -7   6   52.73   23.85
  -7  -8   7 1100.03   99.43
  -8  -7   7 1141.42  100.94
  -7  -8   8   -8.12   20.51
  -8  -7   8   14.60   13.99
  -7  -8   9   51.87   21.78
  -8  -7   9   66.58   25.50
  -8  -7  10  -15.74   25.97
  -8  -7  10   18.18   18.45
  -8   7  10   -9.17   22.03
  -7   8  10   37.26   45.44
  -7  -8  10   23.13   21.92
  -7  -8  11  456.32   84.56
  -8  -7  11  573.43   88.15
  -8   7  11  569.86   85.11
  -7   8  11  548.23   83.07
  -8  -7  11  554.74   84.98
  -7  -8  11  536.74   83.35
  -7  -8  12  -34.25   34.38
  -7  -8  12   13.48   32.53
  -8  -7  12   16.03   18.60
  -7   8  12  -34.48   33.68
  -8   7  12   -6.21   23.46
  -8  -7  13    3.70   23.39
  -7  -8  13   36.89   30.92
  -8  -7  13   35.35   13.46
  -8   7  13   38.10   22.54
  -7   8  13    8.43   15.36
  -8   7  14   27.62   25.12
  -7   8  14   60.72   24.91
  -8  -7  14   32.08   20.20
  -7   8  15  444.77   76.10
  -8   7  15  408.36   73.68
  -7   8  16   27.80   25.88
  -8   7  16   38.29   31.10
  -8   7  17  346.89   70.20
  -7   8  17  340.81   68.73
  -8   7  18   11.28   11.63
  -7   8  18  -18.19   17.15
  -7   8  19   -0.66   15.84
  -8   7  19    1.06    9.70
  -8   7  20  -10.67   14.59
  -7   8  20   -3.73   14.91
  -8   7  21   31.22   17.67
  -7   8  21   34.39   21.92
  -8  -8   0 2196.95  117.38
  -8  -8  -1   12.41   13.06
  -8  -8   1   22.68   13.91
  -8   8   1   16.69   15.46
  -8  -8  -2   69.08   28.32
  -8   8   2   67.28   23.30
  -8  -8   2  102.46   29.78
  -8  -8  -3    1.45   15.71
  -8  -8   3  -26.29   20.25
  -8  -8  -4 2370.00  145.71
  -8  -8   4 2390.52  132.17
  -8  -8   5   11.00   20.06
  -8  -8  -5   11.45   18.91
  -8  -8  -6 2043.74  147.28
  -8  -8   6 2093.90  132.82
  -8  -8   7  -29.21   21.21
  -8  -8  -7   70.53   40.88
  -8  -8   8  250.75   51.77
  -8  -8   9  -50.25   29.83
  -8  -8  10  146.10   48.80
  -8  -8  10  137.50   39.85
  -8   8  10  148.00   41.02
  -8   8  11    0.31   21.44
  -8  -8  11    0.92   12.86
  -8  -8  11   14.64   13.47
  -8   8  12   93.66   34.84
  -8  -8  12   46.71   25.63
  -8  -8  12   74.08   39.44
  -8   8  13   57.18   33.81
  -8  -8  13   34.18   31.51
  -8   8  14   73.61   40.65
  -8   8  15   -8.93   17.74
  -8   8  16  522.48   88.27
  -8   8  17    0.55   16.94
  -8   8  18   75.83   33.99
  -8   8  19  -12.20   15.17
  -8   8  20   19.81   20.56
  -8   8  21    5.06    6.95
   0  -9   0  784.58   41.48
  -9   0   0  902.99   83.48
  -9   0   1  618.40   69.46
   0  -9   1  604.70   42.93
  -9   0   2  498.54   58.66
   0  -9   2  429.52   40.45
  -9   0   3   47.50   11.49
   0  -9   3   61.20   16.44
   0  -9   4  129.84   25.74
  -9   0   4  115.44   29.25
   0  -9   5    0.46    9.54
  -9   0   5    7.48   18.04
   0  -9   6 1624.41  104.86
  -9   0   6 1704.66  108.08
  -9   0   7  803.19   79.14
   0  -9   7  664.02   72.14
   0  -9   8  288.01   51.79
  -9   0   8  296.66   49.84
  -9   0   9  844.45   89.84
   0  -9   9  717.16   84.80
  -9   0  10  644.33   84.26
  -9   0  11  178.93   49.15
  -9   0  11  286.38   60.53
   0   9  12  113.25   44.10
  -9   0  12  114.80   43.86
  -9   0  12  123.15   38.19
  -9   0  13   95.91   36.08
  -9   0  13  193.91   55.23
   0   9  13  234.89   58.16
  -9   0  14   31.64   23.78
   0   9  14    9.77   19.76
   0   9  15   -3.43   16.46
  -9   0  15   38.10   33.90
  -9   0  16  214.11   51.75
   0   9  16  215.54   52.38
   0   9  17   30.73   23.24
  -9   0  17   11.82   15.46
   0   9  18   57.29   26.57
  -9   0  18   16.83   16.30
   0   9  19   46.11   27.41
  -9   0  19   15.99   13.89
  -9   0  20   12.88   13.11
   0   9  20   17.82   16.74
  -9  -1   0  586.38   70.72
  -1  -9   0  547.55   35.93
  -9   1   0  636.55   73.42
  -1  -9  -1  246.20   19.52
  -9  -1   1  312.66   47.20
  -9   1   1  311.70   53.34
  -1  -9   1  289.32   29.96
  -1  -9   2   99.87   20.24
   1  -9   2   74.13   20.69
  -9  -1   2  116.32   25.41
  -9   1   2  101.38   29.06
  -9  -1   3   15.09   13.49
  -9   1   3   57.08   20.65
   1  -9   3   63.73   20.14
  -1  -9   3   59.36   15.91
  -9  -1   4  122.78   31.69
  -9   1   4   79.55   23.26
   1  -9   4   91.55   24.22
  -1  -9   4   83.18   22.75
   1  -9   5  219.05   37.34
  -9   1   5  201.48   35.88
  -9  -1   5  204.75   36.69
  -1  -9   5  230.98   37.14
  -9  -1   6  390.20   52.93
  -1  -9   6  351.05   47.05
  -9   1   6  396.19   54.55
   1  -9   6  347.64   49.91
  -9   1   7  808.25   77.19
   1  -9   7  700.63   75.33
  -9  -1   7  823.51   80.22
  -1  -9   7  743.93   75.31
  -1  -9   8  669.35   76.64
  -9   1   8  700.18   77.97
  -9  -1   8  711.74   78.19
  -9   1   9  307.06   55.49
  -1  -9   9  204.26   47.33
  -9  -1   9  245.31   49.83
  -9   1  10  241.62   53.07
  -9  -1  10  258.08   57.58
  -1  -9  10  214.56   49.54
  -1   9  11  543.86   85.85
  -9  -1  11  460.00   73.71
  -9   1  11  547.74   82.30
  -9   1  11  485.88   77.85
  -9  -1  11  418.97   69.12
  -1  -9  11  504.47   77.97
  -9   1  12  114.52   37.85
  -9   1  12  138.71   43.60
   1   9  12  172.72   56.70
  -9  -1  12   87.39   35.90
  -9  -1  12  157.88   49.14
  -1   9  12  137.49   50.12
  -9  -1  13  -24.89   19.33
  -9  -1  13  -36.72   19.26
   1   9  13   14.89   34.36
  -9   1  13  -22.80   19.99
  -9  -1  14   14.37   19.39
  -9   1  14  -22.33   22.84
   1   9  14  -18.30   28.82
  -1   9  14  -34.12   13.17
  -9   1  15  129.05   44.64
  -9  -1  15  154.75   47.95
   1   9  15  124.97   42.66
  -1   9  15  146.35   41.90
  -9  -1  16   15.61   31.71
   1   9  16    7.29   13.16
  -9   1  16   37.83   30.02
  -1   9  16   10.99   20.80
   1   9  17  179.44   45.71
  -1   9  17   74.22   34.08
  -9  -1  17  137.00   38.57
  -9   1  17   78.52   40.66
  -1   9  18   27.95   20.91
  -9   1  18  -18.42   13.56
   1   9  18   17.00   20.95
  -9  -1  18   36.79   18.56
  -9  -1  19    3.57   13.67
  -1   9  19    7.07   17.31
  -9   1  19  -12.51   11.29
   1   9  19   44.60   16.45
  -9   1  20  -12.88   17.33
  -1   9  20   11.85    8.36
  -9  -1  20    3.00   15.49
  -2  -9   0 1036.12   53.24
  -9  -2   0 1046.51   88.11
  -9   2   1   41.18   24.45
  -9  -2  -1   34.90   17.04
  -2  -9  -1   28.42    7.39
  -2  -9   1   36.82   12.86
  -9  -2   1   61.27   23.70
  -9  -2   2   15.00   10.94
  -9   2   2  -13.20   15.12
  -2  -9  -2   11.46    5.08
  -2  -9   2   18.98   14.77
  -9  -2   3   11.18   11.57
  -2  -9   3   14.14   11.23
  -9   2   3  -16.09   15.14
  -2  -9   4  -16.77   14.84
  -9  -2   4   10.52   13.90
  -2  -9   5   67.14   23.74
  -9  -2   5   80.77   22.38
  -9   2   5   50.41   18.86
  -2  -9   6   91.25   24.19
  -9   2   6   74.05   20.54
  -9  -2   6   99.96   28.38
  -2  -9   7  219.66   39.84
  -9  -2   7  253.75   48.87
  -9   2   7  245.65   44.01
  -9   2   8   13.31   10.55
  -9  -2   8   23.95   22.83
  -2  -9   8   -1.76   14.35
  -9   2   9  137.65   35.46
  -2  -9   9  122.29   35.57
  -9  -2   9   98.17   29.73
  -2  -9  10  517.46   80.61
  -9   2  10  653.77   82.64
  -9  -2  10  592.67   82.72
  -9   2  11   -4.44   19.65
  -2  -9  11   44.78   31.15
  -9   2  11   22.75   10.87
  -9  -2  11   54.40   17.74
  -9  -2  11  -15.94   28.84
  -2   9  11   37.37   19.22
  -2  -9  12  137.84   47.14
  -9  -2  12  144.26   43.34
  -2   9  12  155.68   50.57
  -9  -2  12  119.80   44.89
  -9   2  12  117.79   40.68
   2   9  13   85.59   39.77
  -2   9  13   73.16   35.73
  -9   2  13  109.39   44.94
  -9  -2  13   75.40   44.53
  -9  -2  13  121.04   43.64
  -9  -2  14   11.13   19.44
  -9  -2  14   59.23   38.82
   2   9  14   48.83   22.56
  -9   2  14   -6.07   19.62
  -2   9  14   55.46   34.74
  -9  -2  15  -24.51   24.92
  -9   2  15   22.09   20.42
   2   9  15   11.63   31.75
  -2   9  15   31.46   26.43
  -9  -2  16   83.39   33.05
  -2   9  16   75.25   32.81
   2   9  16   74.58   28.85
  -9   2  16  109.84   39.34
  -9  -2  17   21.88   27.11
   2   9  17   32.09   27.36
  -2   9  17   24.88   25.88
  -9   2  17    0.07   18.80
  -9   2  18    3.36   12.19
   2   9  18  -11.49   11.69
  -9  -2  18   14.94   17.67
  -2   9  18   -2.45   12.40
   2   9  19    6.05    8.27
  -9  -2  19  -11.15   14.42
  -9   2  19    9.75   11.18
  -2   9  19    2.12   16.33
  -2   9  20   60.52   28.85
  -9   2  20    2.13   16.88
  -9   2  21   14.60   12.76
  -2   9  21   -5.70    5.72
  -9  -3   0  142.34   34.37
  -3  -9   0  146.01   22.38
  -9  -3   1  427.46   55.99
  -3  -9   1  360.55   36.87
  -3  -9  -1  377.13   32.22
  -9   3   1  357.21   55.92
  -9  -3  -1  378.71   57.13
  -9   3   2   83.52   25.04
  -3  -9  -2   59.75   11.28
  -9  -3   2   43.31   16.22
  -3  -9   2   88.40   20.17
  -9   3   3  -18.14   19.05
  -3  -9   3    7.14   13.96
  -9  -3   3   19.77   16.10
  -3  -9  -3   -3.37    4.55
  -3  -9   4  191.63   33.38
  -9  -3   4  204.40   34.99
  -9   3   4  250.93   44.38
  -9   3   5  634.95   62.19
  -9  -3   5  687.34   71.13
  -3  -9   5  675.56   65.41
  -9  -3   6  265.08   44.46
  -3  -9   6  280.82   45.13
  -9   3   6  308.51   45.23
  -3  -9   7   94.23   25.86
  -9  -3   7  137.52   36.39
  -9   3   7  134.44   34.01
  -9   3   8   19.58   15.63
  -3  -9   8    1.55   13.95
  -9  -3   9  531.12   76.03
  -3  -9   9  531.15   72.84
  -9   3   9  571.71   74.30
  -9   3  10  -28.11   20.13
  -3  -9  10   -7.32   13.32
  -9  -3  10   23.78   23.04
  -9  -3  11  336.64   69.83
  -3   9  11  364.82   67.80
  -9  -3  11  376.91   70.94
  -3  -9  11  331.25   67.48
  -9   3  11  398.39   69.09
  -9  -3  12   -4.36   19.83
  -9   3  12  -24.74   22.55
  -3  -9  12    5.34   15.53
  -9  -3  12   28.07   24.54
  -3   9  12    9.95   37.65
   3   9  13   23.61   23.13
  -3   9  13   47.74   23.45
  -9   3  13  114.08   42.05
  -9  -3  13   35.39   20.41
  -3  -9  13  108.50   42.66
  -9  -3  13   38.94   30.11
  -9   3  14    9.05   17.31
  -9  -3  14   24.87   27.18
  -9  -3  14   -2.87   13.78
   3   9  14  -13.15   20.31
  -3   9  14  -36.40   26.80
  -3   9  15   25.27   27.66
   3   9  15  -15.74   28.70
  -9   3  15  -11.73   24.48
  -9  -3  15   -6.01   20.18
  -9  -3  16   -1.69   20.09
   3   9  16   -5.34   12.38
  -9   3  16   -8.36   18.99
  -9   3  17   26.92   26.49
   3   9  17  -15.82   20.16
  -3   9  17   17.58   20.39
  -9  -3  17    3.47   11.73
  -9   3  18   -6.24   13.46
  -3   9  18   13.86   14.27
  -9  -3  18   -2.78   13.83
  -9   3  19  -10.42   10.97
  -3   9  19   84.82   31.83
  -3   9  20   22.18   22.48
  -9   3  20  -11.22   13.96
  -9   3  21   46.74   19.45
  -3   9  21   15.40   10.75
  -4  -9   0 1454.70   73.86
  -9  -4   0 1507.70  107.68
  -4  -9   1  565.34   47.64
  -9  -4  -1  573.63   69.48
  -9   4   1  494.94   64.67
  -9  -4   1  590.05   62.26
  -4  -9  -1  596.74   45.37
  -4  -9   2  354.39   40.50
  -9  -4   2  366.77   49.05
  -9  -4  -2  380.34   58.44
  -4  -9  -2  345.51   33.85
  -9   4   2  338.68   53.47
  -4  -9  -3   19.00   10.54
  -9   4   3    9.04   13.97
  -9  -4   3   21.24   20.68
  -4  -9   3   17.83   14.86
  -9   4   4  395.07   51.13
  -9  -4   4  447.87   54.88
  -4  -9   4  436.04   51.10
  -4  -9  -4  335.15   35.50
  -4  -9   5  674.91   65.75
  -9   4   5  625.69   63.54
  -9  -4   5  650.60   68.18
  -4  -9   6  566.95   64.19
  -9   4   6  613.14   63.32
  -9  -4   6  652.38   68.92
  -4  -9   7  108.50   29.79
  -9  -4   7  121.83   37.75
  -9   4   7   79.21   22.04
  -9   4   8  393.84   54.97
  -4  -9   8  418.17   60.95
  -9  -4   8  470.19   64.99
  -4  -9   9   50.41   26.81
  -9  -4   9   33.29   23.91
  -9   4   9   25.12   19.73
  -4  -9  10  348.61   62.12
  -9  -4  10  375.41   64.72
  -9  -4  11  146.58   37.41
  -4   9  11  175.34   46.39
  -9   4  11   79.48   29.79
  -9  -4  11  162.19   45.21
  -4  -9  11  144.57   45.28
  -4  -9  12  129.96   44.80
  -9  -4  12   65.34   36.83
  -9  -4  12  120.68   45.99
  -9   4  12  108.53   37.36
  -4   9  12  170.45   48.75
  -9   4  13   58.78   26.58
   4   9  13   72.22   42.52
  -4   9  13   46.15   32.10
  -4  -9  13   -8.73   16.27
  -9  -4  13   81.41   40.30
  -9  -4  13   11.71   16.89
  -4   9  14  166.36   47.55
  -9   4  14  134.62   42.04
  -9  -4  14  151.71   52.85
   4   9  14  151.58   41.96
  -9  -4  14  145.56   45.59
  -9   4  15   27.15   16.65
  -9  -4  15   43.80   31.88
   4   9  15    6.14   18.58
  -9  -4  16   68.84   33.93
  -4   9  16  104.64   38.40
  -9   4  16   -0.49   22.80
   4   9  16   62.30   26.79
  -4   9  17   29.63   24.24
   4   9  17    9.95   13.49
  -9   4  17   70.03   33.41
  -9  -4  17   70.40   29.93
  -4   9  18   43.93   24.48
  -9  -4  18    0.70   12.69
  -9   4  18   27.19   25.01
  -9   4  19   -5.19   13.22
  -4   9  19   25.23   18.82
  -9   4  20    2.11   12.35
  -4   9  20    1.30   15.96
  -9   4  21    3.74    9.11
  -4   9  21   14.12   13.88
  -9  -5   0 1934.48  119.27
  -5  -9   0 1898.56   91.37
  -5  -9  -1 1115.57   68.55
  -5  -9   1 1187.47   73.85
  -9  -5   1 1202.75   90.44
  -9   5   1 1085.71   92.47
  -9  -5  -1 1224.85   98.27
  -5  -9   2  313.88   38.76
  -5  -9  -2  291.40   34.90
  -9  -5   2  300.27   45.98
  -9   5   2  323.60   50.71
  -9  -5  -2  346.17   54.84
  -9  -5   3  790.83   74.09
  -5  -9  -3  798.70   61.03
  -9  -5  -3  750.92   84.26
  -9   5   3  800.94   73.89
  -5  -9   3  796.38   66.73
  -5  -9   4 1309.22   89.65
  -9  -5   4 1205.02   91.07
  -9   5   4 1250.46   87.57
  -5  -9  -4 1226.79   79.13
  -9  -5   5  733.48   72.97
  -9   5   5  745.70   66.76
  -5  -9   5  775.40   73.23
  -9  -5   6  729.15   75.38
  -9   5   6  652.58   63.00
  -5  -9   6  744.90   75.98
  -5  -9   7  506.91   66.82
  -9   5   7  535.70   60.81
  -9  -5   7  530.90   68.07
  -9  -5   8    4.75   10.91
  -5  -9   8  -21.59   21.10
  -9  -5   9  298.22   54.37
  -5  -9   9  231.77   50.46
  -9   5  10  309.64   61.53
  -5   9  10  420.22   74.53
  -9  -5  10  379.38   67.61
  -5  -9  10  348.68   68.09
  -9   5  11   72.38   30.57
  -9  -5  11   14.95   26.52
  -5   9  11  159.67   47.47
  -9  -5  11   66.53   32.36
  -5  -9  11   84.83   37.09
  -5   9  12   63.87   30.19
  -9  -5  12  112.44   40.29
  -5  -9  12   71.96   25.30
  -9  -5  12  125.12   45.76
  -9   5  12   75.20   33.75
  -9  -5  13   85.60   38.11
  -9  -5  13  126.82   50.32
  -5  -9  13   56.95   28.04
  -5   9  13   59.12   29.55
   5   9  13   64.17   37.52
  -9   5  13  100.60   33.53
  -9   5  14   24.10   24.48
  -5   9  14  -10.16   28.05
  -9  -5  14   11.66   21.08
   5   9  14   44.35   27.95
  -9   5  15  188.46   51.73
  -5   9  15  224.17   58.99
  -9  -5  15  190.85   51.14
   5   9  15  120.48   42.85
   5   9  16   94.10   29.55
  -5   9  16  105.12   47.33
  -9   5  16   80.23   37.23
  -9  -5  16  140.20   51.38
  -5   9  17   84.49   36.09
  -9   5  17   74.86   36.39
  -9  -5  17   70.72   30.80
  -9   5  18   35.18   23.66
  -5   9  18   48.08   29.22
  -9   5  19   30.77   23.16
  -5   9  19   -1.52   15.51
  -5   9  20    9.32   15.48
  -9   5  20   22.30   17.39
  -5   9  21  126.16   35.88
  -9   5  21   -0.46   10.52
  -6  -9   0 1277.80   80.61
  -9  -6   0 1223.44   94.45
  -9  -6   1 1462.88   98.48
  -6  -9   1 1516.22   89.24
  -9   6   1 1412.86  106.23
  -6  -9  -1 1499.33   86.78
  -9  -6  -1 1495.90  107.40
  -9  -6  -2  817.78   83.66
  -9   6   2  760.52   75.81
  -9  -6   2  814.79   72.47
  -6  -9   2  804.53   65.30
  -6  -9  -2  815.25   64.78
  -6  -9  -3  605.86   59.84
  -9   6   3  545.37   58.22
  -6  -9   3  602.18   60.27
  -9  -6  -3  662.13   81.54
  -9  -6   3  604.60   64.54
  -9  -6   4  377.68   50.78
  -9   6   4  372.99   46.70
  -6  -9  -4  376.86   50.04
  -9  -6  -4  434.13   69.45
  -6  -9   4  405.39   53.12
  -6  -9  -5  999.48   83.49
  -9   6   5 1116.24   78.97
  -9  -6   5 1048.90   89.18
  -6  -9   5  998.86   86.53
  -9  -6   6  413.64   62.32
  -6  -9   6  405.08   57.93
  -9  -6   7  620.14   74.05
  -6  -9   7  611.72   73.28
  -9  -6   8  131.83   40.25
  -6  -9   8  143.51   41.85
  -6  -9   9   62.83   30.11
  -9  -6   9  124.39   33.65
  -9   6  10    8.91   25.08
  -6   9  10   -1.84   19.68
  -9  -6  10    2.75   19.08
  -6  -9  10  -28.21   20.46
  -9  -6  10   35.38   26.07
  -9  -6  11  257.59   64.23
  -6   9  11  322.13   65.88
  -9   6  11  308.30   62.72
  -6  -9  11  285.03   66.45
  -9  -6  11  276.04   62.17
  -6  -9  12    2.80   23.03
  -9  -6  12   59.45   36.02
  -9   6  12    6.07   24.38
  -6   9  12   -8.03   18.11
  -9  -6  12   35.26   28.47
  -6   9  13   22.07   13.54
   6   9  13  -10.22   21.36
  -9  -6  13  -10.77   17.37
  -9  -6  13  -27.86   24.23
  -9   6  13   46.35   31.80
  -6  -9  13   54.97   30.69
   6   9  14  233.01   58.97
  -6   9  14  296.05   67.01
  -9   6  14  317.43   73.65
  -9  -6  14  224.43   56.13
  -6   9  15  227.88   59.51
   6   9  15  108.02   25.01
  -9  -6  15  203.19   48.54
  -9   6  15  159.69   49.01
  -9  -6  16  106.39   38.73
  -6   9  16  170.72   55.46
  -9   6  16  105.57   43.35
  -9   6  17  237.68   57.35
  -6   9  17  177.17   54.39
  -9   6  18   25.53   23.72
  -6   9  18   38.85   23.83
  -9   6  19   -8.49   19.99
  -6   9  19   16.74   15.07
  -6   9  20    2.96   15.67
  -9   6  20   15.82   14.52
  -9   6  21   43.30   18.21
  -6   9  21    3.85   11.33
  -7  -9   0 1900.76  104.43
  -9  -7   0 1877.79  117.85
  -9  -7  -1  262.65   48.11
  -9  -7   1  260.07   41.51
  -9   7   1  232.13   47.67
  -7  -9   1  257.84   38.73
  -7  -9  -1  280.96   41.11
  -9   7   2   49.55   22.39
  -7  -9   2   74.10   23.22
  -7  -9  -2   41.01   23.68
  -9  -7  -2   13.76   11.73
  -9  -7   2   42.12   16.88
  -7  -9  -3  110.42   29.45
  -9   7   3  128.39   29.31
  -7  -9   3  126.42   28.63
  -9  -7   3  125.62   28.62
  -9  -7  -3  105.24   37.89
  -7  -9  -4 1773.94  115.29
  -7  -9   4 1680.48  109.45
  -9  -7  -4 1716.34  131.51
  -9  -7   4 1699.53  111.95
  -9  -7   5  311.34   49.95
  -7  -9  -5  299.93   52.63
  -7  -9   5  261.96   45.03
  -9  -7  -5  323.44   62.04
  -9  -7   6 1331.10  106.83
  -9  -7  -6 1503.80  136.91
  -7  -9   6 1426.95  110.08
  -9  -7   7  103.71   36.61
  -7  -9   7   54.88   20.77
  -7  -9   8  156.33   35.99
  -9  -7   8  120.38   34.46
  -9  -7   9   -3.93   14.64
  -7  -9   9  -24.76   11.31
  -7   9  10   63.58   14.35
  -9  -7  10  141.34   45.39
  -7  -9  10  148.26   43.22
  -9   7  10  168.40   48.28
  -9  -7  10  140.72   41.00
  -9   7  11    4.43   20.34
  -9  -7  11    5.35   20.55
  -7   9  11   14.92   15.00
  -7  -9  11   24.40   19.29
  -9  -7  11   49.04   32.57
  -9  -7  12   27.94   26.10
  -9   7  12   76.57   37.65
  -7   9  12   26.57   28.66
  -9  -7  12   29.07   31.12
  -7  -9  12   27.74   27.89
  -9  -7  13   30.64   22.45
  -7  -9  13  -37.54   23.00
  -9  -7  13   29.80   31.56
  -7   9  13   -8.07   26.64
  -9   7  13   19.37   15.87
  -9  -7  14   45.61   16.05
  -7   9  14   73.70   34.50
  -9   7  14   85.31   35.51
  -7   9  15  140.93   44.87
  -9   7  15  129.89   42.98
  -9   7  16  291.89   66.74
  -7   9  16  364.88   74.30
  -7   9  17   56.72   36.68
  -9   7  17   69.56   39.75
  -9   7  18   85.26   33.51
  -7   9  18   56.42   32.33
  -7   9  19   -0.54   14.99
  -9   7  19   -7.64   20.61
  -9   7  20   12.04   15.20
  -7   9  20   -9.41   17.06
  -9   7  21   -9.21   15.09
  -7   9  21    0.28    6.79
  -9  -8   0   21.45   17.55
  -8  -9   0   31.93    9.68
  -8  -9   1   24.81   21.90
  -9   8   1   29.45   25.28
  -8  -9  -1   51.07   22.96
  -9  -8  -1   57.43   12.98
  -9  -8   1   34.36   19.06
  -9  -8  -2  -43.77   23.03
  -8  -9   2   18.66   16.61
  -8  -9  -2  -19.44   19.42
  -9  -8   2   26.83   13.21
  -9   8   2   -4.12   10.77
  -9  -8   3  690.79   69.95
  -8  -9   3  726.85   71.57
  -9  -8  -3  635.32   76.78
  -8  -9  -3  727.78   75.20
  -8  -9  -4   31.73   56.32
  -9  -8   4   19.76   11.37
  -9  -8  -4   34.18   22.49
  -8  -9   4   27.51   15.58
  -8  -9   5 1460.70  109.36
  -9  -8  -5 1340.87  119.99
  -8  -9  -5 1389.48  112.74
  -9  -8   5 1388.75  109.77
  -8  -9  -6   32.70   23.69
  -8  -9   6   37.57   19.73
  -9  -8   6   34.97   17.97
  -9  -8   7  889.51   96.18
  -8  -9   7  955.32   97.10
  -9  -8  -7  936.24  111.47
  -9  -8   8  -12.56   11.76
  -8  -9   8    2.47   21.54
  -8  -9   9    9.06   19.93
  -9   8   9  -29.92   26.65
  -8   9   9   14.50   16.38
  -9  -8   9    8.11   21.37
  -8   9  10  -19.48   16.19
  -8  -9  10  -15.65   27.73
  -9  -8  10  -20.10   22.32
  -9   8  10   -1.52   21.70
  -9  -8  10    5.58   15.94
  -9   8  11   72.19   43.16
  -9  -8  11   63.97   35.49
  -8  -9  11   33.20   27.94
  -9  -8  11   40.95   28.57
  -8   9  11   29.39   27.52
  -8  -9  12   21.46   29.26
  -8   9  12   20.69   28.42
  -9   8  12   -7.82   21.24
  -9  -8  12  -33.54   26.08
  -8   9  13  100.61   43.19
  -9   8  13  136.49   44.14
  -9   8  14   23.51   24.22
  -8   9  14   10.23   20.10
  -8   9  15  257.00   69.53
  -9   8  15  304.14   70.36
  -9   8  16   18.33   19.79
  -8   9  16   41.69   37.37
  -9   8  17  173.23   51.68
  -8   9  17  168.79   52.24
  -8   9  18   -0.06   13.48
  -9   8  18    1.48   19.24
  -9   8  19   15.48   17.08
  -8   9  19    5.80   11.23
  -9   8  20   14.08   11.67
  -8   9  20  -11.46    9.48
  -9  -9   0  -15.20   14.07
  -9  -9  -1   -6.23    9.24
  -9  -9   1   -7.96   13.26
  -9  -9  -2  101.46   32.13
  -9  -9   2  131.83   33.63
  -9  -9  -3  -25.58   14.98
  -9  -9   3   -9.73   17.13
  -9  -9   4 1145.61   97.83
  -9  -9  -4 1208.96  108.37
  -9  -9  -5  -11.47   11.13
  -9  -9   5   35.82   12.86
  -9  -9   6 1107.12  104.44
  -9  -9  -6 1171.55  114.77
  -9  -9   7  -13.87   10.69
  -9  -9   8  239.34   53.07
  -9  -9  -9   16.00   23.68
  -9  -9   9    2.17   13.70
  -9   9   9  -34.16   34.66
  -9  -9  10  -44.94   31.10
  -9  -9 -10   -3.94   15.75
  -9   9  11  -11.69   21.53
  -9  -9  11   20.94   26.01
  -9   9  12   17.06   24.93
  -9  -9  12  -21.86   21.88
  -9   9  13   56.12   25.51
  -9   9  14  110.06   42.30
  -9   9  15   -5.02   19.88
  -9   9  16  151.76   48.26
  -9   9  17   -5.31   15.75
  -9   9  18   -4.20   18.15
  -9   9  19    3.50    9.63
  -9   9  20  -13.52   11.29
 -10   0   0 1051.95   94.41
   0 -10   1   28.30   10.57
 -10   0   1   36.69   21.72
   0 -10   2  220.56   31.64
 -10   0   2  223.65   40.95
 -10   0   3  -21.06   21.57
   0 -10   3   16.65   15.76
 -10   0   4   88.81   31.42
   0 -10   4  111.91   26.93
   0 -10   5   43.36   18.36
 -10   0   5   33.86   20.65
   0 -10   6   43.31   21.55
 -10   0   6   47.25   20.48
   0 -10   7  548.18   70.15
 -10   0   7  615.05   68.57
 -10   0   8  706.56   82.51
   0 -10   8  634.30   78.02
 -10   0   9   10.02   25.03
 -10   0  10  622.40   85.01
 -10   0  11   52.70   31.08
 -10   0  11   46.91   30.59
 -10   0  12  306.74   63.12
 -10   0  12  329.97   67.99
   0  10  12  468.88   84.26
 -10   0  13   48.31   25.58
   0  10  13   62.88   42.21
 -10   0  13   19.31   27.30
   0  10  14   24.79   17.42
 -10   0  14   67.67   37.92
 -10   0  15   95.67   37.50
   0  10  15  124.73   43.51
   0  10  16  -21.46   31.20
 -10   0  16  -29.37   29.48
 -10   0  17   67.84   41.25
   0  10  17   98.28   34.41
 -10   0  18  181.99   47.54
   0  10  18   26.47   16.74
 -10   0  19   -2.14   13.98
   0  10  19   17.99   18.03
 -10   0  20   35.29   23.13
   0  10  20   19.68   14.13
 -10  -1   0  166.21   42.72
 -10   1   0  147.02   41.15
  -1 -10   0  125.92   19.03
  -1 -10   1  587.69   45.18
 -10  -1  -1  629.07   77.32
 -10  -1   1  598.38   68.56
 -10   1   1  552.63   67.30
 -10  -1   2   -7.12   17.50
 -10   1   2    3.70   14.16
  -1 -10   2   21.06    9.62
 -10  -1   3   38.84   11.99
 -10   1   3   75.53   17.11
  -1 -10   3   93.55   22.73
  -1 -10   4  -14.60   12.47
 -10   1   4   34.23   22.46
   1 -10   4    2.95    9.49
 -10  -1   4   43.66   23.48
 -10  -1   5   42.58   21.63
   1 -10   5    7.32   12.99
 -10   1   5   68.70   27.27
  -1 -10   5  -28.80   20.86
  -1 -10   6  201.17   39.86
 -10   1   6  165.57   34.41
 -10  -1   6  189.79   37.57
 -10   1   7  165.13   34.50
 -10  -1   7  147.56   35.89
  -1 -10   7  151.41   35.83
 -10   1   8  105.10   29.65
 -10  -1   8   88.72   34.85
  -1 -10   8  105.55   35.37
  -1 -10   9  469.98   67.72
 -10  -1   9  423.52   67.64
 -10   1   9  532.87   73.55
  -1 -10  10   74.48   36.29
 -10  -1  10   84.27   33.14
 -10   1  10  113.17   38.72
  -1  10  11  414.96   78.03
 -10   1  11  352.68   65.90
 -10   1  11  313.40   59.44
 -10  -1  11  420.97   70.53
 -10  -1  11  442.88   75.99
 -10   1  12   -0.19   19.77
 -10  -1  12    5.63   21.88
 -10  -1  12   32.52   26.08
 -10   1  12  -24.52   15.67
  -1  10  12   -4.21   18.77
 -10  -1  13  221.61   61.18
 -10   1  13  140.20   42.43
  -1  10  13  199.19   55.69
 -10  -1  13  218.55   56.33
   1  10  13  260.93   62.42
  -1  10  14   27.19   29.62
 -10  -1  14   17.45   28.10
   1  10  14  -47.10   35.43
 -10   1  14  -18.28   24.61
 -10  -1  15   -6.35   16.09
  -1  10  15  -22.18   28.85
   1  10  15  -12.64   20.75
 -10   1  15   15.49   16.49
 -10   1  16  100.27   37.52
 -10  -1  16  100.43   36.80
  -1  10  16  122.34   42.86
   1  10  16   77.65   27.59
  -1  10  17   40.51   21.56
 -10   1  17    6.01   22.97
 -10  -1  17  -23.82   12.57
   1  10  17  -24.25   24.16
 -10  -1  18   35.23   26.90
 -10   1  18  -26.85   23.89
  -1  10  18   12.86   19.59
   1  10  18   31.85   19.18
 -10   1  19   40.56   25.19
  -1  10  19    1.05   17.01
   1  10  19    1.09   14.56
 -10  -1  19   11.02   19.55
 -10   1  20   24.17   18.31
   1  10  20   54.78   29.70
  -1  10  20   53.37   21.12
 -10   2   0  388.05   61.01
  -2 -10   0  312.89   30.70
 -10  -2   0  435.21   64.35
  -2 -10   1    6.28    5.49
  -2 -10  -1   17.66    9.41
 -10  -2   1  -10.56   14.73
 -10  -2  -1    4.96   16.53
  -2 -10   2   87.84   21.29
 -10  -2   2   51.18   19.27
 -10   2   2   91.24   29.02
  -2 -10   3  -10.09   11.92
 -10   2   3  -20.07   18.98
 -10   2   4   -2.13   10.82
 -10  -2   4    6.92   12.93
  -2 -10   4   13.64   15.21
 -10   2   5  178.33   36.80
 -10  -2   5  161.34   36.07
  -2 -10   5  156.69   30.58
  -2 -10   6  -16.35   13.40
 -10   2   6   16.07   11.17
 -10  -2   6  -34.38   21.64
 -10  -2   7  -23.83   23.68
 -10   2   7  -26.15   21.49
  -2 -10   7    8.95   16.40
 -10   2   8  118.78   37.11
 -10  -2   8  107.96   35.30
  -2 -10   8   84.88   28.85
 -10   2   9  127.59   39.62
 -10  -2   9  139.88   40.47
 -10   2  10  196.97   48.04
  -2 -10  10  210.68   53.02
 -10  -2  10  198.24   47.12
 -10  -2  11   85.09   34.96
 -10   2  11   62.66   26.41
 -10   2  11   54.56   31.25
 -10  -2  11   44.62   28.47
  -2 -10  11   71.90   32.74
  -2  10  11  152.14   46.82
 -10  -2  12   92.08   35.53
 -10   2  12   38.08   22.88
 -10  -2  12   83.75   38.96
 -10  -2  13    4.86   15.40
   2  10  13   -6.52   32.76
 -10   2  13   12.15   14.12
 -10  -2  13   35.51   31.67
  -2  10  13  -45.92   28.38
  -2  10  14   -9.07   24.22
 -10  -2  14    8.09   20.78
 -10   2  14  -34.88   35.45
   2  10  14   29.65   28.37
  -2  10  15   49.78   30.28
 -10   2  15   15.29   12.96
   2  10  15   11.91   15.23
   2  10  16  -21.34   27.36
  -2  10  16   27.41   26.65
 -10   2  16   16.53   21.33
 -10  -2  17   15.37   22.50
  -2  10  17   27.81   20.89
   2  10  17  -24.91   21.60
 -10   2  17   15.31   25.87
   2  10  18   43.14   21.43
 -10   2  18   -7.74   15.54
  -2  10  18   16.07   17.75
  -2  10  19   18.27   19.70
 -10   2  19   17.10   20.72
   2  10  19   53.58   22.23
 -10  -2  19   41.40   22.46
 -10   2  20   14.81   13.24
  -2  10  20   14.14   16.64
 -10  -3   0  325.95   50.38
  -3 -10   0  280.05   30.46
 -10   3   0  317.62   57.80
 -10  -3   1    9.92   18.49
  -3 -10  -1   13.59    8.19
  -3 -10   1   31.31   14.62
 -10  -3  -1   70.93   37.88
 -10   3   1   14.66   27.02
  -3 -10  -2   17.95    6.66
 -10  -3   2   31.93   23.68
 -10   3   2   14.82   14.43
 -10  -3  -2   45.90   28.32
  -3 -10   2   25.90   11.71
 -10   3   3  -20.76   17.05
  -3 -10   3  -11.86    9.16
 -10  -3   3   -5.10   15.24
 -10   3   4  304.48   49.05
 -10  -3   4  340.43   49.42
  -3 -10   4  313.18   43.98
 -10   3   5   43.78   22.09
  -3 -10   5   27.65   15.72
 -10  -3   5    9.53   13.44
 -10   3   6  414.15   54.71
  -3 -10   6  348.75   50.66
 -10  -3   6  421.25   58.76
 -10  -3   7  -24.76   20.46
 -10   3   7   -4.15   15.38
  -3 -10   7   20.31   13.08
 -10   3   8  217.60   42.96
 -10  -3   8  171.33   38.24
  -3 -10   8  142.21   33.70
 -10  -3   9   22.85   31.74
  -3 -10   9   28.33   18.45
 -10   3   9   22.84   21.12
 -10   3  10  135.92   39.26
  -3  10  10  144.86   41.03
 -10  -3  10  145.93   48.62
 -10  -3  10  161.80   41.99
  -3 -10  10  151.54   43.03
 -10   3  11   42.92   27.98
  -3  10  11    4.21   17.04
 -10  -3  11  -22.92   21.78
  -3 -10  11   11.78   21.58
 -10  -3  11   26.76   17.91
 -10   3  12   35.75   23.59
 -10  -3  12  -31.20   27.23
 -10  -3  12    4.83   26.79
  -3  10  12  -20.61   25.31
  -3 -10  12   12.49   22.08
  -3  10  13  123.29   45.09
   3  10  13  124.80   46.68
 -10  -3  13   41.94   18.66
 -10  -3  13   47.49   28.51
 -10   3  13   98.91   36.86
  -3  10  14   14.09   28.13
 -10  -3  14   64.29   35.33
 -10   3  14   26.16   30.09
   3  10  14   24.29   29.29
  -3  10  15   -7.44   27.18
   3  10  15   59.62   28.48
 -10   3  15   -1.62   26.12
 -10  -3  15   69.34   38.44
  -3  10  16   29.54   16.55
   3  10  16   15.03   17.90
 -10   3  16   32.39   21.19
 -10  -3  16  -12.71   22.45
 -10  -3  17    2.96   11.86
 -10   3  17   10.08   13.42
  -3  10  17   29.16   26.44
 -10   3  18    6.83   13.44
  -3  10  18   -6.82   11.95
   3  10  18    9.79   18.57
 -10  -3  18   40.64   25.47
  -3  10  19    3.59   10.12
 -10   3  19  -12.43   17.91
  -3  10  20    1.50   11.42
 -10   3  20  -22.97   14.10
 -10   3  21   22.72   19.64
 -10  -4   0  263.53   46.50
  -4 -10   0  206.59   28.66
 -10  -4   1  335.96   51.96
  -4 -10   1  287.60   36.49
  -4 -10  -1  298.58   32.90
 -10  -4  -1  396.83   61.51
 -10   4   1  362.62   61.62
 -10   4   2  105.26   33.61
 -10  -4   2   84.32   26.69
  -4 -10   2   81.79   22.90
 -10  -4  -2   90.68   28.12
  -4 -10  -2   63.84   12.98
 -10   4   3  412.45   56.49
  -4 -10   3  464.62   51.57
 -10  -4   3  462.00   56.21
 -10  -4  -3  409.82   66.62
 -10   4   4  133.21   32.07
  -4 -10   4  130.62   29.52
 -10  -4   4  141.59   32.00
  -4 -10   5 1296.98   95.12
 -10   4   5 1313.08   96.51
 -10  -4   5 1315.91   99.11
 -10  -4   6   14.39   11.97
  -4 -10   6   -0.39   14.01
 -10   4   6    2.49   14.60
 -10   4   7  658.38   74.46
 -10  -4   7  606.73   72.64
  -4 -10   7  541.05   66.82
 -10   4   8    3.88    9.21
 -10  -4   8    3.31   16.70
  -4 -10   8  -17.45   26.54
 -10  -4   9  229.34   47.73
  -4 -10   9  331.93   64.43
 -10   4  10   19.96   27.53
  -4 -10  10   13.04   12.69
 -10  -4  10   24.02   20.15
  -4  10  10   46.36   20.63
 -10  -4  10   48.91   15.59
  -4  10  11   35.28   36.11
 -10   4  11   34.05   18.79
 -10  -4  11   61.76   36.57
  -4 -10  11   23.93   21.54
 -10  -4  11   25.31   19.15
  -4  10  12    1.00   18.64
  -4 -10  12    3.70   14.77
 -10  -4  12   53.05   40.86
 -10  -4  12   17.58   16.67
 -10   4  12  -29.45   23.06
   4  10  13   -0.55   16.73
 -10  -4  13   12.35   17.26
  -4  10  13    1.39   19.44
 -10   4  13  -18.23   17.36
  -4 -10  13   -0.29   12.95
 -10  -4  13   36.50   25.16
 -10   4  14   11.83   21.84
 -10  -4  14   25.56   32.67
  -4  10  14   69.75   40.02
   4  10  14  -15.17   15.98
   4  10  15  100.35   38.23
  -4  10  15  137.33   48.40
 -10   4  15   74.48   25.37
 -10  -4  15  119.42   40.98
 -10   4  16  -22.17   33.28
  -4  10  16   60.12   38.35
   4  10  16   12.57   20.90
 -10  -4  16   13.30   13.87
   4  10  17   76.56   31.94
 -10  -4  17   85.56   32.80
  -4  10  17   62.55   35.45
 -10   4  17   36.50   19.52
 -10   4  18    2.84   13.68
  -4  10  18   41.50   27.70
 -10   4  19   33.65   21.88
  -4  10  19    0.42   12.84
  -4  10  20  -16.48   12.41
 -10   4  20  -12.99   10.44
  -4  10  21    6.74    8.20
 -10   4  21   14.63   12.43
 -10  -5   0  752.33   76.68
  -5 -10   0  696.45   57.65
 -10  -5   1  623.31   67.84
  -5 -10   1  600.76   54.73
  -5 -10  -1  626.90   51.92
 -10   5   1  631.65   77.62
 -10  -5  -1  603.65   73.32
 -10  -5   2  524.46   61.61
 -10   5   2  484.79   63.54
  -5 -10   2  504.31   52.76
  -5 -10  -2  505.18   45.91
 -10  -5  -2  538.75   70.55
 -10   5   3   41.66   13.71
  -5 -10   3  107.59   27.72
 -10  -5   3  118.29   30.15
  -5 -10  -3  102.33   21.80
 -10  -5  -3  108.78   41.28
  -5 -10   4  656.99   66.88
 -10  -5  -4  743.85   97.33
 -10   5   4  660.22   69.03
 -10  -5   4  595.74   68.66
 -10   5   5   65.42   24.22
 -10  -5   5   83.63   28.61
  -5 -10   5   89.73   27.74
 -10  -5   6 1040.25   93.52
  -5 -10   6  977.84   90.49
 -10   5   6 1070.19   86.19
 -10  -5   7   64.86   23.32
  -5 -10   7   36.93   16.01
 -10   5   7   62.27   23.87
  -5 -10   8  247.18   52.02
 -10  -5   8  278.08   56.56
 -10  -5   9   73.74   28.31
  -5 -10   9   56.77   24.43
  -5 -10  10   11.63   24.63
  -5  10  10    8.68   21.74
 -10  -5  10   -7.60   14.79
 -10   5  10   39.54   28.98
 -10  -5  10    8.48   12.88
 -10  -5  11   40.20   33.09
  -5 -10  11   45.13   28.45
 -10   5  11   63.92   30.96
 -10  -5  11   68.73   30.40
  -5  10  11   77.16   36.66
  -5 -10  12   22.38   24.71
  -5  10  12   31.48   22.31
 -10  -5  12  -42.13   25.29
 -10   5  12   17.07   15.18
 -10  -5  12  -41.12   34.21
 -10   5  13   47.07   26.99
  -5 -10  13   21.50   21.00
  -5  10  13   18.38   24.84
 -10  -5  13  -25.65   22.68
 -10  -5  13   34.75   32.66
   5  10  14  235.20   57.24
 -10  -5  14  262.33   67.32
  -5  10  14  267.60   67.43
 -10   5  14  213.59   56.88
  -5  10  15   48.71   23.72
   5  10  15   34.25   21.09
 -10   5  15  -39.79   27.27
 -10  -5  15  -20.71   16.83
   5  10  16  216.57   47.41
 -10   5  16  159.53   46.94
 -10  -5  16  186.99   51.80
  -5  10  16  306.59   66.73
   5  10  17   21.20   17.17
  -5  10  17   14.73   26.60
 -10   5  17    0.45   19.61
  -5  10  18   71.57   37.66
 -10   5  18   59.33   34.98
  -5  10  19  -11.40   20.27
 -10   5  19    1.76   10.96
 -10   5  20    6.78   10.04
  -5  10  20   19.70   15.86
 -10   5  21    3.11    7.52
 -10  -6   0  999.99   91.60
  -6 -10   0 1001.44   73.78
 -10   6   1  191.70   48.05
 -10  -6  -1  240.48   47.80
 -10  -6   1  143.00   31.38
  -6 -10   1  147.50   29.07
  -6 -10  -1  175.55   29.60
 -10  -6   2   -7.85   16.45
 -10   6   2   -7.58   13.22
  -6 -10  -2   12.87    7.94
  -6 -10   2    0.40   12.52
 -10  -6  -2    9.46   28.07
 -10  -6   3  378.78   52.39
  -6 -10  -3  364.47   43.24
  -6 -10   3  364.04   47.13
 -10   6   3  352.23   54.83
 -10  -6  -3  444.70   68.68
 -10  -6  -4  525.49   78.60
  -6 -10   4  487.94   59.56
 -10   6   4  575.04   61.94
 -10  -6   4  550.46   65.01
 -10  -6   5  929.52   86.96
 -10  -6  -5 1005.81  112.65
 -10   6   5  907.94   77.18
  -6 -10   5  920.33   84.91
 -10  -6   6  358.99   56.16
  -6 -10   6  383.31   58.05
 -10  -6   7  411.86   62.25
  -6 -10   7  384.57   61.89
  -6 -10   8   22.29   21.43
 -10  -6   8  -21.70   26.93
 -10  -6   9   14.14   19.22
 -10  -6   9   -5.19   18.22
  -6 -10   9   13.39   24.67
 -10  -6  10   81.91   38.74
 -10  -6  10   75.28   25.02
  -6  10  10  148.69   42.40
 -10   6  10   98.20   33.43
  -6 -10  10  131.87   39.51
 -10  -6  11   39.74   27.56
 -10   6  11   61.42   38.58
  -6  10  11   68.97   38.63
  -6 -10  11   20.23   31.87
 -10  -6  11   22.37   23.14
  -6  10  12   26.65   26.33
 -10  -6  12   12.64   29.68
  -6 -10  12    6.42   19.07
 -10   6  12   29.60   16.05
 -10  -6  12   41.70   34.26
 -10   6  13   21.36   29.19
  -6  10  13  -16.74   29.14
 -10  -6  13   40.47   25.79
  -6  10  14   10.45   15.00
 -10  -6  14  -14.46   27.43
 -10   6  14   37.45   34.19
   6  10  14    4.10   21.30
 -10   6  15  175.75   51.37
   6  10  15  190.54   49.64
  -6  10  15  216.39   64.91
 -10  -6  15  212.18   57.67
  -6  10  16  180.72   54.08
   6  10  16  101.79   36.50
 -10   6  16  114.74   44.46
  -6  10  17  116.23   44.97
 -10   6  17  102.02   41.65
 -10   6  18    5.00   16.34
  -6  10  18   42.05   27.33
 -10   6  19   23.41   18.47
  -6  10  19    7.31   10.67
 -10   6  20   -8.64   13.67
  -6  10  20   25.64   17.20
 -10   6  21   10.07   11.48
 -10  -7   0   29.73   22.68
  -7 -10   0  -15.94   12.46
 -10  -7  -1   29.57   16.43
 -10  -7   1   28.45   20.76
  -7 -10  -1   42.86   17.51
  -7 -10   1   51.28   19.27
 -10   7   1   53.25   25.57
 -10   7   2  -10.67   13.51
 -10  -7   2   -3.76   17.01
 -10  -7  -2    8.81   19.38
  -7 -10  -2   14.92   13.69
  -7 -10   2   26.56   15.25
  -7 -10   3  307.12   49.06
 -10  -7   3  324.79   49.38
 -10  -7  -3  318.37   54.54
  -7 -10  -3  335.13   45.73
 -10   7   3  325.12   48.30
  -7 -10  -4  282.46   44.71
  -7 -10   4  274.19   46.04
 -10  -7   4  307.70   51.01
 -10  -7  -4  342.31   66.40
  -7 -10   5  572.50   69.37
 -10  -7  -5  535.53   84.99
 -10  -7   5  522.18   66.47
 -10  -7   6  406.32   62.62
  -7 -10   6  381.77   58.21
 -10  -7  -6  457.36   84.61
  -7 -10   7  385.40   65.07
 -10  -7   7  388.30   61.85
 -10  -7  -7  437.65   86.78
  -7 -10   8   18.35   16.59
 -10  -7   8   38.97   25.22
 -10  -7   9  -18.57   22.82
 -10   7   9   25.53   30.04
  -7  10   9  -18.51   16.40
 -10  -7   9  -16.56   17.99
  -7 -10   9  -14.21   14.57
 -10  -7  10  103.75   40.10
 -10   7  10   76.12   39.40
  -7 -10  10   64.55   26.60
 -10  -7 -10   29.31   15.90
 -10  -7  10   68.34   20.29
  -7 -10  11   53.78   24.89
 -10   7  11   52.92   28.23
 -10  -7  11   72.57   42.07
  -7  10  11   49.22   33.98
 -10  -7  11   12.49   24.92
 -10   7  12   11.49   23.88
 -10  -7  12  -25.57   15.02
  -7 -10  12  -21.10   20.89
  -7  10  12    3.59   27.47
 -10  -7  12  -14.23   24.18
  -7  10  13  -22.25   22.46
 -10   7  13  -14.51   13.26
 -10  -7  13   32.27   27.85
 -10   7  14   83.05   36.89
   7  10  14   90.31   37.82
  -7  10  14  114.27   40.08
 -10   7  15  114.58   41.16
  -7  10  15  124.65   50.97
  -7  10  16  163.26   52.77
 -10   7  16   66.51   33.34
 -10   7  17  105.29   33.41
  -7  10  17  114.41   42.11
 -10   7  18    0.12   14.96
  -7  10  18   13.83   11.46
 -10   7  19    1.61   15.44
  -7  10  19   -8.57   21.58
  -7  10  20    7.13   12.96
 -10   7  20   13.81   10.12
  -8 -10   0   40.59   19.80
 -10  -8   0    8.86   17.04
 -10  -8  -1   93.81   29.13
 -10   8   1  107.17   36.29
 -10  -8   1   97.68   32.07
  -8 -10  -1   99.65   25.56
  -8 -10   1  123.81   32.25
  -8 -10  -2   71.94   26.09
 -10   8   2  110.63   31.89
 -10  -8   2  136.20   34.67
 -10  -8  -2   69.63   22.95
  -8 -10   2  112.06   28.44
  -8 -10   3   14.64    9.64
  -8 -10  -3   33.30   22.00
 -10  -8   3   12.04   16.65
 -10  -8  -3   23.32   18.35
 -10  -8  -4  831.63   97.09
  -8 -10  -4  853.05   81.94
  -8 -10   4  804.48   81.74
 -10  -8   4  724.48   77.74
 -10  -8  -5  294.11   60.91
 -10  -8   5  261.80   48.47
  -8 -10   5  308.86   49.72
 -10  -8   6  737.59   85.46
  -8 -10   6  702.71   81.72
 -10  -8  -6  859.17  106.82
 -10  -8  -7  116.17   50.80
 -10  -8   7   93.89   33.39
  -8 -10   7   99.46   33.82
  -8 -10   8  206.37   48.37
 -10  -8   8  153.52   44.40
  -8  10   9  -64.28   29.30
 -10   8   9   27.06   55.37
  -8 -10   9  -14.35   16.14
 -10  -8  -9   36.53   35.74
 -10  -8   9   56.40   26.79
  -8 -10  -9    8.98   20.41
  -8  10  10  -45.23   33.69
  -8 -10  10   19.91   18.26
 -10  -8  10    5.22   16.39
 -10  -8 -10  -14.89   24.16
  -8  10  11   62.33   34.89
 -10   8  11   64.98   38.32
 -10  -8  11   96.49   43.40
  -8 -10  11   65.66   28.24
  -8 -10  12   26.03   25.90
 -10  -8  12   26.61   18.82
 -10   8  12   38.70   29.54
 -10   8  13   14.93   16.22
  -8  10  13  -26.07   20.30
  -8  10  14   61.08   29.56
 -10   8  14   30.14   22.26
  -8  10  15   72.69   40.68
 -10   8  15   52.61   38.42
  -8  10  16  117.91   46.24
 -10   8  16  166.17   50.92
 -10   8  17    9.42   14.62
  -8  10  17   33.62   33.01
 -10   8  18   -1.28   13.98
  -8  10  18   56.07   25.36
 -10   8  19   -7.03   11.39
  -8  10  19    0.47   18.19
 -10   8  20   -2.04    7.30
  -8  10  20   -3.78   11.31
 -10  -9   0   94.40   29.96
 -10   9   0  102.35   35.01
  -9 -10   0  106.34   31.02
  -9 -10   1   66.00   20.04
 -10  -9  -1   66.03   25.86
  -9 -10  -1   34.83   14.48
 -10  -9   1   63.07   21.49
 -10  -9  -2   23.87   17.85
  -9 -10  -2   32.56   19.06
  -9 -10   2   45.24   19.16
 -10  -9   2    9.87   10.20
  -9 -10   3  400.36   57.20
 -10  -9  -3  454.57   66.19
  -9 -10  -3  417.11   61.92
 -10  -9   3  394.92   56.86
 -10  -9  -4    8.26   24.16
 -10  -9   4    4.31   17.14
  -9 -10   4   -2.04   11.08
  -9 -10  -4   34.08   19.45
 -10  -9  -5  432.59   73.19
  -9 -10   5  535.35   71.00
 -10  -9   5  462.16   65.25
 -10  -9  -6   51.35   43.91
  -9 -10   6   -3.69   15.85
 -10  -9   6   15.38   13.62
  -9 -10   7  415.81   67.86
 -10  -9   7  397.46   65.52
 -10   9   8    6.13   18.35
  -9  10   8   31.37   23.95
  -9 -10   8   19.39   18.01
  -9 -10  -8  -19.34   19.69
 -10  -9   8   -0.80   17.50
 -10  -9  -8    8.84   22.92
  -9 -10   9   74.09   34.35
 -10  -9   9   62.08   34.79
 -10   9   9   96.50   35.22
  -9  10   9   64.94   28.36
 -10  -9  -9   74.10   32.44
  -9 -10  -9   31.06   11.87
  -9  10  10   38.40   20.43
 -10  -9  10   25.27   30.24
 -10   9  10   55.00   23.46
 -10  -9 -10   33.18   23.57
  -9 -10 -10   34.13   16.34
  -9 -10  10   15.13   22.45
 -10   9  11   24.94   16.13
 -10  -9  11   61.30   33.04
  -9  10  11   26.69   17.37
  -9 -10  11   11.53   19.19
 -10   9  12   -2.82   16.94
  -9  10  12   38.51   27.69
 -10   9  13  158.21   50.23
  -9  10  13  147.29   54.45
 -10   9  14  -10.82   16.76
  -9  10  14   17.29   27.39
 -10   9  15   48.41   33.72
  -9  10  15   87.79   38.48
 -10   9  16  -55.32   27.37
  -9  10  16    2.96   16.82
 -10   9  17   30.82   21.44
  -9  10  17    8.32   17.24
  -9  10  18   12.06   15.06
 -10   9  18    7.63   11.24
  -9  10  19  -13.76   18.30
 -10   9  19    7.77   19.10
  -9  10  20    7.37   10.94
 -10   9  20    4.90    9.05
 -10 -10   0  138.15   31.80
 -10 -10  -1   -9.74   11.54
 -10 -10   1   -6.06   12.50
 -10 -10  -2  194.17   32.81
 -10 -10   2  308.15   55.85
 -10 -10   3  -17.04   19.68
 -10 -10  -3  -18.24   21.75
 -10 -10   4  252.32   50.16
 -10 -10  -4  234.06   45.59
 -10 -10   5   26.60   21.03
 -10 -10   6   87.08   30.34
 -10 -10   7   29.80   21.71
 -10 -10  -7  -15.96   26.17
 -10 -10  -8  161.85   50.66
 -10 -10   8  164.84   48.67
 -10  10   8  309.89   69.96
 -10  10   9   20.66   23.33
 -10 -10   9   11.45   26.82
 -10 -10  -9   -4.54   11.87
 -10  10  10   41.80   22.55
 -10 -10  10    7.89   14.94
 -10 -10 -10   48.26   29.11
 -10  10  11   -8.06   20.23
 -10 -10  11   14.68   33.42
 -10 -10 -11    4.58   19.55
 -10  10  12  108.43   35.90
 -10  10  13   31.91   28.39
 -10  10  14   28.37   19.29
 -10  10  15  -25.17   21.15
 -10  10  16   13.57   16.58
 -10  10  17   13.86   25.00
 -10  10  18    9.10   12.75
 -10  10  19  -10.30   11.89
 -10  10  20   16.47   14.08
 -11   0   0   77.63   32.40
 -11   0  -1 3472.96  187.95
 -11   0   1 3439.25  177.60
 -11   0   2  827.13   82.28
   0 -11   2  716.62   56.94
 -11   0   3  217.51   37.65
   0 -11   3  214.36   32.98
 -11   0   4  144.64   37.61
   0 -11   4  164.07   32.08
   0 -11   5  252.31   40.43
 -11   0   5  317.33   50.68
   0 -11   6  112.22   31.15
 -11   0   6  111.89   29.40
 -11   0   7  -54.42   30.09
   0 -11   7   24.72   22.67
 -11   0   8  172.92   40.88
   0 -11   8  221.66   47.67
 -11   0   9  525.24   75.31
 -11   0  10   36.82   12.96
 -11   0  10   52.28   25.78
 -11   0  11  809.47  102.07
 -11   0  11  848.10  106.32
 -11   0  12   26.72   27.57
 -11   0  12   54.77   28.87
   0  11  12   49.44   34.91
   0  11  13  267.73   66.26
 -11   0  13  283.96   62.07
   0  11  14    1.26   18.62
 -11   0  14   -9.76   29.59
   0  11  15   51.42   26.75
 -11   0  15   31.73   40.26
 -11   0  16   84.70   37.41
   0  11  16  123.07   39.60
 -11   0  17   37.14   27.31
   0  11  17   87.60   38.33
 -11   0  18   40.64   25.69
   0  11  18   15.07   20.20
   0  11  19   25.50   22.15
 -11   0  19   -3.68   16.40
   0  11  20   -6.24   11.76
 -11   1   0 3725.95  190.60
 -11  -1   0 3871.30  190.95
  -1 -11   1  474.37   42.55
 -11   1   1  518.96   75.54
 -11  -1   1  474.74   68.43
 -11  -1  -1  453.25   64.39
  -1 -11   2 1314.89   77.94
 -11   1   2 1256.10  106.01
 -11  -1   2 1332.76  104.95
 -11  -1   3  303.32   47.92
 -11   1   3  315.46   46.44
  -1 -11   3  338.19   44.97
 -11  -1   4   -6.25   15.88
 -11   1   4   37.47   24.44
  -1 -11   4   14.36    9.03
  -1 -11   5   -7.30   16.66
 -11   1   5  -15.69   13.05
 -11  -1   5    1.04    9.90
 -11   1   6  202.30   39.90
 -11  -1   6  171.26   37.57
  -1 -11   6  215.29   38.87
  -1 -11   7   35.91   18.37
 -11   1   7   30.66   13.85
 -11  -1   7   31.43   17.50
  -1 -11   8   39.00   18.92
 -11   1   8   66.53   27.69
 -11  -1   8   86.87   33.39
 -11  -1   9   25.11   16.35
 -11   1   9  -19.17   22.12
  -1 -11   9   47.21   27.87
 -11   1  10  665.12   88.48
 -11  -1  10  673.93   90.50
 -11   1  10  601.35   85.32
 -11  -1  10  616.41   81.15
 -11  -1  11   80.73   35.70
 -11   1  11   66.00   31.21
 -11  -1  11   84.59   34.69
 -11   1  11   46.86   29.80
  -1  11  12  497.30   89.07
 -11   1  12  418.67   73.16
 -11  -1  12  315.89   67.11
 -11  -1  12  432.83   82.66
 -11  -1  13   40.94   24.44
  -1  11  13   55.69   31.69
 -11   1  13   37.31   20.75
 -11  -1  13   76.74   29.59
   1  11  13  108.42   43.40
 -11  -1  14   11.68   23.94
  -1  11  14  -25.43   33.26
   1  11  14   32.32   35.23
 -11   1  14    0.16   19.03
 -11   1  15   46.87   26.50
  -1  11  15   74.49   34.17
   1  11  15   14.22   22.49
 -11  -1  15   65.56   32.70
   1  11  16   92.19   28.54
 -11  -1  16   25.07   21.81
  -1  11  16   26.91   28.52
 -11   1  16   64.99   39.43
 -11  -1  17   22.63   29.65
 -11   1  17   18.38   24.21
  -1  11  17   68.82   38.55
   1  11  17   87.83   36.35
   1  11  18   47.80   24.05
 -11   1  18   25.84   23.85
 -11  -1  19   26.57   25.70
 -11   1  19    3.95   17.85
  -1  11  19   14.40   19.71
   1  11  19    5.21   11.90
   1  11  20   47.75   18.67
  -1  11  20   47.87   21.57
 -11   1  20   25.20   19.90
 -11   2   0  427.66   68.36
 -11  -2   0  466.74   67.50
  -2 -11   0  368.33   34.15
 -11  -2   1 1523.73  115.71
 -11  -2  -1 1515.22  124.51
 -11   2   1 1536.76  120.24
  -2 -11   1 1479.85   77.88
 -11   2   2  197.12   45.56
 -11  -2   2  154.13   32.52
  -2 -11   2  200.88   31.53
 -11  -2  -2  161.77   44.31
 -11   2   3   59.32   22.22
 -11  -2   3   65.98   24.22
  -2 -11   3   81.19   22.50
 -11   2   4   21.54   22.22
  -2 -11   4    2.34   11.87
 -11  -2   4   47.33   23.46
  -2 -11   5  555.42   63.67
 -11   2   5  549.58   65.25
 -11  -2   5  599.19   68.83
  -2 -11   6   86.12   21.86
 -11   2   6   70.26   23.19
 -11  -2   6   20.43   12.57
 -11  -2   7   46.03   16.12
  -2 -11   7   53.37   31.31
 -11   2   7   53.87   21.88
  -2 -11   8    5.01   14.92
 -11  -2   8    1.00   16.47
 -11   2   8   29.62   19.50
 -11   2   9  190.79   48.39
 -11  -2   9   88.08   32.72
  -2 -11   9  156.63   48.12
 -11   2  10   31.39   11.55
 -11  -2  10   39.27   14.42
  -2 -11  10  -15.99   19.24
 -11   2  10   39.15   27.27
 -11  -2  10   14.04   14.60
 -11  -2  11  299.77   60.08
  -2  11  11  340.87   74.17
 -11   2  11  270.97   61.94
  -2 -11  11  218.74   53.76
 -11  -2  11  267.85   59.69
 -11   2  12   80.27   35.77
 -11  -2  12   41.61   18.59
 -11  -2  12   45.18   28.94
  -2  11  12   16.53   17.90
 -11  -2  13  125.29   50.44
 -11   2  13  129.21   46.68
  -2  11  13  144.63   48.48
   2  11  13  125.50   50.46
 -11  -2  13   75.69   37.84
 -11  -2  14   19.61   19.74
  -2  11  14    7.81   24.11
   2  11  14    2.96   20.83
   2  11  15   29.66   18.38
 -11   2  15   36.37   27.50
  -2  11  15  -29.64   28.98
   2  11  16   -6.48   12.79
 -11   2  16    6.78   19.67
  -2  11  16  -10.77   23.77
 -11  -2  16  -18.14   14.83
 -11  -2  17   35.34   25.25
  -2  11  17   43.70   30.97
   2  11  17   47.27   30.77
 -11   2  17   18.41   28.71
   2  11  18  -27.72   16.61
 -11  -2  18    2.43   21.65
 -11   2  18   15.14   22.15
  -2  11  18   11.68   14.91
 -11   2  19    1.38   10.75
   2  11  19    5.73   10.48
  -2  11  19   -3.27   11.25
  -2  11  20   -7.85   15.52
 -11   2  20   -6.53    9.16
 -11  -3   0  381.36   58.79
 -11   3   0  400.42   67.34
  -3 -11   0  415.31   39.79
 -11   3   1  340.51   60.93
 -11  -3   1  316.48   52.04
 -11  -3  -1  339.97   56.55
  -3 -11   1  332.32   39.81
  -3 -11   2  141.09   29.18
 -11  -3   2  160.30   34.36
 -11  -3  -2  199.43   45.80
 -11   3   2  109.13   34.18
  -3 -11   3  100.89   25.61
 -11   3   3   29.82   15.44
 -11  -3   3   65.95   27.05
 -11  -3   4   75.07   29.28
 -11   3   4   80.56   30.76
  -3 -11   4   56.04   19.88
 -11   3   5  682.48   73.70
 -11  -3   5  694.69   75.25
  -3 -11   5  639.43   67.93
 -11  -3   6  347.76   55.19
 -11   3   6  286.58   46.34
  -3 -11   6  350.67   54.79
 -11  -3   7  214.33   43.88
  -3 -11   7  173.25   45.64
 -11   3   7  216.67   39.32
  -3 -11   8  -12.58   17.06
 -11   3   8   11.62   15.57
  -3 -11   9   50.31   27.45
 -11   3   9   32.07   20.09
 -11  -3   9   31.44   27.22
  -3 -11  10   21.86   21.13
 -11  -3  10  -25.58   18.28
 -11   3  10   90.77   36.99
  -3  11  10   60.86   31.07
 -11  -3  10   11.55   28.77
 -11  -3  11   22.67   26.70
  -3  11  11  -12.30   25.66
  -3 -11  11   26.28   20.24
 -11   3  11  -18.06   15.87
 -11  -3  11   17.89   17.20
  -3 -11  12   93.33   42.59
 -11  -3  12   92.17   46.81
  -3  11  12  106.80   38.94
 -11   3  12   31.60   13.20
 -11  -3  12   29.18   27.31
  -3  11  13  -11.15   25.44
   3  11  13  104.64   46.40
 -11   3  13   13.03   18.12
 -11  -3  13   75.81   35.29
 -11  -3  13   35.51   23.07
  -3  11  14   83.20   40.18
 -11   3  14   11.39   16.49
   3  11  14   40.79   29.55
 -11  -3  14   67.91   39.61
 -11   3  15   87.24   40.12
   3  11  15   50.68   26.14
  -3  11  15   15.93   27.57
 -11  -3  15   94.31   39.89
   3  11  16   37.85   24.33
 -11   3  16   50.73   38.39
  -3  11  16   39.17   32.29
 -11  -3  16   31.89   21.07
 -11   3  17  -12.97   24.01
   3  11  17  -30.53   29.04
  -3  11  17    7.29   18.08
 -11  -3  17  -22.51   23.09
 -11  -3  18    3.92   11.19
   3  11  18   15.99   17.06
 -11   3  18   -2.67   12.15
  -3  11  18   30.93   28.67
 -11   3  19   33.42   22.65
  -3  11  19   13.23   17.50
   3  11  19   17.81   15.54
  -3  11  20   11.12   13.61
 -11   3  20   10.26   11.94
  -4 -11   0   19.82   13.57
 -11  -4   0   38.08   16.72
 -11   4   0   56.50   34.04
 -11  -4  -1   13.31   23.42
  -4 -11  -1   11.64    7.77
 -11  -4   1    9.16   11.79
  -4 -11   1   11.17   11.57
 -11  -4  -2   11.33   25.62
 -11  -4   2  -17.02   21.69
  -4 -11   2   -7.88   12.62
 -11   4   2   10.75   12.58
 -11   4   3   23.66   12.96
  -4 -11   3   11.47   12.35
 -11  -4   3   31.98   19.38
 -11  -4  -3    0.81   18.68
  -4 -11   4  701.94   70.45
 -11   4   4  623.08   70.17
 -11  -4   4  577.22   67.79
 -11  -4   5  312.29   52.70
  -4 -11   5  284.68   46.30
 -11   4   5  312.87   51.37
 -11   4   6 1027.87   92.34
 -11  -4   6  999.15   94.84
  -4 -11   6 1131.54   96.91
 -11   4   7   89.56   20.58
 -11  -4   7  164.45   39.76
  -4 -11   7  115.70   32.44
 -11  -4   8  248.76   52.44
 -11   4   8  241.34   45.83
  -4 -11   8  194.58   46.02
  -4  11   9   46.62   36.50
  -4 -11   9   31.65   21.78
 -11  -4   9  -11.72   25.89
 -11  -4   9   11.66   15.41
 -11  -4  10   44.75   14.45
 -11  -4 -10   -8.38   16.25
  -4 -11  10   -6.16   15.34
  -4  11  10   19.47   21.85
 -11   4  10   15.73   17.96
 -11  -4  10    6.04   19.65
 -11  -4  11  -18.14   11.96
 -11   4  11  -22.17   22.37
 -11  -4  11  -24.51   15.20
  -4 -11  11   12.96   18.89
 -11  -4  12   52.65   32.14
 -11  -4  12   90.83   38.49
  -4 -11  12   53.18   38.09
  -4  11  12   94.17   38.62
 -11   4  12   42.68   21.20
  -4  11  13   17.42   30.76
   4  11  13  -10.44   23.62
 -11  -4  13   -1.46   11.97
 -11  -4  13   47.38   34.17
 -11   4  13   -4.95   22.61
 -11   4  14  132.12   45.66
  -4  11  14   90.96   38.24
 -11  -4  14   69.09   30.77
   4  11  14  105.07   44.40
 -11  -4  15   19.89   17.01
  -4  11  15   33.36   26.93
   4  11  15   35.34   15.04
 -11   4  15    7.02   15.42
 -11   4  16  133.34   49.03
  -4  11  16  105.56   50.54
   4  11  16  173.92   44.01
 -11  -4  16  155.94   46.89
  -4  11  17   25.16   24.13
 -11  -4  17   24.00   23.17
   4  11  17   27.35   11.88
 -11   4  17  -15.47   14.38
  -4  11  18   28.41   26.61
 -11   4  18   23.22   23.47
   4  11  18   46.24   24.88
 -11   4  19   -3.79   16.27
  -4  11  19  -10.94   19.91
  -4  11  20    3.03    9.61
 -11   4  20   -4.19   10.83
  -5 -11   0  151.84   27.34
 -11  -5   0  145.70   31.61
 -11   5   0  162.09   49.20
 -11   5   1   28.72   13.43
 -11  -5   1   22.17   12.01
  -5 -11   1    0.81    7.60
  -5 -11  -1   16.92    6.84
 -11  -5  -1   17.34   16.89
 -11   5   2   28.44   23.23
 -11  -5   2   22.51   18.07
 -11  -5  -2   10.73   14.38
  -5 -11   2   -5.22    9.72
 -11   5   3  154.46   36.94
  -5 -11   3  155.04   33.26
 -11  -5   3  159.43   35.22
 -11  -5  -3  172.96   50.64
 -11   5   4   21.79   23.56
 -11  -5   4   14.86   13.59
 -11  -5  -4   17.94   26.33
  -5 -11   4    6.72   16.57
  -5 -11   5 1684.32  116.32
 -11   5   5 1810.09  118.03
 -11  -5   5 1713.23  119.56
  -5 -11   6   62.48   30.54
 -11   5   6   72.95   24.33
 -11  -5   6   41.72   18.68
 -11  -5   7  481.43   70.11
  -5 -11   7  509.78   72.47
 -11  -5   8   19.95   19.59
  -5 -11   8   -9.55   19.68
  -5 -11   9  -22.99   15.84
 -11  -5   9   10.05   19.29
  -5  11   9   55.89   42.30
 -11  -5   9   58.22   29.78
 -11   5   9  -28.23   16.60
 -11  -5  10   25.03   33.25
 -11  -5 -10   11.10   16.22
  -5 -11  10   52.99   33.12
  -5  11  10   52.52   34.97
 -11   5  10   40.92   28.49
 -11  -5  10   36.61   25.58
 -11   5  11   99.16   39.83
  -5 -11  11  121.03   44.12
 -11  -5  11  106.45   45.18
  -5  11  11  119.77   45.56
 -11  -5  11   57.16   26.96
 -11  -5  12   27.24   33.70
 -11   5  12    9.41   13.47
  -5  11  12   34.97   22.11
 -11  -5  12   40.71   30.00
  -5 -11  12   -6.09   12.38
  -5  11  13   -7.26   23.50
 -11  -5  13    2.23   15.28
 -11   5  13  -43.85   29.40
  -5  11  14   60.13   31.44
 -11  -5  14   14.34   17.76
 -11   5  14   80.68   34.62
   5  11  14   69.55   40.83
  -5  11  15  110.23   46.19
 -11   5  15  120.56   40.93
 -11  -5  15  214.73   53.93
   5  11  15  231.24   53.79
 -11   5  16  -12.11   25.98
 -11  -5  16   28.66   29.10
  -5  11  16   22.42   27.01
   5  11  16   51.88   30.19
  -5  11  17  215.42   54.72
   5  11  17  230.42   45.33
 -11   5  17  175.32   54.40
 -11   5  18   -8.86   14.55
  -5  11  18   18.16   20.07
  -5  11  19   12.54   18.17
 -11   5  19    5.48   10.35
  -5  11  20   -4.35    9.50
 -11   5  20    5.20   10.83
 -11  -6   0  117.58   32.36
 -11   6   0  158.34   46.56
  -6 -11   0  148.88   30.42
 -11   6   1   62.10   32.46
 -11  -6   1  -21.48   23.57
  -6 -11   1   37.56   12.36
 -11  -6  -1    4.36   18.17
  -6 -11  -1   17.94    9.09
 -11   6   2   19.99   13.35
 -11  -6  -2  -27.46   21.83
  -6 -11   2    8.07    9.76
  -6 -11  -2   23.09    9.56
 -11  -6   2   20.03   18.28
 -11  -6  -3   -1.36   14.44
 -11  -6   3   31.55   14.21
 -11   6   3   -2.37   13.66
  -6 -11   3   11.13    7.84
 -11   6   4  623.11   68.23
  -6 -11   4  653.50   71.84
 -11  -6  -4  725.19   94.66
 -11  -6   4  635.26   72.31
  -6 -11   5    5.65   12.66
 -11   6   5   -4.24   13.39
 -11  -6  -5   21.15   37.37
 -11  -6   5    7.38   10.12
 -11  -6   6  918.30   90.81
  -6 -11   6  980.56   95.91
 -11  -6  -6  956.88  120.06
  -6 -11   7   31.93   17.70
 -11  -6   7   52.78   27.43
 -11  -6   8   37.76   19.64
  -6 -11   8   13.91   11.99
  -6 -11   9    7.65   16.00
 -11  -6   9   46.49   31.22
 -11  -6  -9   -3.65   11.36
 -11  -6   9    4.53   13.99
  -6  11  10  144.62   50.67
  -6 -11  10  106.19   33.82
 -11   6  10  130.76   45.35
 -11   6 -10   63.96   30.38
 -11  -6  10  135.14   49.11
 -11  -6  10  106.99   36.46
 -11  -6 -10   85.88   33.41
 -11  -6  11   56.40   27.30
  -6 -11  11  -27.20   33.06
 -11   6  11   11.51   19.93
 -11  -6  11   34.44   28.16
  -6  11  11   52.71   36.50
 -11   6  12    9.63   22.98
  -6  11  12   -7.39   19.65
 -11  -6  12   59.17   41.81
  -6 -11  12   69.00   31.43
 -11  -6  12   47.80   36.12
 -11   6  13   26.65   26.29
 -11  -6  13  -24.95   27.20
  -6  11  13    2.16   24.26
 -11  -6  14  114.55   44.82
 -11   6  14  112.00   37.90
   6  11  14   73.83   38.80
  -6  11  14   66.17   34.01
  -6  11  15  -10.27   17.96
   6  11  15   42.76   32.95
 -11   6  15    2.04   21.64
 -11   6  16  175.60   51.22
  -6  11  16  210.08   58.02
   6  11  16  230.46   48.79
  -6  11  17   38.29   31.84
 -11   6  17   13.68   15.92
 -11   6  18   42.92   28.96
  -6  11  18   11.40   27.10
 -11   6  19   -1.08   13.37
  -6  11  19   10.32   12.85
  -6  11  20    7.34   11.91
 -11   6  20   -4.63    7.45
 -11  -7   0  -26.79   30.49
  -7 -11   0    0.06   13.46
 -11   7   0   37.09   30.45
 -11   7   1  430.49   67.85
  -7 -11   1  373.06   49.58
 -11  -7  -1  474.86   66.36
 -11  -7   1  495.66   65.85
  -7 -11  -1  432.60   51.96
 -11   7   2    2.46   17.51
 -11  -7  -2   18.45   15.96
 -11  -7   2   -1.86   15.33
  -7 -11   2    6.48   10.89
  -7 -11  -2    9.22   10.52
  -7 -11   3   91.58   28.80
 -11  -7  -3   78.29   32.34
 -11  -7   3   34.79   13.43
 -11   7   3   61.84   23.16
 -11  -7  -4  116.89   38.47
 -11  -7   4   95.32   30.26
  -7 -11   4  110.60   30.12
 -11  -7   5  757.14   82.42
 -11  -7  -5  820.27  104.89
  -7 -11   5  757.59   83.98
 -11  -7  -6  173.15   56.32
 -11  -7   6  126.47   34.80
  -7 -11   6  163.92   38.28
 -11  -7   7  299.10   59.21
  -7 -11   7  312.79   58.51
 -11  -7  -7  208.13   59.39
 -11  -7  -8  -28.07   25.75
  -7 -11   8   -4.25   17.21
  -7  11   8   45.35   23.85
 -11  -7   8   37.75   17.39
 -11  -7   8   34.93   25.28
 -11  -7  -8   72.95   53.44
 -11   7   9   60.53   43.79
  -7  11   9  114.26   48.76
  -7 -11  -9    8.89   18.97
 -11  -7   9   69.85   30.59
 -11  -7   9  118.76   46.46
 -11  -7  -9   20.20   18.52
  -7 -11   9   55.93   28.59
  -7  11  10   45.47   30.54
 -11   7  10   78.21   39.10
 -11  -7  10   17.60   26.24
 -11  -7  10   52.79   36.41
 -11   7 -10   15.45   15.53
  -7 -11  10   51.96   34.58
 -11  -7 -10    2.93   14.53
  -7 -11  11  168.18   48.62
  -7  11  11  121.07   42.66
 -11   7  11  199.07   51.89
 -11  -7 -11  201.32   55.33
 -11  -7  11  182.99   52.84
 -11  -7  11  225.26   62.40
  -7  11  12   24.84   16.95
 -11  -7  12   14.25   23.41
  -7 -11  12   32.14   30.43
 -11   7  12   31.85   27.12
 -11  -7  12   29.05   33.28
 -11   7  13   22.90   25.30
  -7  11  13   46.85   18.30
  -7  11  14   20.46   27.46
   7  11  14    9.71   21.82
 -11   7  14   36.55   28.75
 -11   7  15  107.15   39.50
   7  11  15  154.11   40.25
  -7  11  15   71.04   34.20
  -7  11  16   27.91   27.67
 -11   7  16   48.70   36.22
 -11   7  17   79.01   35.42
  -7  11  17   76.57   39.70
 -11   7  18   -4.83   15.41
  -7  11  18   17.34   17.75
 -11   7  19    3.93   11.44
  -7  11  19   -2.17   11.06
  -7  11  20    5.82    8.39
 -11   7  20   22.32   16.72
 -11   8   0  738.20   93.34
 -11  -8   0  793.27   83.64
  -8 -11   0  806.88   75.63
 -11  -8  -1   26.17   15.75
  -8 -11   1   59.06   24.83
 -11  -8   1   48.88   23.06
  -8 -11  -1   71.37   25.52
 -11   8   1   48.56   27.89
  -8 -11   2  129.04   32.93
 -11  -8  -2  154.12   38.44
  -8 -11  -2  130.84   29.76
 -11  -8   2  188.48   40.19
 -11  -8  -3  130.20   37.65
  -8 -11   3  107.46   29.90
 -11  -8   3  139.41   33.61
 -11  -8  -4   96.97   34.44
  -8 -11   4  175.20   41.91
 -11  -8   4  125.27   35.24
 -11  -8   5   95.21   30.79
 -11  -8  -5  172.38   53.25
  -8 -11   5  147.28   41.61
 -11  -8   6  272.17   54.66
  -8 -11   6  318.18   59.47
 -11  -8  -6  376.88   76.64
  -8 -11   7  147.55   39.89
 -11  -8  -7  206.08   65.18
 -11  -8   7  191.85   48.98
 -11   8   8   30.60   22.92
  -8 -11   8   31.74   32.20
  -8  11   8   51.34   35.64
 -11  -8   8  -23.21   10.83
  -8 -11  -8   17.59   24.61
 -11  -8  -8   20.62   20.20
 -11   8   9    5.40   13.83
  -8  11   9   22.08   18.20
  -8 -11  -9   -4.95   10.57
  -8 -11   9   46.72   31.09
 -11  -8   9  -31.99   22.76
 -11  -8  -9  -15.26   24.35
 -11   8  10  240.79   62.02
 -11  -8  10  167.23   50.82
  -8  11  10  268.87   59.35
  -8 -11  10  142.52   47.10
  -8 -11 -10   97.46   39.42
 -11  -8 -10  210.40   56.82
  -8 -11  11  -37.59   33.32
 -11  -8  11   19.48   14.16
  -8  11  11   -0.26   16.89
 -11   8  11   33.01   26.23
 -11  -8 -11   15.91   23.91
 -11   8  12  225.54   57.00
  -8  11  12  187.23   50.11
 -11   8  13    1.20   14.88
  -8  11  13   68.62   32.14
 -11   8  14  -30.31   27.96
  -8  11  14   17.81   20.45
   8  11  14   60.99   35.02
 -11   8  15    7.12   20.77
  -8  11  15   38.10   26.71
 -11   8  16   -7.53   14.06
  -8  11  16   47.28   36.32
  -8  11  17   19.06   26.21
 -11   8  17    5.60   18.19
  -8  11  18  -15.83   24.03
 -11   8  18   -1.83   15.21
  -8  11  19   -1.93    9.44
 -11   8  19   15.12   16.28
  -8  11  20    0.08   12.57
 -11   8  20    4.61   10.38
 -11  -9   0   88.15   30.37
  -9 -11   0   97.30   29.22
 -11   9   0   65.99   29.20
 -11  -9   1  427.46   62.50
  -9 -11   1  424.00   59.11
 -11  -9  -1  422.08   63.04
  -9 -11  -1  378.47   55.47
  -9 -11   2  115.75   31.28
 -11  -9  -2  119.69   29.20
 -11  -9   2  158.22   38.82
  -9 -11  -2  189.27   38.54
 -11  -9  -3    6.70   15.55
 -11  -9   3   24.09   15.91
  -9 -11   3  -23.33   19.64
 -11  -9   4  108.41   30.58
  -9 -11   4  137.54   35.38
 -11  -9  -4   84.31   19.42
 -11  -9  -5  127.67   45.81
  -9 -11   5   93.33   34.43
 -11  -9   5   93.68   34.00
  -9 -11   6  119.42   40.51
 -11  -9  -6   86.27   38.28
 -11  -9   6   39.71   23.65
 -11  -9  -7   35.40   20.90
  -9  11   7   38.90   14.24
 -11  -9   7   42.90   26.86
  -9 -11  -7   10.12   12.61
  -9 -11   7   36.53   23.08
  -9 -11   8  139.40   47.90
 -11   9   8  138.95   41.59
  -9  11   8  121.28   40.69
 -11  -9   8  115.74   42.30
  -9 -11  -8   75.44   38.16
 -11  -9  -8  109.03   44.54
  -9 -11   9    7.31   14.55
  -9  11   9   12.18   21.10
 -11   9   9   11.67   13.10
 -11  -9   9   33.58   32.90
 -11  -9  -9   69.34   24.70
  -9 -11  -9   11.24   20.08
 -11   9  10    7.59   23.62
  -9 -11  10   -7.13   17.44
 -11  -9 -10   47.32   30.60
 -11  -9  10   38.06   21.17
  -9 -11 -10   21.18   22.90
  -9  11  10   16.46   17.77
 -11   9  11  191.33   53.85
 -11  -9  11  195.32   50.00
  -9  11  11  159.30   48.82
 -11  -9 -11  131.34   40.81
  -9 -11  11  112.75   40.22
  -9  11  12   57.66   36.58
 -11   9  12   88.71   36.42
 -11   9  13   25.20   15.27
  -9  11  13   12.27   25.50
  -9  11  14   32.87   23.63
 -11   9  14  -10.31   21.44
  -9  11  15   16.26   25.41
 -11   9  15    6.63   24.73
 -11   9  16   20.21   21.89
  -9  11  16   14.71   14.84
 -11   9  17    3.29   13.88
  -9  11  17  -16.86   24.46
 -11   9  18   -9.26   17.04
  -9  11  18  -13.36   23.88
  -9  11  19   -7.49   18.35
 -11   9  19   -4.85    8.11
  -9  11  20    0.59   10.11
 -11   9  20    4.52   10.07
 -11 -10   0  142.37   37.58
 -10 -11   0  169.95   39.36
 -11 -10  -1  201.12   44.72
 -11 -10   1  171.89   39.92
 -10 -11  -1  158.99   34.89
 -10 -11   1  220.83   46.31
 -10 -11   2   41.14   15.89
 -11 -10  -2   51.14   18.40
 -11 -10   2   52.93   19.29
 -10 -11  -2   45.86   23.11
 -11 -10  -3   39.92   12.28
 -10 -11  -3  119.08   34.96
 -10 -11   3   55.53   25.23
 -11 -10   3   87.24   27.19
 -11 -10   4   38.35   20.25
 -11 -10  -4  -71.87   38.64
 -10 -11   4  -54.01   27.05
 -10 -11   5  -11.18   14.16
 -11 -10   5    2.83   16.36
 -11 -10  -5   34.28   23.78
 -10 -11  -5  -18.16   31.96
 -11 -10   6    2.45   15.01
 -10 -11  -6   17.08   24.50
 -10 -11   6   31.02   11.16
 -11 -10  -6    6.19   13.96
 -10  11   7   47.60   26.73
 -11  10   7   78.39   24.47
 -11 -10   7   97.53   37.99
 -10 -11  -7   80.31   40.05
 -10 -11   7   55.08   24.28
 -11 -10  -7   49.64   36.97
 -10 -11   8   15.18   19.96
 -11  10   8  -15.83   17.24
 -10  11   8   -0.56   16.51
 -11 -10  -8   -3.72   12.70
 -10 -11  -8  -16.36   22.33
 -11 -10   8  -26.33   22.10
 -11 -10   9   18.72   17.01
 -11  10   9  107.37   38.33
 -10  11   9   22.24   18.39
 -10 -11  -9   67.71   36.27
 -11 -10  -9   60.16   34.23
 -10 -11   9  113.80   39.40
 -11 -10  10    7.41   16.64
 -10 -11  10  -20.90   21.06
 -10  11  10   80.48   32.24
 -11  10  10   43.47   28.31
 -10 -11 -10   52.45   32.46
 -11 -10 -10  -18.28   28.53
 -10  11  11   95.99   40.25
 -11  10  11   69.43   31.88
 -10 -11 -11   51.94   28.73
 -11 -10 -11  113.80   42.79
 -10  11  12  219.97   50.26
 -11  10  12   11.46   13.53
 -10  11  13   69.79   38.58
 -11  10  13   94.97   41.74
 -11  10  14    2.65   16.43
 -10  11  14   33.96   28.49
 -10  11  15   34.74   27.02
 -11  10  15   17.76   29.89
 -11  10  16  -14.57   29.98
 -10  11  16   25.36   30.18
 -10  11  17  -29.25   28.28
 -11  10  17   18.21   19.55
 -10  11  18  -11.42   16.15
 -11  10  18    1.15    9.78
 -10  11  19  -10.67   15.80
 -11  10  19  -11.79   14.84
 -11 -11   0  155.19   35.98
 -11 -11  -1    8.11   12.94
 -11 -11   1  -12.99   16.08
 -11 -11   2  122.89   36.82
 -11 -11  -2  115.08   34.16
 -11 -11   3  -33.85   22.94
 -11 -11  -3    2.77   17.14
 -11 -11   4   36.40   22.03
 -11 -11  -4   91.78   41.20
 -11 -11   5    0.90   18.72
 -11 -11  -5   53.03   35.21
 -11 -11   6   18.64   26.87
 -11 -11  -6   22.81   23.12
 -11  11   7   42.58   26.12
 -11 -11   7  -26.14   23.29
 -11 -11  -7   -4.42   25.32
 -11 -11  -8   -7.18   21.23
 -11  11   8   14.94   23.63
 -11 -11   8   16.67   22.20
 -11 -11   9    0.04   12.74
 -11  11   9   21.74   17.63
 -11 -11  -9   13.93   23.38
 -11  11  10   57.64   28.42
 -11 -11 -10   86.91   44.29
 -11  11  11  -35.62   29.90
 -11 -11 -11  -27.21   25.59
 -11  11  12  120.52   49.48
 -11  11  13   -8.27   22.51
 -11  11  14   22.64   25.83
 -11  11  15   19.60   24.60
 -11  11  16  -10.23   20.98
 -11  11  17   -6.64   17.79
 -11  11  18    3.79    9.96
 -11  11  19  -14.54   15.43
 -12   0   0 3030.22  179.17
 -12   0   1  276.30   52.80
 -12   0  -1  315.73   61.01
 -12   0   2  951.86   92.91
 -12   0   3  524.12   65.44
 -12   0   4  316.06   55.71
   0 -12   4  312.70   45.28
   0 -12   5   39.27   21.30
 -12   0   5    4.83   10.94
   0 -12   6  735.01   79.44
 -12   0   6  829.25   84.12
 -12   0   7   22.61   15.67
 -12   0   8   -0.07   17.02
 -12   0   9  205.65   50.11
 -12   0   9  200.11   50.09
 -12   0 -10  615.45   86.08
 -12   0  10  896.05  106.43
 -12   0  10  963.71  107.57
 -12   0  11  362.83   70.04
 -12   0  11  355.11   66.70
 -12   0  12  555.95   86.21
   0  12  12  686.45  108.93
 -12   0  12  458.79   85.05
 -12   0  13   75.26   34.56
   0  12  13  150.38   51.81
   0  12  14  -62.59   41.33
 -12   0  14    1.02   16.85
   0  12  15   52.35   34.51
 -12   0  15   30.83   32.48
 -12   0  16  136.08   49.42
   0  12  16  199.99   53.77
   0  12  17   -3.83   17.02
 -12   0  17   25.44   22.51
 -12   0  18    6.99   20.26
   0  12  18   12.14   15.53
   0  12  19  -18.10   14.57
 -12   0  19    8.42   21.56
   0  12  20    7.61   17.44
 -12   1   0  175.11   43.08
 -12  -1   0  116.26   38.91
 -12  -1  -1 1976.21  147.32
 -12   1  -1 2044.98  154.15
 -12   1   1 1893.14  140.95
 -12  -1   1 2021.43  138.59
  -1 -12   2  524.59   52.05
 -12   1   2  531.02   68.51
 -12  -1   2  548.64   70.80
 -12  -1  -2  540.30   82.08
 -12  -1   3  -28.21   29.65
 -12   1   3  -40.06   24.44
  -1 -12   3   10.77   13.92
 -12   1   4  150.24   41.22
 -12  -1   4  159.32   36.67
  -1 -12   4  168.01   36.98
  -1 -12   5 1272.10  100.44
 -12   1   5 1246.69  103.52
 -12  -1   5 1231.87  103.74
 -12  -1   6   14.13   19.25
  -1 -12   6   10.02   19.67
 -12   1   6  -12.60   17.15
  -1 -12   7  300.59   54.49
 -12   1   7  293.82   49.94
 -12  -1   7  268.85   53.52
  -1 -12   8   69.76   29.04
 -12   1   8  113.11   36.25
 -12  -1   8   91.67   33.19
 -12   1   9  296.01   58.07
 -12  -1   9  255.95   56.56
 -12  -1   9  395.11   69.42
 -12   1   9  311.46   61.07
  -1 -12   9  270.78   57.69
 -12  -1  10  252.53   52.84
 -12   1  10  258.41   55.78
 -12  -1 -10  261.20   55.04
 -12  -1  10  310.42   63.00
 -12   1  10  303.02   62.27
 -12   1 -10  132.78   40.02
 -12  -1  11  761.13  104.73
 -12   1  11  794.42  100.39
 -12   1  11  665.79   95.59
 -12  -1  11  889.61  108.68
 -12  -1  12  236.11   54.60
 -12   1  12  152.25   49.29
  -1  12  12  256.28   65.44
 -12  -1  12  201.49   55.86
 -12  -1  13  199.19   52.99
  -1  12  13  245.72   62.97
   1  12  13  230.60   65.91
 -12   1  13  151.23   49.08
 -12   1  14   34.73   20.10
 -12  -1  14    9.91   17.06
  -1  12  14  -39.38   34.35
   1  12  14   55.72   39.73
 -12  -1  15  108.29   41.48
 -12   1  15   46.79   41.66
   1  12  15  134.36   41.68
  -1  12  15  124.68   35.19
  -1  12  16  -16.83   25.42
   1  12  16   -5.26   15.93
 -12   1  16  -20.52   24.28
 -12  -1  16   55.38   31.79
  -1  12  17  124.04   49.10
   1  12  17  129.96   43.13
 -12  -1  17  119.43   50.91
   1  12  18   22.27   12.86
  -1  12  18   41.54   27.77
 -12   1  18   12.20   21.33
 -12  -1  18   -1.67   17.59
  -1  12  19    7.82   15.47
 -12  -1  19   22.79   17.97
   1  12  19   -0.68   14.74
 -12   1  19  -12.72   18.47
  -1  12  20   11.16   11.06
   1  12  20   -6.80    8.66
 -12  -2   0 1279.48  115.63
 -12   2   0 1270.04  121.21
 -12  -2  -1  488.85   75.75
 -12   2   1  520.75   76.63
 -12  -2   1  542.63   72.28
 -12   2  -1  425.45   76.46
  -2 -12   1  468.60   45.62
  -2 -12   2  247.63   36.42
 -12  -2   2  262.20   51.40
 -12  -2  -2  231.56   51.48
 -12   2   2  230.73   43.32
 -12  -2   3   75.38   30.30
 -12   2   3   46.47   20.00
  -2 -12   3   51.53   21.56
  -2 -12   4  333.27   47.73
 -12   2   4  409.85   60.07
 -12  -2   4  422.60   60.68
 -12   2   5  221.05   43.13
  -2 -12   5  176.09   41.09
 -12  -2   5  158.29   33.41
  -2 -12   6  940.04   91.60
 -12   2   6  982.46   95.78
 -12  -2   6  983.80   96.24
 -12   2   7  -13.13   24.36
 -12  -2   7  -18.99   18.05
  -2 -12   7    9.32    9.66
 -12   2   8   19.78   24.59
 -12  -2   8   39.31   24.14
  -2 -12   8   13.28   17.12
 -12  -2   9   16.09   11.89
  -2 -12   9   65.86   33.32
 -12   2   9   51.84   25.11
 -12   2   9   90.97   34.92
 -12  -2   9   20.39   17.78
 -12  -2  10  302.60   56.80
 -12   2  10  245.14   56.25
 -12   2 -10  172.19   43.36
  -2 -12  10  332.54   65.59
 -12  -2  10  286.23   56.98
 -12   2  10  305.13   59.81
 -12  -2 -10  198.32   49.11
  -2  12  11  295.20   72.68
 -12  -2  11  125.87   51.45
 -12  -2  11  197.56   53.35
 -12   2  11  235.61   53.98
 -12   2  12  212.36   55.07
 -12  -2  12  208.02   55.07
  -2  12  12  395.16   76.78
 -12  -2  12  257.85   65.74
 -12  -2  13  158.20   51.56
 -12   2  13   75.03   34.98
   2  12  13  206.07   60.79
  -2  12  13  119.02   51.04
 -12   2  14   -8.38   29.19
  -2  12  14   58.96   33.40
 -12  -2  14   65.73   35.89
   2  12  14   93.04   46.87
 -12   2  15    1.13   16.63
  -2  12  15   38.68   30.69
 -12  -2  15   35.88   33.71
   2  12  15   48.54   23.28
  -2  12  16  210.97   62.46
 -12   2  16  212.40   61.18
   2  12  16  289.37   58.02
 -12  -2  16  158.23   54.54
 -12   2  17    5.41   13.43
   2  12  17   29.34   24.61
  -2  12  17  -17.54   19.79
 -12  -2  17  -15.16   18.92
 -12   2  18    6.55   14.06
   2  12  18   14.45   21.49
  -2  12  18   54.39   32.59
 -12  -2  18   22.75   21.80
  -2  12  19    0.34    9.63
   2  12  19   19.00   16.66
 -12   2  19   19.09   23.02
  -2  12  20   19.80   19.64
 -12   2  20    2.48    9.30
 -12   3   0  687.58   88.66
 -12  -3   0  749.82   86.13
 -12   3   1  191.19   52.18
 -12  -3  -1  183.78   45.75
 -12  -3   1  165.25   37.24
  -3 -12   1  141.59   27.24
 -12   3   2  139.23   39.86
 -12  -3   2  113.99   29.48
  -3 -12   2  110.03   26.47
 -12  -3  -2  147.02   49.73
 -12   3   3   45.22   18.36
 -12  -3   3   76.40   30.82
 -12  -3  -3  108.66   44.35
  -3 -12   3   56.63   17.27
 -12  -3   4  257.96   46.69
 -12   3   4  307.33   52.64
  -3 -12   4  211.94   40.80
 -12   3   5 1211.56  100.71
 -12  -3   5 1204.86  102.16
  -3 -12   5 1137.63   95.21
 -12   3   6  364.12   55.57
  -3 -12   6  464.50   63.92
 -12  -3   6  393.83   61.52
 -12   3   7  425.12   62.26
 -12  -3   7  327.65   55.41
  -3 -12   7  418.12   66.67
 -12   3   8   -2.87   23.33
 -12  -3   8   -8.85   13.40
  -3 -12   8   34.57   31.84
 -12  -3   9  -13.14   18.74
  -3 -12   9   37.08   27.16
 -12  -3   9  -16.72   21.72
 -12   3  -9    7.18    9.76
 -12   3   9   -0.45   15.10
 -12   3   9  -63.61   35.41
 -12  -3  -9   37.67   26.69
 -12  -3  10   66.00   33.76
 -12  -3 -10   43.00   17.12
  -3  12  10  172.07   55.25
 -12   3  10  132.88   42.89
 -12   3 -10   89.06   33.13
 -12  -3  10   46.95   27.01
  -3 -12  10   62.54   31.75
  -3 -12  11  165.19   52.44
 -12   3  11  133.87   41.42
 -12  -3  11  144.00   48.47
 -12  -3  11  162.39   45.92
  -3  12  11  223.30   68.29
 -12  -3  12  168.64   49.66
 -12   3  12  111.27   43.19
 -12  -3  12   81.76   34.90
  -3  12  12  125.24   55.25
  -3  12  13   12.72   20.87
   3  12  13   41.23   36.82
 -12   3  13   13.96   14.31
 -12  -3  13   55.31   38.81
 -12   3  14   48.48   23.25
  -3  12  14  -34.58   33.09
   3  12  14   13.66   15.53
 -12  -3  14  -10.55   23.63
   3  12  15  184.36   51.40
 -12  -3  15  190.01   62.94
 -12   3  15  139.79   49.09
  -3  12  15  203.07   59.86
   3  12  16  121.23   38.72
 -12   3  16   62.88   39.24
  -3  12  16   43.67   24.06
 -12  -3  16   68.96   35.32
  -3  12  17   38.33   34.21
 -12   3  17  121.01   48.31
   3  12  17  151.40   43.44
 -12  -3  17   93.50   41.84
   3  12  18   10.97   14.70
 -12   3  18   22.61   23.46
  -3  12  18    6.44   12.97
 -12   3  19   -9.96   11.40
   3  12  19    8.53   12.37
  -3  12  19   13.44   19.65
 -12   3  20    6.71    8.79
  -3  12  20   49.08   22.99
 -12  -4   0   66.22   29.81
 -12   4   0    7.59   17.33
 -12   4   1  428.47   70.80
 -12  -4   1  443.57   62.81
 -12  -4  -1  460.48   71.44
  -4 -12   1  475.70   50.54
  -4 -12   2   45.02   20.05
 -12  -4   2  -22.58   24.42
 -12   4   2   28.74   16.47
 -12  -4  -2    2.38   35.39
 -12  -4   3  183.11   40.92
  -4 -12   3  136.82   31.77
 -12   4   3  131.39   35.94
 -12  -4  -3  181.89   51.41
 -12   4   4  331.80   55.90
 -12  -4   4  316.87   52.59
  -4 -12   4  396.56   54.08
 -12  -4  -4  439.61   81.58
 -12   4   5 1377.67  112.36
 -12  -4   5 1374.44  109.29
  -4 -12   5 1350.62  106.17
 -12   4   6  753.29   81.97
  -4 -12   6  733.70   81.74
 -12  -4   6  608.08   74.70
 -12  -4   7  294.68   53.70
 -12   4   7  288.65   50.08
  -4 -12   7  258.90   52.39
 -12  -4   8  140.32   42.00
  -4 -12   8  166.88   42.10
 -12  -4   8  185.11   47.99
 -12  -4   9   27.93   21.82
 -12   4   9   12.78   14.78
  -4 -12   9   21.17   20.09
 -12   4  -9  -36.70   18.86
 -12  -4   9   20.46   19.56
 -12  -4  -9    8.98   27.69
 -12  -4 -10   44.02   23.28
 -12   4 -10   -8.14   13.29
  -4 -12  10   12.68   13.89
  -4  12  10    8.88   22.21
 -12   4  10  -28.80   29.55
 -12  -4  10   17.06   13.89
 -12  -4  10    8.54   24.86
 -12  -4  11  145.79   48.28
 -12  -4  11  142.64   42.22
  -4  12  11  211.45   62.45
 -12  -4 -11  140.72   40.92
 -12   4  11  261.72   56.09
  -4 -12  11  116.71   44.62
 -12  -4  12   -9.42   29.66
  -4  12  12   19.58   25.39
 -12  -4  12   51.53   27.15
 -12   4  12  -35.85   18.50
  -4 -12  12   -1.57   12.97
  -4  12  13  -29.49   25.43
 -12   4  13   10.26   30.62
 -12  -4  14  142.42   42.47
   4  12  14  214.70   63.07
  -4  12  14  160.34   53.03
 -12   4  14  181.28   50.93
 -12  -4  15   74.72   36.67
 -12   4  15  150.43   56.15
   4  12  15  107.30   40.05
  -4  12  15   49.76   35.25
  -4  12  16  144.43   46.37
 -12   4  16   59.52   34.41
   4  12  16  134.87   40.27
 -12  -4  16  141.41   48.70
 -12   4  17   94.78   40.12
  -4  12  17   96.93   39.38
   4  12  17  116.08   38.06
   4  12  18   57.24   28.81
  -4  12  18   64.03   30.79
 -12   4  18   14.71   21.69
  -4  12  19  -22.24   18.60
 -12   4  19  -17.49   20.80
  -4  12  20   11.24   13.42
 -12   4  20    8.77   14.57
  -5 -12   0  539.33   53.40
 -12  -5   0  573.75   76.22
 -12   5   0  536.01   80.45
 -12   5   1   29.42   28.95
 -12  -5  -1   30.47   21.63
 -12  -5   1   40.96   17.03
  -5 -12   1   41.52   15.88
 -12  -5  -2  104.12   45.10
 -12   5   2   81.93   33.29
 -12  -5   2   65.23   31.14
  -5 -12   2   67.63   23.13
 -12   5   3   66.94   21.09
 -12  -5  -3  109.06   37.70
  -5 -12   3   69.83   23.04
 -12  -5   3   99.68   28.58
 -12  -5  -4  909.57  109.09
 -12  -5   4  871.29   87.38
  -5 -12   4  977.55   88.05
 -12   5   4 1003.60   93.83
  -5 -12   5  520.01   69.98
 -12   5   5  470.06   63.73
 -12  -5   5  412.44   62.48
 -12  -5  -5  539.76   91.16
  -5 -12   6  923.49   94.28
 -12  -5   6 1033.34  100.33
 -12   5   6 1106.13   97.93
 -12  -5   7  314.14   61.59
  -5 -12   7  246.75   52.30
  -5  12   8   54.50   40.90
 -12  -5  -8    1.17   16.64
 -12  -5   8   59.47   34.31
  -5 -12   8   50.12   30.87
 -12  -5   8   29.71   15.57
 -12   5   9   -4.64   19.02
  -5 -12   9   22.08   25.72
 -12  -5   9   31.50   25.12
 -12  -5  -9   36.98   25.25
 -12  -5   9   42.32   25.79
  -5  12   9   -1.24   15.05
 -12   5  -9   21.75   17.00
 -12  -5  10  104.69   38.21
 -12   5  10  255.39   58.39
 -12  -5 -10  134.49   40.30
  -5  12  10  193.77   55.09
 -12   5 -10  104.97   38.78
  -5 -12  10  120.77   44.96
 -12  -5  10  150.83   45.39
 -12  -5  11   10.70   22.86
  -5  12  11    4.49   17.01
 -12   5  11   14.38   19.74
  -5 -12  11   10.31   31.50
 -12  -5 -11  -50.07   34.99
 -12  -5  11  -26.91   16.79
 -12  -5  12  120.38   46.41
 -12   5  12  115.34   43.70
  -5  12  12  141.06   44.60
 -12  -5  12   66.35   37.49
  -5 -12  12   71.80   52.43
  -5  12  13    6.00   22.83
 -12   5  13    1.36   21.34
 -12  -5  13   66.14   31.92
 -12   5  14   46.45   24.82
  -5  12  14  101.28   34.42
   5  12  14  100.73   45.49
 -12  -5  14   35.91   26.74
 -12   5  15   36.28   18.27
  -5  12  15   83.25   40.66
   5  12  15   46.46   29.69
 -12  -5  15   25.96   30.08
  -5  12  16  212.26   59.20
   5  12  16  231.35   51.74
 -12   5  16  255.80   63.39
  -5  12  17   55.29   37.45
   5  12  17   32.92   22.06
 -12   5  17   18.90   18.52
 -12   5  18   19.69   21.38
  -5  12  18   65.66   35.32
  -5  12  19   82.38   28.29
 -12   5  19   45.93   26.82
  -5  12  20    4.24   10.30
 -12   5  20    1.43    7.13
 -12  -6   0   12.27   16.38
  -6 -12   0    1.84    7.79
 -12   6   0   13.89   29.56
  -6 -12   1  653.71   65.92
 -12  -6   1  608.01   72.56
 -12  -6  -1  677.92   84.76
 -12   6   1  676.53   85.74
 -12  -6  -2   24.06   22.70
  -6 -12   2   34.74   17.88
 -12   6   2   -0.16   18.58
 -12  -6   2   42.96   20.05
 -12  -6   3   92.53   30.30
 -12  -6  -3  101.35   37.62
 -12   6   3  116.86   30.83
  -6 -12   3  132.39   32.91
 -12   6   4   88.33   29.62
 -12  -6   4   54.01   22.40
 -12  -6  -4   80.11   40.77
  -6 -12   4   88.41   28.45
  -6 -12   5 1390.74  113.96
 -12  -6  -5 1477.15  146.65
 -12  -6   5 1274.52  111.96
 -12  -6   6   95.35   19.89
  -6 -12   6   85.49   32.32
 -12  -6  -6  127.62   49.51
 -12  -6   7  291.39   55.26
  -6 -12   7  300.40   56.49
 -12  -6  -7  370.72   82.74
 -12  -6  -8    5.29   15.26
  -6  12   8   53.03   37.44
 -12  -6   8   29.10   19.41
 -12   6   8   -4.74   14.42
  -6 -12   8    3.78   17.86
 -12  -6   8    5.05   26.52
  -6 -12  -8   33.03   13.23
 -12   6  -9  101.64   39.81
 -12   6   9   99.90   38.49
 -12  -6   9   89.76   40.37
 -12  -6  -9   55.49   24.19
  -6 -12  -9   27.36   22.24
  -6 -12   9   81.19   38.90
  -6  12   9   88.78   45.18
 -12  -6   9   56.19   21.61
 -12  -6 -10   14.82   17.71
  -6 -12  10   90.73   42.37
 -12   6  10   25.85   28.94
  -6  12  10   79.52   39.92
 -12   6 -10   -0.26   23.80
 -12  -6  10   37.88   32.15
 -12  -6  10   66.35   33.76
 -12   6  11  343.03   66.80
 -12  -6  11  255.78   63.20
  -6  12  11  311.06   68.39
  -6 -12  11  203.83   55.75
 -12  -6 -11  250.36   58.98
 -12  -6  11  270.09   62.87
 -12   6  12   25.77   31.54
  -6  12  12   21.55   16.79
 -12  -6  12   -6.09   15.34
 -12   6  13  -29.30   25.17
  -6  12  13   53.78   31.43
 -12  -6  13   90.98   39.56
 -12   6  14    9.65   18.74
  -6  12  14   29.40   24.66
   6  12  14   60.38   33.53
 -12   6  15  129.13   47.12
  -6  12  15  190.17   56.40
   6  12  15  309.11   64.29
 -12   6  16    7.11   23.97
   6  12  16   59.35   27.39
  -6  12  16   15.21   17.56
  -6  12  17  161.59   49.88
   6  12  17  175.81   37.98
 -12   6  17  152.82   49.74
  -6  12  18   -3.19   18.40
 -12   6  18   -3.91   11.08
 -12   6  19    7.09    9.04
  -6  12  19  -10.60   13.94
  -6  12  20    5.66    6.64
 -12   6  20    6.29    9.97
  -7 -12   0 1249.63   92.91
 -12  -7   0 1217.69  106.85
 -12  -7   1   67.18   25.24
 -12   7   1   14.61   30.53
 -12  -7  -1  -56.07   26.22
  -7 -12   1   -2.67    7.85
  -7 -12   2  217.40   39.67
 -12  -7  -2  205.73   43.20
 -12   7   2  294.35   56.41
 -12  -7   2  195.69   42.40
 -12  -7  -3  -17.91   24.92
 -12   7   3   12.94   17.43
 -12  -7   3   -4.26   19.16
  -7 -12   3   -3.77   12.25
 -12  -7  -4  309.71   63.40
  -7 -12   4  377.03   58.73
 -12  -7   4  340.60   54.73
 -12  -7  -5   52.25   38.24
 -12  -7   5   11.36   19.23
  -7 -12   5   28.17   18.63
 -12  -7  -6  821.15  115.45
 -12  -7   6  588.09   80.06
  -7 -12   6  587.83   81.14
 -12  -7  -7  -19.74   25.85
  -7 -12   7    9.24   13.17
 -12  -7   7   -4.70   13.29
  -7 -12  -7    1.96   23.78
 -12  -7  -7   52.27   40.99
 -12  -7  -8    3.72   19.54
  -7  12   8   55.39   35.77
  -7 -12   8  -14.72   18.93
 -12  -7   8    9.81   18.67
 -12   7   8    3.29   15.39
  -7 -12  -8  -29.86   22.55
 -12  -7  -8   18.70   26.60
 -12   7   9   38.36   30.82
  -7  12   9    4.21   20.15
  -7 -12  -9  -23.95   28.20
  -7 -12   9  -27.49   27.10
 -12  -7   9   10.27   11.80
 -12  -7  -9   21.83   28.38
 -12  -7  -9  -29.15   25.45
  -7 -12  10  224.64   57.76
 -12  -7 -10  431.57   77.43
  -7  12  10  409.55   71.32
 -12   7  10  429.52   76.94
 -12   7 -10  252.44   59.31
  -7 -12 -10  206.25   55.30
 -12  -7  10  275.17   61.39
 -12  -7  11   31.55   28.90
 -12   7  11   45.99   23.38
  -7  12  11   67.32   35.26
  -7 -12  11   33.85   33.84
 -12  -7 -11   67.06   26.86
 -12   7  12  418.84   77.14
  -7  12  12  307.98   64.78
  -7  12  13   38.62   20.67
 -12   7  13   52.26   33.86
 -12   7  14   31.77   15.82
  -7  12  14   53.11   37.57
   7  12  14   42.01   29.65
  -7  12  15   13.14   20.15
 -12   7  15  -17.88   20.33
 -12   7  16  140.07   48.63
  -7  12  16  100.25   43.94
   7  12  16  158.21   37.32
 -12   7  17   -2.63   14.23
  -7  12  17   19.23   26.88
  -7  12  18   50.81   24.72
 -12   7  18    2.80   10.68
  -7  12  19  -14.81   14.81
 -12   7  19  -26.26   21.25
 -12   7  20   39.18   24.55
  -7  12  20   32.22   18.85
  -8 -12   0   27.24   16.34
 -12  -8   0   36.58   22.25
 -12   8   0   90.27   31.85
  -8 -12   1 1009.17   89.68
 -12   8   1  957.80  103.45
 -12  -8  -1  967.34  100.34
 -12  -8   1 1103.09  101.00
  -8 -12  -1  997.65   85.90
  -8 -12   2    4.90    9.10
 -12  -8   2   10.20   16.55
 -12  -8  -2   25.33   16.10
 -12  -8  -3  -17.04   22.01
  -8 -12   3    0.37   11.18
 -12  -8   3    7.38   18.17
 -12  -8  -4   -9.18   14.15
  -8 -12   4  -14.20   14.69
 -12  -8   4  -43.23   26.89
 -12  -8   5  387.60   63.03
 -12  -8  -5  436.24   80.14
  -8 -12   5  299.42   56.07
 -12  -8  -6   30.38   31.46
  -8 -12   6   42.25   26.91
 -12  -8  -6  -15.89   24.82
  -8 -12  -6   15.67   31.46
 -12  -8   6  -16.75   13.92
 -12   8   7  120.94   38.93
  -8 -12   7  128.31   42.35
  -8  12   7  111.60   37.68
 -12  -8   7  129.50   44.62
  -8 -12  -7  129.57   50.74
 -12  -8  -7  161.20   62.21
 -12  -8  -7  153.95   48.94
 -12  -8   8   -3.15   14.34
  -8 -12   8   63.96   33.10
  -8  12   8   19.45   20.24
 -12   8   8   19.10   28.64
  -8 -12  -8   14.41   17.48
 -12  -8  -8   48.69   34.03
 -12   8   9   97.51   38.24
  -8  12   9  127.82   48.22
  -8 -12   9   86.24   30.19
  -8 -12  -9   99.56   40.40
 -12  -8   9  100.62   36.83
 -12  -8  -9  139.40   46.66
  -8  12  10    0.81   16.12
 -12  -8  10   44.68   25.00
 -12   8  10   10.80   18.68
  -8 -12 -10   41.92   31.75
  -8 -12  10   24.05   20.48
 -12  -8 -10   48.71   25.18
 -12   8 -10    4.57   18.82
 -12  -8 -11  450.42   78.60
  -8  12  11  553.57   89.67
 -12   8  11  632.93   90.72
 -12   8  12   -3.33   22.51
  -8  12  12   -3.89   23.69
 -12   8  13   34.19   22.83
  -8  12  13  143.36   46.82
 -12   8  14  -27.31   20.33
  -8  12  14   30.36   26.59
   8  12  14    3.58   20.97
  -8  12  15   41.26   32.74
   8  12  15   50.25   28.87
 -12   8  15   61.26   38.00
  -8  12  16   26.29   33.12
 -12   8  16   20.74   27.21
 -12   8  17   35.85   26.68
  -8  12  17   13.42   26.40
 -12   8  18    6.45   14.74
  -8  12  18  -14.87   20.03
 -12   8  19   -0.57    8.85
  -8  12  19   -0.67    8.94
  -8  12  20   -0.40    6.30
 -12   8  20   15.79   11.94
  -9 -12   0  943.29   89.93
 -12  -9   0  975.58   98.78
 -12  -9  -1  113.20   30.08
  -9 -12   1   92.94   28.18
 -12  -9   1   67.07   27.74
 -12   9  -1  107.05   39.90
  -9 -12  -1  109.95   31.03
  -9 -12   2  431.42   61.49
 -12  -9  -2  378.02   63.23
 -12  -9   2  354.51   56.70
 -12  -9  -3   -0.04   14.71
  -9 -12   3    2.48   12.40
 -12  -9   3  -12.45   23.44
 -12  -9   4  -20.69   18.87
 -12  -9  -4   -2.75   27.11
  -9 -12   4   12.64   10.67
  -9 -12   5   30.22   21.96
 -12  -9  -5  -36.61   26.53
 -12  -9   5   14.88   16.09
 -12  -9  -5   -3.77   18.33
 -12  -9  -6  159.22   47.18
 -12  -9   6  157.09   41.71
  -9 -12  -6  189.10   61.63
  -9 -12   6   94.73   28.71
 -12  -9  -6  220.06   56.24
  -9 -12   7   51.71   32.27
 -12   9   7   71.83   24.15
  -9  12   7   28.91   17.76
  -9 -12  -7   77.85   34.52
 -12  -9  -7   82.81   36.93
 -12  -9   7   -1.43   20.76
  -9 -12   8   24.74   23.46
  -9  12   8   -6.56   25.80
 -12   9   8   57.58   30.56
 -12  -9   8   15.25   24.92
  -9 -12  -8    9.14   12.66
 -12  -9  -8   48.35   33.67
 -12   9   9   47.61   30.22
  -9  12   9   12.60   13.42
  -9 -12   9   53.75   22.77
  -9 -12  -9   -2.18   16.63
 -12  -9  -9   13.02   22.07
 -12  -9   9   -5.14   28.62
 -12   9  10  338.11   67.78
  -9  12  10  400.08   72.70
 -12  -9  10  250.61   65.54
 -12  -9 -10  252.91   62.51
  -9 -12 -10  339.60   69.52
  -9 -12  10  382.14   77.84
 -12   9  11  -34.09   29.09
  -9 -12 -11   -6.77   14.64
  -9  12  11   19.22   20.81
 -12  -9 -11   50.44   25.93
 -12   9  12  337.16   66.15
  -9  12  12  325.22   66.05
 -12   9  13  108.60   42.94
  -9  12  13   15.93   27.21
 -12   9  14  -40.93   20.55
   9  12  14  -16.84   16.62
  -9  12  14    1.07   15.35
 -12   9  15    5.22   22.71
  -9  12  15  -12.35   15.33
 -12   9  16   17.50   18.20
  -9  12  16   26.43   28.02
  -9  12  17    4.13   12.27
 -12   9  17    4.58   20.71
  -9  12  18   -4.06   10.82
 -12   9  18   -7.51   15.51
 -12   9  19    0.99    8.22
  -9  12  19    0.47   10.51
 -12 -10   0  130.24   34.50
 -10 -12   0  165.86   40.28
 -12 -10  -1  345.70   59.82
 -12 -10   1  394.18   64.50
 -10 -12  -1  403.34   60.73
 -10 -12   1  391.02   61.57
 -10 -12   2   94.55   32.97
 -12 -10  -2   45.60   26.29
 -12 -10   2   51.15   20.91
 -10 -12   3   26.61   20.63
 -12 -10  -3  -12.23   17.14
 -12 -10   3   34.15   17.17
 -10 -12  -3    2.55   24.88
 -12 -10  -3   47.50   31.48
 -12 -10   4   -4.31   16.46
 -10 -12   4    5.07   20.89
 -10 -12  -4   11.56   15.23
 -12 -10  -4   17.63   19.37
 -12 -10  -4  -16.51   31.67
 -12 -10   5   23.73   19.27
 -10 -12   5   42.64   26.03
 -10 -12  -5    3.40   22.63
 -12 -10  -5   51.66   33.10
 -12 -10   6  -10.40   26.14
 -10 -12  -6  -24.81   28.43
 -10 -12   6   11.34   20.85
 -12 -10  -6   26.58   33.55
 -10 -12   7   26.12   22.98
 -10  12   7   20.18   11.72
 -12 -10   7   12.24   21.28
 -10 -12  -7   27.07   14.22
 -10 -12   8    1.34   15.20
 -12  10   8   46.53   25.87
 -10  12   8    3.70   20.56
 -10 -12  -8   45.21   32.83
 -12 -10   8   -1.09   22.69
 -12 -10  -8   13.69   21.36
 -10  12   9  114.00   36.10
 -10 -12   9   -0.27   20.84
 -12 -10   9   88.07   39.60
 -12  10   9  100.77   39.64
 -10 -12  -9   45.09   24.12
 -12 -10  -9   49.59   33.84
 -12  10  10   90.04   38.30
 -10  12  10   62.67   31.71
 -10 -12 -10   58.70   35.40
 -12 -10 -10   42.27   20.63
 -12  10  11  136.13   49.09
 -10  12  11  180.15   58.72
 -10 -12 -11  117.42   44.62
 -12 -10 -11  183.48   53.67
 -12  10  12   78.96   36.42
 -10  12  12   63.37   38.36
 -12 -10 -12   97.82   36.24
 -12  10  13   36.91   28.11
 -10  12  13   52.94   32.56
 -10  12  14    8.58   19.72
 -12  10  14  -26.10   18.39
 -10  12  15   -0.03   19.33
 -12  10  15  -13.40   23.17
 -12  10  16    9.23   18.56
 -10  12  16   -6.69   13.47
 -10  12  17  -13.19   17.90
 -12  10  17    5.40    9.96
 -12  10  18   -2.69   12.76
 -10  12  18    3.13   14.60
 -12  10  19   10.89   11.30
 -10  12  19    5.32   12.10
 -12 -11   0  108.75   34.24
 -11 -12   0   65.32   30.04
 -12 -11   0   69.27   31.55
 -11 -12   0   55.62   21.54
 -11 -12   1  112.75   33.07
 -12 -11  -1  168.05   40.14
 -11 -12  -1   67.13   35.12
 -11 -12  -1  142.17   38.93
 -12 -11  -1  168.72   53.70
 -12 -11   1   81.73   29.37
 -11 -12   2    9.05   19.02
 -12 -11  -2   25.75   14.55
 -11 -12  -2  -26.70   29.72
 -12 -11  -2  -31.53   14.40
 -12 -11   2    1.09   14.64
 -12 -11   3  -27.73   25.52
 -11 -12   3    7.01   17.99
 -12 -11  -3   15.81   23.76
 -11 -12  -3   -6.77   25.56
 -12 -11  -3  -19.08   17.56
 -12 -11  -4  -48.48   38.61
 -12 -11   4    8.47   16.92
 -11 -12   4  -25.83   18.56
 -11 -12  -4  -19.09   28.14
 -11 -12   5  196.38   51.33
 -12 -11   5  153.95   42.11
 -12 -11  -5  183.33   56.78
 -11 -12  -5  130.07   48.26
 -12 -11   6   31.04   16.85
 -11 -12   6   36.12   25.66
 -11 -12  -6  -13.68   23.99
 -12 -11  -6   -6.54   20.45
 -12 -11  -7   38.48   35.92
 -12 -11   7   27.14   25.19
 -11 -12  -7   96.36   42.79
 -11 -12   7   49.23   30.56
 -11 -12  -8   -1.96   23.51
 -11  12   8   17.64   23.10
 -11 -12   8   28.88   20.78
 -12 -11  -8   40.11   40.49
 -12 -11   8  -35.96   28.22
 -12  11   8   29.81   23.02
 -12 -11   9   38.13   25.79
 -11  12   9  -20.84   28.30
 -11 -12   9    8.32   11.66
 -12  11   9   -4.95   18.62
 -11 -12  -9   40.73   25.67
 -12 -11  -9   34.33   32.12
 -12  11  10   81.22   34.82
 -11  12  10   24.37   20.83
 -11 -12 -10   33.54   22.20
 -12 -11 -10   54.42   35.48
 -12  11  11  140.66   46.53
 -11 -12 -11  124.24   44.32
 -12 -11 -11   67.88   33.53
 -12  11 -11   71.25   33.20
 -11  12  11   83.67   30.46
 -12 -11 -12    9.57   29.49
 -11  12  12   18.06   27.02
 -12  11  12   48.54   30.16
 -12  11  13   -0.57   21.02
 -11  12  13   17.47   19.10
 -12  11  14    5.61   21.18
 -11  12  14  -15.56   16.98
 -11  12  15   71.69   32.90
 -12  11  15   36.99   27.20
 -12  11  16   -3.41   18.28
 -11  12  16    2.32   11.43
 -12  11  17   10.80   19.41
 -11  12  17   32.30   22.99
 -12  11  18   -0.27   13.21
 -11  12  18   -6.91   15.38
 -12  11  19  -11.48   13.20
 -11  12  19    8.95   12.15
 -12 -12   0  124.32   47.22
 -12 -12   0  121.11   38.96
 -12 -12   1  -13.40   27.58
 -12 -12   1    2.82   10.57
 -12 -12  -1   -9.05   20.87
 -12 -12  -1  -27.06   18.51
 -12 -12   2    8.50   15.35
 -12 -12   2   48.52   38.01
 -12 -12  -2   53.80   38.47
 -12 -12   3   -9.05   19.77
 -12 -12   3    8.53   14.28
 -12 -12  -3   15.97   27.08
 -12 -12   4  137.55   46.03
 -12 -12  -4  143.58   47.24
 -12 -12   5  -39.02   29.20
 -12 -12  -5  -11.99   16.54
 -12 -12   6  392.77   74.72
 -12 -12  -6  457.29   85.20
 -12 -12  -7   -4.54   19.24
 -12 -12   7   -4.49   20.41
 -12 -12   8   18.87   20.41
 -12  12   8   41.67   17.40
 -12 -12  -8   57.76   34.91
 -12 -12  -9   23.99   17.13
 -12  12   9   -2.83   16.21
 -12  12  10   83.50   33.72
 -12 -12 -10   71.65   35.75
 -12  12  11    4.31   20.72
 -12  12 -11   -4.01   14.02
 -12 -12 -12   59.65   32.79
 -12  12  12   30.94   15.38
 -12  12  13  -10.82   23.88
 -12  12  14   36.15   22.30
 -12  12  15   -5.55   18.63
 -12  12  16  101.24   34.69
 -12  12  17   -5.32   12.68
 -12  12  18   36.05   15.20
 -13   0   0  435.91   72.77
 -13   0  -1 1563.28  142.62
 -13   0   1 1719.37  135.56
 -13   0  -2  760.50   99.20
 -13   0   2  720.29   84.75
 -13   0   3  -44.16   28.69
 -13   0   4  350.16   59.53
 -13   0   5 1612.27  121.59
 -13   0   6   26.65   21.56
 -13   0   7  386.88   61.98
 -13   0   8   63.51   28.04
 -13   0   8  130.02   43.24
 -13   0  -8  136.66   40.10
 -13   0   9  327.79   63.02
 -13   0  -9  311.42   59.30
 -13   0   9  325.29   57.96
 -13   0  10  506.33   83.32
 -13   0  10  548.81   82.74
 -13   0 -10  366.11   70.09
 -13   0 -11  602.02   85.74
 -13   0  11  898.31  113.25
 -13   0  11  677.56   99.57
 -13   0  12  375.60   70.74
   0  13  12  359.72   78.07
   0  13  13  272.59   68.06
 -13   0  13  134.21   43.43
 -13   0  14   -1.59   20.37
   0  13  14   52.77   31.91
   0  13  15  187.27   55.46
 -13   0  15  177.95   59.80
   0  13  16   25.61   34.72
 -13   0  16  -16.24   19.11
 -13   0  17  109.89   44.83
   0  13  17  132.29   49.93
   0  13  18    6.51   13.73
 -13   0  18   19.95   26.45
   0  13  19   14.03   15.13
 -13   0  19   -1.23   10.07
   0  13  20   10.07   11.89
 -13   1   0 1898.14  147.70
 -13  -1   0 1738.75  140.01
 -13  -1  -1  594.20   89.54
 -13   1   1  514.44   81.11
 -13  -1   1  559.21   77.44
 -13   1  -1  594.29   88.28
 -13  -1   2  337.82   57.17
 -13   1   2  378.21   58.84
 -13   1  -2  449.42   77.16
 -13  -1  -2  434.87   78.55
 -13   1   3  432.13   62.48
 -13  -1   3  444.91   65.98
  -1 -13   3  376.62   53.58
 -13  -1  -3  551.98   92.35
  -1 -13   4  545.49   64.37
 -13   1   4  491.11   68.84
 -13  -1   4  560.11   71.10
  -1 -13   5   22.95   13.77
 -13   1   5   36.24   20.61
 -13  -1   5  -10.45   13.95
  -1 -13   6 1278.40  109.78
 -13   1   6 1169.68  109.23
 -13  -1   6 1147.84  107.13
 -13   1   7  -22.25   31.53
 -13  -1   7   -3.41   20.32
  -1 -13   7  -14.04   18.72
 -13   1   8   21.21   20.21
 -13   1   8  -10.71   13.86
 -13  -1   8   37.65   24.52
 -13  -1  -8  -13.92   12.82
 -13   1  -8   24.37   13.56
 -13  -1   8  -14.28   26.16
 -13   1   9  263.72   57.66
 -13  -1  -9  212.89   52.07
 -13   1  -9  234.73   50.83
 -13  -1   9  279.10   60.40
 -13  -1   9  273.61   60.84
 -13   1   9  275.64   58.99
 -13   1 -10  595.17   83.72
 -13  -1  10  567.08   87.74
 -13   1  10  615.52   90.14
 -13  -1 -10  522.03   79.80
 -13  -1  10  760.07  101.46
 -13   1  10  688.50   96.77
 -13  -1  11  456.83   79.44
 -13  -1 -11  305.22   62.92
 -13   1 -11  324.59   59.91
 -13   1  11  412.25   75.33
 -13  -1  11  367.86   75.31
 -13  -1  12  313.88   71.34
  -1  13  12  567.15   97.40
 -13  -1  12  488.96   82.48
 -13   1  12  506.55   87.21
 -13   1  13  150.38   54.73
  -1  13  13  174.61   56.86
   1  13  13  221.63   64.31
 -13  -1  13  177.25   55.21
 -13  -1  14   55.64   34.49
  -1  13  14  140.75   53.74
 -13   1  14   32.75   35.44
   1  13  14   49.41   34.82
 -13  -1  15   30.58   32.82
  -1  13  15   19.11   29.82
   1  13  15   46.98   33.40
 -13   1  15   20.95   24.75
 -13  -1  16  283.21   68.30
 -13   1  16  250.82   65.48
   1  13  16  286.39   67.93
  -1  13  16  228.23   64.38
  -1  13  17   54.86   32.03
   1  13  17    4.10   18.68
 -13   1  17    9.35   11.89
 -13  -1  17   50.96   33.14
  -1  13  18   66.59   31.39
 -13   1  18   26.78   27.86
   1  13  18   28.98   28.20
 -13  -1  18   31.31   27.63
  -1  13  19    8.52   15.30
   1  13  19    3.74    9.90
 -13   1  19   20.84   20.64
  -1  13  20   21.32   16.02
 -13  -2   0  542.43   77.95
 -13   2   0  573.88   85.08
 -13  -2  -1  595.24   89.40
 -13   2   1  653.09   86.64
 -13  -2   1  614.91   81.30
 -13   2  -1  545.03   87.44
 -13   2   2  498.66   72.77
 -13  -2   2  359.75   59.92
 -13  -2  -2  501.98   82.39
 -13   2   3   24.23   13.26
 -13  -2   3   59.98   39.76
  -2 -13   3   59.44   21.16
 -13  -2  -3   43.20   45.58
  -2 -13   4   16.60   16.95
 -13   2   4   12.02   16.02
 -13  -2   4   24.81   23.37
  -2 -13   5 1540.13  114.80
 -13   2   5 1599.66  121.99
 -13  -2   5 1493.35  116.52
  -2 -13   6   62.43   21.24
 -13   2   6   42.79   13.00
 -13  -2   6   31.62   18.79
 -13   2   7  564.99   75.98
 -13  -2   7  539.36   74.24
  -2 -13   7  514.45   73.24
 -13  -2   8   13.33   29.12
 -13   2   8   81.29   29.30
 -13  -2  -8   62.88   31.30
 -13  -2   8   26.52   19.84
  -2 -13   8   47.53   31.57
 -13   2  -8   41.15   28.55
 -13   2   8   15.98   13.18
 -13  -2   9   87.57   37.09
 -13  -2  -9   64.89   31.56
  -2 -13   9  112.77   43.61
 -13   2   9  110.41   37.11
 -13   2  -9   55.31   27.46
 -13  -2   9  197.51   59.17
 -13   2   9  107.57   35.39
 -13  -2  10  239.44   58.69
 -13   2  10  294.32   60.35
 -13   2 -10  231.69   51.38
 -13  -2  10  182.20   44.30
 -13  -2 -10  201.86   46.72
 -13  -2 -11  390.05   65.55
 -13   2 -11  293.22   59.19
 -13  -2  11  399.49   76.17
 -13  -2  11  561.72   92.06
 -13   2  11  529.68   84.44
 -13   2  12  224.84   55.15
 -13  -2  12  166.20   50.50
  -2  13  12  247.44   65.71
 -13  -2  12  348.88   73.15
  -2  13  13   32.19   23.92
 -13   2  13   22.99   21.92
 -13  -2  13   34.16   26.25
   2  13  13   49.25   39.23
 -13   2  14  -20.51   23.98
  -2  13  14  -13.61   26.51
   2  13  14   -7.78   24.51
 -13  -2  14   44.83   33.92
 -13   2  15  243.47   68.48
  -2  13  15  327.43   74.81
   2  13  15  357.91   73.62
 -13  -2  15  202.77   60.63
 -13   2  16   29.71   31.43
  -2  13  16  -18.21   16.24
   2  13  16   73.21   35.26
 -13  -2  16   33.78   24.26
 -13   2  17  157.15   48.95
  -2  13  17  172.91   50.13
   2  13  17  196.50   50.27
 -13  -2  17  106.08   40.85
 -13   2  18   -9.11   13.80
  -2  13  18    1.00   11.58
   2  13  18   15.15   15.21
  -2  13  19   -0.02    9.34
   2  13  19    2.42   13.72
 -13   2  19   -3.34   14.79
  -2  13  20   14.49   11.29
 -13  -3   0  195.99   44.31
 -13   3   0  202.64   54.12
 -13   3  -1  642.27   96.88
 -13  -3  -1  674.97   85.15
 -13   3   1  695.04   95.87
 -13  -3   1  750.07   88.92
 -13   3   2  -17.09   25.45
 -13  -3   2  -19.08   21.33
 -13  -3  -2   -8.26   18.78
 -13   3   3  -12.93   16.82
 -13  -3   3   -1.62   24.46
  -3 -13   3   -4.76   17.77
 -13  -3  -3  -41.83   29.66
  -3 -13   4  648.11   71.25
 -13  -3  -4  884.52  122.82
 -13   3   4  685.34   83.54
 -13  -3   4  802.72   85.99
  -3 -13   5  481.84   66.47
 -13   3   5  425.10   65.96
 -13  -3   5  464.10   67.43
  -3 -13   6 1026.65  101.29
 -13   3   6 1175.69  105.48
 -13  -3   6 1026.81  103.07
 -13   3   7   21.10   27.44
 -13  -3   7   40.43   22.09
  -3 -13   7   12.57   14.97
 -13  -3   8  100.49   33.67
 -13   3   8   87.79   29.34
 -13  -3  -8  135.20   40.41
 -13   3  -8  126.20   44.02
  -3 -13   8  113.31   36.08
 -13   3   8  123.13   35.70
 -13  -3   8  112.78   38.81
 -13   3   9   78.07   34.23
 -13  -3  -9   99.93   34.88
 -13  -3   9   71.62   31.76
 -13   3  -9   30.52   20.19
 -13  -3   9  117.33   39.58
  -3 -13   9  112.68   49.60
  -3  13  10  216.25   59.81
 -13   3  10   61.68   29.12
 -13  -3  10  147.91   38.22
 -13   3 -10   77.47   30.26
  -3 -13  10  139.63   48.40
 -13  -3 -10   35.43   16.75
 -13  -3  10   67.72   25.62
 -13  -3 -11  184.01   51.57
  -3  13  11  385.76   81.50
 -13   3 -11  170.19   44.85
 -13   3  11  272.58   62.11
 -13  -3  11  249.18   67.01
 -13  -3  11  219.99   54.52
 -13  -3  12   36.57   33.20
 -13   3  12   85.39   38.87
  -3  13  12  103.50   37.17
 -13  -3  13    3.60   16.73
  -3  13  13    2.42   21.06
 -13   3  13   44.36   27.26
 -13   3  14  163.62   55.38
  -3  13  14  200.34   63.31
   3  13  14  350.40   75.08
 -13  -3  14  159.59   52.59
 -13   3  15   42.42   28.90
 -13  -3  15   -1.67   15.72
  -3  13  15  105.11   48.84
   3  13  15  142.32   57.48
 -13   3  16  277.38   65.68
  -3  13  16  268.59   66.66
   3  13  16  392.19   74.17
 -13  -3  16  189.44   59.58
  -3  13  17   55.65   35.47
   3  13  17   37.43   26.01
 -13  -3  17   43.90   33.02
 -13   3  17   -7.39   15.86
   3  13  18   36.25   25.00
  -3  13  18   61.88   33.94
 -13   3  18   39.23   29.86
  -3  13  19   11.65   18.63
   3  13  19   -1.82   11.65
 -13   3  19   10.92   18.52
  -3  13  20    0.97    7.24
 -13   3  20  -26.52   15.35
 -13   4   0 1098.34  115.50
 -13  -4   0 1101.84  108.01
 -13  -4  -1  112.10   58.86
 -13   4   1   34.12   32.36
 -13  -4   1   -9.93   24.93
 -13   4  -1   37.93   41.92
 -13   4   2   61.17   28.98
 -13  -4  -2  113.37   36.51
  -4 -13   2   73.77   21.24
 -13  -4   2   26.16   13.58
  -4 -13   3  294.96   45.83
 -13   4   3  238.09   45.32
 -13  -4   3  298.91   53.16
 -13  -4  -3  359.26   74.81
 -13   4   4  636.51   78.54
 -13  -4   4  464.43   66.98
  -4 -13   4  499.26   63.75
 -13  -4  -4  567.28   97.92
 -13  -4  -5 1187.89  142.72
  -4 -13   5 1204.04  104.68
 -13   4   5 1216.77  106.26
 -13  -4   5 1115.56  104.29
  -4 -13   6  590.25   77.80
 -13   4   6  596.57   74.55
 -13  -4   6  555.80   74.72
 -13   4   7  474.56   63.99
  -4 -13   7  510.09   76.03
 -13  -4   7  487.21   73.42
 -13  -4   7  472.45   74.38
 -13  -4   8    4.62   18.14
 -13   4   8  -14.15   19.23
  -4 -13   8   18.24   21.72
 -13  -4  -8   31.32   19.06
 -13   4  -8   12.57   11.65
  -4 -13  -8    7.74   21.79
 -13  -4   8   -0.04   15.31
 -13  -4   9   30.33   25.25
 -13  -4  -9   23.20   20.18
 -13   4  -9  -20.85   19.40
 -13  -4   9    8.69   21.21
 -13   4   9    2.71   15.10
  -4 -13   9  -17.33   12.46
 -13  -4  10  289.71   65.50
 -13  -4 -10  160.14   47.85
 -13   4  10  248.95   52.75
  -4  13  10  262.29   63.33
 -13   4 -10  218.88   52.86
  -4 -13  10  266.83   65.62
 -13  -4  10  169.44   50.54
 -13  -4  11   -1.00   15.85
 -13   4 -11   29.38   20.31
  -4  13  11   -1.22   27.75
 -13   4  11    4.39   21.74
 -13  -4 -11   -7.93   18.07
 -13  -4  11   28.33   25.01
  -4 -13  11   13.71   25.91
 -13  -4  12  110.37   44.69
 -13   4  12   50.92   18.77
 -13   4  13   28.82   25.31
  -4  13  13   15.28   29.81
 -13  -4  13   48.03   32.76
 -13  -4  14   57.78   37.88
  -4  13  14   78.06   41.82
   4  13  14   63.80   36.11
 -13   4  14   57.64   24.70
  -4  13  15  184.46   57.38
   4  13  15  269.22   66.35
 -13   4  15  141.43   55.33
 -13  -4  15  197.53   60.34
 -13   4  16  101.06   40.44
  -4  13  16  152.56   52.77
   4  13  16  224.04   53.41
 -13  -4  16  172.79   51.48
 -13   4  17  112.58   40.96
  -4  13  17  124.28   44.99
   4  13  17  108.58   36.80
 -13   4  18   25.07   24.99
   4  13  18   56.76   21.38
 -13   4  19  -12.09   19.98
  -4  13  19   -2.29   10.00
  -4  13  20    6.57    7.67
 -13   4  20   47.68   20.75
 -13  -5   0   18.93   14.24
 -13   5   0  127.77   50.64
 -13   5  -1  639.21  100.15
 -13   5   1  757.51   94.19
 -13  -5  -1  752.83   95.23
 -13  -5   1  711.41   83.75
 -13   5   2  105.32   41.60
 -13  -5  -2  173.71   47.45
 -13  -5   2  165.83   42.34
  -5 -13   2  139.28   32.38
  -5 -13   3  192.67   39.83
 -13   5   3  158.06   40.85
 -13  -5   3  194.28   42.74
 -13  -5  -3  156.19   43.27
  -5 -13   4  488.66   63.56
 -13   5   4  532.84   71.78
 -13  -5   4  469.62   68.88
 -13  -5  -4  531.32   93.30
 -13  -5  -5 1115.19  138.00
 -13   5   5 1236.75  106.08
  -5 -13   5 1169.70  104.22
 -13  -5   5 1165.62  107.91
 -13  -5   6  589.37   77.46
 -13  -5  -6  610.19  106.21
  -5 -13   6  523.03   77.05
 -13  -5   7  276.05   57.85
 -13   5  -7  326.60   65.17
 -13  -5  -7  396.89   93.10
  -5 -13   7  254.81   56.11
 -13  -5  -7  277.08   54.24
 -13  -5   7  191.10   49.04
 -13  -5   8  148.34   42.57
 -13  -5  -8  110.31   36.44
  -5  13   8  214.62   60.76
  -5 -13  -8   81.29   40.61
 -13   5  -8   61.48   35.17
 -13   5   8   57.03   27.47
 -13  -5   8  145.11   46.29
  -5 -13   8   52.46   28.14
 -13  -5   9  175.08   51.08
  -5 -13   9  171.08   50.69
  -5 -13  -9  114.34   45.89
  -5  13   9  162.85   53.21
 -13   5   9   95.99   31.09
 -13  -5  -9   77.85   28.66
 -13  -5   9   85.06   34.47
 -13   5  -9  127.65   42.41
  -5 -13  10    1.75   24.81
 -13  -5 -10   -5.66   13.29
  -5  13  10  -21.60   21.91
 -13   5  10  -23.79   26.22
 -13   5 -10   10.41   21.15
 -13  -5  10   51.59   28.64
 -13  -5  10   36.41   26.94
 -13  -5  11  278.13   67.36
 -13  -5 -11  108.22   37.28
 -13   5  11  257.05   57.17
  -5 -13  11  164.92   58.19
  -5  13  11  340.13   73.46
 -13   5 -11  183.99   47.25
 -13  -5  11  136.50   42.60
 -13   5  12   37.98   25.55
  -5  13  12   69.75   41.03
 -13  -5  12   15.33   18.84
 -13   5  13    9.22   20.49
  -5  13  13   77.03   40.05
 -13  -5  13   50.52   37.03
 -13   5  14  161.53   49.22
   5  13  14  185.48   52.68
  -5  13  14  141.44   45.79
 -13  -5  14  102.94   45.19
 -13   5  15  208.27   58.12
  -5  13  15  136.76   50.26
   5  13  15  170.65   54.59
 -13   5  16   73.24   34.87
  -5  13  16   57.18   35.83
   5  13  16  145.65   45.14
 -13   5  17  127.55   42.07
  -5  13  17  127.24   40.33
   5  13  17  153.04   39.04
   5  13  18   21.89   11.37
 -13   5  18   39.24   30.74
  -5  13  18   54.48   30.25
 -13   5  19   -7.56    8.74
  -5  13  19   -7.93   12.05
  -5  13  20    2.30    6.51
 -13   5  20    1.54    9.44
 -13   6   0 1372.06  132.58
 -13  -6   0 1286.62  117.58
 -13   6   1   63.37   37.44
 -13  -6  -1    6.87   27.50
 -13  -6   1   61.33   24.89
 -13   6  -1    2.67   23.90
 -13  -6  -2  175.35   40.14
 -13   6   2  207.71   49.86
 -13  -6   2  157.60   44.34
  -6 -13   2  177.09   37.06
 -13   6   3  228.96   47.33
 -13  -6  -3  225.79   53.21
 -13  -6   3  230.78   48.83
  -6 -13   3  266.26   50.38
  -6 -13   4  647.05   77.96
 -13  -6  -4  716.11  102.11
 -13   6   4  677.61   79.98
 -13  -6   4  579.51   73.77
  -6 -13   5  407.69   65.80
 -13  -6  -5  445.26   82.12
 -13  -6   5  438.03   65.54
 -13  -6  -6  855.13  105.45
 -13  -6   6  732.37   96.66
 -13  -6  -6  705.49  110.92
  -6 -13   6  735.54   89.56
 -13  -6  -7   96.39   34.83
 -13   6   7  102.41   34.36
 -13  -6   7  138.22   40.78
  -6 -13   7   67.57   27.78
  -6  13   7  101.40   37.36
  -6 -13  -7  136.60   42.67
 -13  -6  -7   76.61   48.18
 -13  -6   8  -30.83   28.91
 -13  -6  -8  -59.75   33.27
 -13   6   8   52.75   34.30
 -13  -6   8   30.92   28.22
  -6  13   8  125.89   42.49
  -6 -13  -8    3.82   25.04
 -13   6  -8    3.66   13.23
 -13  -6  -8   66.43   46.89
  -6 -13   8   27.32   25.85
  -6 -13   9   31.87   34.40
 -13  -6   9   18.82   16.72
 -13   6  -9    5.69   26.68
  -6 -13  -9   44.31   33.41
 -13  -6  -9  -21.42   23.89
  -6  13   9    0.84   30.62
 -13  -6   9   23.56   23.91
 -13  -6  -9   54.63   43.44
 -13   6   9   17.03   25.93
 -13   6  10  320.87   66.25
  -6  13  10  401.52   79.05
 -13   6 -10  228.07   52.44
  -6 -13  10  201.67   52.79
 -13  -6 -10  216.22   75.94
 -13  -6  10  229.42   60.32
 -13  -6  10  260.53   64.54
 -13  -6 -10  240.50   56.00
 -13  -6  11   99.78   44.27
 -13   6  11   44.86   26.74
  -6 -13  11   36.27   25.33
  -6  13  11    9.54   24.94
 -13   6 -11   -8.62   20.51
 -13  -6  11   59.83   37.32
 -13  -6 -11   87.68   34.27
 -13   6  12  271.56   61.85
  -6  13  12  328.15   71.00
 -13  -6  12  328.41   71.25
 -13  -6 -12  250.95   55.83
 -13   6  13   -9.07   29.82
  -6  13  13   29.42   19.70
  -6  13  14    4.74   16.75
 -13   6  14   17.98   19.85
   6  13  14   53.03   31.75
  -6  13  15   32.77   26.26
 -13   6  15   39.12   27.65
   6  13  15  103.77   38.99
 -13   6  16  120.09   48.29
  -6  13  16  203.09   55.01
 -13   6  17   45.99   25.37
  -6  13  17   -3.62   12.70
   6  13  17   16.76   15.10
 -13   6  18   54.50   31.09
  -6  13  18   20.27   22.35
 -13   6  19   -1.68   11.13
  -6  13  19   14.94   10.33
  -6  13  20   25.19   14.15
 -13   6  20   27.18   17.29
 -13  -7   0  -16.03   22.71
 -13   7   0    4.62   30.02
  -7 -13   1 1057.16   90.68
 -13   7  -1 1011.95  123.78
 -13   7   1 1097.57  115.88
 -13  -7  -1 1080.28  110.55
 -13  -7   1 1096.16  103.46
 -13   7   2   65.78   30.83
 -13  -7  -2   56.55   21.98
 -13  -7   2   41.03   24.56
  -7 -13   2   77.25   28.24
 -13  -7   3   21.06   14.26
  -7 -13   3  -11.80   12.24
 -13  -7  -4  139.23   47.56
 -13  -7   4   80.10   26.34
  -7 -13   4  183.28   44.54
 -13  -7  -5  755.51  101.37
  -7 -13   5  855.53   95.76
 -13  -7  -5  805.57  110.49
 -13  -7   5  751.76   87.72
 -13  -7   6   62.80   23.28
 -13  -7  -6   48.57   22.50
 -13  -7  -6   83.65   48.08
  -7 -13   6   69.26   25.22
  -7 -13  -6   60.79   30.89
 -13   7   7  100.45   34.02
 -13  -7   7  133.47   47.22
  -7  13   7  138.61   44.84
  -7 -13   7  134.76   35.95
  -7 -13  -7  112.12   45.91
 -13  -7  -7  126.95   38.12
 -13  -7  -7  169.76   60.97
 -13  -7  -8   27.71   23.26
 -13   7   8   -7.91   18.63
  -7  13   8   12.01   30.88
 -13  -7   8   52.39   25.51
  -7 -13  -8   -2.64   19.27
  -7 -13   8  -20.78   29.55
 -13  -7  -8   80.56   49.90
 -13   7   9  117.62   35.89
  -7 -13  -9  123.42   43.96
  -7  13   9  190.23   56.51
 -13   7  -9  150.20   48.32
 -13  -7   9   92.89   37.08
  -7 -13   9   54.61   30.18
 -13  -7  -9  119.82   56.72
 -13  -7  -9   89.42   35.09
 -13   7 -10   19.16   15.52
 -13   7  10   -3.12   21.11
  -7 -13  10   46.49   33.21
  -7  13  10   41.57   29.09
  -7 -13 -10   66.83   36.04
 -13  -7 -10   -8.91   16.15
 -13  -7  10   68.50   35.45
 -13   7  11  675.77   94.94
 -13  -7 -11  652.28   92.89
 -13   7 -11  528.55   84.29
  -7  13  11  725.86  106.14
 -13   7  12  -10.46   22.65
 -13  -7 -12    6.96   20.81
 -13   7  13  116.96   41.52
  -7  13  13  103.64   42.21
 -13   7  14    9.94   20.86
  -7  13  14   41.72   18.32
 -13   7  15   26.70   28.54
  -7  13  15   59.53   43.57
   7  13  15  115.75   41.34
   7  13  16   38.81   27.55
 -13   7  16   -1.49   17.68
  -7  13  16   48.74   33.98
  -7  13  17   61.23   35.82
 -13   7  17   87.19   37.76
 -13   7  18    2.68   14.76
  -7  13  18   13.66   16.81
 -13   7  19    5.86   14.56
  -7  13  19    3.53   15.54
 -13   8   0 1381.07  138.12
 -13  -8   0 1536.39  128.34
  -8 -13   1   20.76    9.81
 -13  -8  -1  -13.50   32.79
 -13   8   1   21.46   25.56
 -13  -8   1    9.99   10.79
 -13   8  -1   15.52   22.77
  -8 -13   2  419.73   61.79
 -13  -8  -2  450.72   72.47
 -13  -8   2  506.07   71.85
 -13  -8  -3  -19.34   31.22
  -8 -13   3    7.70   20.66
 -13  -8   3   59.21   25.14
 -13  -8  -4   68.51   20.43
 -13  -8  -4   99.90   32.00
  -8 -13  -4   84.20   36.02
  -8 -13   4   78.75   30.43
 -13  -8   4   68.03   28.79
 -13  -8  -5   90.43   32.80
  -8 -13   5  138.58   43.58
 -13  -8   5   73.05   24.57
 -13  -8  -5   75.60   34.97
  -8 -13  -5  115.14   50.03
 -13  -8  -6  259.54   60.33
  -8 -13   6  195.71   53.63
 -13  -8   6  230.36   52.52
  -8  13   6  236.08   51.89
 -13  -8  -6  187.71   51.71
  -8 -13  -6  321.70   72.08
 -13  -8  -7   22.67   32.71
  -8 -13   7  -47.02   20.13
 -13  -8   7   22.36   24.20
  -8  13   7  -10.14   19.15
 -13  -8  -7   -0.96   19.79
 -13   8   8  -39.99   23.15
  -8  13   8  -17.80   21.03
  -8 -13   8   -1.19   13.70
 -13  -8   8   62.58   30.11
  -8 -13  -8   33.28   26.39
 -13  -8  -8  -14.26   24.04
 -13   8  -9   30.60   30.82
 -13   8   9   51.86   29.72
  -8  13   9    6.78   24.65
  -8 -13  -9  -32.86   24.53
  -8 -13   9   15.46   11.02
 -13  -8   9  -37.45   30.83
 -13  -8  -9   30.23   31.62
  -8 -13  10  405.06   82.20
 -13   8 -10  422.06   77.81
 -13  -8  10  459.16   82.84
  -8 -13 -10  542.58   92.40
 -13  -8 -10  566.02   89.13
 -13   8  10  567.65   82.92
  -8  13  10  616.22   93.30
 -13   8  11   22.07   23.61
  -8  13  11   44.34   20.16
 -13   8 -11   19.64   17.26
 -13  -8 -11    4.09   20.13
 -13   8  12  422.67   76.11
  -8  13  12  419.21   78.36
 -13  -8 -12  308.18   66.20
  -8  13  13    2.80   16.91
 -13   8  13  -29.33   14.41
   8  13  14   28.99   28.88
 -13   8  14   14.36   18.42
  -8  13  14   34.39   37.89
 -13   8  15    5.15   12.09
  -8  13  15    1.39   15.56
  -8  13  16   33.68   30.36
 -13   8  16   20.52   24.22
 -13   8  17    5.56   14.28
  -8  13  17   -5.56   13.35
 -13   8  18    0.05   12.11
  -8  13  18    3.25   12.39
  -8  13  19   20.76   15.31
 -13   8  19    8.06   12.26
 -13  -9   0   67.45   26.46
  -9 -13   1  804.40   88.55
 -13   9  -1  733.87  104.66
 -13  -9  -1  844.36   97.56
 -13  -9   1  854.20   95.64
 -13  -9  -2   -2.52   26.40
  -9 -13   2  -26.84   18.19
 -13  -9   2   10.97   14.19
 -13  -9  -3    4.55   31.78
  -9 -13   3   74.56   28.73
 -13  -9   3   23.90   14.87
 -13  -9  -3   84.42   33.09
 -13  -9   4    8.52   14.93
  -9 -13  -4   91.34   39.62
 -13  -9  -4  -42.13   31.23
  -9 -13   4   43.08   22.02
 -13  -9  -4  112.96   41.46
 -13  -9   5   96.81   32.91
 -13  -9  -5   59.16   23.07
  -9 -13  -5  133.87   50.29
  -9 -13   5   27.29   12.00
 -13  -9  -5  106.61   36.33
  -9 -13   6    6.15   18.16
 -13  -9   6   16.17   24.14
  -9 -13  -6   53.52   35.01
 -13  -9  -6   27.27   23.65
 -13  -9  -6   21.52   16.52
  -9 -13   7   12.88   16.97
  -9  13   7    1.85   11.74
 -13  -9   7   28.57   17.27
  -9 -13  -7   -2.06   15.86
 -13  -9  -7   38.76   31.19
  -9  13   8   14.67   23.00
  -9 -13   8  -13.13   18.45
 -13  -9   8   10.58   20.55
 -13   9   8   -7.31   12.32
  -9 -13  -8  -30.44   33.02
 -13  -9  -8  -12.82   13.25
 -13   9   9  239.58   55.24
  -9  13   9  275.47   62.92
  -9 -13   9  137.08   48.05
  -9 -13  -9  246.15   71.37
 -13  -9  -9  213.42   57.04
 -13  -9   9  172.03   52.00
 -13   9  10   42.60   25.02
  -9  13  10   29.94   23.22
 -13   9 -10    3.32   12.33
  -9 -13 -10   11.17   17.19
 -13  -9 -10   31.04   25.08
  -9  13  11  473.72   82.42
  -9 -13 -11  432.14   81.62
 -13  -9 -11  470.20   80.38
 -13   9 -11  468.07   80.56
 -13   9  11  531.40   81.33
 -13   9  12  -11.26   19.62
 -13  -9 -12   25.51   17.75
  -9  13  13  139.82   49.07
 -13   9  13   82.89   39.56
  -9  13  14  -29.62   34.51
 -13   9  14  -36.75   26.14
 -13   9  15   14.80   26.01
  -9  13  15   26.35   19.73
 -13   9  16  -14.09   20.65
  -9  13  16   -2.42   16.04
 -13   9  17   -8.93   10.74
  -9  13  17   11.82   20.85
 -13   9  18   -2.40   10.94
  -9  13  18  -12.90   11.71
 -13   9  19  -14.03    9.48
  -9  13  19   -4.54    8.86
 -13 -10   0  469.89   79.23
 -10 -13   0  583.47   92.70
 -13 -10   0  509.58   74.23
 -10 -13   1   76.42   28.74
 -13 -10  -1  106.69   33.28
 -13 -10   1  110.12   30.39
 -10 -13   1   73.73   20.43
 -10 -13  -1   97.99   44.26
 -13 -10  -1   46.00   17.86
 -10 -13   2  198.45   45.90
 -13 -10  -2  228.19   53.96
 -10 -13   2  131.41   42.67
 -10 -13  -2  237.20   63.95
 -13 -10   2  140.73   38.88
 -13 -10  -2  231.31   60.47
 -10 -13   3   26.89   16.94
 -13 -10  -3  -10.86   15.90
 -10 -13   3   -4.47   19.18
 -10 -13  -3    9.71   22.66
 -13 -10  -3  -21.13   21.84
 -13 -10   3  -10.43   15.83
 -13 -10  -4  -50.83   44.35
 -13 -10   4  -24.87   18.11
 -10 -13   4  -43.79   25.52
 -10 -13  -4   22.72   28.80
 -13 -10  -4   -5.38   16.78
 -13 -10   5  105.09   39.88
 -10 -13  -5  161.16   54.55
 -10 -13   5   80.53   40.29
 -13 -10  -5  149.50   48.54
 -10 -13   6   13.81   22.59
 -13 -10   6   54.49   26.92
 -10 -13  -6   59.51   37.16
 -13 -10  -6   15.90   21.86
 -10  13   7   25.20   13.91
 -13 -10   7   43.74   27.64
 -10 -13  -7   21.94   16.10
 -13 -10  -7   49.64   28.05
 -13  10   8   46.54   28.07
 -10  13   8   86.40   37.36
 -10 -13   8   67.32   36.64
 -10 -13  -8    8.33   16.25
 -13 -10   8   79.58   35.53
 -13 -10  -8   20.16   13.20
 -13  10   9   19.47   18.22
 -10 -13   9   11.91   15.32
 -10 -13  -9   21.77   15.25
 -13 -10  -9   13.93   15.82
 -13  10  10  238.69   52.04
 -10  13  10  181.32   49.43
 -10 -13 -10  220.68   59.36
 -13  10 -10  194.66   54.83
 -13 -10 -10  282.40   66.74
 -13  10  11   66.77   32.98
 -13 -10 -11   -1.51   18.99
 -10  13  11   80.70   33.75
 -13  10 -11   19.89   11.72
 -10 -13 -11   56.51   30.18
 -13  10  12  149.95   46.46
 -10  13  12  221.45   59.65
 -13 -10 -12  164.07   43.79
 -13  10  13  -13.09   28.49
 -10  13  13   26.41   22.90
 -13  10  14  -25.92   23.62
 -10  13  14   35.08   28.46
 -13  10  15   52.48   29.14
 -10  13  15   46.25   30.06
 -10  13  16    5.80   13.00
 -13  10  16  131.32   40.83
 -13  10  17  -20.81   19.47
 -10  13  17   -2.81   14.34
 -10  13  18    0.22   13.09
 -13  10  18  -27.94   19.17
 -10  13  19   28.98   14.22
 -11 -13   0  125.53   49.65
 -13 -11   0  130.63   35.24
 -13 -11   0  207.20   57.54
 -11 -13   1   67.08   28.49
 -13 -11  -1  113.10   31.39
 -11 -13   1   76.21   36.35
 -11 -13  -1  140.03   44.06
 -13 -11   1   57.52   35.06
 -13 -11  -1   78.98   34.85
 -13 -11   1   44.03   20.08
 -11 -13   2   13.37   11.01
 -13 -11  -2    4.77   11.22
 -11 -13   2   23.65   18.74
 -11 -13  -2   18.71   32.42
 -13 -11   2   -8.53   12.41
 -13 -11  -2   -5.13   13.11
 -13 -11   2   -0.15   16.55
 -13 -11   3  -28.64   25.82
 -11 -13   3   65.65   30.07
 -11 -13   3  -24.20   22.49
 -13 -11   3    3.61   20.23
 -13 -11  -3   47.08   25.71
 -11 -13  -3   10.90   23.02
 -13 -11  -3   26.68   25.01
 -13 -11   4  133.39   44.78
 -11 -13   4   34.23   17.96
 -11 -13  -4  182.47   59.49
 -13 -11  -4  108.87   39.00
 -13 -11   5   30.01   14.64
 -11 -13  -5   49.45   36.91
 -11 -13   5   40.11   32.71
 -13 -11  -5  -42.96   29.73
 -13 -11   6  297.83   64.02
 -11 -13  -6  342.05   78.00
 -13 -11  -6  343.01   72.94
 -11 -13   6  215.48   53.31
 -11 -13   7   34.78   23.15
 -11 -13  -7  -14.76   29.13
 -13 -11   7   19.31   23.86
 -13 -11  -7   28.09   30.47
 -11 -13   8   15.78   15.55
 -11  13   8   33.08   20.53
 -11 -13  -8   37.69   25.09
 -13 -11  -8   11.43   22.94
 -13 -11   8  -44.86   37.87
 -13  11   9   40.37   21.73
 -11  13   9  114.59   35.35
 -13 -11  -9   53.91   32.62
 -11  13  10   60.54   27.07
 -11 -13 -10   98.64   42.06
 -13 -11 -10   97.26   34.97
 -13  11  10   42.05   29.08
 -13  11  11   96.35   35.44
 -11  13  11   89.33   40.11
 -13  11 -11   52.18   28.45
 -11 -13 -11   73.49   35.63
 -13 -11 -11   93.77   38.89
 -11  13  12  118.43   42.78
 -13  11  12   34.81   15.53
 -11 -13 -12  100.35   37.20
 -13 -11 -12   28.69   16.53
 -13  11  13   21.03   14.48
 -11  13  13    1.20   15.35
 -11  13  14    3.74   19.15
 -13  11  14   29.18   18.45
 -13  11  15  -15.62   21.82
 -11  13  15    6.32   16.63
 -11  13  16   65.69   30.93
 -13  11  16   50.26   28.02
 -11  13  17    0.95   11.13
 -13  11  17    5.17   13.18
 -13  11  18    0.87   10.62
 -11  13  18  -13.60    7.27
 -12 -13   0   44.08   29.10
 -13 -12   0   10.64   24.18
 -13 -12   0    8.04   11.49
 -13 -12   1   79.56   31.05
 -12 -13   1   26.28   15.43
 -12 -13   1   42.33   35.40
 -12 -13  -1  129.04   49.25
 -13 -12   1  102.86   42.17
 -13 -12  -1   56.73   30.97
 -13 -12  -1  105.47   35.04
 -12 -13   2   -4.81    8.95
 -12 -13   2    1.26   12.18
 -13 -12   2   -6.94   20.48
 -13 -12   2   16.35   20.48
 -12 -13  -2    8.86   17.78
 -13 -12  -2   15.05   18.17
 -13 -12   3   55.09   36.77
 -12 -13   3   77.31   32.74
 -13 -12   3    9.03   15.59
 -12 -13  -3   46.10   15.53
 -13 -12  -3   74.86   36.69
 -12 -13   3    4.41   20.25
 -12 -13   4  -14.55   14.71
 -12 -13  -4   36.72   28.77
 -13 -12  -4   15.41   28.26
 -13 -12   4    1.88   17.19
 -12 -13  -5  690.00  109.81
 -13 -12   5  475.42   82.88
 -12 -13   5  455.01   83.86
 -13 -12  -5  674.20  104.61
 -13 -12   6   15.36   13.34
 -12 -13  -6   20.17   29.50
 -13 -12  -6   24.08   14.35
 -12 -13   6  -22.92   27.43
 -12 -13   7  196.77   55.23
 -12 -13  -7  411.18   82.80
 -13 -12  -7  420.36   85.14
 -13 -12   7  264.24   62.43
 -12 -13  -8  -24.29   19.15
 -13 -12  -8   -8.97   25.69
 -12  13   9   34.08   27.08
 -13  12   9    2.46   16.61
 -12 -13  -9  -35.51   37.39
 -13 -12  -9    0.75   15.54
 -13  12  10   40.70   24.07
 -12  13  10   18.07   12.04
 -13 -12 -10   44.98   24.39
 -13  12 -11   73.11   36.75
 -13  12  11   47.27   24.67
 -12 -13 -11   53.92   23.20
 -12  13 -11   66.70   38.81
 -13 -12 -11   73.21   32.90
 -12  13  11   95.30   36.45
 -13  12  12   14.01   15.08
 -12  13  12    8.67   18.99
 -12 -13 -12   20.26   23.99
 -13 -12 -12  -16.64   19.44
 -12  13  13    4.02   15.91
 -13  12  13   -0.03   15.36
 -13  12  14    9.70   11.56
 -12  13  14    0.72   11.66
 -13  12  15   62.45   33.34
 -12  13  15   73.87   33.11
 -13  12  16   -3.97   11.52
 -12  13  16   -6.76   12.10
 -13  12  17   55.79   23.00
 -12  13  17   49.13   25.86
 -12  13  18  -18.27   14.35
 -13  12  18   -7.16    6.78
 -13 -13   0   47.80   32.30
 -13 -13   1    4.38   17.01
 -13 -13   1    3.34   19.27
 -13 -13  -1    7.73   22.95
 -13 -13   2   -9.90   18.28
 -13 -13   2   17.79   29.23
 -13 -13  -2    7.44   19.45
 -13 -13   3  -11.79   14.70
 -13 -13   3  -15.93   18.69
 -13 -13  -3    6.74   21.23
 -13 -13   4  259.23   58.98
 -13 -13  -4  397.88   87.33
 -13 -13   5   17.32   12.43
 -13 -13  -5   25.20   35.38
 -13 -13  -6  858.52  122.23
 -13 -13   6  498.80   86.30
 -13 -13  -7  -12.37   16.55
 -13 -13  -8   86.84   41.54
 -13  13   9    9.33   14.10
 -13 -13  -9   24.29   25.44
 -13  13  10   33.86   21.08
 -13 -13 -10   43.90   18.02
 -13  13  11   -1.58   19.86
 -13 -13 -11  -10.13   15.02
 -13  13 -11  -14.81   16.97
 -13  13  12   54.27   25.59
 -13 -13 -12   15.72   14.82
 -13  13  13    6.64   18.31
 -13  13  14   42.64   26.97
 -13  13  15   15.79   18.09
 -13  13  16  103.38   32.40
 -13  13  17    4.26    7.37
 -14   0   0 1744.87  149.26
 -14   0   1  547.68   79.50
 -14   0  -1  511.02   82.14
 -14   0   2  338.97   58.77
 -14   0  -2  430.45   81.76
 -14   0   3  343.12   62.05
 -14   0  -3  476.28   90.94
 -14   0   4  374.90   63.38
 -14   0   5   42.17   29.41
 -14   0   6 1042.69  103.21
 -14   0   7   -4.66   13.89
 -14   0   7   -7.33   28.36
 -14   0   8   33.28   19.17
 -14   0   8  -15.14   25.42
 -14   0  -8  -25.41   27.54
 -14   0  -9  213.35   51.75
 -14   0   9  226.53   58.11
 -14   0   9  219.39   51.36
 -14   0  10  567.77   90.91
 -14   0 -10  630.33   90.12
 -14   0  10  769.50   99.81
 -14   0  11  430.72   78.99
 -14   0 -11  289.53   58.42
 -14   0  11  256.71   60.27
 -14   0  12  494.49   89.47
   0  14  12  699.39  109.52
   0  14  13  278.25   70.94
 -14   0  13  217.91   58.33
 -14   0  14   37.86   36.18
   0  14  14   35.05   31.19
 -14   0  15  -39.38   26.04
   0  14  15  -14.14   29.40
 -14   0  16  210.54   59.69
   0  14  16  200.19   62.64
   0  14  17   21.17   31.27
 -14   0  17   16.10   24.86
   0  14  18   25.00   22.04
 -14   0  18   19.30   19.40
   0  14  19    5.65   13.60
 -14   1   0  526.06   82.26
 -14  -1   0  569.44   85.57
 -14   1  -1  781.29  110.16
 -14  -1  -1  955.02  113.47
 -14   1   1  829.54  102.65
 -14  -1   1  862.52   96.78
 -14   1   2  483.25   73.83
 -14  -1   2  462.50   67.91
 -14   1  -2  526.46   96.56
 -14  -1  -2  519.04   92.02
 -14   1   3   -5.14   33.29
 -14  -1   3   14.99   20.49
 -14   1   4  121.79   38.23
 -14  -1   4   63.51   23.92
 -14   1   5 1166.97  108.64
 -14  -1   5 1163.29  108.11
 -14   1   6   20.38   24.14
 -14  -1   6   12.50   14.69
 -14   1   7  313.33   59.61
 -14  -1   7  268.96   55.99
 -14   1   7  297.31   54.11
 -14  -1  -7  372.19   66.27
 -14   1  -7  348.01   67.01
 -14  -1   7  340.82   62.53
 -14  -1   8   71.66   27.30
 -14   1   8   79.02   33.72
 -14   1   8   59.92   18.29
 -14  -1   8   89.06   32.58
 -14  -1  -8  103.60   39.26
 -14   1  -8   85.43   29.99
 -14  -1   9  221.25   55.43
 -14  -1  -9  247.79   57.40
 -14   1  -9  202.69   51.44
 -14  -1   9  230.84   55.24
 -14   1   9  187.89   48.18
 -14   1   9  275.05   59.40
 -14  -1  10  328.33   70.14
 -14   1  10  306.80   63.27
 -14  -1 -10  295.10   58.23
 -14   1 -10  317.02   62.84
 -14  -1  10  237.20   55.23
 -14   1  10  282.65   61.79
 -14  -1  11  875.60  113.71
 -14  -1 -11  554.06   81.31
 -14   1 -11  610.23   87.36
 -14  -1  11  502.75   87.85
 -14   1  11  642.64   94.08
  -1  14  12  395.97   79.51
 -14   1  12  284.17   65.42
 -14  -1  12  436.07   79.30
 -14  -1 -12  212.09   51.45
 -14  -1  13  118.14   44.51
 -14   1  13   59.25   28.57
  -1  14  13  138.88   52.94
   1  14  13   74.60   39.88
 -14  -1  14    1.44   17.78
 -14   1  14    4.84   22.77
  -1  14  14  -65.11   45.53
   1  14  14  -26.07   18.32
 -14   1  15  222.47   59.10
 -14  -1  15  197.98   60.78
  -1  14  15  210.25   62.22
   1  14  15  231.57   68.56
 -14   1  16    2.56   15.91
 -14  -1  16   -2.67   15.24
  -1  14  16    0.83   18.04
   1  14  16   18.31   28.93
  -1  14  17  159.65   51.03
   1  14  17   82.78   43.84
 -14   1  17  102.41   43.12
 -14  -1  17   88.19   43.83
  -1  14  18   14.51   19.22
   1  14  18   -1.93   16.74
 -14   1  18   14.49   21.91
  -1  14  19   -7.85   14.51
   1  14  19  -13.29   12.13
 -14   2   0  749.74  101.58
 -14  -2   0  672.74   90.76
 -14  -2   1  544.61   77.54
 -14   2   1  559.17   84.52
 -14  -2  -1  577.10   84.30
 -14   2  -1  478.55   85.52
 -14  -2  -2   53.13   29.26
 -14   2   2  -19.17   35.35
 -14  -2   2   42.88   18.48
 -14   2  -2   92.70   43.70
 -14   2   3   71.78   30.55
 -14  -2   3  125.65   40.45
 -14  -2  -3   73.19   32.93
 -14   2   4  598.76   84.08
 -14  -2   4  640.01   80.65
 -14  -2  -4  636.38  102.10
 -14   2   5   74.34   22.62
 -14  -2   5   81.19   35.83
  -2 -14   5   60.07   24.47
  -2 -14   6  905.23   97.03
 -14   2   6 1004.09  102.54
 -14  -2   6  877.11   97.40
 -14  -2   7   -5.07   19.15
 -14  -2   7  -48.53   35.66
 -14   2   7    9.99   16.40
 -14  -2  -7   16.99   29.08
 -14   2   7  -15.16   26.81
 -14   2  -7    1.98   17.86
  -2 -14  -7    3.02   11.64
  -2 -14   7   36.46   25.67
 -14  -2   8   -1.00   14.62
 -14  -2  -8   46.41   30.38
 -14   2   8   47.67   27.29
 -14  -2   8   37.51   26.61
 -14   2  -8   24.79   16.24
  -2 -14  -8   35.17   19.19
  -2 -14   8   51.45   27.43
 -14   2   8   42.66   21.51
 -14  -2   9  164.39   45.15
 -14  -2   9   86.96   38.79
 -14   2   9  179.61   47.59
 -14  -2  -9  146.97   39.52
 -14   2  -9   59.41   33.44
 -14   2   9  101.98   37.11
 -14   2 -10  273.57   60.94
 -14  -2  10  294.34   62.89
 -14  -2 -10  279.52   57.42
 -14   2  10  327.95   63.76
 -14  -2  10  273.70   61.66
 -14   2 -11  286.54   61.20
 -14  -2 -11  214.61   50.31
 -14   2  11  331.90   68.42
 -14  -2  11  310.96   72.79
  -2  14  11  476.78   92.64
 -14  -2  11  267.19   60.04
 -14  -2  12  181.76   51.50
 -14  -2 -12  139.00   44.31
 -14   2  12   53.98   33.00
 -14   2  13   48.75   32.82
  -2  14  13  144.82   62.22
   2  14  13   69.97   41.52
 -14  -2  13   78.92   37.90
 -14  -2  14  144.77   54.52
 -14   2  14   81.52   41.72
   2  14  14  156.69   59.00
  -2  14  14  241.89   71.27
 -14  -2  15  -10.59   30.78
  -2  14  15   -3.00   16.40
 -14   2  15   41.20   25.35
   2  14  15   12.15   14.21
 -14   2  16  226.42   61.60
  -2  14  16  267.65   61.42
   2  14  16  266.90   63.83
 -14  -2  16  206.07   60.45
 -14   2  17    3.93   21.56
  -2  14  17   45.12   32.98
   2  14  17   -3.49   16.98
 -14  -2  17  -25.70   21.62
   2  14  18   44.51   25.04
  -2  14  18   12.34   16.35
 -14   2  18   35.49   26.86
  -2  14  19  -14.96   13.29
   2  14  19   30.71   16.28
 -14   2  19    1.34   12.64
 -14   3   0  700.16  103.30
 -14  -3   0  743.01   92.96
 -14  -3  -1   75.48   35.07
 -14   3   1   63.19   33.67
 -14  -3   1    7.95   18.60
 -14   3  -1   11.89   23.54
 -14  -3  -2  161.16   51.15
 -14   3   2  162.16   45.25
 -14  -3   2  130.20   40.36
 -14   3  -2  225.40   65.77
 -14   3   3  249.61   48.06
 -14  -3   3  270.11   54.44
 -14  -3  -3  255.79   69.59
 -14   3   4  116.07   39.55
  -3 -14   4  109.51   31.23
 -14  -3   4   69.69   20.34
 -14  -3  -4  144.97   59.34
  -3 -14   5 1066.56  101.32
 -14  -3  -5 1117.01  143.18
 -14   3   5 1119.60  107.93
 -14  -3   5 1034.95  106.04
 -14   3  -6  191.27   48.00
 -14  -3  -6  230.19   54.39
 -14   3   6  162.31   39.03
 -14  -3   6  196.36   41.72
  -3 -14   6  190.27   43.45
 -14  -3   7  393.29   60.87
  -3 -14   7  381.19   69.78
 -14   3   7  422.09   70.17
 -14   3   7  281.43   52.19
 -14  -3   7  423.99   67.78
 -14  -3  -7  511.11   79.13
 -14   3  -7  477.98   78.08
  -3 -14  -7  305.74   67.47
  -3 -14   8    4.65   18.96
 -14  -3  -8   19.42   18.30
 -14   3   8    8.40   17.60
 -14  -3   8   32.32   26.90
 -14  -3   8   54.68   34.32
 -14   3  -8    0.74   12.88
  -3 -14  -8   20.35   31.30
 -14   3   8  -60.25   32.52
 -14  -3   9   10.58   16.01
 -14  -3  -9   44.05   22.42
  -3 -14   9   75.13   47.36
 -14   3   9   -7.26   24.59
 -14   3  -9   34.22   22.27
 -14  -3   9    9.16   11.89
 -14  -3 -10  179.22   48.33
 -14   3  10  277.19   60.58
 -14   3 -10  208.90   50.03
 -14  -3  10  220.22   55.12
 -14  -3  10  286.67   59.69
 -14  -3  11  181.53   49.92
 -14  -3 -11   69.32   31.57
 -14  -3  11   75.26   25.29
 -14   3 -11   60.66   28.10
 -14   3  11  197.92   51.28
  -3  14  11  109.26   44.13
 -14  -3  12  154.25   50.89
 -14   3  12  112.21   39.20
 -14  -3 -12   98.57   35.50
  -3  14  12  155.13   54.35
 -14   3  13  -21.90   28.69
  -3  14  13    7.32   24.21
 -14  -3  13   -5.95   26.65
 -14   3  14   23.21   25.64
  -3  14  14    8.60   21.68
   3  14  14   47.46   43.05
 -14  -3  14  -13.96   36.30
 -14   3  15  234.81   59.98
  -3  14  15  230.81   59.65
   3  14  15  305.79   70.94
 -14  -3  15  178.57   57.20
   3  14  16   40.52   33.27
  -3  14  16   15.08   23.04
 -14   3  16   67.46   41.11
 -14  -3  16   40.49   31.32
  -3  14  17  101.73   44.93
   3  14  17  110.61   40.67
 -14   3  17  108.78   43.64
 -14   3  18   19.89   23.37
   3  14  18   -1.29   12.69
  -3  14  18   11.16   10.18
  -3  14  19  -10.64   16.69
   3  14  19    9.64   17.11
 -14   3  19   18.69   13.67
 -14  -4   0   -5.15   30.67
 -14   4   0  -17.36   17.03
 -14   4   1  497.64   80.29
 -14  -4  -1  539.88   79.02
 -14  -4   1  540.86   75.06
 -14   4  -1  563.94   93.41
 -14   4   2   70.67   22.59
 -14  -4  -2  143.40   48.70
 -14  -4   2  190.64   43.92
 -14   4  -2  194.98   61.13
 -14  -4  -3  105.40   53.64
 -14   4   3   40.32   17.17
 -14  -4   3   71.45   33.75
  -4 -14   4  644.31   77.17
 -14  -4  -4  760.20  112.85
 -14   4   4  683.73   84.64
 -14  -4   4  713.44   83.99
  -4 -14   5  705.83   84.07
 -14  -4  -5  781.32  116.02
 -14   4   5  597.73   79.84
 -14  -4   5  588.63   77.07
 -14  -4  -6  819.58  102.29
 -14  -4   6  604.38   83.68
  -4 -14   6  655.60   84.76
  -4 -14  -6  693.32   99.86
 -14   4  -6  711.33   95.75
 -14  -4  -6  763.50  120.95
 -14   4   6  748.48   87.97
 -14  -4   6  704.08   86.68
 -14  -4   7   83.74   28.48
 -14   4   7   95.58   28.27
 -14  -4  -7  172.86   49.28
 -14  -4   7  180.35   48.00
  -4 -14  -7   95.44   40.82
 -14   4  -7  135.17   45.48
  -4 -14   7  151.50   45.50
 -14  -4  -7  123.86   52.09
 -14  -4   8   77.38   31.31
 -14  -4  -8   74.70   30.78
 -14  -4   8  124.32   39.85
 -14   4  -8   40.41   21.62
  -4 -14  -8   73.03   37.45
 -14   4   8   33.44   24.91
  -4 -14   8   83.95   38.23
 -14  -4   9  143.71   42.03
 -14  -4  -9  117.68   39.19
  -4  14   9  108.13   51.36
 -14   4  -9  111.49   40.07
 -14  -4   9  111.34   47.69
  -4 -14  -9   98.17   37.41
  -4 -14   9  105.96   53.67
 -14   4   9  143.01   42.59
  -4  14  10    4.96   21.10
 -14  -4 -10    3.17   19.23
 -14   4  10   23.07   27.88
 -14   4 -10    7.31   16.77
 -14  -4  10   13.85   30.10
  -4 -14  10   55.13   34.83
 -14  -4  10   45.97   30.42
 -14  -4 -11  159.37   41.69
 -14   4  11  141.66   49.01
 -14  -4  11  204.76   55.07
 -14   4 -11   94.73   30.35
  -4  14  11  209.81   63.94
 -14  -4  12  -19.39   30.11
 -14   4  12  -28.95   16.69
  -4  14  12   25.62   28.99
 -14  -4 -12    4.77   10.32
 -14   4  13  -21.58   24.98
  -4  14  13   20.91   26.45
 -14  -4  13    0.41   21.67
 -14   4  14  141.23   49.69
  -4  14  14  157.49   57.81
   4  14  14  136.92   45.80
 -14  -4  14   91.57   41.91
 -14   4  15   63.99   37.74
 -14  -4  15   40.22   32.20
  -4  14  15  125.88   48.71
   4  14  15  102.33   35.00
  -4  14  16  180.89   54.06
   4  14  16  199.57   55.96
 -14   4  16  146.41   48.90
 -14   4  17   43.32   30.85
   4  14  17   59.03   34.52
  -4  14  17   92.34   37.27
 -14   4  18   32.89   24.06
  -4  14  18   29.61   23.01
   4  14  18   14.05   15.07
  -4  14  19   -4.93   11.62
 -14   4  19    4.85   16.09
 -14   5   0 1046.63  123.02
 -14  -5   0  955.77  105.10
 -14  -5  -1   -8.24   25.35
 -14  -5   1    7.50   18.35
 -14   5  -1   38.38   46.56
 -14  -5  -2   32.71   35.44
 -14   5   2   91.83   35.26
 -14  -5   2   60.69   29.99
 -14   5  -2  136.44   47.39
 -14  -5  -3  434.00   81.08
 -14   5   3  406.02   66.15
 -14  -5   3  344.60   57.43
 -14  -5  -4  619.68  100.20
 -14   5   4  574.32   78.74
 -14  -5   4  546.96   75.24
  -5 -14   4  486.54   66.85
 -14  -5  -5  732.23   94.28
 -14  -5  -5  794.72  116.91
 -14   5   5  649.32   80.30
 -14  -5   5  707.42   85.19
  -5 -14   5  613.39   78.48
 -14  -5   6  478.49   72.11
 -14   5  -6  626.59   90.81
  -5 -14   6  603.56   84.99
  -5 -14  -6  507.51   88.48
 -14  -5  -6  701.27   96.72
 -14  -5  -6  603.03  106.62
 -14   5   7  160.17   41.52
 -14  -5   7  241.76   55.78
 -14  -5  -7  264.43   60.41
  -5 -14  -7  184.55   53.79
 -14   5  -7  214.63   55.67
  -5 -14   7  165.53   44.75
 -14  -5  -7  226.03   73.68
 -14  -5   7  219.87   51.89
 -14  -5  -8    8.05   20.30
 -14   5   8   14.28   15.50
 -14  -5   8   22.95   24.03
  -5  14   8   18.95   19.89
  -5 -14   8   16.26   16.04
  -5 -14  -8   11.11   15.39
 -14   5  -8    4.36   16.37
 -14  -5  -8   94.44   67.51
 -14  -5   8   64.24   41.34
 -14  -5  -9  -16.85   20.50
 -14   5   9   57.82   29.32
 -14  -5   9  -16.27   26.37
  -5  14   9   33.70   33.90
 -14   5  -9   51.02   25.69
  -5 -14  -9    3.89   22.22
 -14  -5   9   32.69   34.09
 -14  -5  -9   72.66   59.04
  -5 -14   9   38.57   34.01
 -14  -5 -10  169.73   47.52
 -14   5  10  220.31   51.48
  -5  14  10  263.80   70.50
  -5 -14  10  124.44   42.95
 -14   5 -10  218.44   55.33
 -14  -5  10  139.58   49.85
 -14  -5 -10  147.88   65.98
 -14  -5  10  228.74   59.96
 -14  -5 -11  -18.29   22.31
 -14   5  11  -48.73   36.07
 -14   5 -11    1.42   12.20
  -5  14  11   29.92   21.65
 -14  -5  11    8.42   23.44
 -14   5  12  156.53   51.61
  -5  14  12  152.71   51.44
 -14  -5 -12  127.38   42.39
 -14  -5  12  177.28   52.70
 -14   5  13   53.92   25.59
  -5  14  13   28.49   26.90
 -14  -5  13   22.26   31.19
 -14   5  14   -0.92   14.59
   5  14  14   65.12   27.68
  -5  14  14   21.58   28.35
 -14   5  15  109.14   49.62
  -5  14  15  102.59   43.38
   5  14  15  195.74   54.48
 -14   5  16  145.54   50.17
  -5  14  16  163.47   50.90
   5  14  16  210.70   52.07
 -14   5  17   47.39   30.31
   5  14  17   16.30   25.28
  -5  14  17   80.08   33.26
 -14   5  18   46.70   29.91
  -5  14  18   26.42   18.67
   5  14  18   14.86   13.42
 -14   5  19    5.26    8.35
  -5  14  19  -12.75   15.76
 -14  -6   0   -4.53   24.07
 -14   6   0   16.90   25.66
 -14   6  -1  678.12  109.03
 -14   6   1  744.80  102.00
 -14  -6  -1  832.55  100.16
 -14  -6   1  837.61   95.87
 -14  -6  -2   94.39   26.67
 -14   6   2   84.09   25.13
 -14  -6   2  120.79   40.10
 -14  -6  -3   56.87   20.18
 -14   6   3   74.48   35.17
 -14  -6   3   28.30   21.79
 -14  -6  -4  339.38   69.34
  -6 -14   4  303.28   52.60
 -14  -6   4  244.89   50.29
 -14  -6  -4  314.42   71.87
  -6 -14  -5  734.17  110.40
 -14  -6  -5  974.05  111.10
 -14  -6  -5  832.97  116.98
  -6 -14   5  662.05   85.95
 -14  -6   5  640.88   84.27
 -14  -6   6  148.72   43.75
  -6 -14  -6  262.88   65.58
  -6 -14   6  151.76   46.94
 -14  -6  -6  270.41   75.11
 -14  -6  -6  207.98   54.12
 -14  -6  -7   61.78   32.17
 -14  -6   7   82.46   29.64
  -6 -14  -7   24.36   29.27
  -6  14   7  163.03   49.45
 -14   6   7  103.07   29.68
 -14   6  -7  133.85   46.94
  -6 -14   7   44.21   26.97
 -14  -6  -7  128.71   57.82
 -14   6  -8   88.74   35.81
 -14   6   8   47.98   17.29
  -6 -14   8   27.57   18.08
  -6  14   8   42.73   32.35
 -14  -6  -8   35.13   31.23
  -6 -14  -8   89.67   43.64
 -14  -6   8   19.90   20.11
 -14  -6  -8   60.75   45.28
 -14  -6  -9  123.64   42.42
 -14   6   9   82.15   26.69
  -6 -14   9   63.20   32.48
  -6  14   9  185.85   49.39
 -14   6  -9  185.75   52.56
  -6 -14  -9  130.08   54.95
 -14  -6   9  101.48   37.98
 -14  -6  -9  121.99   55.30
 -14  -6 -10   60.41   26.48
  -6 -14  10   35.19   24.20
 -14   6  10   58.89   31.20
 -14   6 -10   50.28   27.78
  -6  14  10   -0.69   29.18
  -6 -14 -10   36.81   33.37
 -14  -6  10  -23.63   26.95
 -14  -6 -10   75.14   46.43
 -14   6  11  461.57   79.38
  -6  14  11  568.66   92.60
 -14   6 -11  277.68   61.86
 -14  -6 -11  383.28   75.26
  -6  14  12   31.57   22.57
 -14   6  12    2.60   19.04
 -14  -6 -12   41.04   25.25
 -14   6  13   72.53   35.25
  -6  14  13   89.59   37.06
 -14   6  14    8.51   18.57
  -6  14  14   28.15   34.57
   6  14  14   82.34   38.63
 -14   6  15   68.91   42.19
  -6  14  15  104.77   40.41
   6  14  15  128.26   46.82
 -14   6  16    8.00   13.67
  -6  14  16   44.28   31.39
   6  14  16   41.13   21.97
   6  14  17  130.27   36.29
  -6  14  17   99.50   43.69
 -14   6  17  112.40   38.90
 -14   6  18    0.49   11.46
  -6  14  18    7.95   13.76
 -14   6  19   -1.85    8.14
  -6  14  19    6.82   12.10
 -14   7   0 1092.80  130.73
 -14  -7   0 1131.89  112.65
 -14   7   1   -1.70   17.79
 -14  -7  -1   22.99   16.23
 -14  -7   1   55.61   32.05
 -14   7  -1   82.21   41.10
 -14   7   2  231.52   48.64
 -14  -7  -2  200.72   49.61
 -14  -7   2  200.20   43.48
 -14   7  -2  251.99   63.94
  -7 -14   3   79.73   29.43
 -14  -7  -3   32.98   30.26
 -14  -7  -3   62.81   26.19
  -7 -14  -3   41.63   29.17
 -14  -7   3   45.02   24.37
 -14  -7  -4  235.66   59.17
 -14  -7  -4  126.87   43.98
  -7 -14   4  199.45   47.71
  -7 -14  -4  229.46   59.86
 -14  -7   4  170.12   43.24
 -14  -7  -5  137.05   39.30
  -7 -14   5  132.67   39.48
 -14  -7  -5  139.95   47.26
  -7 -14  -5  164.48   52.11
 -14  -7   5  121.34   37.30
 -14  -7  -6  334.60   69.10
 -14  -7   6  272.76   57.07
 -14  -7  -6  288.05   71.10
  -7 -14   6  198.87   51.36
  -7 -14  -6  276.97   73.12
  -7  14   6  240.79   56.38
 -14  -7  -7   19.56   15.36
 -14  -7  -7   86.29   46.34
 -14  -7   7   14.17   12.16
  -7  14   7   67.44   36.15
  -7 -14  -7   -3.33   18.61
  -7 -14   7   60.31   31.92
 -14   7   8  -35.86   37.33
 -14  -7  -8   16.64   22.08
  -7  14   8   40.81   16.96
 -14  -7   8  -10.45   28.60
  -7 -14  -8   22.59   44.58
 -14   7  -8  -20.85   17.92
  -7 -14   8  -17.31   20.90
 -14  -7  -8   55.62   51.16
 -14   7   9  -27.14   24.31
  -7 -14   9   24.95   18.22
  -7  14   9   45.70   30.76
 -14   7  -9   38.06   27.04
  -7 -14  -9   64.43   31.51
 -14  -7   9  -59.52   33.66
 -14  -7  -9   20.20   27.95
  -7  14  10  520.63   90.75
 -14  -7 -10  488.95   81.69
 -14   7 -10  404.06   74.07
  -7 -14 -10  386.28   76.40
 -14   7  10  466.86   80.46
 -14   7  11  -40.61   24.60
  -7  14  11   24.96   34.44
 -14   7 -11   29.55   19.94
 -14  -7 -11   -3.21   19.59
 -14   7  12  322.87   68.97
  -7  14  12  442.76   84.18
 -14  -7 -12  445.72   78.44
 -14   7  13  -72.36   36.35
  -7  14  13   39.63   33.41
 -14   7  14   35.88   25.91
  -7  14  14   -0.67   22.20
   7  14  14   12.27   28.29
  -7  14  15   51.62   33.91
   7  14  15   22.67   25.30
 -14   7  15   44.43   27.21
  -7  14  16  138.22   46.29
 -14   7  16   88.87   39.69
   7  14  16  148.44   41.74
 -14   7  17   12.65   13.95
  -7  14  17   20.76   15.06
 -14   7  18   19.64   20.92
  -7  14  18    5.61   16.75
  -7  14  19   11.94   14.64
 -14   7  19  -10.71    7.98
 -14   8   0   82.08   37.82
 -14  -8   0   23.97   25.20
  -8 -14  -1  864.89  112.92
 -14   8  -1  865.98  116.82
 -14  -8  -1  817.63   99.92
 -14  -8   1  802.08   94.35
 -14  -8  -2  -14.69   27.85
 -14  -8  -2  -36.33   30.45
 -14  -8   2   21.86   12.75
  -8 -14  -2  -19.24   17.94
 -14   8  -2   15.94   34.74
 -14  -8  -3   40.03   27.27
 -14  -8  -3  -58.35   35.26
  -8 -14  -3   62.02   32.09
 -14  -8   3   10.25   12.74
  -8 -14   3  -11.40   25.44
 -14  -8  -4   78.24   39.72
 -14  -8  -4  -15.60   17.89
  -8 -14   4   58.37   33.00
  -8 -14  -4   51.38   32.73
 -14  -8   4   39.70   20.32
 -14  -8   5   77.44   26.57
 -14  -8  -5  194.43   57.62
  -8 -14   5   90.26   36.83
  -8 -14  -5   94.86   42.51
 -14  -8  -5  116.56   40.73
 -14  -8  -6   31.32   26.57
 -14  -8   6   93.42   39.78
  -8 -14   6    6.86   11.04
  -8  14   6   39.96   30.29
  -8 -14  -6  -17.87   36.30
 -14  -8  -6   36.18   21.48
 -14  -8  -7   34.53   22.01
 -14  -8   7   45.79   22.11
  -8  14   7   25.08   16.12
  -8 -14   7   28.53   20.74
  -8 -14  -7  -23.46   17.61
 -14  -8  -7  -52.12   29.44
 -14  -8   8  -37.18   26.99
 -14   8   8  -18.59   14.06
  -8  14   8  -27.47   28.36
  -8 -14  -8   14.41   18.58
  -8 -14   8  -24.20   14.31
 -14  -8  -8    7.73   27.87
  -8 -14   9  188.27   55.93
 -14   8  -9  214.62   57.63
 -14   8   9  225.06   48.47
  -8  14   9  233.36   52.22
  -8 -14  -9  290.19   68.56
 -14  -8   9  258.85   61.50
 -14  -8  -9  263.43   62.84
 -14   8  10   -8.32   23.24
  -8  14  10   38.43   24.65
  -8 -14 -10   36.32   28.00
 -14  -8 -10   16.21   17.22
  -8 -14 -11  494.86   83.03
 -14  -8 -11  497.44   80.12
 -14   8 -11  515.54   83.13
  -8  14  11  633.13   94.62
 -14   8  11  556.40   86.77
 -14   8  12   30.07   30.90
  -8  14  12   20.55   15.16
 -14  -8 -12    3.25   15.32
 -14   8  13   90.52   37.59
  -8  14  13  167.74   53.31
 -14   8  14  -17.50   25.62
  -8  14  14    2.68   15.61
   8  14  14    1.63   17.46
 -14   8  15   18.66   21.64
  -8  14  15   16.28   20.91
   8  14  15   55.70   34.33
 -14   8  16  -10.30   15.24
  -8  14  16   30.51   24.52
   8  14  16   44.22   17.29
 -14   8  17   10.82   15.08
  -8  14  17   13.90   17.64
 -14   8  18   -3.64    8.99
  -8  14  18  -17.71   16.83
  -8  14  19   -2.80    9.92
 -14   8  19    6.14   11.34
  -9 -14   0  721.90  106.20
 -14  -9   0  769.99  105.25
 -14  -9   0  663.84   89.56
 -14  -9  -1   43.09   24.71
  -9 -14   1   24.09   22.06
 -14  -9   1  -17.45   14.90
  -9 -14  -1    2.76   18.82
 -14  -9   1   63.80   29.34
 -14  -9  -1    7.60   14.65
 -14  -9  -2  275.84   59.69
  -9 -14   2  158.83   44.28
  -9 -14  -2  281.57   70.90
 -14  -9   2  256.65   52.79
 -14  -9   2  177.47   47.69
 -14   9  -2  156.98   51.05
 -14  -9  -2  348.87   69.30
 -14  -9  -3  -69.79   41.74
  -9 -14   3   -7.46   14.48
  -9 -14  -3  -11.54   26.91
  -9 -14   3  -24.74   19.45
 -14  -9   3  -35.93   29.73
 -14  -9  -3   23.04   28.84
 -14  -9  -4  -44.18   44.92
  -9 -14   4   15.47   23.73
  -9 -14  -4   -8.84   29.11
 -14  -9   4  -31.23   27.31
 -14  -9  -4   -0.84   20.29
  -9 -14   4  -15.43   11.88
 -14  -9   5   43.51   21.98
 -14  -9  -5   -2.97   18.78
  -9 -14   5   46.67   23.53
  -9 -14  -5   71.09   36.55
 -14  -9  -6   49.86   31.26
  -9 -14   6   42.08   30.39
 -14  -9   6   18.71   17.29
  -9 -14  -6   47.30   31.57
 -14  -9  -6   91.45   46.44
  -9 -14   7   77.11   39.20
 -14  -9   7   23.68   23.36
  -9 -14  -7   20.96   27.73
 -14  -9  -7   33.92   25.50
 -14   9   8   22.37   16.30
  -9  14   8   70.85   34.90
  -9 -14   8   12.78   15.54
  -9 -14  -8   42.49   31.98
 -14  -9   8   -7.47   22.90
 -14  -9  -8   82.19   41.40
 -14   9   9   17.50   19.86
  -9  14   9    9.07   25.43
  -9 -14  -9   25.76   25.53
 -14   9  -9  -18.56   19.74
 -14  -9  -9   55.82   33.63
  -9  14  10  486.38   80.80
 -14   9  10  375.61   69.63
 -14   9 -10  356.92   67.56
  -9 -14 -10  445.01   83.21
 -14  -9 -10  413.98   76.40
  -9  14  11  103.31   41.08
 -14   9 -11    7.52   12.38
  -9 -14 -11   50.47   27.71
 -14  -9 -11   73.02   34.05
 -14   9  12  332.83   69.60
  -9  14  12  371.38   72.26
 -14  -9 -12  188.68   51.97
 -14   9  13   31.00   24.61
  -9  14  13   14.48   23.61
  -9  14  14   -9.47   18.73
 -14   9  14  -20.28   15.07
   9  14  14  -21.82   18.53
  -9  14  15   -6.77   18.78
   9  14  15   35.81   22.69
 -14   9  15   45.35   25.95
 -14   9  16   16.40   18.58
  -9  14  16   21.11   21.06
  -9  14  17   -7.47   10.75
 -14   9  17   27.84   19.57
 -14   9  18   -2.44   12.66
  -9  14  18   11.96    9.66
 -14 -10   0   56.36   32.99
 -10 -14   0   64.83   23.31
 -14 -10   0   62.15   37.31
 -14 -10  -1  197.10   48.32
 -10 -14   1  174.29   49.46
 -10 -14  -1  260.96   69.69
 -14 -10   1  196.81   49.03
 -14 -10   1  122.13   45.55
 -14 -10  -1  304.92   69.93
 -14 -10  -2   -2.97   15.55
 -10 -14   2   -1.89   20.98
 -10 -14  -2  -23.10   17.05
 -14 -10   2  -14.76   27.24
 -14 -10   2  -27.42   24.10
 -14 -10  -2    8.06   26.02
 -14 -10  -3   76.67   30.04
 -10 -14   3    3.57   11.11
 -10 -14  -3   45.38   39.97
 -10 -14   3   70.17   29.73
 -14 -10  -3   74.48   41.59
 -14 -10   3   43.07   21.34
 -14 -10  -4    0.39   33.73
 -10 -14   4   33.87   20.94
 -10 -14  -4   66.91   35.93
 -10 -14   4   41.65   10.56
 -14 -10   4   13.60   17.90
 -14 -10  -4   99.22   36.98
 -14 -10   5   11.53   22.21
 -10 -14  -5  -28.10   36.73
 -14 -10  -5   63.73   35.60
 -10 -14   5    1.75   15.99
 -10 -14   6  126.93   39.39
 -14 -10   6   88.62   33.13
 -10 -14  -6   65.15   36.82
 -14 -10  -6  135.07   47.07
 -10 -14   7  -46.26   35.88
 -14 -10   7   33.25   18.17
 -10 -14  -7  -34.01   31.25
 -14 -10  -7  -38.56   23.75
 -10 -14   8  -20.97   27.03
 -10 -14  -8   15.70   16.64
 -14 -10  -8  -12.90   19.77
 -14  10   9  166.53   44.93
 -10  14   9  148.76   37.13
 -10 -14  -9   92.99   48.58
 -14 -10  -9  187.36   52.78
 -14  10  10   93.14   38.16
 -14  10 -10   42.09   22.03
 -10 -14 -10   13.06   13.60
 -10  14  10   97.07   38.31
 -14 -10 -10  108.97   43.04
 -10  14  11  339.81   66.77
 -14  10  11  222.02   56.88
 -14  10 -11  173.39   53.13
 -10 -14 -11  262.02   63.11
 -14 -10 -11  258.29   59.30
 -14  10  12   16.15   18.25
 -10  14  12   64.99   32.91
 -14 -10 -12   86.98   36.38
 -14  10  13   33.03   21.06
 -10  14  13   11.83   29.69
 -14  10  14   23.85   22.97
 -10  14  14   22.56   20.40
  10  14  14   14.20   14.78
 -14  10  15    7.96   17.87
 -10  14  15   -6.04   16.82
 -14  10  16   17.65   16.73
 -10  14  16   24.12   24.61
 -14  10  17   -0.97   11.42
 -10  14  17  -17.57   18.32
 -14  10  18   28.05   17.50
 -10  14  18    1.86    9.02
 -11 -14   0   40.50   30.19
 -14 -11   0   18.70   16.25
 -14 -11   0   93.53   41.47
 -11 -14   1   26.64   24.92
 -14 -11  -1   41.96   26.26
 -11 -14  -1   73.37   36.44
 -14 -11   1   68.66   35.69
 -14 -11  -1   26.39   28.04
 -14 -11   1   34.07   16.23
 -14 -11  -2   20.97   19.03
 -11 -14   2   85.43   37.58
 -11 -14  -2   48.17   33.69
 -14 -11   2   25.03   32.60
 -14 -11  -2   33.84   34.43
 -14 -11   2   35.88   19.09
 -14 -11   3   50.01   24.96
 -11 -14   3    8.35   18.20
 -11 -14   3   50.97   30.88
 -11 -14  -3   -6.16   18.30
 -14 -11   3    0.43   17.42
 -14 -11  -3   30.34   20.26
 -14 -11   4   30.75   28.35
 -11 -14  -4  -13.33   24.06
 -11 -14   4   45.81   28.56
 -14 -11  -4   27.33   17.81
 -14 -11   5  233.64   57.68
 -11 -14  -5  310.90   74.37
 -14 -11  -5  341.60   73.39
 -11 -14   5  231.22   57.82
 -11 -14   6   -4.10   11.11
 -14 -11   6    5.82   24.97
 -11 -14  -6  -36.64   34.06
 -14 -11  -6   51.85   33.39
 -11 -14   7   38.16   27.61
 -11 -14  -7  109.91   49.24
 -14 -11   7  125.44   39.85
 -14 -11  -7  113.73   39.99
 -11  14   8   45.99   19.51
 -11 -14  -8   16.78   20.02
 -14 -11  -8   43.63   26.43
 -11  14   9   39.34   24.69
 -14  11   9    5.95   12.87
 -11 -14  -9   -2.70   11.87
 -14 -11  -9  -23.89   23.21
 -14  11  10  109.19   35.88
 -11  14  10  136.42   39.97
 -11 -14 -10  113.29   41.81
 -14 -11 -10  151.67   52.91
 -14  11 -10  127.92   42.73
 -14  11  11   29.72   22.98
 -11  14  11  103.96   36.15
 -14  11 -11   40.72   25.41
 -11 -14 -11   22.47   18.20
 -14 -11 -11   75.01   33.90
 -11 -14 -12   49.99   30.43
 -14  11  12   60.62   29.25
 -11  14  12   42.15   27.87
 -14 -11 -12   26.39   23.35
 -14  11  13  -31.25   24.91
 -11  14  13    0.58   16.77
 -14  11  14   19.34   20.51
 -11  14  14   -3.32   21.99
 -14  11  15   57.02   29.81
 -11  14  15   25.97   21.78
 -14  11  16   33.21   23.47
 -11  14  16   15.69   17.97
 -11  14  17   23.03   19.08
 -14  11  17    7.65    9.07
 -11  14  18   26.29   15.88
 -12 -14   0   53.96   35.21
 -14 -12   0   43.88   35.24
 -14 -12   0   62.42   27.66
 -12 -14   1  -14.51   36.06
 -12 -14  -1   19.14   15.66
 -14 -12   1   -1.15   23.93
 -14 -12  -1   -3.27   14.97
 -14 -12  -1    1.94   24.21
 -14 -12   1   58.48   29.23
 -14 -12   2  -25.49   13.41
 -12 -14   2   -1.03   19.45
 -12 -14  -2   22.24   32.64
 -14 -12   2   10.17   18.83
 -14 -12  -2  -18.65   23.79
 -14 -12   3   21.55   20.79
 -12 -14   3  -26.90   34.90
 -14 -12   3  -11.25   22.55
 -12 -14  -3   -5.32   17.06
 -14 -12  -3   67.18   21.81
 -14 -12   4  289.44   67.20
 -12 -14  -4  346.71   76.54
 -12 -14   4  237.68   60.07
 -14 -12  -4  291.74   73.52
 -14 -12   5    7.58   19.86
 -12 -14  -5  -24.07   20.31
 -14 -12  -5   -8.31   16.26
 -12 -14   5  -22.77   27.71
 -12 -14   6  333.48   74.32
 -12 -14  -6  631.25  105.44
 -14 -12  -6  569.18  100.18
 -12 -14  -7   11.75   24.63
 -14 -12  -7    4.92   22.99
 -12 -14  -8  127.09   45.52
 -14 -12  -8    8.95   19.13
 -12  14   9  -15.07   15.26
 -12 -14  -9   22.86   26.69
 -14 -12  -9   13.94   17.91
 -14  12  10   67.39   31.82
 -12 -14 -10    9.14   12.38
 -14  12 -10   15.32   15.07
 -14 -12 -10   79.58   34.97
 -12  14  10    9.06   11.25
 -14  12 -11  -18.69   18.30
 -12  14  11   69.29   33.44
 -12 -14 -11   13.95   19.75
 -12  14 -11   23.12   19.49
 -14 -12 -11   52.45   31.15
 -14  12  11   21.73   19.48
 -14  12  12    8.04   12.60
 -12  14  12  -17.10   18.54
 -12 -14 -12   26.80   20.21
 -14 -12 -12   -2.92   15.18
 -14  12  13  -16.13   19.11
 -12  14  13   57.06   28.04
 -14  12  14   55.08   26.78
 -12  14  14   14.10   16.94
 -14  12  15   34.46   25.72
 -12  14  15   -6.33   14.20
 -14  12  16   68.80   28.57
 -12  14  16   84.07   30.05
 -12  14  17   -4.36   10.30
 -14  12  17   17.42   15.11
 -13 -14   0  -25.36   23.39
 -14 -13   0  -10.39   13.05
 -13 -14   1    6.96   21.56
 -13 -14  -1   26.36   26.83
 -14 -13   1   47.72   42.06
 -14 -13  -1   49.45   38.62
 -14 -13   2   32.25   30.07
 -13 -14   2    4.25   12.44
 -14 -13   2   -0.04   22.40
 -13 -14  -2  -28.15   39.87
 -14 -13  -2  -11.47   15.46
 -14 -13   3   58.42   32.57
 -13 -14   3   25.49   15.06
 -14 -13   3   26.14   26.12
 -13 -14  -3   89.03   41.25
 -14 -13  -3  127.23   51.75
 -14 -13   4  -34.89   25.83
 -13 -14   4   47.19   26.94
 -13 -14  -4   -0.60   16.15
 -14 -13  -4  -14.05   18.58
 -13 -14  -5  727.12  115.90
 -14 -13  -5  840.32  121.09
 -13 -14  -6   24.78   24.91
 -14 -13  -6  -27.72   22.95
 -13 -14  -7  355.15   77.86
 -14 -13  -7  387.04   83.08
 -13 -14  -8  -21.29   13.96
 -14 -13  -8  -18.88   22.19
 -13 -14  -9  -42.60   25.64
 -14 -13  -9   -4.70   13.54
 -14  13  10   11.95   10.87
 -13  14  10  -12.49   20.67
 -13 -14 -10   12.32   17.04
 -14  13 -10    1.20   18.61
 -14 -13 -10   59.31   33.15
 -14  13  11   91.64   33.77
 -13  14  11   81.95   27.30
 -13  14 -11   61.88   30.08
 -14  13 -11   84.47   34.08
 -13 -14 -11   80.93   34.08
 -14 -13 -11   48.33   23.43
 -14  13  12   -1.78   15.47
 -13  14  12  -12.99   20.70
 -14 -13 -12   -3.65   11.96
 -14  13  13  -13.88   10.07
 -13  14  13  -28.56   18.07
 -14  13  14   14.84   18.28
 -13  14  14   17.85   12.61
 -14  13  15   76.57   32.13
 -13  14  15   81.02   30.63
 -14  13  16   -9.83   13.00
 -13  14  16   -0.11    9.27
 -14 -14   0   32.20   30.58
 -14 -14   1    8.16   17.18
 -14 -14  -1  -19.13   35.92
 -14 -14   2  -19.80   34.33
 -14 -14  -2   -6.69   22.42
 -14 -14   3   -3.75   12.88
 -14 -14  -3   23.60   27.62
 -14 -14  -4  385.16   83.76
 -14 -14  -5   18.22   26.78
 -14 -14  -6  557.27   98.64
 -14 -14  -7 -119.37   44.71
 -14 -14  -8  121.58   46.74
 -14 -14  -9   20.26   18.20
 -14 -14 -10   73.46   32.08
 -14  14 -10   17.38   24.80
 -14  14  11    5.20   18.24
 -14  14 -11  -12.20   15.00
 -14 -14 -11   -7.67   14.51
 -14  14  12    0.54   11.23
 -14 -14 -12   26.02   21.94
 -14  14  13   28.29   17.58
 -14  14  14    1.24   13.80
 -14  14  15   -2.40    8.35
 -14  14  16    8.16   12.72
 -15   0   0  380.06   71.13
 -15   0  -1  731.37  106.51
 -15   0   1  833.05  105.35
 -15   0  -2  276.75   75.19
 -15   0   2  228.05   46.95
 -15   0   3   19.17   15.20
 -15   0  -3  -32.62   24.45
 -15   0   4   48.26   25.08
 -15   0  -4  132.86   64.21
 -15   0  -5  490.66   77.14
 -15   0   5  458.63   71.84
 -15   0   6   15.92   22.14
 -15   0  -6   62.55   28.15
 -15   0   6   33.11   15.59
 -15   0   7   65.25   27.69
 -15   0  -7   61.60   17.59
 -15   0   8   65.66   31.01
 -15   0   8   24.19   27.18
 -15   0  -8   77.65   34.44
 -15   0   9  314.73   64.17
 -15   0  -9  364.74   72.71
 -15   0   9  287.64   62.42
 -15   0  10  109.92   42.37
 -15   0 -10  132.64   41.44
 -15   0  10   88.59   32.64
 -15   0 -11  505.42   81.48
 -15   0  11  709.13  102.56
 -15   0  12  240.81   64.33
 -15   0 -12  163.84   39.64
 -15   0  13   42.83   28.78
   0  15  13   79.54   43.83
 -15   0  14  -13.08   20.07
   0  15  14   -8.45   25.94
 -15   0  15  139.69   50.95
   0  15  15  163.95   56.66
 -15   0  16  -10.74   17.92
   0  15  16   35.20   26.89
   0  15  17   85.27   32.29
 -15   0  17   44.13   28.81
   0  15  18    5.57   11.81
   0  15  19   10.31   14.28
 -15   1   0 1033.92  120.57
 -15  -1   0 1009.78  117.51
 -15   1  -1  300.90   73.13
 -15  -1  -1  319.87   72.66
 -15   1   1  271.65   54.78
 -15  -1   1  275.78   56.48
 -15   1   2  143.94   35.71
 -15  -1   2  114.56   38.93
 -15  -1  -2  165.47   57.03
 -15   1  -2  153.76   58.33
 -15   1   3   86.20   33.29
 -15  -1   3  173.90   52.20
 -15   1  -3  164.50   66.58
 -15  -1  -3  271.85   77.42
 -15   1   4  167.73   43.60
 -15  -1   4  250.69   55.78
 -15  -1  -4  250.26   71.67
 -15  -1  -5  -21.48   29.26
 -15   1  -5   66.29   36.80
 -15   1   5   15.98   15.35
 -15  -1   5   21.77   20.43
 -15  -1   6  275.89   60.12
 -15   1   6  280.91   58.12
 -15  -1  -6  353.46   65.22
 -15   1  -6  366.15   67.58
 -15   1   6  426.09   71.58
 -15  -1   6  324.16   60.57
 -15   1   7   10.36   23.20
 -15  -1   7   30.46   25.98
 -15   1   7   20.74   11.99
 -15  -1  -7   21.73   19.26
 -15   1  -7   50.40   34.00
 -15  -1   7    4.78   12.45
 -15  -1   8   18.03   13.98
 -15   1   8   15.85   19.45
 -15  -1   8   -0.84   18.96
 -15  -1  -8   -5.55   14.98
 -15   1  -8   34.58   28.00
 -15   1   8  -28.04   30.04
 -15   1   9  104.63   39.00
 -15  -1   9   58.11   37.96
 -15  -1  -9  116.26   41.02
 -15   1  -9   94.98   30.94
 -15   1   9   70.08   30.68
 -15  -1   9   60.96   30.68
 -15  -1  10  491.35   84.27
 -15   1  10  499.75   81.58
 -15  -1 -10  505.14   77.44
 -15   1 -10  439.18   76.85
 -15  -1  10  391.78   75.08
 -15  -1  11  200.12   58.03
 -15   1  11  182.43   51.88
 -15  -1 -11  186.12   42.29
 -15   1 -11  153.44   40.69
 -15  -1  12  303.76   69.97
 -15  -1 -12  207.97   49.40
 -15   1 -12  211.37   49.12
 -15   1  12  309.81   69.08
  -1  15  12  367.51   79.78
 -15  -1  13   50.36   40.88
 -15   1  13   17.92   23.77
  -1  15  13   18.55   34.42
   1  15  13   82.69   46.91
 -15  -1  14   -3.63   22.40
 -15   1  14   -8.77   14.29
  -1  15  14   34.29   26.52
   1  15  14    7.11   25.48
 -15  -1  15   23.21   21.85
 -15   1  15   25.70   30.46
  -1  15  15   18.58   28.86
   1  15  15   -5.71   22.91
 -15   1  16   91.59   37.49
  -1  15  16   85.46   38.61
   1  15  16  108.42   42.82
 -15  -1  16   60.14   42.05
  -1  15  17   21.36   24.95
   1  15  17   25.47   27.32
 -15   1  17   14.38   19.26
  -1  15  18   -2.80   17.65
   1  15  18   -4.73   15.35
 -15   1  18   -4.94   10.99
  -1  15  19   10.40   16.05
   1  15  19    1.70   10.48
 -15  -2   0  288.23   60.98
 -15   2   0  286.33   65.92
 -15   2  -1  174.69   58.86
 -15  -2  -1  206.83   56.40
 -15   2   1  201.85   57.20
 -15  -2   1  128.75   37.55
 -15  -2  -2   80.27   41.35
 -15   2   2   75.41   32.58
 -15  -2   2   71.07   31.56
 -15   2  -2   89.88   39.65
 -15  -2   3   51.94   32.89
 -15   2  -3  157.62   65.49
 -15  -2  -3  110.20   51.94
 -15   2   4   -6.48   20.57
 -15  -2   4   30.14   27.18
 -15  -2  -4   -8.81   33.26
 -15  -2  -5  508.22   81.18
  -2 -15  -5  434.35   80.09
 -15   2  -5  423.74   73.06
 -15  -2   5  387.60   63.76
 -15   2   5  440.07   75.89
 -15  -2  -5  609.57  115.98
 -15  -2  -6    1.21   21.05
 -15   2   6   11.81   11.18
 -15  -2   6   11.25   15.34
 -15   2  -6   27.65   29.39
  -2 -15  -6   22.02   24.98
 -15   2   6   -2.58   28.63
 -15  -2  -6   51.71   39.24
 -15  -2   6  -59.52   27.76
 -15  -2   7   93.42   35.75
 -15   2   7  121.67   39.47
 -15   2   7  100.29   37.44
 -15  -2  -7  167.68   46.15
 -15  -2   7   25.10   12.34
 -15   2  -7  172.89   52.19
  -2 -15  -7   26.57   27.16
 -15  -2   8   44.44   19.50
 -15   2   8   66.97   30.05
 -15  -2  -8   48.55   32.51
 -15   2   8   35.03   19.15
 -15  -2   8   23.63   22.73
 -15   2  -8   20.89   17.25
 -15  -2   9  140.33   48.12
 -15   2   9  185.73   52.61
 -15  -2  -9  128.59   43.42
 -15   2  -9  117.72   39.09
 -15  -2   9  151.25   45.18
 -15  -2  10  148.42   45.14
 -15   2  10  140.06   46.29
 -15  -2 -10  116.03   39.94
 -15   2 -10  160.00   49.59
 -15  -2  10  142.57   43.44
 -15  -2  11  298.46   67.82
 -15   2 -11  214.38   53.43
 -15   2  11  337.15   70.46
 -15  -2 -11  215.43   53.34
  -2  15  11  334.17   79.24
 -15  -2  12  109.29   46.76
 -15  -2 -12   41.73   14.23
 -15   2 -12   38.28   21.67
  -2  15  12  146.22   58.04
 -15   2  12   67.32   36.75
   2  15  13   46.75   35.11
 -15  -2  13    7.82   22.36
 -15   2  13   -2.90   19.29
  -2  15  13  -29.91   42.42
 -15  -2  14   35.48   28.03
 -15   2  14   52.16   27.60
  -2  15  14    0.44   22.19
   2  15  14  -21.72   35.35
 -15   2  15   73.64   38.37
  -2  15  15  176.92   55.86
   2  15  15   72.82   42.81
 -15  -2  15   85.55   40.39
  -2  15  16    8.01   20.77
   2  15  16   17.29   19.04
 -15   2  16   49.83   37.52
 -15  -2  16  -15.55   23.98
 -15   2  17   38.46   28.40
  -2  15  17  120.17   45.13
   2  15  17   62.80   34.00
  -2  15  18   -8.98   20.78
   2  15  18   -6.66   13.72
 -15   2  18   28.02   24.07
  -2  15  19   23.28   15.96
   2  15  19   -0.71   10.53
 -15  -3   0   51.51   29.01
 -15   3   0   77.53   43.54
 -15  -3  -1  152.22   46.54
 -15   3   1   99.22   41.54
 -15  -3   1   99.98   34.09
 -15   3  -1  128.90   56.89
 -15  -3  -2   27.25   25.51
 -15  -3   2   42.06   26.82
 -15   3   2   65.29   30.49
 -15   3  -2   47.68   40.15
 -15  -3  -3   60.44   40.58
 -15   3   3  -31.04   33.07
 -15  -3   3   31.19   32.38
 -15   3  -3  -38.13   31.21
 -15  -3  -4  372.17   71.63
 -15   3   4  315.30   59.26
 -15   3  -4  345.36   68.62
 -15  -3   4  358.87   65.43
 -15  -3  -4  458.73   92.41
 -15  -3  -5  147.23   42.46
  -3 -15  -5  152.82   46.32
 -15   3  -5  134.30   48.06
 -15   3   5  175.24   48.56
 -15  -3   5  131.53   38.78
 -15  -3  -5  125.93   49.72
 -15  -3   6  301.15   57.68
 -15  -3  -6  401.71   74.53
  -3 -15  -6  335.92   73.72
 -15   3  -6  367.53   68.69
 -15   3   6  380.29   66.77
 -15  -3  -6  431.61   96.16
 -15  -3   6  388.78   67.99
 -15   3   7    7.32   13.43
 -15   3   7  -19.14   18.13
 -15  -3   7  -15.14   28.02
 -15  -3   7   -0.55   13.40
 -15  -3  -7   47.42   23.88
 -15   3  -7   26.18   31.26
  -3 -15  -7  -11.36   14.07
 -15  -3  -7   55.27   63.05
 -15  -3   8   27.10   20.09
 -15   3   8   -4.81   17.84
 -15  -3  -8   34.25   23.22
  -3 -15   8   17.73   25.61
 -15  -3   8   -2.87   19.55
 -15   3  -8   -1.61   14.93
  -3 -15  -8   18.26   12.85
 -15   3   9   65.75   31.26
 -15  -3   9   70.74   28.22
 -15  -3  -9   57.51   32.71
 -15   3  -9   60.59   31.48
 -15  -3   9   60.14   36.21
 -15  -3  10   59.14   30.71
 -15   3  10   13.57   19.33
 -15  -3 -10   78.05   29.89
  -3  15  10   45.36   26.92
 -15   3 -10   68.92   31.51
 -15  -3  10  125.15   44.28
 -15   3  11   97.39   41.93
 -15   3 -11   77.50   32.09
 -15  -3  11   98.52   39.56
  -3  15  11  140.81   48.12
 -15  -3 -11   73.97   38.64
 -15  -3  12  -38.15   25.53
 -15  -3 -12  -78.82   31.33
 -15   3  12   45.40   29.32
 -15   3 -12   35.54   25.41
  -3  15  12   42.65   31.05
 -15   3  13  -16.50   23.26
 -15  -3  13    2.73   17.52
  -3  15  13  -31.75   33.83
   3  15  13   50.07   30.50
 -15   3  14  132.81   48.43
   3  15  14   45.44   47.80
  -3  15  14   42.72   28.72
 -15  -3  14   40.69   39.28
 -15   3  15   16.11   23.18
  -3  15  15   -4.85   21.99
   3  15  15   34.52   38.53
 -15  -3  15   66.46   39.66
 -15   3  16  103.29   45.81
   3  15  16  108.71   41.59
  -3  15  16   61.73   46.68
 -15   3  17   12.79   22.46
  -3  15  17   13.96   12.75
   3  15  17    6.96   15.07
 -15   3  18   16.32   23.16
  -3  15  18   35.61   20.83
   3  15  18   -0.99   11.98
  -3  15  19   -8.96    7.28
 -15   4   0  269.95   69.15
 -15  -4   0  292.88   59.53
 -15   4   1    7.50   20.48
 -15  -4  -1   22.77   19.19
 -15  -4   1   -2.80   25.55
 -15   4  -1   34.68   33.98
 -15  -4  -2   29.59   29.34
 -15   4   2   10.87   19.48
 -15  -4   2   45.74   24.49
 -15   4  -2   30.69   37.24
 -15  -4  -3  228.35   61.76
 -15   4   3  308.06   59.21
 -15  -4   3  207.69   46.42
 -15  -4  -4  279.76   83.99
 -15  -4  -4  318.97   65.15
 -15   4   4  281.87   55.69
  -4 -15  -4  176.89   53.43
 -15   4  -4  317.13   62.81
 -15  -4   4  224.91   49.34
 -15  -4  -5  519.04   84.31
 -15   4  -5  446.50   78.71
  -4 -15  -5  398.94   79.62
 -15   4   5  423.65   66.95
 -15  -4   5  393.98   69.34
 -15  -4  -5  547.45  102.77
 -15  -4  -6  267.22   58.93
  -4 -15  -6  218.31   58.64
 -15   4  -6  280.32   65.27
 -15   4   6  218.38   47.55
  -4 -15   6  167.14   44.42
 -15  -4  -6  313.08   91.30
 -15  -4   6  155.02   38.57
 -15  -4   7  120.20   40.33
 -15  -4  -7  135.44   46.57
  -4 -15   7  154.73   47.41
 -15   4  -7   67.64   28.83
 -15   4   7   95.59   29.65
  -4 -15  -7  110.61   46.49
 -15  -4  -7  155.76   63.59
 -15  -4   7  115.49   48.41
  -4 -15   8   12.96   22.64
 -15   4   8   31.31   15.86
 -15  -4  -8  -22.93   15.02
 -15  -4   8    0.81   20.47
 -15   4  -8  -17.61   23.55
  -4 -15  -8   27.55   16.77
 -15  -4   8   -8.46   23.59
 -15  -4  -8   -9.27   44.85
 -15  -4  -9   -9.21   19.81
 -15   4   9   12.04   26.50
  -4 -15   9   19.13   24.41
  -4 -15  -9   -3.19   20.18
 -15   4  -9   -5.30   17.70
  -4  15   9   56.67   33.71
 -15  -4   9   11.57   13.18
 -15  -4  -9   28.74   37.92
 -15  -4   9  -15.94   15.03
 -15   4  10   30.90   33.09
 -15  -4  10  109.82   46.55
 -15   4 -10   47.12   29.76
  -4  15  10   63.91   43.74
 -15  -4 -10   89.00   31.14
 -15  -4  10   78.04   30.54
 -15  -4 -10   87.39   48.27
 -15  -4 -11  -25.52   25.29
 -15   4  11  -47.92   31.85
 -15   4 -11   35.12   27.77
  -4  15  11   25.98   18.87
 -15  -4  11    5.84   19.26
 -15   4  12   51.47   29.79
 -15   4 -12   60.39   25.31
  -4  15  12   81.31   46.66
 -15  -4 -12   10.08   13.28
 -15  -4  12   88.03   39.89
 -15   4  13   53.84   35.94
  -4  15  13    3.02   23.08
   4  15  13   84.80   37.76
 -15  -4  13   33.70   36.09
 -15   4  14   26.58   20.71
  -4  15  14   22.23   25.00
   4  15  14   31.04   33.07
  -4  15  15   56.51   35.62
   4  15  15  105.45   44.10
 -15   4  15   53.83   31.67
 -15   4  16   81.41   36.23
  -4  15  16   95.31   40.48
   4  15  16   80.14   36.36
 -15   4  17   47.52   32.25
   4  15  17    8.87   13.24
  -4  15  17   41.70   29.42
 -15   4  18   41.11   23.67
   4  15  18   14.93   20.48
  -4  15  18   13.59   11.21
  -4  15  19   -9.66   12.84
 -15   5   0  101.78   38.21
 -15  -5   0  -16.01   29.97
 -15   5   1  170.21   55.87
 -15  -5  -1   99.65   36.06
 -15  -5   1  118.81   39.77
 -15   5  -1  150.40   63.03
 -15  -5  -2  135.53   51.79
 -15   5   2  102.43   41.02
 -15  -5   2  135.72   42.71
  -5 -15  -2  132.37   46.76
 -15   5  -2  142.37   59.45
 -15  -5   3   84.67   24.86
 -15  -5  -3   97.39   48.62
 -15  -5  -3  118.68   49.18
 -15   5   3   61.54   30.32
  -5 -15  -3  113.04   47.45
 -15  -5  -4  333.53   81.02
 -15  -5  -4  281.64   62.29
 -15   5   4  298.37   62.23
  -5 -15  -4  307.75   72.38
 -15  -5   4  239.46   47.57
 -15  -5  -5  467.68   99.90
  -5 -15  -5  550.25   97.19
 -15  -5  -5  578.80   87.97
 -15   5  -5  625.52   95.48
 -15  -5   5  483.71   74.60
 -15  -5   6  149.55   42.58
 -15  -5  -6  165.30   44.51
  -5 -15   6  138.14   42.99
  -5 -15  -6  101.39   48.45
 -15   5  -6  184.90   51.15
 -15  -5  -6  185.93   77.10
 -15  -5  -7   59.06   30.05
 -15   5   7   15.27   18.06
 -15  -5   7   29.84   31.01
  -5 -15  -7    6.04   23.92
 -15   5  -7   34.09   31.82
  -5 -15   7   39.92   34.01
 -15  -5  -7   94.42   55.03
 -15  -5  -8   45.45   23.92
 -15   5   8   45.10   22.28
 -15  -5   8   83.28   33.04
  -5  15   8   95.88   49.48
 -15   5  -8   56.32   30.24
  -5 -15  -8   21.86   13.53
  -5 -15   8   64.52   33.47
 -15  -5  -8   -4.28   47.53
 -15  -5  -9   56.38   34.52
 -15   5   9   14.10   15.28
 -15   5  -9   50.30   31.55
  -5  15   9   52.77   23.15
  -5 -15  -9   86.07   43.19
 -15  -5   9   61.45   34.91
  -5 -15   9   33.34   28.07
 -15  -5  -9   10.99   30.47
 -15  -5 -10   -6.23   16.06
 -15   5  10   14.86   21.88
  -5  15  10   68.01   30.32
 -15   5 -10   13.50   22.78
  -5 -15 -10   31.48   31.91
 -15   5  11  149.13   51.92
 -15   5 -11   70.92   32.48
  -5  15  11  188.47   56.05
 -15  -5 -11  151.60   44.89
 -15   5  12  -38.95   33.95
 -15   5 -12  -12.74   19.21
 -15  -5 -12   20.34   24.14
 -15   5  13  -46.98   24.79
  -5  15  13  -10.95   22.66
 -15   5  14   64.71   30.12
  -5  15  14   26.71   25.07
   5  15  14  103.59   46.03
  -5  15  15   70.26   41.37
   5  15  15  107.30   41.17
 -15   5  15   55.84   31.89
 -15   5  16   21.14   29.70
  -5  15  16   83.58   34.71
   5  15  16   35.66   29.96
 -15   5  17   56.80   31.34
  -5  15  17   73.84   28.60
   5  15  17   84.81   30.71
  -5  15  18   27.27   20.81
   5  15  18   -7.14   14.22
 -15   5  18    4.38   16.85
  -5  15  19   -3.82    9.20
 -15   5  19    7.07    9.73
 -15   6   0  479.21   91.00
 -15  -6   0  440.60   70.83
  -6 -15   0  447.86   79.93
 -15  -6  -1   36.89   24.76
 -15   6   1   56.08   36.76
 -15  -6  -1   21.66   15.17
 -15  -6   1  116.81   41.43
  -6 -15   1   85.08   32.39
  -6 -15  -1   45.62   21.45
 -15   6  -1   38.95   38.28
 -15  -6  -2   38.47   29.79
 -15   6   2  -22.04   30.24
 -15  -6  -2   26.31   14.94
  -6 -15   2   45.65   33.90
 -15  -6   2   17.07   18.94
  -6 -15  -2   31.70   29.17
 -15  -6  -3  145.57   46.71
 -15  -6  -3   43.63   19.30
 -15   6   3   79.93   34.35
  -6 -15   3   43.12   18.39
  -6 -15  -3  101.34   45.63
 -15  -6   3  120.13   40.42
 -15  -6  -4  292.37   63.04
 -15  -6  -4  260.69   61.29
  -6 -15  -4  205.53   64.32
 -15  -6   4  225.81   48.47
 -15  -6  -5  179.00   59.12
 -15  -6  -5   83.06   33.21
  -6 -15  -5  142.89   49.41
 -15  -6   5   62.81   22.68
  -6 -15   6  194.76   52.29
 -15  -6   6  139.71   36.33
 -15  -6  -6  195.74   54.79
  -6 -15  -6  171.02   58.18
 -15   6  -6  230.55   62.57
 -15  -6  -6  247.20   72.23
 -15  -6  -7  -38.03   28.05
 -15  -6   7   36.64   20.73
  -6 -15   7   33.70   24.05
  -6  15   7   41.07   21.72
  -6 -15  -7   45.20   38.69
 -15   6  -7   37.53   24.98
 -15  -6  -7   13.03   38.90
 -15  -6  -8   -1.67   19.32
 -15   6   8    4.76   14.38
  -6  15   8    9.28   21.39
  -6 -15  -8   -4.87   15.19
 -15   6  -8  -25.37   21.69
  -6 -15   8    5.14   17.07
 -15  -6   8    9.18   13.06
 -15  -6  -9   17.45   19.96
 -15   6   9  -37.85   15.68
  -6 -15   9   62.88   40.63
  -6  15   9   10.35   21.69
 -15   6  -9   31.93   23.30
  -6 -15  -9  103.49   47.51
 -15  -6   9   12.91   15.19
 -15   6  10  270.25   57.65
 -15   6 -10  187.23   52.18
  -6  15  10  335.82   71.52
  -6 -15 -10  181.17   51.77
 -15  -6 -10  191.02   50.23
 -15   6  11   -2.38   14.16
  -6  15  11   -2.80   22.45
 -15   6 -11  -12.97   22.54
 -15  -6 -11   16.84   21.45
 -15   6  12   92.63   36.24
 -15   6 -12  121.17   40.72
  -6  15  12  162.18   49.60
 -15  -6 -12  161.17   46.96
 -15   6  13   -7.44   17.07
  -6  15  13   -4.79   16.61
 -15   6  14   35.19   30.80
  -6  15  14   34.96   25.69
   6  15  14   44.07   31.64
 -15   6  15   14.10   20.05
  -6  15  15   61.98   33.85
   6  15  15   29.40   22.98
 -15   6  16   62.08   35.11
   6  15  16  156.37   49.90
  -6  15  16  131.03   45.77
 -15   6  17   13.90   21.24
  -6  15  17   25.16   18.62
   6  15  17  -13.13   16.63
  -6  15  18    5.91   14.32
 -15   6  18   19.92   21.06
  -6  15  19   -7.56    9.83
 -15   6  19    4.20    8.31
 -15   7   0   29.82   27.05
 -15  -7   0    8.70   12.69
  -7 -15   0    2.78   15.28
 -15  -7   0   27.32   25.19
 -15   7   1  417.19   76.76
 -15  -7  -1  406.21   74.11
 -15  -7  -1  341.19   62.71
  -7 -15   1  264.99   64.23
  -7 -15  -1  342.47   75.89
 -15  -7   1  389.77   68.90
 -15   7  -1  450.53   91.40
 -15  -7   1  283.23   64.81
 -15  -7  -2   -1.40   25.95
  -7 -15   2   52.16   38.18
 -15  -7  -2  -33.68   26.97
  -7 -15  -2  -23.84   16.64
 -15  -7   2   12.59   15.12
 -15   7  -2   24.43   20.86
  -7 -15  -3    5.97   30.70
 -15  -7  -3  -35.59   29.97
 -15  -7  -3  -31.26   29.29
  -7 -15   3  -11.83   13.51
 -15  -7   3   -5.98   25.56
 -15  -7  -4  -38.87   32.26
 -15  -7  -4   65.98   37.50
  -7 -15   4    8.12    8.50
  -7 -15  -4   82.30   49.52
 -15  -7   4    5.99   16.41
 -15  -7  -5  155.14   47.25
 -15  -7  -5  108.98   44.98
  -7 -15  -5  145.86   61.16
 -15  -7   5   48.83   20.07
 -15  -7  -6  -42.10   33.46
 -15  -7   6   -3.25   19.52
  -7  15   6  -20.85   20.93
  -7 -15  -6    1.53   19.82
  -7 -15   6   20.67   19.07
 -15  -7  -7   -5.99   19.09
  -7 -15   7   16.29   16.41
 -15  -7  -7   72.03   47.18
 -15  -7   7   12.29   15.33
  -7  15   7   17.99   24.87
  -7 -15  -7   -1.00   14.33
 -15   7  -7   72.18   26.80
 -15   7   8    4.65   19.00
 -15  -7  -8    7.34   18.84
  -7 -15   8   45.30   30.12
  -7  15   8  -19.64   25.71
 -15  -7   8    0.30   21.79
  -7 -15  -8  -41.21   30.60
 -15   7  -8   -8.67   21.91
 -15  -7  -8   -1.18   22.97
 -15   7   9  179.24   49.36
  -7  15   9  211.66   59.05
 -15   7  -9  201.27   57.41
  -7 -15  -9  170.10   56.08
  -7 -15   9  153.39   48.43
 -15  -7  -9  177.96   55.33
 -15   7  10  -28.62   32.03
  -7  15  10   67.07   34.31
 -15   7 -10   -1.93   18.81
  -7 -15 -10   49.35   30.92
 -15  -7 -10   51.70   24.68
 -15   7  11  365.25   73.71
  -7  15  11  397.44   78.56
 -15   7 -11  314.55   69.37
 -15  -7 -11  326.49   64.81
 -15   7  12  -14.53   25.45
  -7  15  12  -12.82   26.24
 -15   7 -12  -49.10   25.60
 -15  -7 -12   24.12   36.41
 -15   7  13  -45.69   22.16
  -7  15  13   -1.09   25.74
 -15   7  14  -22.47   22.44
  -7  15  14   19.30   19.45
   7  15  14  -30.92   24.46
 -15   7  15   73.74   30.91
  -7  15  15   48.90   32.04
   7  15  15   80.77   31.95
 -15   7  16   -0.15   13.54
  -7  15  16  -28.57   19.21
   7  15  16   -3.36   12.84
 -15   7  17   10.99   17.16
  -7  15  17   13.15   18.31
   7  15  17   20.72   13.59
 -15   7  18   18.79   17.98
  -7  15  18    3.90   11.83
  -8 -15   0  535.60   89.65
 -15  -8   0  595.52   96.92
 -15  -8   0  550.17   83.30
 -15   8  -1   56.75   41.18
 -15  -8  -1   68.66   39.76
 -15  -8   1   35.81   20.11
  -8 -15   1   19.32   21.99
  -8 -15  -1  -34.73   26.09
 -15  -8   1    9.84   35.45
 -15  -8  -1  -33.76   31.15
 -15  -8  -2   71.74   18.35
  -8 -15   2  121.19   43.77
  -8 -15  -2  181.04   61.41
 -15  -8   2  119.01   40.73
 -15  -8   2   81.43   35.89
 -15   8  -2  133.49   57.50
 -15  -8  -2  193.79   54.07
  -8 -15   3   40.62   28.50
  -8 -15  -3  -29.80   33.45
 -15  -8   3   46.16   25.96
 -15   8  -3    5.97   28.34
 -15  -8  -3   14.93   22.15
  -8 -15   4   36.93   29.93
  -8 -15  -4  -17.04   27.49
 -15  -8   4  -12.85   13.38
 -15  -8  -4    2.03   21.34
 -15  -8   5  -66.05   29.23
 -15  -8  -5  -30.79   26.54
  -8 -15  -5   12.60   22.78
 -15  -8  -5  -28.99   29.88
  -8 -15  -6   27.27   42.20
  -8 -15   6   24.72   16.69
 -15  -8  -6   61.28   39.13
 -15  -8   6    0.04   13.53
 -15  -8  -6   53.47   29.38
 -15  -8  -7  -17.00   27.79
 -15  -8   7   -7.63   15.20
  -8  15   7  -70.53   35.80
  -8 -15  -7   10.52   38.12
  -8 -15   7   19.66   23.88
 -15  -8  -7  -17.65   26.35
  -8 -15  -8    3.14   24.42
  -8 -15   8   61.57   27.06
 -15  -8   8   91.10   61.47
 -15   8  -8   30.15   26.11
 -15  -8  -8   20.38   21.83
 -15   8   9   52.93   24.03
  -8  15   9   52.07   32.12
 -15   8  -9    3.92   13.04
  -8 -15  -9  -19.59   26.34
 -15  -8  -9   26.37   25.77
 -15   8  10  348.71   66.87
  -8  15  10  386.40   78.44
 -15  -8 -10  391.77   78.21
 -15   8 -10  282.12   66.81
  -8 -15 -10  309.83   71.96
 -15   8  11  -15.29   24.95
  -8  15  11  -29.57   18.90
 -15   8 -11    1.07   14.79
  -8 -15 -11   10.83   17.40
 -15  -8 -11  -11.33   15.50
 -15   8  12  154.13   50.93
  -8  15  12  215.01   54.39
 -15   8 -12   98.06   36.07
 -15  -8 -12  172.07   48.79
 -15   8  13   -9.10   16.32
  -8  15  13   16.58   16.64
 -15  -8 -13   10.29   16.67
 -15   8  14   12.15   18.92
  -8  15  14   17.71   25.17
   8  15  14  -12.42   19.45
 -15   8  15   13.13   14.43
  -8  15  15   13.90   17.34
   8  15  15  -20.23   20.31
 -15   8  16   18.45   15.87
  -8  15  16   44.19   24.03
   8  15  16   29.30   21.33
 -15   8  17  -27.41   19.11
  -8  15  17   -0.94   12.10
 -15   8  18   18.09   13.23
  -8  15  18    1.68   10.04
 -15  -9   0   76.97   34.14
  -9 -15   0   12.98   18.14
 -15  -9   0   36.50   22.67
 -15  -9  -1  255.86   56.10
  -9 -15   1  252.55   64.49
  -9 -15  -1  239.21   66.64
 -15  -9   1  219.12   52.50
 -15  -9   1  205.94   59.81
 -15  -9  -1  274.22   71.25
  -9 -15   2   32.46   22.93
  -9 -15  -2  -21.81   18.89
 -15  -9   2   27.67   22.21
 -15  -9   2    4.08   16.46
 -15  -9  -2  -22.21   20.83
 -15  -9  -3  -19.58   43.35
  -9 -15   3   59.49   29.36
  -9 -15  -3   12.94   17.63
 -15   9  -3   -8.42   20.86
 -15  -9   3   85.62   35.37
 -15  -9  -3  129.23   45.75
 -15  -9   4   -7.91   13.86
  -9 -15   4   -1.98    8.62
  -9 -15  -4   32.74   28.92
 -15  -9  -4   15.05   33.83
 -15  -9  -5  -11.78   24.13
 -15  -9   5   51.27   25.58
  -9 -15  -5   89.51   54.69
 -15  -9  -5   23.16   27.89
 -15  -9   6    8.75   16.06
  -9 -15  -6   44.98  110.30
  -9 -15   6  -26.32   15.88
 -15  -9  -6   26.89   15.56
  -9  15   7   -1.50   15.02
 -15  -9   7    4.00   19.09
  -9 -15  -7   25.73   23.68
  -9 -15   7   -4.57   11.54
 -15  -9  -7   17.87   22.09
  -9  15   8   38.90   24.01
  -9 -15  -8  -27.79   24.95
 -15   9  -8   85.73   42.06
 -15  -9  -8   86.50   38.65
 -15   9   9  140.91   43.39
  -9  15   9  212.40   52.08
  -9 -15  -9  201.89   61.38
 -15   9  -9  215.68   59.31
 -15  -9  -9  237.48   62.85
 -15   9  10   56.73   24.81
  -9  15  10   62.93   33.93
  -9 -15 -10   17.29   13.30
 -15  -9 -10   28.60   25.43
 -15   9  11  231.74   56.89
  -9  15  11  207.85   55.99
 -15   9 -11  201.57   58.56
  -9 -15 -11  213.86   56.52
 -15  -9 -11  210.73   53.44
 -15   9  12   19.97   22.24
  -9  15  12   65.59   33.40
 -15   9 -12   36.42   23.09
 -15  -9 -12   63.07   35.67
 -15   9  13   -8.58   20.23
  -9  15  13   61.54   35.03
 -15  -9 -13   27.23   13.34
 -15   9  14    2.85   17.69
  -9  15  14   29.38   27.84
   9  15  14   35.76   24.39
 -15   9  15  -12.17   14.06
  -9  15  15    4.54   16.68
   9  15  15   10.86   17.60
 -15   9  16  -12.80   16.85
  -9  15  16  -15.42   16.98
 -15   9  17    2.44   11.78
  -9  15  17  -23.10   14.91
 -15   9  18    8.07    8.85
  -9  15  18  -16.54   13.31
 -10 -15   0   42.47   36.85
 -15 -10   0   68.39   31.38
 -15 -10   0   74.37   36.40
 -15 -10  -1   14.42   11.40
 -10 -15   1   50.36   30.72
 -10 -15  -1   31.61   24.08
 -15 -10   1   -2.95   11.27
 -15 -10   1   35.49   23.41
 -15 -10  -1   14.59   11.49
 -10 -15   2   15.11   24.25
 -10 -15  -2   80.91   38.32
 -15 -10   2   36.87   33.26
 -15 -10   2    8.81   16.59
 -15 -10  -2   73.69   41.00
 -15 -10  -3    1.08   13.76
 -10 -15   3   -8.61   20.07
 -10 -15  -3  -20.06   34.14
 -15 -10  -3   44.28   34.11
 -15 -10   3  -33.44   27.30
 -15 -10   4  -24.19   21.60
 -10 -15   4   15.26   22.52
 -15 -10  -4    0.41   20.64
 -10 -15  -4   15.06   14.95
 -15 -10   5   36.10   22.23
 -10 -15  -5   50.46   30.80
 -15 -10  -5   17.34   24.35
 -10 -15   6   38.08   18.99
 -15 -10   6   19.55   20.20
 -10 -15  -6  -26.07   21.96
 -10 -15  -7  -17.07   30.44
 -15 -10  -7  -10.27   17.87
 -10  15   8   37.26   16.00
 -10 -15  -8    3.03   17.34
 -15 -10  -8   34.38   25.20
 -15  10   9   80.28   32.81
 -10  15   9   35.02   27.53
 -10 -15  -9   97.41   44.99
 -15  10  -9    2.84   13.94
 -15 -10  -9   54.24   31.55
 -15  10  10  127.40   40.80
 -10  15  10  112.64   36.95
 -15  10 -10  142.01   49.43
 -10 -15 -10  150.98   49.14
 -15 -10 -10  126.34   41.74
 -15  10  11   28.13   17.55
 -10  15  11   39.47   30.85
 -15  10 -11   -2.82   15.40
 -10 -15 -11   24.51   14.56
 -15 -10 -11   70.44   32.97
 -15  10  12   44.94   21.32
 -10  15  12   48.24   25.47
 -15  10 -12   72.23   28.17
 -15 -10 -12   52.78   25.75
 -15  10  13  -62.85   27.64
 -10  15  13  -36.26   19.38
 -15 -10 -13   15.90   18.02
 -15  10  14   31.42   22.82
 -10  15  14    0.71   18.46
  10  15  14   13.41   19.20
 -15  10  15    9.56   14.21
 -10  15  15    1.47   13.85
 -15  10  16   -7.29   18.58
 -10  15  16    7.82    9.69
 -15  10  17  -11.27   14.27
 -10  15  17   -5.47    8.17
 -11 -15   0   26.17   24.23
 -15 -11   0   54.88   29.00
 -11 -15   1   20.10   12.90
 -11 -15  -1   -9.97   36.79
 -15 -11  -1  -12.45   15.87
 -15 -11   1   37.74   27.28
 -15 -11  -1   15.88   19.55
 -15 -11   1  -11.85   18.67
 -11 -15   2   25.22   27.04
 -15 -11  -2  -11.11   20.03
 -11 -15  -2  -25.51   37.85
 -15 -11   2   -3.66   12.26
 -15 -11   2  -20.58   23.82
 -15 -11  -2   28.51   28.15
 -15 -11   3   -8.94   16.20
 -11 -15   3   26.17   39.86
 -11 -15  -3    7.06   15.83
 -15 -11   3   24.77   22.74
 -15 -11  -3   19.34   30.05
 -15 -11   4  104.39   39.82
 -11 -15   4   13.71   18.65
 -11 -15  -4   68.61   40.74
 -15 -11  -4  150.22   48.61
 -15 -11   5   17.64   16.10
 -11 -15  -5  -16.17   17.15
 -15 -11  -5  -36.21   41.82
 -11 -15  -6  140.28   52.09
 -15 -11  -6  116.27   38.49
 -11 -15  -7   42.19   35.82
 -15 -11  -7   53.37   31.27
 -11 -15  -8  -33.93   26.05
 -15 -11  -8   13.12   13.83
 -11 -15  -9   70.48   38.07
 -11  15   9   -9.80   18.33
 -15  11  -9   84.56   42.44
 -15 -11  -9   48.76   27.01
 -15  11  10  -12.46   20.30
 -11  15  10   75.12   30.04
 -15  11 -10   -0.93   17.13
 -11 -15 -10   48.15   36.29
 -15 -11 -10   72.52   35.47
 -15  11  11   -1.91   19.24
 -11  15  11   39.98   23.80
 -15  11 -11    9.95   26.31
 -11 -15 -11   34.82   22.99
 -15 -11 -11    9.44   14.67
 -15  11  12   12.03   13.02
 -11  15  12   27.92   23.18
 -15  11 -12   53.55   25.02
 -11 -15 -12   23.76   28.10
 -15 -11 -12   74.60   30.63
 -15  11  13   47.74   24.88
 -11  15  13   36.39   19.89
  11  15  13    6.21   19.73
 -15 -11 -13  -17.00   12.57
 -15  11  14   27.03   13.32
 -11  15  14   23.07   10.59
 -15  11  15    2.52   17.21
 -11  15  15   -6.73   12.30
 -15  11  16   10.74   10.61
 -11  15  16   23.62   20.86
 -11  15  17  -14.08   14.28
 -15  11  17   -4.43   12.76
 -12 -15   0  -21.64   31.33
 -15 -12   0  -24.66   27.79
 -15 -12   0   -7.87   11.15
 -15 -12   1   36.78   21.66
 -12 -15   1   66.12   38.41
 -12 -15  -1   89.88   44.55
 -15 -12   1   39.74   26.29
 -15 -12  -1    0.76   17.50
 -15 -12   2   14.56   21.04
 -12 -15   2   -2.90   15.69
 -12 -15  -2   -6.90   15.86
 -15 -12   2    2.65   13.28
 -15 -12  -2  -20.72   30.21
 -15 -12   3   32.60   29.09
 -12 -15   3   17.80   16.10
 -12 -15  -3   21.83   24.64
 -15 -12   3  -14.80   23.48
 -15 -12  -3   38.18   30.25
 -15 -12   4    3.48   13.49
 -12 -15   4    9.61   27.45
 -12 -15  -4  -19.27   30.45
 -15 -12  -4  -37.07   26.45
 -12 -15  -5  324.20   79.19
 -15 -12  -5  359.18   81.86
 -12 -15  -6   12.79   15.95
 -15 -12  -6  -11.49   23.46
 -12 -15  -7   90.38   42.89
 -15 -12  -7  127.32   44.99
 -12 -15  -8   37.15   36.94
 -15 -12  -8   35.54   14.21
 -12 -15  -9   22.58   30.48
 -15  12  -9  -10.46   12.19
 -15 -12  -9  -30.37   25.90
 -15  12  10  -18.97   18.63
 -12  15  10   -5.15   14.31
 -15  12 -10   -6.36   20.82
 -12 -15 -10   14.86   20.59
 -15 -12 -10  -10.78   16.10
 -12  15  11   80.92   35.83
 -15  12  11   15.21   17.06
 -15  12 -11   58.56   35.40
 -12 -15 -11    6.86   14.66
 -12  15 -11   22.92   16.32
 -15 -12 -11   73.15   32.10
 -15  12  12    7.35   13.25
 -12  15  12   -8.36   11.00
 -15  12 -12    3.04    9.99
 -12 -15 -12   27.95   16.74
 -15 -12 -12    6.01   12.80
 -12  15  13  -17.39   18.26
 -15  12  13  -31.05   24.29
 -15 -12 -13  -11.16    8.40
 -15  12  14  -15.33   13.20
 -12  15  14   10.14   10.20
 -15  12  15   38.91   21.57
 -12  15  15   48.57   23.47
 -15  12  16    0.61   10.34
 -12  15  16   -8.51   12.98
 -13 -15   0   41.40   32.36
 -15 -13   0   22.21   21.07
 -13 -15   1  -10.83   18.16
 -13 -15  -1    8.68   23.33
 -15 -13   1    1.61   15.15
 -15 -13  -1    4.81   22.15
 -13 -15   2    2.29   11.89
 -13 -15  -2   45.83   38.68
 -15 -13   2   11.90   13.30
 -15 -13  -2   -8.28   29.64
 -13 -15   3  -12.28   22.61
 -15 -13   3   -5.32   28.51
 -13 -15  -3  -12.79   24.77
 -15 -13  -3   36.72   35.29
 -13 -15  -4  262.97   69.84
 -15 -13  -4  286.24   72.79
 -13 -15  -5  -51.61   37.82
 -15 -13  -5  -16.27   25.92
 -13 -15  -6  413.45   86.57
 -15 -13  -6  363.04   82.95
 -13 -15  -7   -4.81   20.51
 -15 -13  -7  -12.12   20.91
 -13 -15  -8    5.97   14.13
 -15 -13  -8   77.70   32.54
 -13 -15  -9   -7.39   18.19
 -15  13  -9   21.07   19.51
 -15 -13  -9   -5.94   12.73
 -13  15  10   36.52   17.79
 -15  13 -10   18.93   21.38
 -13 -15 -10   18.81   23.14
 -15 -13 -10   36.83   21.84
 -15  13  11  -17.67   11.08
 -13  15  11  -18.23   16.59
 -15  13 -11   -1.92   10.18
 -13 -15 -11   44.49   25.08
 -13  15 -11    6.78   14.96
 -15 -13 -11  -49.12   25.17
 -15  13  12   -6.80   12.79
 -13  15  12   17.54   22.57
 -13 -15 -12   31.39   25.52
 -15 -13 -12   33.38   21.49
 -15  13  13    1.39   13.49
 -13  15  13    5.91   10.27
 -15 -13 -13   33.51   20.98
 -15  13  14  -20.02   17.80
 -13  15  14   23.13   20.04
 -15  13  15   -3.02   13.15
 -13  15  15   -4.39   10.89
 -13  15  16   23.41   16.61
 -15  13  16   28.02   17.96
 -14 -15   0   13.16   27.26
 -15 -14   0   -1.16   16.77
 -14 -15   1   10.41   22.84
 -14 -15  -1   36.19   39.23
 -15 -14   1    7.01   15.08
 -15 -14  -1   28.48   34.57
 -14 -15   2   -8.18   25.67
 -15 -14   2   -9.87   24.34
 -14 -15  -2  -16.95   27.91
 -15 -14  -2   -0.43   19.88
 -14 -15   3   21.20   23.14
 -15 -14   3   11.72   19.68
 -14 -15  -3   71.13   35.56
 -15 -14  -3  103.28   44.88
 -14 -15  -4  -33.47   34.69
 -15 -14  -4   -1.22   16.90
 -14 -15  -5  383.22   87.23
 -15 -14  -5  347.22   77.85
 -14 -15  -6  -55.80   22.07
 -15 -14  -6   -0.10   20.33
 -14 -15  -7  183.08   58.04
 -15 -14  -7  237.42   60.38
 -14 -15  -8  -43.09   34.21
 -15 -14  -8   13.98   14.92
 -14 -15  -9   14.05   19.77
 -15 -14  -9   18.85   13.04
 -15  14  -9   21.89   22.79
 -15  14 -10    0.38   20.46
 -14 -15 -10  -24.77   24.37
 -15 -14 -10  -23.43   16.47
 -14  15 -10   45.28   33.40
 -15  14 -11   14.42   18.33
 -14  15 -11   40.63   21.30
 -14 -15 -11    3.24   11.35
 -15 -14 -11    0.61   10.15
 -15  14  12   -9.00    8.98
 -14  15  12   -0.09   12.97
 -14 -15 -12   16.18   14.27
 -15  14  13   51.53   22.23
 -14  15  13   15.40   14.97
 -15  14  14   -0.11    7.43
 -14  15  14   -2.33   10.42
 -15  14  15   30.44   15.15
 -14  15  15   21.03   13.34
 -15 -15   0   35.69   34.34
 -15 -15   1  -33.19   24.49
 -15 -15  -1  -18.72   38.18
 -15 -15   2  -13.11   19.89
 -15 -15  -2  212.17   57.10
 -15 -15   3   33.86   32.25
 -15 -15  -3  -11.52   24.02
 -15 -15  -4   60.13   30.65
 -15 -15  -5  -42.38   31.93
 -15 -15  -6  182.86   59.53
 -15 -15  -7   -6.20   21.47
 -15 -15  -8   -5.70   12.85
 -15 -15  -9  -15.49   29.37
 -15  15  -9    3.41   15.02
 -15  15 -10   65.21   31.91
 -15 -15 -10    2.27   13.03
 -15  15 -11   26.85   19.58
 -15 -15 -11   -4.37   10.15
 -15 -15 -12    9.57   16.79
 -16   0   0  823.83  109.04
 -16   0  -1   75.25   45.75
 -16   0   1   12.38   20.77
 -16   0  -2  255.77   72.16
 -16   0   2  128.51   43.73
 -16   0  -2  175.55   51.78
 -16   0  -3   53.14   33.58
 -16   0   3   95.50   35.90
 -16   0  -3  110.03   43.19
 -16   0  -4    1.17   12.10
 -16   0   4  -19.91   14.46
 -16   0  -5  118.63   43.65
 -16   0   5   77.62   34.24
 -16   0   5  117.61   39.24
 -16   0  -5  174.57   51.93
 -16   0   6   33.97   17.74
 -16   0  -6  -12.37   25.32
 -16   0   7  123.78   35.22
 -16   0  -7  197.34   50.42
 -16   0   7  177.97   44.63
 -16   0   8   61.61   30.31
 -16   0  -8  131.86   48.59
 -16   0   8   88.20   34.45
 -16   0   9   46.51   29.62
 -16   0  -9   54.31   32.50
 -16   0   9   35.29   19.49
 -16   0  10  435.59   77.90
 -16   0 -10  327.38   69.50
 -16   0  11  111.16   40.14
 -16   0 -11   30.36   17.64
 -16   0  12  249.39   67.83
 -16   0 -12  256.27   56.20
   0  16  12  403.61   95.42
 -16   0  13   16.26   31.58
   0  16  13   15.91   27.18
 -16   0  14  -19.20   24.41
   0  16  14   25.44   26.40
 -16   0  15  -52.81   27.74
   0  16  15   17.15   23.53
   0  16  16   22.41   29.02
 -16   0  16   10.88   22.70
   0  16  17   33.92   23.68
   0  16  18   -5.35   12.03
 -16   1   0   85.49   43.62
 -16  -1   0   60.11   48.60
 -16  -1  -1  302.53   65.56
 -16   1   1  264.74   65.48
 -16  -1   1  311.11   64.09
 -16   1  -1  298.89   73.74
 -16   1  -2   59.33   43.54
 -16   1   2   42.87   26.56
 -16  -1  -2   29.06   11.38
 -16  -1  -2  126.27   47.04
 -16   1  -2   48.78   31.68
 -16  -1   2   -2.90   21.91
 -16  -1  -3   64.08   39.69
 -16  -1  -3  -27.03   28.12
 -16   1   3   26.45   25.82
 -16   1  -3    1.21   14.40
 -16  -1   3   24.76   24.26
 -16   1  -3   -2.47   46.00
 -16  -1  -4   75.07   23.94
 -16   1  -4  119.10   35.49
 -16  -1   4   77.79   34.29
 -16   1   4   79.72   32.76
 -16   1  -4   40.62   42.65
 -16  -1  -4  186.51   68.42
 -16  -1  -5   15.42   20.59
 -16   1  -5   60.15   37.28
 -16   1   5   49.05   17.57
 -16  -1   5   19.51   12.61
 -16   1  -5   28.43   43.39
 -16  -1   5   21.67   19.88
 -16  -1  -5   20.66   41.19
 -16   1   6   59.56   29.08
 -16  -1  -6  138.95   46.31
 -16   1  -6  165.01   54.46
 -16   1   6  125.15   40.67
 -16  -1  -6  167.59   64.45
 -16  -1   6   68.45   30.63
 -16  -1   6  146.52   42.44
 -16  -1   7   16.43   17.79
 -16   1   7   61.05   28.91
 -16   1   7    5.20   26.35
 -16  -1  -7   37.77   31.17
 -16   1  -7   -6.28   16.40
 -16  -1   7  -31.05   26.28
 -16  -1   8  149.16   51.06
 -16   1   8  104.66   38.06
 -16   1   8   90.35   35.40
 -16  -1  -8  130.46   42.93
 -16  -1   8  112.26   38.74
 -16   1  -8  117.40   44.79
 -16  -1   9  262.09   62.16
 -16   1   9  268.78   60.73
 -16  -1  -9  280.54   63.96
 -16   1  -9  250.45   57.54
 -16  -1   9  144.99   47.62
 -16   1   9  160.06   40.36
 -16  -1  10   67.22   33.99
 -16   1  10   73.93   33.69
 -16  -1 -10   64.90   31.58
 -16   1 -10   57.38   20.95
 -16   1  11  444.89   78.85
 -16  -1 -11  305.91   63.84
 -16   1 -11  270.11   58.98
 -16  -1  11  294.69   69.31
  -1  16  11  399.57   83.85
 -16   1  12   42.16   30.36
 -16  -1 -12   12.92   15.83
 -16   1 -12   41.73   18.68
  -1  16  12   26.90   35.76
 -16  -1  12   39.75   26.15
   1  16  12   58.62   36.90
 -16   1  13  102.36   44.01
  -1  16  13   46.91   41.59
   1  16  13   21.22   32.32
 -16  -1  13   41.17   37.64
 -16   1  14   13.35   14.55
  -1  16  14   27.10   30.27
   1  16  14   -1.24   27.48
 -16  -1  14   14.95   30.10
 -16   1  15    0.15   19.07
  -1  16  15   -3.06   19.20
   1  16  15  -23.87   24.91
 -16  -1  15   19.48   24.16
  -1  16  16   21.96   17.79
   1  16  16   20.77   24.98
 -16   1  16    7.20   14.50
 -16   1  17  -13.64   13.12
  -1  16  17  -11.31   20.09
   1  16  17   15.94   15.43
   1  16  18  -16.01   10.41
  -1  16  18  -15.26   17.78
 -16   2   0  158.05   52.60
 -16  -2   0  207.52   57.04
 -16   2  -1   11.97   35.63
 -16   2   1  -30.73   25.73
 -16  -2   1  -35.73   16.68
 -16  -2  -1  -89.13   39.64
 -16  -2  -2   20.60   28.97
 -16  -2  -2  -18.75   19.03
 -16   2   2   -2.78   35.11
 -16  -2   2  -25.09   29.11
 -16   2  -2  -46.82   31.52
 -16   2  -2   50.53   49.87
 -16  -2  -3   74.73   46.91
 -16  -2  -3   25.15   21.09
 -16   2   3   59.80   34.20
 -16  -2   3   11.11   20.56
 -16   2  -3   10.92   15.11
 -16   2  -3  -13.55   42.07
 -16  -2  -4   21.31   21.29
 -16   2  -4   -8.32   10.18
 -16   2   4   37.16   26.48
 -16  -2   4  -15.13   23.38
 -16   2  -4    9.18   43.07
 -16  -2  -5    0.25   16.75
 -16   2  -5   35.06   17.57
 -16   2   5  -10.11   23.65
 -16  -2   5  -25.28   20.59
 -16  -2  -5    4.72   25.96
 -16   2   6   28.09   13.09
 -16  -2  -6   65.49   63.84
 -16   2  -6  -15.77   20.49
 -16   2   6   21.98   19.40
 -16  -2  -6   38.91   42.72
 -16  -2   6  -15.24   18.64
 -16  -2   6  -21.39   22.74
 -16   2   7  -29.54   31.42
 -16   2   7    4.26   17.75
 -16  -2   7   11.01   26.45
 -16  -2  -7   50.65   30.54
 -16   2  -7   30.80   25.82
 -16  -2  -7   85.31   46.08
 -16  -2   7   36.98   25.81
 -16   2   8   62.38   26.14
 -16  -2   8   26.84   34.24
 -16  -2  -8   37.09   15.50
 -16   2   8   46.88   32.80
 -16  -2   8   21.41   27.79
 -16   2  -8   44.07   32.27
 -16  -2  -8   71.00   50.94
 -16   2   9   83.76   30.73
 -16  -2   9   99.58   40.13
 -16  -2  -9   86.64   33.74
 -16   2  -9   68.13   26.92
 -16  -2   9   85.82   40.10
 -16  -2  10  194.82   50.57
 -16   2  10  202.03   59.37
 -16  -2 -10  140.20   37.90
 -16   2 -10  196.18   53.99
 -16  -2  11   -3.11   20.21
 -16   2  11   60.21   31.25
 -16  -2 -11   11.09   25.59
 -16   2 -11  -25.30   11.18
  -2  16  11   62.92   41.03
 -16  -2 -12   40.10   17.67
 -16   2  12   27.87   33.35
 -16   2 -12   55.53   31.37
 -16  -2  12   52.00   38.76
  -2  16  12   65.25   45.53
 -16   2  13   -2.60   18.62
 -16  -2 -13   65.52   31.14
  -2  16  13   -8.37   21.21
   2  16  13   51.63   41.68
 -16  -2  13   13.24   27.15
 -16   2  14    0.97   20.85
  -2  16  14    2.26   18.54
   2  16  14   -4.68   29.35
 -16  -2  14    8.87   19.07
 -16   2  15   31.62   28.18
  -2  16  15   17.69   21.45
   2  16  15   -9.95   17.85
  -2  16  16  -10.18   18.97
   2  16  16   25.85   21.52
 -16   2  16   12.02   24.61
  -2  16  17   21.26   20.54
   2  16  17    2.21   15.51
 -16   2  17    8.56   18.75
  -2  16  18   13.70   16.11
   2  16  18    5.13   14.45
  -2  16  19  -16.13   11.26
 -16   3   0  -23.88   25.16
 -16  -3   0  -25.01   21.18
 -16   3  -1   -6.55   22.74
 -16  -3  -1   41.72   33.97
 -16   3   1   30.64   16.94
 -16  -3  -1  -24.65   17.08
 -16  -3   1  -34.10   35.00
  -3 -16  -1   24.69   20.20
 -16   3  -1   39.08   28.82
 -16  -3  -2   13.51   19.87
 -16  -3  -2    8.40   18.17
 -16   3   2   22.71   28.12
 -16  -3   2   68.80   35.91
  -3 -16  -2   53.79   29.68
 -16   3  -2   17.33   14.79
 -16   3  -2   48.27   41.52
 -16  -3  -3   11.25   20.74
 -16  -3  -3  100.82   38.34
 -16   3   3   46.60   22.92
  -3 -16  -3   53.64   32.76
 -16  -3   3   -4.71   21.62
 -16   3  -3   96.18   40.37
 -16   3  -3   64.15   58.34
 -16  -3  -4   41.49   49.88
 -16  -3  -4   28.42   20.95
  -3 -16  -4   18.40   13.03
 -16   3   4   16.24   19.04
 -16   3  -4   70.78   39.09
 -16  -3   4   19.09   20.35
 -16   3  -4   56.79   45.53
 -16  -3  -5   38.46   17.50
  -3 -16  -5   11.08   27.60
 -16   3  -5   34.87   30.36
 -16   3   5   22.36   24.15
 -16  -3   5   27.73   20.17
 -16  -3  -5   85.93   56.08
 -16  -3  -6   -7.91   26.58
 -16   3  -6   31.99   22.37
  -3 -16  -6   25.42   18.91
 -16   3   6   10.35   15.72
 -16  -3  -6   14.50   42.07
 -16  -3   6    6.29   16.79
 -16   3   7    1.27   15.24
 -16  -3   7  -54.14   26.74
 -16  -3  -7   15.60   25.19
 -16   3   7  -16.37   23.02
 -16   3  -7   55.29   35.73
  -3 -16  -7  -30.93   35.51
 -16  -3  -7  -11.86   46.67
 -16  -3   7  -46.03   33.39
 -16   3   8   28.65   29.57
 -16  -3  -8   45.06   30.16
 -16  -3   8    6.44   12.93
 -16   3  -8   32.31   34.42
 -16  -3  -8   33.75   34.80
 -16  -3   8   23.30   28.69
 -16   3   9   76.53   34.04
 -16  -3  -9   24.33   19.85
 -16   3  -9   63.74   34.81
 -16  -3   9   36.99   26.40
 -16  -3  -9  108.76   66.05
 -16  -3   9   55.27   24.04
 -16   3  10   20.25   26.72
 -16  -3 -10  -26.16   22.70
 -16  -3  10   -4.96   17.44
 -16   3 -10  -10.65   13.35
 -16  -3 -11  -87.23   33.79
 -16   3  11  -34.24   31.42
 -16   3 -11   -4.46   14.30
  -3  16  11  -41.00   26.44
 -16  -3  11  -23.40   25.53
 -16   3  12   57.08   35.87
 -16  -3 -12  -13.14   24.06
 -16   3 -12    1.64   10.04
  -3  16  12   61.47   32.70
 -16  -3  12  -34.91   23.04
 -16   3  13    6.46   14.64
  -3  16  13   10.85   23.11
   3  16  13   10.25   26.05
 -16  -3 -13   23.29    9.92
 -16  -3  13   -2.48   15.31
 -16   3  14   17.63   25.22
  -3  16  14   24.98   24.03
   3  16  14   -4.00   18.26
 -16   3  15   34.21   27.03
  -3  16  15   56.90   35.02
   3  16  15   35.35   31.40
 -16   3  16   11.50   14.60
  -3  16  16   -4.39   13.00
   3  16  16   45.01   33.71
  -3  16  17   13.61   13.78
   3  16  17  -16.69   23.84
 -16   3  17   11.47   24.51
  -3  16  18   -6.63    9.27
   3  16  18   12.28   16.48
 -16   4   0    3.72   20.66
 -16  -4   0   34.42   26.69
 -16  -4   0  -16.65   21.28
 -16   4   0  -12.31   16.12
 -16  -4  -1   15.94   16.17
 -16   4   1   56.02   30.14
 -16  -4  -1    5.78   20.70
 -16  -4   1  -73.84   41.14
 -16   4  -1   78.91   44.90
  -4 -16   1   54.45   19.49
  -4 -16  -1  143.31   42.31
 -16   4   1   11.35   23.56
 -16   4  -1   27.51   28.52
 -16  -4  -2  145.70   55.17
 -16  -4  -2  111.29   43.77
 -16   4   2   16.22   14.26
 -16  -4   2   92.99   36.36
  -4 -16  -2  107.87   41.02
 -16   4  -2   84.16   42.25
 -16   4  -2  174.45   68.63
 -16  -4  -3   91.27   39.83
 -16  -4  -3   44.21   29.57
 -16   4   3   85.46   40.00
  -4 -16  -3   48.20   26.71
 -16  -4   3   72.51   32.69
 -16   4  -3   44.97   28.65
 -16   4  -3  135.93   62.38
 -16  -4  -4  157.08   59.05
 -16  -4  -4   44.32   26.92
  -4 -16  -4   54.11   38.81
 -16   4   4   37.58   20.51
 -16   4  -4   44.42   36.20
 -16  -4   4   33.58   25.53
 -16   4  -4   71.37   44.84
 -16  -4  -5  129.22   59.09
  -4 -16  -5   56.45   38.31
 -16   4  -5  108.38   42.32
 -16   4   5   89.05   37.41
 -16  -4   5   32.15   23.81
 -16  -4  -5  101.62   44.52
 -16  -4  -6   10.96   15.51
  -4 -16  -6    0.71   26.38
 -16   4  -6   -9.94   21.18
 -16  -4  -6   56.62   50.03
 -16  -4   6   19.03   13.78
 -16   4   7  -16.90   23.32
 -16  -4  -7  -73.54   38.63
 -16  -4   7   30.78   12.35
 -16   4  -7   -4.63   14.92
  -4 -16  -7    9.43   26.93
 -16  -4  -7   69.44   55.63
 -16  -4  -8   52.25   34.71
 -16  -4   8   21.06   21.82
 -16   4   8   12.57   17.14
 -16   4  -8   21.54   27.17
  -4 -16  -8   25.67   29.26
 -16  -4  -8   -5.66   26.85
 -16  -4  -9  -13.60   22.30
 -16   4  -9   16.62   30.47
 -16   4   9   11.95   13.43
 -16   4  10   -9.00   19.54
 -16  -4 -10   14.20   12.90
 -16   4 -10    3.71   19.78
  -4  16  10   -8.67   29.57
 -16   4  11   -2.17   24.96
 -16   4 -11  -11.22   17.85
  -4  16  11    0.90   18.23
 -16   4  12   25.33   21.27
 -16   4 -12  -35.54   23.35
  -4  16  12   -8.78   17.90
 -16  -4 -12   23.92   15.79
 -16   4  13    4.13   18.46
  -4  16  13  -17.05   36.70
 -16  -4 -13   35.32   17.90
 -16   4  14   44.97   33.70
  -4  16  14   14.43   21.06
   4  16  14   52.58   43.23
   4  16  15   31.87   21.31
  -4  16  15    6.37   18.34
 -16   4  15    1.35   24.64
 -16   4  16    7.73   12.12
  -4  16  16   35.76   29.52
   4  16  16  -16.50   31.04
 -16   4  17   21.53   21.48
  -4  16  17   18.46   23.19
   4  16  17   -8.23   12.26
  -4  16  18    7.80   14.25
 -16   4  18   -7.61   11.49
 -16   5   0   39.89   34.77
 -16  -5   0   53.37   26.63
 -16  -5   0  -73.63   45.84
  -5 -16   0  -22.25   17.17
 -16   5   0   77.79   46.16
 -16   5  -1   26.93   44.57
 -16  -5   1   37.77   26.60
 -16  -5  -1   87.13   29.67
 -16   5   1   55.91   34.55
 -16  -5  -1   21.00   14.72
 -16  -5   1   42.19   26.15
  -5 -16   1    9.59   12.79
  -5 -16  -1   68.68   32.27
 -16   5   1  101.93   55.37
 -16   5  -1  121.40   50.58
 -16  -5   2   12.28   23.50
 -16  -5  -2   11.70   23.28
 -16  -5  -2  -28.02   37.01
 -16   5   2  -15.77   39.18
  -5 -16   2   -7.69   14.65
 -16  -5   2   58.27   31.45
  -5 -16  -2   21.87   23.65
 -16   5   2   -9.61   15.40
 -16   5  -2   25.36   29.84
 -16   5  -2    3.70   24.07
 -16  -5  -3   95.29   37.24
 -16  -5  -3   55.20   44.41
 -16   5   3   69.22   37.90
  -5 -16  -3   94.86   41.17
 -16  -5   3   18.86   15.21
 -16   5  -3   53.35   33.79
 -16   5  -3   70.46   41.45
 -16  -5  -4   95.84   53.52
 -16  -5  -4  125.52   45.92
  -5 -16  -4  118.93   50.20
 -16   5   4  125.20   36.56
 -16   5  -4  142.91   50.20
 -16  -5   4  102.88   36.10
 -16  -5  -5   15.53   31.28
 -16  -5  -5   16.62   23.84
  -5 -16  -5   35.56   28.78
 -16   5  -5   16.24   32.74
 -16  -5   5   -3.32   20.42
 -16  -5  -6   99.84   58.59
 -16  -5   6  119.75   38.31
 -16  -5  -6  128.13   46.24
  -5 -16  -6   67.37   41.18
 -16   5  -6   57.41   36.34
 -16  -5  -7  -18.13   50.02
 -16  -5  -7   -0.39   14.31
 -16  -5   7  -19.63   27.79
  -5 -16  -7   -6.65   23.52
 -16   5  -7   -3.82   23.15
 -16  -5  -8   59.99   48.36
 -16  -5  -8   -0.86   19.65
 -16   5   8  -44.84   12.26
 -16  -5   8  -10.80   13.94
  -5  16   8  -19.67   19.62
 -16   5  -8   58.32   32.87
  -5 -16  -8  -40.06   37.54
 -16  -5  -9    2.41   19.32
 -16   5   9    6.27   15.18
  -5  16   9   13.90   17.46
 -16   5  -9   17.65   15.18
  -5 -16  -9   14.41   26.53
 -16  -5 -10   17.16   20.00
 -16   5  10   30.28   13.78
 -16   5 -10   26.16   22.01
  -5  16  10   17.15   26.07
 -16   5  11   38.49   28.79
 -16   5 -11   45.66   29.63
  -5  16  11   33.98   30.85
 -16  -5 -11   50.07   34.07
 -16   5  12  -13.97   20.07
  -5  16  12   -7.77   20.69
 -16   5 -12   58.88   32.57
 -16  -5 -12   13.67   17.59
 -16   5  13  -44.57   27.12
  -5  16  13    3.20   19.15
   5  16  13   31.82   30.74
 -16  -5 -13   25.54   17.26
  -5  16  14    2.68   16.65
   5  16  14   21.63   22.66
 -16   5  14   44.81   33.50
 -16   5  15    1.28   16.61
  -5  16  15   11.98   22.47
   5  16  15   21.78   35.98
 -16   5  16   24.03   25.54
  -5  16  16   17.42   22.59
   5  16  16   48.85   30.46
  -5  16  17    8.91   20.01
   5  16  17   -8.94   15.60
 -16   5  17   -0.94   12.20
  -5  16  18   14.37   16.88
 -16   5  18   -3.68    9.51
 -16  -6   0   38.63   34.03
 -16   6   0   55.63   40.68
 -16  -6   0   12.96   19.40
  -6 -16   0   43.91   29.55
 -16   6  -1   26.93   43.42
 -16  -6   1   -9.50   23.78
 -16  -6  -1   38.82   27.05
 -16   6   1   33.59   17.14
 -16  -6  -1   77.37   35.60
 -16  -6   1   75.34   42.32
  -6 -16   1   57.17   31.72
  -6 -16  -1   63.71   27.73
 -16  -6   2   -5.74   12.58
 -16  -6  -2   45.20   26.87
 -16  -6  -2   19.94   24.21
 -16   6   2  -42.28   33.89
  -6 -16   2  -15.82   26.37
  -6 -16  -2   91.31   30.21
 -16  -6   2   45.88   21.59
 -16   6  -2   19.15   22.39
 -16  -6  -3   39.68   15.40
  -6 -16  -3   78.63   36.45
 -16  -6  -3    6.53   25.06
 -16   6   3   34.52   32.04
 -16  -6   3   35.82   25.70
 -16   6  -3   62.59   37.74
 -16  -6  -4   39.28   29.78
 -16  -6  -4   63.97   43.97
  -6 -16  -4   29.70   29.29
 -16   6  -4    0.93   30.76
 -16  -6   4  -13.46   14.14
 -16  -6  -5  172.47   60.16
 -16  -6  -5  113.43   40.87
  -6 -16  -5  118.04   50.92
 -16   6  -5   69.90   37.76
 -16  -6   5  -12.79   17.18
 -16  -6  -6    3.30   16.79
 -16  -6  -6   91.90   51.12
 -16  -6   6  -46.95   32.80
  -6  16   6   28.66   23.09
 -16   6  -6   29.19   23.81
 -16  -6  -7   73.18   31.61
 -16  -6  -7   22.98   33.76
 -16  -6   7   54.88   29.41
  -6  16   7   43.66   32.00
  -6 -16  -7   -7.51   16.21
 -16   6  -7  -17.80   19.84
 -16  -6  -8   -4.81   23.64
 -16   6   8   -2.37   16.73
 -16  -6   8   13.97   19.55
  -6  16   8    0.97   19.27
 -16   6  -8   11.94   20.96
  -6 -16  -8   20.23   21.93
 -16  -6  -8  -14.27   29.57
 -16   6   9   21.14   17.29
  -6  16   9   19.89   23.62
 -16   6  -9   52.06   32.64
  -6 -16  -9   31.07   38.08
 -16  -6  -9   35.27   26.33
 -16   6  10  -26.57   24.19
  -6  16  10   19.45   17.54
  -6 -16 -10    3.43   14.51
 -16  -6 -10   35.67   16.06
 -16   6 -11   87.08   27.32
  -6  16  11  150.95   49.97
 -16   6  11   73.95   37.28
 -16  -6 -11  110.46   40.13
 -16   6  12  -26.63   27.30
 -16   6 -12    6.66   21.54
  -6  16  12   58.31   33.97
 -16  -6 -12   -7.17   16.98
 -16   6  13  -14.74   20.94
  -6  16  13  -23.76   30.03
 -16  -6 -13  -16.64   15.55
 -16   6  14   22.74   27.21
  -6  16  14  -10.49   18.85
   6  16  14   -0.09   33.31
 -16   6  15   83.51   35.73
  -6  16  15   21.96   24.25
   6  16  15  126.34   48.14
 -16   6  16  -13.10   12.89
  -6  16  16    3.60   12.82
   6  16  16    3.91   19.13
 -16   6  17   42.00   25.85
  -6  16  17   31.77   21.77
   6  16  17   25.13   13.74
  -6  16  18   -7.77   10.80
 -16   6  18   17.90   17.17
 -16  -7   0  127.54   53.86
 -16   7   0  138.27   50.62
 -16  -7   0  178.57   53.43
  -7 -16   0   86.85   44.52
 -16  -7  -1  -38.86   32.46
 -16   7  -1    9.00   31.24
 -16  -7  -1  -45.70   40.11
  -7 -16   1   23.18   33.62
 -16  -7   1   56.85   28.10
  -7 -16  -1   37.14   29.62
 -16  -7   1   -5.52   17.51
 -16  -7  -2  -18.60   37.02
 -16  -7  -2   34.31   23.02
  -7 -16   2   -3.80   16.55
  -7 -16  -2   26.78   25.95
 -16  -7   2   25.66   27.11
 -16  -7   2    2.48   11.93
 -16   7  -2   43.60   35.02
 -16  -7  -3  -35.66   32.14
 -16  -7  -3   -8.51   25.38
  -7 -16   3   19.15   15.24
  -7 -16  -3   -1.07   30.93
 -16  -7   3   11.18   24.91
 -16   7  -3   12.93   18.85
 -16  -7  -4   -1.57   23.97
 -16  -7  -4  -52.21   48.22
  -7 -16  -4  -17.35   15.94
 -16  -7   4  -34.56   27.00
 -16  -7   5  -25.94   17.89
 -16  -7  -5   36.06   20.31
 -16  -7  -5  -22.56   23.48
  -7 -16  -5    8.29   17.73
 -16  -7  -6    5.90   14.94
 -16  -7  -6   30.32   40.52
 -16  -7   6   36.23   22.10
  -7  16   6   11.92   16.09
  -7 -16  -6   -0.93   16.97
 -16   7  -6   54.96   42.91
 -16  -7  -7  -12.40   22.76
 -16  -7   7    3.14   14.99
  -7  16   7   24.12   17.73
  -7 -16  -7  -12.35   20.45
 -16   7  -7   22.04   20.01
 -16  -7  -7    9.55   22.03
  -7  16   8   -9.88   30.07
  -7 -16  -8   14.60   25.29
 -16   7  -8   14.03   16.41
 -16  -7  -8  -12.15   22.71
 -16   7   9  -22.52   17.68
  -7  16   9   54.40   32.65
 -16   7  -9   29.11   29.21
  -7 -16  -9  -35.87   35.66
 -16  -7  -9    6.29   12.41
 -16   7  10  148.03   44.36
  -7  16  10   87.86   35.10
 -16   7 -10  148.15   50.99
  -7 -16 -10  103.74   46.01
 -16  -7 -10  198.08   53.46
 -16   7  11  -55.21   31.47
  -7  16  11  -41.61   30.29
 -16   7 -11  -74.45   32.20
  -7 -16 -11  -15.08   15.91
 -16  -7 -11   12.23   11.98
 -16   7  12   43.53   22.91
 -16   7 -12   37.89   19.51
  -7  16  12  -11.43   25.49
 -16  -7 -12   14.56   11.17
 -16   7  13  -28.13   15.88
  -7  16  13   -3.20   13.18
 -16  -7 -13    8.56   12.22
 -16   7  14   50.94   20.37
  -7  16  14    0.62   13.23
   7  16  14   -1.47   28.97
 -16   7  15  -22.83   18.67
  -7  16  15    6.57   20.18
 -16   7  16   45.97   31.81
  -7  16  16   13.55   20.89
   7  16  16   13.96   17.28
 -16   7  17   21.45   17.03
  -7  16  17   -7.56    9.24
   7  16  17    8.61   10.57
  -7  16  18   -1.57   12.04
 -16   7  18    0.53    9.70
 -16  -8   0   17.95   12.78
  -8 -16   0   12.12   24.70
 -16  -8   0    5.79   20.96
 -16  -8  -1  158.08   53.07
  -8 -16   1   97.10   46.45
  -8 -16  -1   80.42   43.50
 -16  -8   1   56.68   30.76
 -16  -8   1   53.44   42.00
 -16  -8  -1   53.56   32.29
 -16  -8  -2  -29.38   37.25
  -8 -16   2    1.44   16.60
  -8 -16  -2   36.67   32.36
 -16  -8   2    4.61   15.95
 -16  -8   2    6.53   24.33
 -16   8  -2   24.13   43.75
 -16  -8  -2  -25.38   31.04
  -8 -16   3   11.75   28.13
  -8 -16  -3   50.01   26.07
 -16  -8   3   18.33   20.27
 -16   8  -3  -10.97   29.73
 -16  -8  -3   42.74   15.74
 -16  -8  -4    2.49   14.37
  -8 -16  -4   14.92   26.91
 -16   8  -4   24.76   50.90
 -16  -8   4   22.61   19.75
 -16  -8  -4   10.05   18.83
 -16  -8  -5   15.63   12.50
 -16  -8  -5  -50.35   41.73
 -16  -8   5  -55.61   36.05
  -8 -16  -5    0.06   23.13
 -16  -8  -6   49.10   26.70
 -16  -8   6   48.22   27.83
  -8 -16  -6   44.95   32.90
 -16  -8  -6   49.01   25.19
  -8  16   7   15.04   17.84
  -8 -16  -7  -16.89   21.73
 -16   8  -7   -0.96   21.41
 -16  -8  -7  -29.40   25.00
 -16   8  -8  -29.16   21.61
  -8  16   8    1.20   14.76
  -8 -16  -8   -1.80   19.20
  -8  16   9   52.05   29.53
 -16   8  -9   77.70   35.69
  -8 -16  -9   79.86   37.69
 -16   8   9   49.81   24.56
 -16  -8  -9  140.90   48.36
 -16   8  10  -28.31   25.16
  -8  16  10   27.67   34.74
 -16   8 -10    2.14   15.69
  -8 -16 -10   -8.26   19.63
 -16  -8 -10   11.84   24.43
 -16   8  11   90.27   33.81
  -8  16  11   82.50   33.60
 -16   8 -11   73.06   32.29
  -8 -16 -11  125.36   46.13
 -16  -8 -11   75.42   33.44
 -16   8  12  -20.21   24.06
  -8  16  12  -35.47   28.28
 -16   8 -12  -23.70   22.92
 -16  -8 -12  -21.14   19.52
 -16   8  13   44.08   27.95
  -8  16  13   -3.79   20.52
 -16  -8 -13   12.17   11.88
 -16   8  14   -7.44   13.79
  -8  16  14    0.74   14.50
 -16   8  15   27.84   13.02
  -8  16  15    2.17   12.28
   8  16  15   48.47   38.25
 -16   8  16   14.06   14.98
  -8  16  16  -12.58   18.63
   8  16  16   14.92   15.71
 -16   8  17   13.88   14.07
  -8  16  17   -2.77   11.69
  -8  16  18   -9.30    9.68
  -9 -16   0   27.25   29.62
 -16  -9   0   -4.89   17.51
 -16  -9  -1   43.84   33.91
  -9 -16   1    6.87   19.11
  -9 -16  -1   28.04   33.85
 -16  -9   1  -19.93   19.48
 -16  -9   1    7.69   17.95
 -16  -9  -1  -12.13   20.06
 -16  -9  -2   96.21   36.19
  -9 -16   2   55.11   36.17
  -9 -16  -2    0.33   20.14
 -16  -9   2   20.05   21.60
 -16  -9   2   55.51   23.74
 -16  -9  -2  118.22   60.77
 -16  -9  -3   11.60   22.92
  -9 -16   3    3.75   26.36
  -9 -16  -3   -6.66   18.45
 -16  -9   3    3.67   15.64
 -16  -9  -3   29.67   17.54
  -9 -16   4  -10.74   15.32
 -16  -9   4   -5.98   12.14
  -9 -16  -4   34.27   22.73
 -16   9  -4   62.90   56.42
 -16  -9  -4   31.75   23.89
 -16  -9   5   81.76   35.11
 -16  -9  -5  -18.62   30.33
  -9 -16  -5  101.77   50.35
 -16  -9  -5   41.84   31.07
  -9 -16  -6   -2.63   26.79
 -16  -9  -6   81.50   44.97
  -9 -16  -7   52.37   46.99
 -16   9  -7   10.98   31.90
 -16  -9  -7   26.16   15.57
  -9  16   8   42.31   29.43
  -9 -16  -8    5.33   12.62
 -16   9  -8   27.24   23.47
 -16  -9  -8   39.32   29.31
  -9  16   9   59.79   12.23
 -16   9  -9  101.56   42.19
  -9 -16  -9   60.48   35.46
 -16  -9  -9   38.69   19.86
 -16   9  10  107.20   40.48
  -9  16  10  106.37   37.92
 -16   9 -10  143.48   49.29
  -9 -16 -10  103.08   38.46
 -16  -9 -10  116.17   44.55
 -16   9  11   -2.43   14.21
  -9  16  11    0.78   23.75
 -16   9 -11  -15.72   21.75
  -9 -16 -11   32.81   33.07
 -16  -9 -11   33.93   22.72
 -16   9  12  -15.73   24.26
  -9  16  12  -22.08   24.75
 -16   9 -12   10.45   15.34
 -16  -9 -12   17.96   18.99
 -16   9  13   -0.46   16.43
  -9  16  13  -21.61   17.13
 -16  -9 -13   16.93   17.58
 -16   9  14  -12.84   17.91
  -9  16  14    1.32   12.61
 -16   9  15    1.99   12.81
  -9  16  15   11.58   15.86
   9  16  15   -4.92   18.21
 -16   9  16   -7.19   16.03
  -9  16  16   25.81   17.13
 -16   9  17    9.23   13.60
  -9  16  17    0.78   11.17
 -10 -16   0   33.94   32.84
 -16 -10   0   13.55   15.67
 -16 -10   0   14.92   25.38
 -10 -16   1    6.79   33.68
 -10 -16  -1   19.61   23.64
 -16 -10  -1    0.30   13.83
 -16 -10   1  -40.35   23.93
 -16 -10   1    0.40   21.47
 -16 -10  -1   17.81   29.54
 -16 -10  -2   -5.35   10.55
 -10 -16   2   19.30   24.67
 -10 -16  -2  -13.56   31.59
 -16 -10   2   33.68   30.13
 -16 -10  -2   28.63   40.57
 -16 -10   2  -20.69   26.24
 -16 -10   3  -40.33   29.57
 -16 -10  -3   20.64   28.39
 -10 -16   3   14.56   28.27
 -10 -16  -3  -19.51   17.37
 -16 -10  -3   26.89   39.51
 -16 -10   4   -2.06   14.67
 -16 -10  -4   22.76   11.84
 -10 -16   4   15.19   19.67
 -10 -16  -4   -5.02   25.78
 -16 -10  -4  -13.49   24.27
 -10 -16  -5   25.09   31.83
 -16 -10  -5   29.89   22.25
 -10 -16  -6   13.35   33.91
 -16 -10  -6  -26.63   24.78
 -10 -16  -7   22.48   40.80
 -16 -10  -7  -13.36   15.35
 -10  16   8   31.47   20.97
 -10 -16  -8   36.79   35.25
 -16  10  -8   19.95   24.43
 -16 -10  -8    5.79   13.78
 -10  16   9   53.42   26.58
 -10 -16  -9   62.50   29.09
 -16  10  -9   45.53   30.43
 -16 -10  -9   95.56   42.84
 -16  10  10  -12.81   14.59
 -10  16  10   54.57   26.62
 -16  10 -10    4.36   13.49
 -10 -16 -10  102.73   43.94
 -16 -10 -10   52.11   29.02
 -16  10  11   23.32   20.04
 -10  16  11   22.72   14.84
 -16  10 -11   12.64   22.47
 -10 -16 -11   20.51   21.52
 -16 -10 -11   11.43   11.02
 -16  10  12    2.00   13.21
 -10  16  12   32.30   23.63
 -16 -10 -12   13.10   17.91
 -16  10 -12   28.48   16.94
 -16  10  13   -0.37   20.76
 -10  16  13   60.17   25.73
  10  16  13   15.40   30.13
 -16 -10 -13   23.25   14.71
 -16  10  14  -14.87   18.22
 -10  16  14   16.69   19.80
  10  16  14   -8.49   27.33
 -16  10  15  -11.22   12.90
 -10  16  15   -5.89   11.91
 -16  10  16    5.68   13.72
 -10  16  16   -6.26   15.28
 -10  16  17   -9.65   10.91
 -16  10  17   -1.60   11.14
 -11 -16   0   17.21   26.58
 -16 -11   0   13.72   14.90
 -16 -11   0   -3.13   25.16
 -11 -16   1   22.33   30.12
 -11 -16  -1   -7.90   28.16
 -16 -11  -1   26.59   15.01
 -16 -11   1   15.37   18.91
 -16 -11  -1   -2.44   28.32
 -16 -11   1   20.10   15.48
 -11 -16   2  -14.79   27.61
 -11 -16  -2  -13.34   29.54
 -16 -11  -2   -8.25   16.46
 -16 -11   2    2.22   19.65
 -16 -11  -2    2.70   14.94
 -16 -11   2   -1.56   11.17
 -16 -11   3   87.85   33.30
 -11 -16   3   62.17   41.74
 -11 -16  -3   -1.48   15.61
 -16 -11   3  -19.38   24.59
 -16 -11  -3   -9.16   32.18
 -11 -16   4   19.76   30.41
 -11 -16  -4  -18.08   35.27
 -16 -11  -4   24.98   25.35
 -11 -16  -5   32.52   26.77
 -16 -11  -5   31.04   29.31
 -11 -16  -6   -4.53   39.34
 -16 -11  -6    1.72   20.24
 -11 -16  -7    7.85   16.56
 -16 -11  -7  -57.70   31.15
 -11 -16  -8   13.63   17.39
 -16  11  -8   44.93   36.31
 -16 -11  -8   29.83   24.94
 -11  16   9   35.02   18.05
 -11 -16  -9   55.70   36.79
 -16  11  -9  -23.44   29.38
 -16 -11  -9   -2.52   14.00
 -11  16  10   -8.96   16.17
 -16  11 -10  -25.48   26.45
 -11 -16 -10    3.12   19.22
 -16 -11 -10   33.21   27.81
 -16  11  11   41.60   25.96
 -11  16  11   30.70   23.11
 -16  11 -11   20.82   19.53
 -11 -16 -11   40.20   13.97
 -16 -11 -11   16.59   16.83
 -16  11  12   -3.22   13.80
 -11  16  12  -19.92   19.00
 -16  11 -12   21.67   20.06
 -11 -16 -12    4.14   13.27
 -16 -11 -12   -0.97   19.14
 -16  11  13   -5.33   12.71
 -11  16  13  -17.04   11.54
  11  16  13  -29.79   18.73
 -16 -11 -13  -25.61   18.95
 -16  11  14   -5.65   11.97
 -11  16  14    2.52   11.03
  11  16  14   16.93   16.62
 -16  11  15   26.24   17.31
 -11  16  15    0.99   17.69
 -11  16  16  -17.33   13.60
 -16  11  16   -5.63   12.60
 -12 -16   0   21.99   13.63
 -16 -12   0    3.91   22.14
 -12 -16   1   21.28   36.55
 -12 -16  -1   31.80   37.26
 -16 -12   1    6.86   21.34
 -16 -12  -1   10.69   25.80
 -12 -16   2    2.99   13.41
 -12 -16  -2   23.16   21.20
 -16 -12   2   17.90   16.70
 -16 -12  -2   -4.60   14.99
 -12 -16   3   31.75   36.59
 -12 -16  -3    6.29   30.01
 -16 -12   3  -11.18   26.87
 -16 -12  -3   -8.00   26.21
 -12 -16   4   21.99   25.80
 -12 -16  -4   63.04   31.61
 -16 -12  -4   93.80   44.74
 -12 -16  -5    7.73   24.44
 -16 -12  -5  -20.55   26.81
 -12 -16  -6   57.03   28.85
 -16 -12  -6   90.47   37.25
 -12 -16  -7   28.08   32.45
 -16 -12  -7   29.17   26.87
 -12 -16  -8   32.89   30.58
 -16  12  -8    6.14   24.66
 -16 -12  -8  -12.80   21.34
 -12 -16  -9  -11.41   17.93
 -16  12  -9    2.44   18.87
 -16 -12  -9    7.11   10.53
 -12  16  10    7.66   15.38
 -16  12 -10    2.42   13.99
 -12 -16 -10   30.53   19.51
 -16 -12 -10   64.22   31.49
 -12  16  11   43.56   25.52
 -16  12 -11   66.13   32.52
 -12 -16 -11    4.88   14.15
 -16 -12 -11   29.63   22.29
 -16  12  12  -33.34   20.25
 -12  16  12   25.77   25.67
 -16  12 -12   16.18   12.66
 -12 -16 -12  -13.94   17.72
 -16 -12 -12    3.50   10.87
 -16  12  13   36.57   16.57
 -12  16  13   16.07   14.97
  12  16  13   23.21   18.70
 -16 -12 -13   -9.02    8.52
 -16  12  14  -13.66   13.19
 -12  16  14   -4.70   11.81
 -16  12  15  -31.12   15.06
 -12  16  15    3.94   12.21
 -12  16  16   -6.73   10.85
 -13 -16   0   24.60   35.69
 -16 -13   0   27.92   29.50
 -13 -16   1    5.10   21.25
 -13 -16  -1   15.66   32.20
 -16 -13   1   -7.50   31.87
 -16 -13  -1   17.92   24.11
 -13 -16   2    4.09   27.18
 -13 -16  -2    5.44   16.13
 -16 -13   2   -5.79   16.50
 -16 -13  -2   12.28   18.07
 -13 -16   3   37.68   34.59
 -13 -16  -3    8.38   26.13
 -16 -13   3   12.16   17.05
 -16 -13  -3   62.32   39.89
 -13 -16  -4  -18.40   19.50
 -16 -13  -4  -23.27   26.86
 -13 -16  -5   86.17   41.32
 -16 -13  -5  160.38   54.68
 -13 -16  -6  -52.52   33.90
 -16 -13  -6   -0.54   26.19
 -13 -16  -7   49.40   27.48
 -16 -13  -7   28.56   19.35
 -13 -16  -8   -4.47   22.85
 -16  13  -8   12.52   25.37
 -16 -13  -8   26.85   22.39
 -13 -16  -9   -1.43   11.96
 -16  13  -9    7.30   16.10
 -16 -13  -9   -2.56   13.92
 -16  13 -10   33.10   22.34
 -13 -16 -10   26.43   21.89
 -16 -13 -10   43.81   25.15
 -13  16  11    8.18   13.09
 -16  13 -11   11.56   18.60
 -13 -16 -11   22.81   17.42
 -13  16 -11   15.79   29.53
 -16 -13 -11   56.12   27.23
 -13  16  12   66.49   22.89
 -16  13 -12   31.73   19.54
 -13 -16 -12   13.07   14.94
 -16 -13 -12    8.19   13.94
 -16  13  13   -1.78   13.98
 -13  16  13  -13.97   14.39
 -16 -13 -13    7.35    9.93
 -16  13  14    2.84   11.33
 -13  16  14    0.20    6.64
 -13  16  15   -6.92    6.11
 -14 -16   0  -11.26   20.00
 -16 -14   0  -16.64   33.52
 -14 -16   1   35.84   30.09
 -14 -16  -1   -8.24   26.26
 -16 -14   1   41.14   39.71
 -16 -14  -1    9.79   20.13
 -14 -16   2   19.08   26.04
 -16 -14   2   18.11   22.80
 -14 -16  -2  -19.20   31.30
 -16 -14  -2  -15.33   13.96
 -14 -16   3  -16.83   24.06
 -16 -14   3   11.25   14.02
 -14 -16  -3    4.03   26.13
 -16 -14  -3    8.02   14.65
 -14 -16  -4   41.32   28.60
 -16 -14  -4  101.64   38.18
 -14 -16  -5   30.28   30.06
 -16 -14  -5    2.96   15.04
 -14 -16  -6  121.92   43.92
 -16 -14  -6  151.83   50.80
 -14 -16  -7  -16.75   21.35
 -16 -14  -7   19.01   11.96
 -14 -16  -8   -8.85   26.28
 -16 -14  -8   -6.01   13.07
 -14 -16  -9   78.70   35.51
 -16  14  -9   26.79   13.73
 -16 -14  -9   24.45   25.33
 -16  14 -10  -32.81   25.91
 -14 -16 -10   39.75   21.61
 -16 -14 -10  -18.77   19.76
 -14  16 -10    9.24   17.75
 -16  14 -11   19.52   20.46
 -14 -16 -11   42.46   20.95
 -14  16 -11   -0.03   15.60
 -16 -14 -11   40.11   25.28
 -14 -16 -12    7.15    9.72
 -16 -14 -12   29.04   16.65
 -14  16  14    2.55    7.63
 -15 -16   0    8.58   13.21
 -16 -15   0   -4.20   17.33
 -15 -16   1   18.51   19.21
 -16 -15   1    4.32   19.61
 -15 -16  -1   19.68   22.80
 -16 -15  -1   -7.88   17.36
 -15 -16   2   17.64   15.26
 -16 -15   2   13.37   18.64
 -15 -16  -2   22.15   30.40
 -16 -15  -2  -11.36   31.90
 -15 -16   3   -2.61   23.54
 -16 -15   3    8.39   17.77
 -15 -16  -3  -13.18   24.43
 -16 -15  -3   20.38   24.91
 -15 -16  -4   34.58   37.52
 -16 -15  -4  -33.28   30.52
 -15 -16  -5  123.00   48.14
 -16 -15  -5   83.28   41.01
 -15 -16  -6   13.64   21.47
 -16 -15  -6    5.66   22.36
 -15 -16  -7   20.01   18.98
 -16 -15  -7   30.50   23.85
 -15 -16  -8   22.45   21.65
 -16 -15  -8   -5.88   12.11
 -15 -16  -9   41.03   26.96
 -16  15  -9    9.96   23.53
 -16 -15  -9   33.15   27.61
 -15  16  -9  -16.20   20.45
 -16  15 -10   42.79   30.24
 -15 -16 -10   13.90   18.87
 -15  16 -10    2.13   10.96
 -16 -15 -10  -37.04   24.77
 -16  15 -11   11.52   18.37
 -15  16 -11  -28.50   19.92
 -15 -16 -11   13.01   16.66
 -16 -15 -11   12.24   11.77
 -15 -16 -12  -13.78   12.47
 -16 -15 -12   -1.13    8.71
 -16 -16   0   18.49   21.08
 -16 -16   1   15.15   29.11
 -16 -16  -1   12.74   22.74
 -16 -16   2    3.08   12.33
 -16 -16  -2   -6.94   35.22
 -16 -16   3    3.67   14.51
 -16 -16  -3   -6.09   17.06
 -16 -16  -4   12.38   19.48
 -16 -16  -5   32.91   24.57
 -16 -16  -6   25.10   19.25
 -16 -16  -7   -2.62   19.46
 -16 -16  -8   32.84   25.22
 -16  16  -8  -22.12   22.22
 -16 -16  -9   -5.89   14.80
 -16  16  -9  -20.26   14.14
 -16  16 -10   13.67   10.82
 -16 -16 -10   26.29   24.14
 -16  16 -11  -12.13   17.88
 -16 -16 -11   -4.26   11.37
 -16 -16 -12  -18.66   10.53
 -17   0   0   32.64   21.23
 -17   0   0   23.28   20.16
 -17   0  -1  283.06   70.89
 -17   0   1  375.13   74.00
 -17   0   1  272.30   72.85
 -17   0  -1  356.46   73.05
 -17   0  -2  -13.20   23.12
 -17   0   2   -1.62   13.04
 -17   0  -2  -33.04   25.72
 -17   0   2  -51.87   38.16
 -17   0  -3   62.70   43.38
 -17   0  -3   56.28   27.78
 -17   0   3   74.57   40.15
 -17   0  -4   17.23   21.51
 -17   0   4   25.30   14.49
 -17   0  -5  -31.55   32.09
 -17   0   5   27.35   14.94
 -17   0  -5   25.66   58.67
 -17   0  -6   84.74   31.72
 -17   0  -6   54.02   48.75
 -17   0   6   93.71   37.14
 -17   0   6   31.65   28.40
 -17   0   7   -1.89   16.09
 -17   0   7    0.59   24.39
 -17   0  -7   27.18   17.14
 -17   0   8   22.84   13.36
 -17   0   8  -25.76   17.23
 -17   0  -8    2.01   26.36
 -17   0   9   39.78   28.80
 -17   0  -9   56.36   36.22
 -17   0  10  100.02   41.74
 -17   0 -10   58.18   30.36
 -17   0  11  118.33   48.77
 -17   0 -11   76.43   33.29
 -17   0 -12  -16.75   14.15
   0  17  12   25.59   31.43
 -17   0  13   19.22   28.33
   0  17  13   62.59   42.41
 -17   0 -13  -18.07   15.68
   0  17  14   -6.87   22.51
 -17   0  14   13.69   15.38
   0  17  15   -4.94   14.53
 -17   0  15   -8.51   13.62
   0  17  16   33.78   26.19
   0  17  17  -52.41   22.20
   0  17  18   -9.14    8.60
 -17   1   0  465.49   88.10
 -17  -1   0  536.68   93.17
 -17  -1   0  443.18   83.67
 -17   1   0  494.86   88.14
 -17  -1  -1    7.62   32.52
 -17   1   1    9.78   28.56
 -17  -1   1   16.10   28.69
 -17  -1  -1  -11.58   25.87
 -17  -1   1   32.78   14.63
 -17   1   1    1.67   11.67
 -17   1  -1   25.62   24.71
 -17   1  -2  212.21   65.81
 -17  -1  -2   96.95   45.28
 -17  -1   2  101.88   44.20
 -17  -1  -2   84.43   38.30
 -17   1   2   25.52   27.79
 -17   1   2    6.26   23.02
 -17  -1   2  125.58   44.93
 -17   1  -2  196.84   53.70
 -17   1  -3  -31.26   23.91
 -17  -1  -3   12.79   29.55
 -17  -1  -3  -49.80   31.88
 -17   1  -3   28.42   24.14
 -17   1   3   12.09   20.11
 -17  -1   3   35.33   30.74
 -17  -1  -4   23.05   33.55
 -17  -1  -4   19.33   18.36
 -17   1  -4   47.43   29.92
 -17   1   4   19.85   26.02
 -17  -1   4  -20.12   19.70
 -17   1  -4   55.19   44.29
 -17   1  -5    8.88   16.98
 -17  -1  -5    7.96   12.29
 -17   1   5   32.97   22.73
 -17  -1   5   34.78   24.46
 -17   1  -5   16.45   29.98
 -17  -1  -5   99.05   46.97
 -17   1   6   -5.14   16.67
 -17  -1  -6   68.39   38.78
 -17   1  -6  -27.24   25.96
 -17   1  -6   23.22   59.55
 -17   1   6  -15.14   11.76
 -17  -1   6  -15.47   25.68
 -17  -1  -6   30.93   40.12
 -17  -1   6    3.67   24.51
 -17   1   7   90.43   36.20
 -17   1   7  -17.25   24.88
 -17  -1   7  -15.99   37.10
 -17  -1  -7   38.85   29.71
 -17   1  -7   27.74   15.74
 -17  -1  -7   45.35   51.99
 -17  -1   7   62.04   25.00
 -17   1   8   -0.40   21.08
 -17  -1  -8   11.95   15.77
 -17   1   8   34.67   26.87
 -17  -1   8   22.37   25.82
 -17   1  -8    2.29   17.46
 -17  -1  -8    2.90   52.83
 -17  -1   8   16.25   26.30
 -17   1   9  -36.26   27.19
 -17  -1  -9   30.51   30.19
 -17   1  -9    2.37   12.63
 -17  -1   9  -49.76   25.80
 -17  -1 -10   44.68   36.95
 -17   1 -10   39.54   27.09
 -17   1  10   64.45   34.82
 -17  -1  10   73.12   34.47
 -17  -1 -11   77.87   33.06
 -17   1 -11   47.91   29.99
  -1  17  11  101.14   52.37
 -17   1  11   77.51   42.22
 -17  -1  11  101.38   40.64
 -17   1  12  106.70   49.55
 -17  -1 -12    7.08   13.29
 -17   1 -12   54.26   30.92
 -17  -1  12   16.05   32.39
  -1  17  12   82.38   49.10
   1  17  12   60.22   37.30
 -17   1  13   12.10   27.68
 -17   1 -13  -31.87   23.08
  -1  17  13   35.23   36.15
   1  17  13    4.94   21.80
 -17  -1  13   23.27   32.52
 -17  -1 -13   12.08   19.32
 -17   1  14   -1.04   13.35
  -1  17  14    0.25   19.72
   1  17  14   22.21   29.04
 -17  -1  14   21.37   16.33
  -1  17  15   26.26   19.28
   1  17  15   64.43   33.27
 -17   1  15    1.63   18.20
   1  17  16   12.22   19.23
  -1  17  16   -9.38   15.86
 -17   1  16   -3.68   15.13
  -1  17  17   48.75   24.28
   1  17  17   33.69   22.51
  -1  17  18   18.32   15.03
   1  17  18    6.42   11.94
 -17   2   0   44.50   35.27
 -17  -2   0   29.78   33.72
 -17  -2   0  -38.16   38.79
 -17   2   0   14.71   15.85
 -17   2  -1  104.61   52.19
 -17  -2  -1   49.91   31.33
 -17  -2   1   74.01   34.64
 -17   2   1   27.01   17.47
 -17  -2  -1   98.87   45.64
 -17  -2   1   16.61   28.81
 -17   2   1   13.09   22.41
 -17   2  -1   90.96   34.82
 -17   2  -2   72.32   34.43
 -17  -2  -2    7.78   23.68
 -17  -2   2   26.38   28.99
 -17  -2  -2  -25.29   27.85
 -17   2   2  -47.16   41.15
 -17   2   2  -20.28   21.02
 -17  -2   2   10.18   27.71
 -17   2  -2   -4.75   19.43
 -17  -2  -3   60.87   46.49
 -17  -2  -3   12.46   28.60
 -17   2   3   59.07   49.51
 -17   2  -3   25.35   18.83
 -17  -2   3   13.48   13.08
 -17   2  -3    4.26   21.56
 -17  -2  -4   34.58   51.49
 -17  -2  -4   56.08   32.33
 -17   2  -4   21.41   23.11
 -17   2   4    1.47   23.49
 -17  -2   4   -1.44   12.34
 -17   2  -4   27.36   38.06
 -17  -2  -5   38.61   28.98
 -17   2  -5   51.27   32.10
 -17   2   5  -34.55   25.30
 -17  -2   5    1.00   14.86
 -17   2  -5  -10.74   47.26
 -17  -2  -6   19.62   22.90
 -17   2  -6   28.19   18.29
 -17   2   6  -16.44   24.79
 -17  -2   6    1.07   30.87
 -17  -2  -6   30.50   51.76
 -17   2   7   23.65   21.72
 -17   2   7  -55.13   25.81
 -17  -2   7   11.93   11.17
 -17  -2  -7  -12.26   23.86
 -17   2  -7    2.19   16.22
 -17  -2  -7  -49.28   30.44
 -17   2   8  -14.47   23.13
 -17  -2  -8   20.97   28.12
 -17  -2   8   18.14   23.34
 -17   2  -8    5.26   15.88
 -17  -2  -8   25.40   34.70
 -17  -2   8   -9.13   20.71
 -17   2   9   17.21   21.90
 -17  -2  -9   -1.14   12.83
 -17   2  -9    6.51   18.95
 -17  -2   9  -33.47   28.26
 -17   2  10   62.13   19.89
 -17  -2 -10   59.83   30.60
 -17   2 -10  115.91   44.61
 -17  -2  10  117.55   41.62
 -17   2  11  -16.61   24.91
 -17  -2 -11  -31.10   22.34
 -17   2 -11  -51.95   24.79
 -17  -2  11   -5.83   24.46
 -17  -2 -12   30.22   20.40
 -17   2 -12   93.81   31.45
  -2  17  12   78.22   35.96
 -17   2  12   68.70   30.94
 -17  -2  12   79.62   38.05
 -17   2  13  -21.54   16.90
 -17   2 -13   15.29   16.83
  -2  17  13    5.38   17.63
   2  17  13   -0.29   17.96
 -17  -2 -13   -9.08   14.81
 -17   2  14    5.95   23.79
  -2  17  14   -3.16   21.69
   2  17  14   33.99   34.70
 -17   2  15   -6.72   16.83
  -2  17  15   15.21   20.49
   2  17  15  -15.93   19.67
  -2  17  16    0.54   11.80
   2  17  16   25.86   20.46
 -17   2  16  -15.74   17.63
  -2  17  17    2.49   11.99
   2  17  17   45.79   24.39
  -2  17  18   -1.11    8.60
   2  17  18  -14.05    8.65
 -17   3   0   40.25   28.88
 -17  -3   0   18.72   26.93
 -17  -3   0  -18.06   25.60
 -17   3   0    2.09   16.04
 -17  -3   1   93.37   40.69
 -17  -3  -1   96.16   36.69
 -17  -3  -1   83.29   37.09
 -17   3   1   31.81   17.75
 -17  -3   1   57.51   25.81
 -17   3   1   31.05   23.98
 -17   3  -1   82.80   33.26
 -17  -3   2   11.41   11.79
 -17  -3  -2   26.14   40.66
 -17  -3  -2   34.33   28.19
 -17   3   2  -30.58   32.21
 -17  -3   2   49.25   34.20
 -17   3   2   11.11   20.42
 -17   3  -2  -40.33   34.65
 -17   3  -2    9.77   38.05
 -17  -3  -3   61.53   43.12
 -17  -3  -3   43.34   23.86
 -17   3   3   61.80   39.25
 -17   3  -3   41.40   31.72
 -17  -3   3   29.42   25.41
 -17   3  -3   26.23   27.32
 -17  -3  -4   22.76   21.49
 -17  -3  -4   25.56   37.41
 -17   3  -4   -4.58   19.69
 -17   3   4  -21.57   14.05
 -17  -3   4   34.42   21.98
 -17  -3  -5   56.40   44.08
 -17  -3  -5  -18.26   28.57
 -17   3  -5    4.02   17.95
 -17   3   5  -46.49   31.04
 -17  -3   5   18.88   19.03
 -17   3  -5   55.96   71.52
 -17  -3  -6   -3.86   17.59
 -17   3  -6   20.13   26.88
 -17   3   6   15.76   15.26
 -17  -3   6  -62.12   34.62
 -17  -3  -6   89.39   59.72
 -17   3   7  -43.13   27.94
 -17  -3   7   23.82   18.40
 -17  -3  -7    3.96   20.45
 -17   3  -7    9.27   20.29
 -17  -3  -7   25.81   46.62
 -17   3   8   39.90   25.76
 -17  -3  -8   27.37   12.30
 -17   3  -8   43.09   22.09
 -17   3   9   72.46   27.01
 -17  -3  -9   46.93   32.81
 -17   3  -9    3.94   15.06
 -17  -3 -10  -12.40   26.63
 -17   3 -10  -26.10   18.23
  -3  17  10    8.55   19.55
 -17  -3 -11   63.31   29.38
 -17   3  11   61.54   33.95
 -17   3 -11  120.73   41.77
  -3  17  11  143.30   49.77
 -17   3  12   54.23   29.58
 -17   3 -12  -24.06   21.56
  -3  17  12   49.26   35.26
 -17  -3 -12   15.52    9.75
 -17   3  13    9.91   22.75
 -17   3 -13   30.96   22.81
  -3  17  13   37.44   33.83
   3  17  13   36.29   46.34
 -17  -3 -13   14.81    8.54
 -17   3  14   21.12   26.64
  -3  17  14  -25.17   25.95
   3  17  14   23.20   31.06
 -17   3  15   20.80   24.99
  -3  17  15   34.94   25.96
   3  17  15  -14.04   33.05
  -3  17  16   12.66   19.03
   3  17  16   -1.49   20.73
 -17   3  16   15.25   13.50
  -3  17  17    2.67   11.08
   3  17  17   14.18   16.24
  -3  17  18   -4.74   10.77
 -17  -4   0   46.89   34.06
 -17   4   0  -23.38   27.98
 -17  -4   0    1.05   20.71
 -17   4   0    2.82   21.00
 -17   4  -1   81.24   34.70
 -17  -4   1   63.22   36.13
 -17  -4  -1   49.13   38.29
 -17   4   1  -17.22   42.43
 -17  -4  -1    8.55   31.84
 -17  -4   1   35.86   33.01
  -4 -17  -1  105.76   43.07
 -17   4   1   78.48   31.63
 -17   4  -1   94.18   34.06
 -17   4  -2  152.86   61.02
 -17  -4   2   36.34   28.53
 -17  -4  -2   88.58   36.12
 -17  -4  -2   89.32   38.12
 -17   4   2   91.15   32.90
  -4 -17  -2   90.07   39.72
 -17  -4   2  103.40   39.74
 -17   4   2   65.27   35.98
 -17   4  -2  121.63   42.83
 -17  -4  -3   44.59   29.11
 -17  -4  -3   63.61   29.34
 -17   4   3   35.20   32.02
  -4 -17  -3   45.64   38.47
 -17   4  -3   66.06   39.91
 -17  -4   3  -12.76   16.06
 -17   4  -3   26.72   43.92
 -17  -4  -4  111.01   43.63
 -17  -4  -4  126.84   46.13
  -4 -17  -4   45.09   33.97
 -17   4  -4   47.88   26.91
 -17   4   4   56.67   28.29
 -17  -4   4   14.50   11.79
 -17   4  -4  100.14   41.08
 -17  -4  -5   10.77   21.56
 -17  -4  -5   20.63   16.83
  -4 -17  -5   -0.58   12.37
 -17   4  -5   56.74   31.26
 -17  -4   5   17.12   17.03
 -17  -4   6  -18.22   29.86
 -17  -4  -6   22.37   43.17
 -17  -4  -6   85.27   39.93
 -17   4  -6   30.09   35.43
  -4 -17  -6    4.28   20.95
 -17  -4  -7  -16.08   23.93
 -17  -4  -7   21.61   24.16
 -17  -4   7   29.22   23.66
 -17   4  -7    3.44   16.41
  -4 -17  -7  -13.04   24.88
 -17   4   8  137.17   41.95
 -17  -4  -8   96.72   40.91
 -17   4  -8  111.95   43.15
 -17   4   9   29.78   26.34
 -17  -4  -9   31.33   35.20
 -17   4  -9   41.19   20.52
  -4  17   9   23.71   16.41
 -17  -4 -10  108.51   47.26
 -17   4  10   70.74   35.25
 -17   4 -10  111.31   42.82
  -4  17  10  131.42   48.28
 -17   4  11   56.13   34.17
 -17   4 -11   52.16   27.35
 -17   4  12   46.97   20.19
 -17   4 -12    6.09   10.50
  -4  17  12   72.29   29.19
 -17  -4 -12   42.02   22.84
 -17   4  13   88.32   38.16
 -17   4 -13  -30.65   18.57
  -4  17  13   14.75   31.17
   4  17  13   20.84   33.34
 -17  -4 -13   46.83   22.89
 -17   4  14   -5.90   16.55
  -4  17  14   30.56   27.61
   4  17  14   -5.42   28.48
 -17   4  15    3.89   11.55
  -4  17  15    3.42   14.62
   4  17  15   27.67   25.71
 -17   4  16   17.32   17.67
  -4  17  16   21.57   16.32
   4  17  16  -15.68   22.18
  -4  17  17   17.99   15.43
   4  17  17   11.84    9.14
 -17   4  17    6.43   14.20
  -4  17  18    3.74   10.57
 -17  -5   0   33.01   32.98
 -17   5   0   68.52   42.18
 -17  -5   0  -43.30   38.64
  -5 -17   0   58.93   47.25
 -17   5   0   60.90   39.36
 -17  -5   1   21.07   20.81
 -17   5  -1   64.88   45.47
 -17  -5  -1   48.41   36.19
 -17   5   1   77.15   32.05
 -17  -5  -1   56.52   36.21
 -17  -5   1   76.29   38.04
  -5 -17  -1   19.18   36.05
 -17   5   1   21.84   23.86
 -17   5  -1   73.42   48.36
 -17  -5   2   -6.37   12.07
 -17   5  -2   75.85   43.96
 -17  -5  -2   55.72   28.95
 -17  -5  -2   24.44   25.04
 -17   5   2    2.10   22.90
  -5 -17  -2   72.26   45.67
 -17  -5   2   56.83   37.76
 -17   5   2    8.07   14.89
 -17   5  -2   60.47   33.77
 -17  -5  -3   67.59   37.92
 -17  -5  -3   54.31   27.85
 -17   5   3   39.88   24.81
  -5 -17  -3   69.63   47.87
 -17   5   3   54.38   28.86
 -17   5  -3  125.18   47.75
 -17  -5   3   75.11   29.90
 -17   5  -3   36.81   45.64
 -17  -5  -4   26.05   25.67
 -17  -5  -4  -13.00   26.19
  -5 -17  -4   16.01   28.32
 -17   5  -4   24.16   25.78
 -17  -5   4    8.95   20.20
 -17   5  -4  -46.16   54.25
 -17  -5  -5   28.04   31.28
 -17  -5  -5   39.36   35.99
  -5 -17  -5   68.40   50.84
 -17   5  -5   83.54   39.80
 -17   5  -5   35.79   42.87
 -17  -5   5    9.60   25.82
 -17  -5   6  -27.95   29.59
 -17  -5  -6   27.63   39.78
 -17  -5  -6   17.18   26.62
  -5 -17  -6   27.66   25.87
 -17   5  -6    7.59   27.58
 -17  -5  -7  127.12   59.49
 -17  -5   7   81.50   27.97
 -17  -5  -7  116.08   36.06
 -17   5  -7  139.60   49.37
  -5 -17  -7   88.30   54.60
 -17  -5  -8   47.57   21.02
 -17   5   8   21.33   19.01
 -17   5  -8   26.53   15.01
  -5  17   8   44.18   25.88
  -5 -17  -8  -10.51   14.25
 -17  -5  -9    4.43   14.93
 -17   5   9   50.08   21.79
 -17   5  -9   92.29   39.43
  -5  17   9   91.82   35.51
 -17   5  10   56.52   34.25
 -17   5 -10   51.92   33.26
  -5  17  10   32.91   21.57
 -17  -5 -10   44.51   26.69
 -17   5  11   -2.13   21.70
 -17   5 -11   22.30   23.35
  -5  17  11   26.77   30.10
 -17  -5 -11   11.41   20.67
 -17   5  12   55.35   31.38
 -17   5 -12   87.22   32.21
  -5  17  12   42.20   31.74
 -17  -5 -12   55.55   29.98
 -17   5  13   19.41   17.05
  -5  17  13   31.58   26.66
   5  17  13  -18.36   31.54
 -17  -5 -13   34.85   24.87
 -17   5  14   -0.04   19.66
  -5  17  14    7.55   36.54
   5  17  14  -24.11   30.04
 -17   5  15   14.15   12.51
  -5  17  15   34.78   25.00
   5  17  15   19.33   29.92
 -17   5  16    7.09   16.33
  -5  17  16   17.33   18.82
   5  17  16    1.70   11.19
  -5  17  17    6.74   16.76
   5  17  17   17.86   18.31
 -17   5  17   -1.51   15.59
  -5  17  18    1.61    9.21
 -17  -6   0   -3.61   23.63
 -17   6   0    3.90   19.76
 -17  -6   0   17.50   41.42
  -6 -17   0   10.45   26.41
 -17   6   0   21.99   23.82
 -17  -6   1   15.33   19.17
 -17  -6  -1   70.35   32.78
 -17   6  -1   69.29   32.39
 -17   6   1   45.38   24.40
 -17  -6  -1   11.56   26.23
  -6 -17   1   49.82   31.75
 -17  -6   1   93.67   42.14
  -6 -17  -1  103.35   42.29
 -17   6   1   40.37   47.42
 -17   6  -1   80.77   47.52
 -17   6  -2   -9.34   21.24
 -17  -6  -2    1.70   13.36
 -17  -6  -2   -6.41   20.05
  -6 -17  -2   -5.72   28.48
 -17  -6   2   26.90   17.45
 -17   6   2    0.59   17.71
 -17   6  -2   28.30   31.08
 -17  -6   2    3.97   15.08
 -17  -6  -3  -30.64   28.00
 -17  -6  -3    3.79   30.52
  -6 -17  -3    0.16   14.80
 -17   6   3    7.64   21.46
 -17   6  -3   31.40   22.95
 -17  -6   3   19.21   13.45
 -17  -6  -4   23.11   20.49
 -17  -6  -4  -25.68   33.94
  -6 -17  -4   -4.64   22.17
 -17   6  -4   47.34   33.64
 -17  -6   4  -30.04   25.85
 -17   6  -4  -82.53   45.01
 -17  -6  -5   87.87   39.42
 -17  -6  -5   28.97   30.00
  -6 -17  -5   13.80   24.15
 -17   6  -5   77.00   36.23
 -17   6  -5   98.14   55.33
 -17  -6   5   18.99   20.56
 -17  -6  -6   94.05   43.80
 -17  -6   6   -2.22   18.59
 -17  -6  -6   56.82   46.57
  -6  17   6  160.27   47.38
  -6 -17  -6   27.26   32.21
 -17   6  -6   67.17   42.96
 -17  -6  -7   14.93   20.19
  -6  17   7   15.45   27.62
  -6 -17  -7    2.34   15.08
 -17   6  -7   -7.59   20.24
 -17  -6  -8   89.31   35.12
  -6  17   8   29.29   25.39
 -17   6  -8   79.10   41.01
  -6 -17  -8   63.34   32.05
 -17   6   9  -16.56   23.47
  -6  17   9   38.93   31.22
 -17   6  -9    7.34   21.19
  -6 -17  -9   18.52   22.90
 -17  -6  -9  -31.16   26.98
 -17   6  10    7.63   23.03
  -6  17  10   18.55   29.90
 -17   6 -10  -34.14   29.97
 -17  -6 -10   -7.14   17.34
 -17   6  11   49.11   28.72
 -17   6 -11   46.27   33.73
  -6  17  11   56.60   31.86
 -17  -6 -11   66.39   31.36
 -17   6  12  -13.84   22.99
 -17   6 -12    3.02   11.41
  -6  17  12    3.43   15.91
 -17  -6 -12   32.51   25.02
 -17   6  13  -20.94   24.49
  -6  17  13   -1.06   20.67
   6  17  13  -22.29   26.07
 -17  -6 -13  -12.75   15.51
 -17   6  14    9.00   12.49
  -6  17  14    2.03   14.78
   6  17  14    3.10   38.96
 -17   6  15    9.38   17.14
  -6  17  15   20.00   23.79
   6  17  15   -3.28   15.93
 -17   6  16   22.12   26.48
  -6  17  16   22.30   13.71
   6  17  16   78.62   43.77
  -6  17  17   16.57   13.25
   6  17  17   -6.90   14.58
 -17   6  17    7.51   14.91
  -6  17  18    7.53    7.72
 -17   7   0   36.43   30.98
 -17  -7   0    2.39   17.66
  -7 -17   0   10.05   19.58
 -17  -7   0    0.81   13.58
 -17  -7  -1  -29.36   34.83
 -17   7  -1   -6.29   29.46
 -17  -7  -1   32.23   35.97
  -7 -17   1   47.99   34.63
  -7 -17  -1   50.39   35.78
 -17  -7   1    0.54   20.53
 -17  -7   1  -27.93   40.85
 -17  -7  -2  -14.24   31.99
 -17  -7  -2  -57.00   39.96
  -7 -17   2   24.72   31.20
  -7 -17  -2   -4.63   15.81
 -17   7  -2   -0.42   17.98
 -17  -7   2  -35.82   23.84
 -17   7   2   -8.98   21.72
 -17  -7   2   -6.21   10.66
 -17  -7  -3  -26.56   34.57
 -17  -7  -3  -51.58   44.69
  -7 -17  -3  -21.41   24.46
 -17   7   3    8.44   21.68
 -17   7  -3   60.50   42.65
 -17  -7   3  -29.23   27.39
 -17   7  -3   74.59   37.63
 -17  -7  -4   98.90   46.01
 -17  -7  -4   67.26   28.78
  -7 -17  -4   55.34   42.88
 -17   7  -4  157.54   48.95
 -17  -7   4   72.58   28.28
 -17   7  -4   93.06   51.92
 -17  -7  -5   -3.71   14.20
 -17  -7   5   -3.45   17.77
 -17  -7  -5  -55.48   36.93
  -7 -17  -5   35.44   31.15
 -17   7  -5   38.14   28.42
 -17   7  -5   28.70   27.33
 -17  -7  -6  107.52   40.92
 -17  -7  -6  116.64   55.72
  -7  17   6  121.22   35.97
  -7 -17  -6   65.39   42.04
 -17   7  -6   84.61   36.19
  -7  17   7   25.62   14.10
  -7 -17  -7    0.99   20.30
 -17   7  -7   55.36   29.52
 -17  -7  -7   53.80   32.11
  -7  17   8  -10.98   19.52
 -17   7  -8    0.57   21.79
  -7 -17  -8   28.35   32.09
 -17  -7  -8   41.00   23.55
 -17   7   9   18.27   25.30
  -7  17   9    5.09   13.45
 -17   7  -9   -8.36   15.04
  -7 -17  -9  -13.84   23.15
 -17  -7  -9  -21.42   20.20
 -17   7  10  -27.80   22.88
  -7  17  10   35.70   26.93
 -17   7 -10   15.18   21.75
  -7 -17 -10  -12.61   13.54
 -17  -7 -10   24.39   29.96
 -17   7  11  -39.66   21.48
  -7  17  11   18.34   28.79
 -17   7 -11   -1.28   12.70
 -17  -7 -11  -21.11   24.16
 -17   7  12   28.91   17.06
 -17   7 -12   11.89   14.54
  -7  17  12  -13.33   14.25
 -17  -7 -12    4.52   12.92
 -17   7  13   15.70   16.47
  -7  17  13    3.65   15.93
   7  17  13   29.82   26.64
 -17  -7 -13    8.96   11.98
 -17   7  14   -8.65   21.66
  -7  17  14  -14.92   19.86
   7  17  14   -5.58   30.58
 -17   7  15   31.18   26.39
  -7  17  15   -8.46   15.58
   7  17  15   37.74   28.05
 -17   7  16   -2.28   13.41
  -7  17  16   46.34   26.89
   7  17  16   33.01   21.04
  -7  17  17   -7.23    9.38
 -17   7  17    5.68   15.82
  -8 -17   0   -6.45   19.07
 -17  -8   0   45.11   26.03
 -17  -8   0  -16.09   23.72
 -17  -8  -1  -14.63   21.29
  -8 -17   1   33.64   41.37
  -8 -17  -1    3.46   25.53
 -17  -8   1  -22.61   25.03
 -17  -8   1    7.69   21.16
 -17  -8  -1    3.59   20.12
 -17  -8  -2   33.41   31.73
  -8 -17   2   56.00   45.30
  -8 -17  -2   26.43   27.25
 -17  -8   2   -8.79   18.84
 -17  -8   2   19.20   10.86
 -17  -8  -2   18.66   21.55
 -17  -8  -3  -34.84   36.16
  -8 -17  -3   47.87   32.82
 -17  -8   3   36.26   23.14
 -17  -8  -3   28.97   21.04
 -17   8  -3   20.61   31.95
 -17  -8  -4   12.04   17.22
  -8 -17  -4   36.30   22.38
 -17   8  -4    9.50   26.54
 -17  -8  -4    5.75   15.37
 -17  -8   4  -14.97   16.57
 -17  -8  -5  117.85   49.73
  -8 -17  -5  152.25   63.29
 -17   8  -5  281.39   71.62
 -17   8  -5  110.69   60.46
 -17  -8  -5  245.79   62.10
  -8 -17  -6   35.61   36.03
 -17   8  -6  -12.51   13.61
 -17  -8  -6   17.95   20.74
  -8  17   7   51.25   27.52
  -8 -17  -7   55.87   47.16
 -17   8  -7  138.35   49.79
 -17  -8  -7   22.65   33.07
  -8  17   8  -19.87   33.54
  -8 -17  -8   10.23   17.90
 -17   8  -8   19.24   14.61
 -17  -8  -8   14.00   12.15
  -8  17   9   14.52   17.78
 -17   8  -9    3.29   19.62
  -8 -17  -9   22.99   25.54
 -17  -8  -9   30.62   24.28
 -17   8  10  -14.91   15.65
  -8  17  10   35.20   28.12
 -17   8 -10   -4.48   15.20
  -8 -17 -10   75.92   40.05
 -17  -8 -10   40.77   32.65
 -17   8  11    6.01   20.91
  -8  17  11   23.93   15.58
 -17   8 -11  -21.73   21.94
 -17  -8 -11    5.66   12.80
  -8  17  12  -21.68   17.84
 -17   8 -12   15.59   15.05
 -17  -8 -12   -1.98   15.67
 -17   8  13   23.77   24.98
  -8  17  13    9.56   20.88
   8  17  13  -22.16   24.24
 -17  -8 -13  -11.15   16.06
 -17   8  14   -6.14   14.75
  -8  17  14    4.11   15.23
   8  17  14  -34.66   29.07
 -17   8  15   -7.05   12.81
  -8  17  15    4.96   10.89
   8  17  15    1.61   13.48
 -17   8  16  -12.22   13.75
  -8  17  16   -4.20   12.01
   8  17  16  -18.34   21.47
  -8  17  17    5.37    9.06
 -17   8  17   34.33   15.74
  -9 -17   0   35.90   46.91
 -17  -9   0  -19.45   27.12
 -17  -9   0    8.40   25.39
  -9 -17   1   27.51   30.79
  -9 -17  -1   36.48   22.52
 -17  -9  -1   -5.32   10.80
 -17  -9   1  -34.19   26.95
 -17  -9   1   23.37   26.23
 -17  -9  -1   29.19   35.45
 -17  -9  -2   16.71   21.06
  -9 -17   2   37.30   29.48
  -9 -17  -2   42.26   34.97
 -17  -9   2    2.29   18.07
 -17  -9   2    6.14   19.15
 -17  -9  -2   64.97   39.31
 -17  -9  -3   31.43   28.92
  -9 -17   3   -0.70   15.18
  -9 -17  -3   38.80   27.00
 -17  -9  -3    4.60   25.04
 -17  -9   3   -3.97   11.95
 -17  -9  -4   94.14   40.56
  -9 -17  -4  141.11   53.83
 -17  -9  -4  168.51   56.70
  -9 -17  -5   15.66   28.48
 -17  -9  -5   14.37   32.14
  -9 -17  -6   35.37   41.09
 -17   9  -6  144.28   55.09
 -17  -9  -6  176.64   51.18
  -9 -17  -7    0.93   17.70
 -17   9  -7   13.01   28.82
 -17  -9  -7  -18.73   15.41
  -9  17   8  117.14   44.62
  -9 -17  -8  136.15   50.10
 -17   9  -8   49.12   30.53
 -17  -9  -8   81.92   40.40
  -9  17   9   -9.25   15.63
 -17   9  -9   21.15   21.15
  -9 -17  -9   -5.59   21.64
 -17  -9  -9   21.38   25.35
 -17   9  10   41.27   32.70
  -9  17  10   24.32   17.63
 -17   9 -10    0.34   15.29
  -9 -17 -10   11.94   14.71
 -17  -9 -10   26.53   24.26
 -17   9  11   -2.95   12.28
  -9  17  11    7.40   19.58
  -9 -17 -11   -7.70   13.82
 -17  -9 -11   29.20   21.73
 -17   9  12   53.46   30.00
  -9  17  12   -4.76   15.29
 -17   9 -12    9.45   10.45
 -17  -9 -12   30.85   20.41
 -17   9  13  -24.52   21.10
  -9  17  13   25.44   13.92
   9  17  13   24.41   33.69
 -17  -9 -13  -11.61    9.22
 -17   9  14   -3.88   13.18
  -9  17  14   -9.65   18.60
   9  17  14    4.28   25.53
 -17   9  15  -26.32   22.00
  -9  17  15   -7.14   12.73
   9  17  15    7.70   19.18
 -17   9  16    8.05   11.28
  -9  17  16   16.24   17.00
  -9  17  17   -1.48    9.55
 -10 -17   0  -11.02   28.28
 -17 -10   0  -21.50   18.47
 -17 -10   0   10.62   25.21
 -10 -17   1   -4.52   14.83
 -10 -17  -1   34.16   34.61
 -17 -10  -1  -16.10   21.02
 -17 -10   1   15.85   13.49
 -17 -10   1   10.13   26.03
 -17 -10  -1    5.25   21.74
 -10 -17   2   -7.45   12.36
 -17 -10  -2    4.73   14.78
 -10 -17  -2  -35.97   44.58
 -17 -10   2  -12.29   20.75
 -17 -10  -2   38.35   32.33
 -10 -17   3   25.15   34.30
 -10 -17  -3    3.30   21.29
 -17 -10  -3   43.85   38.11
 -10 -17  -4    5.44   21.32
 -17 -10  -4   72.99   34.72
 -10 -17  -5   53.77   42.76
 -17 -10  -5  108.64   42.99
 -10 -17  -6   15.82   29.68
 -17  10  -6   64.35   37.84
 -17 -10  -6   25.79   11.95
 -10 -17  -7   22.01   21.23
 -17  10  -7   55.35   26.36
 -17 -10  -7   37.25   27.88
 -10 -17  -8  -28.23   27.04
 -17  10  -8  -20.67   28.35
 -17 -10  -8   -2.73   18.48
 -10  17   9   41.62   26.11
 -17  10  -9   73.73   35.56
 -10 -17  -9   28.77   28.94
 -17 -10  -9   58.43   32.33
 -10  17  10   10.74   46.51
 -17  10 -10   -5.50   16.64
 -10 -17 -10   -0.26   18.41
 -17 -10 -10   19.30   16.87
 -17  10  11   -1.54   16.64
 -10  17  11   43.09   30.62
 -17  10 -11   23.70   19.51
 -10 -17 -11    2.45   13.78
 -17 -10 -11   37.10   21.55
 -17  10  12  -11.44   18.27
 -10  17  12   28.60   21.22
 -17  10 -12   34.11   22.96
 -17 -10 -12    3.65   15.02
 -17  10  13   10.65   14.75
 -10  17  13   -1.78    9.42
  10  17  13   13.33   19.67
 -17 -10 -13  -15.45    9.92
 -17  10  14   18.48   20.94
 -10  17  14  -16.59   14.78
  10  17  14   34.54   26.67
 -17  10  15  -10.03   12.93
 -10  17  15   30.81   18.77
 -17  10  16  -11.20   14.54
 -10  17  16   11.18   13.06
 -11 -17   0   10.82   13.50
 -17 -11   0   25.10   35.42
 -11 -17   1   -1.42   17.78
 -11 -17  -1   10.24   22.65
 -17 -11   1   18.16   15.66
 -17 -11  -1   35.81   22.02
 -11 -17   2  -11.35   21.75
 -11 -17  -2   21.66   24.75
 -17 -11   2   -2.70   26.86
 -17 -11  -2   -1.67   21.03
 -11 -17   3    1.74   16.38
 -11 -17  -3  -42.30   27.74
 -17 -11  -3   18.52   33.98
 -11 -17  -4   45.81   38.97
 -17 -11  -4   51.86   37.42
 -11 -17  -5   30.64   27.63
 -17 -11  -5   -2.43   26.45
 -11 -17  -6  -34.84   34.03
 -17 -11  -6  -76.51   39.95
 -11 -17  -7   -0.42   19.58
 -17  11  -7    5.00   23.69
 -17 -11  -7  -40.66   29.58
 -11 -17  -8  -19.23   22.49
 -17  11  -8  -15.17   17.98
 -17 -11  -8    1.19   22.28
 -17  11  -9    0.95   25.71
 -11 -17  -9   38.62   29.80
 -17 -11  -9   19.58   13.31
 -11  17  10   13.28   10.87
 -17  11 -10   16.34   19.94
 -11 -17 -10  -29.86   29.20
 -17 -11 -10   12.87   13.53
 -11  17  11   22.45   21.73
 -11 -17 -11   51.16   29.30
 -17 -11 -11   32.10   16.12
 -17  11  12   32.80   13.41
 -11  17  12    2.26    9.20
 -17  11 -12    4.61   14.84
 -17 -11 -12    0.59   15.53
 -17  11  13    7.36    9.96
 -11  17  13   12.06    9.25
  11  17  13   24.22   31.40
 -17 -11 -13   29.04   16.58
 -11  17  14   -5.92    9.64
  11  17  14   -6.03    9.88
 -17  11  15   -3.42   10.80
 -11  17  15   -0.36    7.53
 -12 -17   0   44.32   35.32
 -17 -12   0   60.50   42.83
 -12 -17   1    6.57   18.82
 -12 -17  -1   -8.38   17.05
 -17 -12   1  -15.23   29.00
 -17 -12  -1    8.73   21.92
 -12 -17   2   41.92   37.79
 -12 -17  -2   30.70   33.11
 -17 -12   2   43.20   31.19
 -17 -12  -2   38.20   35.94
 -12 -17   3  -11.99   15.84
 -12 -17  -3  -16.78   27.72
 -17 -12  -3   -5.62   26.03
 -12 -17  -4  -21.98   22.74
 -17 -12  -4   19.52   17.43
 -12 -17  -5   30.00   19.82
 -17 -12  -5   97.46   90.96
 -12 -17  -6   10.63   17.20
 -17 -12  -6  -13.50   24.93
 -12 -17  -7   16.31   19.54
 -17  12  -7   28.28   22.77
 -17 -12  -7   20.89   30.41
 -12 -17  -8   -5.57   23.07
 -17  12  -8   47.05   23.20
 -17 -12  -8   -3.02   12.12
 -17  12  -9   -3.92   14.41
 -12 -17  -9    4.27   19.57
 -17 -12  -9    7.14   11.91
 -17  12 -10   44.09   25.98
 -12 -17 -10   52.89   29.78
 -17 -12 -10   79.91   32.01
 -12  17  11   27.01   15.58
 -17  12 -11   11.75   20.91
 -12 -17 -11   15.80   15.69
 -17 -12 -11   31.78   29.74
 -17  12 -12    5.16   10.27
 -17 -12 -12    8.26   13.94
 -12  17  13    5.10   13.07
  12  17  13   20.66   20.37
 -17 -12 -13   18.73   10.83
 -17  12  14  -11.41    8.60
 -12  17  14   13.36   15.02
 -12  17  15  -18.89   10.58
 -13 -17   0    5.50   24.42
 -17 -13   0    7.51   20.00
 -13 -17   1   74.30   54.52
 -13 -17  -1  108.61   54.88
 -17 -13   1   65.48   42.11
 -17 -13  -1   55.39   32.19
 -13 -17   2    4.35   11.79
 -13 -17  -2    9.46   20.19
 -17 -13   2   13.24   14.08
 -17 -13  -2   -9.22   19.64
 -13 -17   3   13.42   20.77
 -13 -17  -3   46.60   38.26
 -17 -13   3   -6.71    9.61
 -17 -13  -3   61.92   31.16
 -13 -17  -4  -33.46   20.89
 -17 -13  -4   33.18   28.69
 -13 -17  -5   25.06   36.63
 -17 -13  -5    1.46   20.69
 -13 -17  -6   -0.56   35.15
 -17 -13  -6   -0.05   18.69
 -13 -17  -7  -18.67   19.80
 -17  13  -7   12.76   15.94
 -17 -13  -7  -30.38   22.12
 -13 -17  -8   50.61   25.23
 -17  13  -8   20.80   18.93
 -17 -13  -8  -24.46   19.33
 -13 -17  -9   20.57   24.74
 -17  13  -9   23.96   28.32
 -17 -13  -9   75.63   34.31
 -17  13 -10  -10.19   19.60
 -13 -17 -10   -1.04   17.23
 -17 -13 -10    0.35   17.29
 -17  13 -11  115.42   37.71
 -13 -17 -11   91.91   30.22
 -13  17 -11   47.98   29.16
 -17 -13 -11   82.15   29.07
 -17  13 -12    5.70   14.80
 -17 -13 -12    3.12    8.60
 -13  17  13   15.80   13.25
 -17 -13 -13   41.68   19.84
 -13  17  14  -15.91   12.04
 -14 -17   0  116.72   55.23
 -17 -14   0   91.44   44.84
 -14 -17   1   -4.80   14.32
 -14 -17  -1    4.84   18.43
 -17 -14   1  -21.23   18.84
 -17 -14  -1   -0.54   17.57
 -14 -17   2   42.19   31.06
 -14 -17  -2   81.78   49.28
 -17 -14   2   85.43   38.44
 -17 -14  -2    5.44   19.33
 -14 -17   3    0.70   13.24
 -17 -14   3  -15.88   25.76
 -14 -17  -3   16.35   31.82
 -17 -14  -3   16.38   27.36
 -14 -17  -4  -40.46   31.98
 -17 -14  -4  -16.57   27.95
 -14 -17  -5  122.83   45.27
 -17 -14  -5   28.78   20.40
 -14 -17  -6  -10.28   19.24
 -17 -14  -6  -25.55   31.38
 -14 -17  -7   40.47   24.28
 -17  14  -7   22.89   33.03
 -17 -14  -7  -38.72   22.82
 -14 -17  -8   52.01   30.44
 -17  14  -8   68.15   29.56
 -17 -14  -8   20.25   16.83
 -14 -17  -9   25.87   15.73
 -17 -14  -9   -6.11   16.28
 -17  14 -10   94.63   40.09
 -14 -17 -10   63.51   28.46
 -17 -14 -10   70.90   30.81
 -14  17 -10  111.00   41.88
 -17  14 -11   37.26   22.59
 -14 -17 -11   24.09   19.25
 -14  17 -11   19.20   13.84
 -17 -14 -11  -10.02   13.86
 -17 -14 -12   37.39   21.47
 -15 -17   0  -15.71   19.28
 -17 -15   0   -4.42   19.33
 -15 -17   1   24.01   20.12
 -15 -17  -1   40.03   38.08
 -17 -15   1  -10.85   20.05
 -17 -15  -1   50.65   40.21
 -15 -17   2  -11.30   16.99
 -17 -15   2   -6.05   22.53
 -17 -15  -2  -10.55   25.92
 -15 -17   3   11.19   10.87
 -17 -15   3    0.24   14.12
 -15 -17  -3    1.91   17.87
 -17 -15  -3   -2.03   22.58
 -15 -17  -4   14.45   21.96
 -17 -15  -4    9.07   15.49
 -15 -17  -5   12.12   14.92
 -17 -15  -5   -5.18   23.58
 -15 -17  -6   -9.87   17.15
 -17 -15  -6    2.00   14.22
 -15 -17  -7   32.25   28.03
 -17 -15  -7  -31.57   21.82
 -17  15  -7    0.09   21.44
 -15 -17  -8   -4.04   11.31
 -17  15  -8  -25.59   20.12
 -15 -17  -9   18.76   11.14
 -17  15  -9   40.40   28.37
 -17 -15  -9   24.38   20.70
 -15  17  -9   -2.05   15.63
 -17  15 -10  -24.49   13.19
 -15 -17 -10   13.51   13.27
 -15  17 -10   31.16   25.74
 -17 -15 -10   29.98   16.65
 -17  15 -11    2.47   13.76
 -15  17 -11  -14.07   14.82
 -15 -17 -11   37.26   19.18
 -17 -15 -11   46.44   22.06
 -17 -15 -12    2.51    6.12
 -16 -17   0   -7.74   19.89
 -17 -16   0   -7.93   19.71
 -16 -17   1    1.20   19.91
 -17 -16   1   10.64   16.33
 -16 -17  -1   -9.42   18.96
 -17 -16  -1    7.97   32.00
 -16 -17   2   -9.35   21.40
 -17 -16   2   21.19   22.36
 -16 -17  -2    2.82   17.32
 -17 -16  -2   -5.03   16.79
 -16 -17   3   -6.68   15.95
 -16 -17  -3   18.86   21.50
 -17 -16  -3   -7.83   18.17
 -16 -17  -4   10.55   21.96
 -17 -16  -4  -13.12   21.63
 -16 -17  -5  -10.78   12.64
 -17 -16  -5   -8.70   18.88
 -16 -17  -6   13.62   12.53
 -17 -16  -6   -9.41   15.83
 -16 -17  -7   -8.31   11.23
 -17 -16  -7   25.98   25.67
 -17  16  -7   -2.93   20.61
 -16 -17  -8   12.04   19.45
 -17 -16  -8   17.07   25.68
 -17  16  -8   17.44   14.49
 -16  17  -8    6.79   11.07
 -17  16  -9    1.81   15.56
 -16 -17  -9   -3.61   14.61
 -17 -16  -9    4.20   14.37
 -16  17  -9   34.22   24.27
 -17  16 -10   40.75   27.07
 -16  17 -10   47.08   26.29
 -16 -17 -10    3.93    9.07
 -17 -16 -10  -18.07   16.49
 -17  16 -11  -26.22   14.91
 -16  17 -11    5.99   12.92
 -16 -17 -11   -6.13   13.85
 -17 -16 -11   -8.14   13.40
 -17 -16 -12   -0.69    6.95
 -17 -17   0    0.69   18.26
 -17 -17   1    6.46   20.76
 -17 -17  -1   -3.22   16.16
 -17 -17   2   12.60   19.70
 -17 -17  -2   -8.25   12.46
 -17 -17  -3  -13.21   14.86
 -17 -17  -4   11.04   13.85
 -17 -17  -5   -1.08    9.85
 -17 -17  -6   62.93   35.36
 -17 -17  -7   -6.95   17.24
 -17  17  -7    7.61   17.64
 -17 -17  -8  -17.70   18.19
 -17  17  -8    3.24   13.22
 -17  17  -9  -20.47   21.95
 -17 -17  -9   10.84   12.81
 -17  17 -10  -21.98   21.58
 -17 -17 -10   -0.05   10.68
 -17 -17 -11   -8.70   10.01
 -18   0   0  253.11   64.83
 -18   0   0  226.38   58.89
 -18   0  -1   90.44   47.16
 -18   0   1   49.52   22.06
 -18   0  -1   72.26   35.45
 -18   0   1   30.65   27.71
 -18   0  -2  142.88   57.40
 -18   0   2   84.20   39.65
 -18   0  -2  109.73   43.88
 -18   0   2  136.90   51.82
 -18   0  -3    3.97   19.08
 -18   0   3   28.08   36.23
 -18   0  -4   93.84   55.92
 -18   0  -4  116.50   43.68
 -18   0   4  125.33   37.76
 -18   0  -5  204.87   56.49
 -18   0   5  122.04   43.76
 -18   0  -5  122.54   63.32
 -18   0  -6  107.30   44.06
 -18   0   6   35.88   25.16
 -18   0  -7  122.11   45.02
 -18   0   7  114.12   45.99
 -18   0  -8  -18.21   21.77
 -18   0   8   49.56   24.98
 -18   0  -9   75.71   37.49
 -18   0   9   11.06   20.27
 -18   0 -10   45.77   27.93
 -18   0  10   32.99   35.01
 -18   0 -11  170.05   48.39
   0  18  11  266.42   72.15
 -18   0  11  175.91   54.71
 -18   0 -12    9.09   17.76
   0  18  12   50.92   33.53
 -18   0  12   -2.32   17.08
 -18   0 -13   10.12   15.21
   0  18  13    8.15   23.80
 -18   0  13   37.25   34.85
   0  18  14   27.17   31.38
   0  18  15   42.61   29.42
   0  18  16   31.17   29.45
   0  18  17   27.09   23.12
 -18   1   0   86.76   43.09
 -18  -1   0   86.47   56.29
 -18  -1   0  121.21   50.95
 -18   1   0   25.43   34.52
 -18   1  -1  142.21   59.96
 -18  -1  -1   40.51   46.76
 -18  -1   1   64.38   40.24
 -18  -1  -1  125.43   40.25
 -18   1   1   81.35   38.73
 -18   1   1   27.21   24.43
 -18  -1   1   -9.30   29.89
 -18   1  -1   77.98   29.98
 -18   1  -2   97.97   53.63
 -18  -1  -2   41.51   36.50
 -18  -1   2   35.29   35.55
 -18  -1  -2   17.27   19.57
 -18   1   2   50.47   35.54
 -18   1  -2   24.32   24.43
 -18   1   2    0.81   30.02
 -18  -1   2   56.92   36.41
 -18   1  -3   83.15   38.41
 -18  -1  -3   78.36   41.80
 -18  -1  -3   78.85   34.01
 -18   1  -3   32.37   20.87
 -18   1   3   35.34   30.61
 -18  -1   3  100.18   40.41
 -18   1  -4  118.57   62.13
 -18  -1  -4   42.54   32.57
 -18  -1  -4   38.12   30.55
 -18   1  -4   43.58   30.66
 -18   1   4   45.90   31.34
 -18  -1   4   -2.83   29.77
 -18  -1  -5   43.58   49.69
 -18  -1  -5  145.20   53.28
 -18   1  -5   78.59   30.39
 -18   1   5   84.02   33.56
 -18  -1   5   86.13   37.19
 -18   1  -5  121.44   68.39
 -18  -1  -6   47.60   28.41
 -18   1  -6  177.17   53.15
 -18   1  -6   73.96   56.47
 -18   1   6  118.30   44.10
 -18  -1   6   87.30   34.48
 -18  -1  -6  111.17   63.72
 -18   1   7   -0.26   20.06
 -18  -1  -7   33.73   27.57
 -18   1  -7   42.30   29.76
 -18   1   7   59.62   28.72
 -18  -1  -8  -20.78   23.09
 -18   1  -8   14.88   19.60
 -18   1   8    8.29   15.23
 -18  -1  -9   48.25   27.65
 -18   1  -9   48.44   35.68
 -18   1   9   -0.49   25.60
 -18  -1   9   52.39   34.67
 -18   1  10  145.47   48.73
 -18  -1 -10  139.53   42.45
 -18   1 -10  173.68   48.51
 -18  -1  10  160.50   50.99
 -18   1  11    9.18   24.15
 -18  -1 -11  -27.49   19.60
 -18   1 -11    1.20   21.92
  -1  18  11   89.68   51.27
 -18  -1  11   80.63   38.54
 -18  -1 -12   37.75   18.74
 -18   1 -12   99.04   39.06
  -1  18  12  148.61   61.53
   1  18  12  144.24   59.52
 -18   1  12   74.23   28.15
 -18   1 -13   -1.81   11.73
  -1  18  13   42.63   37.03
   1  18  13   30.22   35.14
 -18  -1 -13   31.58   20.07
 -18   1  13   23.65   32.49
  -1  18  14   19.82   23.18
   1  18  14   35.40   33.13
 -18   1  14    4.87   19.96
  -1  18  15   30.67   30.93
   1  18  15   14.58   19.64
  -1  18  16   54.08   27.30
   1  18  16   48.87   28.75
  -1  18  17   -3.55   11.95
   1  18  17   11.47   16.22
 -18  -2   0   60.68   35.87
 -18   2   0    2.56   26.54
 -18  -2   0   67.04   41.73
 -18   2   0    5.22   18.55
 -18   2  -1  183.18   66.66
 -18  -2   1   85.31   50.20
 -18  -2  -1  214.42   62.50
 -18  -2  -1  179.56   54.11
 -18   2   1  233.99   56.78
 -18  -2   1  139.82   46.63
 -18   2   1   88.45   45.35
 -18   2  -1  166.46   50.13
 -18   2  -2    4.63   30.94
 -18  -2   2    4.71   21.08
 -18  -2  -2   16.70   35.98
 -18  -2  -2   26.31   29.86
 -18   2   2   13.57   19.51
 -18   2   2   32.83   35.18
 -18   2  -2   -6.13   14.25
 -18  -2   2   48.64   35.44
 -18   2  -3  -14.45   27.96
 -18  -2  -3   10.47   20.56
 -18  -2  -3   15.47   14.13
 -18   2  -3   15.26   21.60
 -18   2   3  -10.00   23.09
 -18  -2   3   19.98   21.45
 -18  -2  -4  186.59   75.93
 -18  -2  -4  199.56   56.72
 -18   2  -4   65.43   25.41
 -18   2   4   60.48   33.68
 -18  -2   4   29.53   21.91
 -18   2  -4   -7.37   24.18
 -18  -2  -5   25.05   33.69
 -18  -2  -5  128.97   40.97
 -18   2  -5   58.25   32.57
 -18   2   5   21.37   18.84
 -18  -2   5   65.78   31.68
 -18   2  -5   68.85   47.59
 -18  -2  -6   66.94   66.08
 -18  -2  -6   64.14   33.53
 -18   2  -6   49.94   21.00
 -18   2  -6   33.13   48.40
 -18   2   6   31.95   20.03
 -18  -2   6    3.78   17.53
 -18  -2  -7    5.07   17.36
 -18   2  -7  -41.96   27.46
 -18   2   7   20.11   18.07
 -18   2   8  -40.94   28.00
 -18  -2  -8  -17.53   17.34
 -18   2  -8   -5.29   19.22
 -18   2   9   97.23   45.36
 -18  -2  -9  105.87   36.11
 -18   2  -9  128.65   49.90
 -18  -2 -10    6.23   13.14
 -18   2 -10   18.72   11.18
 -18   2  10    5.84   14.63
 -18   2  11  252.42   64.97
 -18  -2 -11  205.20   50.36
 -18   2 -11  217.58   51.75
  -2  18  11  304.97   69.14
 -18  -2 -12   17.20    9.00
 -18   2  12    4.44   32.77
 -18   2 -12   15.14    9.96
  -2  18  12   40.29   38.33
   2  18  12  -10.47   38.45
 -18   2 -13   24.52   17.00
   2  18  13   58.78   40.35
 -18  -2 -13   14.69   14.81
 -18   2  13   68.01   32.18
  -2  18  14  -15.33   16.92
   2  18  14   19.13   29.40
 -18   2  14   -3.01   15.89
  -2  18  15   10.38   24.25
   2  18  15    1.78   16.56
 -18   2  15   12.49   20.51
  -2  18  16   19.88   21.44
   2  18  16   -0.06   19.21
  -2  18  17    8.99   14.06
   2  18  17   15.16   17.52
 -18  -3   0  165.85   61.18
 -18   3   0  104.45   44.36
 -18  -3   0  200.59   52.92
 -18   3   0  175.78   65.22
 -18   3  -1   20.51   23.53
 -18  -3   1   85.52   45.16
 -18  -3  -1   70.99   36.72
 -18  -3  -1  -34.41   36.92
 -18   3   1   49.00   32.12
 -18  -3   1   76.85   40.13
 -18   3   1   13.79   27.40
 -18   3  -1   51.13   39.61
 -18   3  -2  200.19   73.46
 -18  -3   2   83.30   39.05
 -18  -3  -2  122.72   48.78
 -18  -3  -2  118.92   37.53
 -18   3   2  136.88   53.39
 -18   3   2  130.13   60.42
 -18   3  -2  199.13   61.95
 -18  -3   2  154.09   49.37
 -18   3  -3   37.90   33.63
 -18  -3  -3   -4.26   21.95
 -18  -3  -3   45.10   32.50
 -18   3  -3   15.52   30.05
 -18   3   3  -14.96   14.80
 -18  -3   3   -3.13   12.45
 -18  -3  -4   28.90   33.48
 -18  -3  -4  -12.41   24.89
 -18   3  -4   27.29   21.82
 -18   3   4  -13.58   21.06
 -18  -3   4    7.08   20.86
 -18   3  -4    2.52   58.82
 -18  -3  -5  114.45   52.04
 -18  -3  -5   81.37   35.23
 -18   3  -5  113.12   45.28
 -18   3   5   76.67   29.61
 -18  -3   5   65.91   26.86
 -18   3  -5   66.53   52.06
 -18  -3   6  -15.81   24.25
 -18  -3  -6  -35.82   28.68
 -18  -3  -6   20.11   23.44
 -18   3  -6   35.54   36.24
 -18   3  -6  -19.67   33.12
 -18  -3  -7   42.44   30.74
 -18   3  -7   17.66   22.83
 -18   3   8   78.84   31.84
 -18  -3  -8   51.50   28.96
 -18   3  -8  138.58   51.27
 -18   3   9   29.94   27.84
 -18  -3  -9   29.30   23.74
 -18   3  -9  -49.54   27.82
  -3  18   9    7.59   18.32
 -18   3  10  211.18   57.94
 -18  -3 -10  207.85   51.90
 -18   3 -10  254.56   61.11
  -3  18  10  384.68   76.90
 -18  -3 -11   44.24   23.66
 -18   3  11   46.39   22.03
 -18   3 -11  -12.02   16.81
  -3  18  11   80.56   41.39
 -18   3  12  139.22   47.74
 -18   3 -12  109.51   38.41
  -3  18  12  161.58   55.26
 -18  -3 -12  109.35   32.50
 -18   3  13   61.58   30.85
 -18   3 -13   -5.00    9.69
  -3  18  13   -9.42   21.14
   3  18  13   26.23   24.16
 -18  -3 -13   61.77   28.57
  -3  18  14    6.27   15.51
   3  18  14    7.52   30.10
 -18   3  14   -3.69   14.62
  -3  18  15   12.32   21.31
   3  18  15   16.73   19.30
 -18   3  15    0.27   14.04
  -3  18  16   -1.69   14.58
   3  18  16   15.66   11.49
  -3  18  17   11.71   14.12
   3  18  17   43.52   22.27
 -18  -4   0   22.68   25.46
 -18   4   0   95.76   40.62
 -18  -4   0   70.17   28.82
 -18   4   0   61.94   51.29
 -18  -4   1  257.20   58.67
 -18  -4  -1  224.14   71.21
 -18   4  -1  303.05   84.06
 -18   4   1  217.42   58.27
 -18  -4  -1  245.53   59.23
 -18  -4   1  307.23   69.10
 -18   4   1  155.21   64.50
 -18   4  -1  297.07   81.18
 -18  -4   2   45.56   37.96
 -18   4  -2   35.07   55.03
 -18  -4  -2   27.44   32.85
 -18  -4  -2    9.29   37.27
 -18   4   2   17.51   18.32
 -18   4   2   22.31   28.90
 -18   4  -2   29.07   34.98
 -18  -4   2   90.87   38.80
 -18   4  -3  112.70   56.34
 -18  -4  -3   78.96   37.48
 -18  -4  -3    8.79   17.30
 -18   4   3   61.84   41.26
 -18   4  -3   54.06   32.62
 -18  -4   3   37.26   22.12
 -18  -4  -4   54.08   25.09
 -18  -4  -4   73.18   51.80
 -18   4  -4   65.89   34.35
 -18   4   4   19.10   17.33
 -18  -4   4   53.88   37.27
 -18   4  -4   -6.04   29.56
 -18  -4  -5   27.61   34.20
 -18  -4  -5    3.42   17.39
 -18   4  -5    0.73   21.79
 -18  -4   5   15.88   24.63
 -18   4  -5   61.80   39.39
 -18  -4  -6   91.10   41.84
 -18   4  -6   86.86   46.01
 -18  -4  -7   61.21   34.53
 -18   4  -7   87.74   41.35
 -18   4   8    2.65   18.80
 -18  -4  -8   -2.58   11.77
 -18   4  -8  -14.12   17.08
  -4  18   8   18.42   19.72
 -18   4   9  157.62   50.14
 -18  -4  -9  157.67   45.20
 -18   4  -9  140.50   39.45
  -4  18   9  147.10   52.14
 -18  -4 -10   43.00   16.87
 -18   4  10  135.12   41.57
 -18   4 -10  125.63   44.12
  -4  18  10  149.16   57.28
 -18   4  11   92.89   35.67
 -18   4 -11  208.32   52.22
  -4  18  11  245.13   62.82
 -18  -4 -11  105.61   35.41
 -18   4  12  108.29   43.17
 -18   4 -12   92.33   36.24
  -4  18  12  102.54   42.20
 -18  -4 -12   44.71   22.91
 -18   4  13   48.38   28.44
 -18   4 -13   52.07   23.49
  -4  18  13   36.22   13.98
   4  18  13   28.72   25.42
 -18  -4 -13   72.59   27.48
 -18   4  14    0.69   22.21
  -4  18  14    0.43   16.91
   4  18  14  -11.38   16.32
  -4  18  15   19.06   17.68
   4  18  15   20.89   17.50
 -18   4  15   -7.72   13.29
  -4  18  16   26.36   23.86
   4  18  16   39.65   21.15
  -4  18  17   13.01   12.92
   4  18  17   12.18   17.58
 -18  -5   0  147.11   51.77
 -18   5   0  207.24   63.51
 -18  -5   0  214.54   59.23
 -18   5   0  205.17   59.99
 -18  -5   1  108.57   40.86
 -18  -5  -1  170.57   56.98
 -18   5  -1   72.66   35.19
 -18   5   1   87.15   39.02
 -18  -5  -1  115.33   44.93
 -18  -5   1  168.73   53.53
 -18   5   1  120.78   54.97
 -18   5  -1  111.65   46.71
 -18  -5   2   87.53   36.54
 -18   5  -2  132.60   46.18
 -18  -5  -2   46.55   26.84
 -18  -5  -2  115.60   44.71
 -18   5   2  119.49   42.57
  -5 -18  -2  156.91   54.72
 -18   5   2  135.41   46.22
 -18   5  -2   88.99   46.14
 -18  -5   2  137.82   42.85
 -18   5  -3   -8.43   40.11
 -18  -5  -3   27.34   22.77
 -18  -5  -3  -13.19   38.74
 -18   5   3   11.57   17.98
  -5 -18  -3   10.12   26.68
 -18   5  -3   -1.79   14.49
 -18  -5   3  -48.46   27.39
 -18  -5  -4  -21.29   25.08
 -18  -5  -4  -54.81   40.13
  -5 -18  -4  -10.27   19.30
 -18   5  -4   -0.60   25.54
 -18  -5   4   -5.67   22.92
 -18   5  -4  -17.92   38.26
 -18  -5  -5  136.44   44.37
 -18  -5  -5  142.91   59.93
  -5 -18  -5   85.49   52.08
 -18   5  -5  143.68   52.53
 -18   5  -5   62.29   34.13
 -18  -5   5   58.98   29.31
 -18  -5  -6   37.58   17.35
  -5 -18  -6    5.71   25.95
 -18  -5  -7   10.72   18.29
 -18   5  -7   -0.05   20.44
  -5  18   7  -31.46   26.81
 -18  -5  -8  165.53   49.82
 -18   5  -8  140.44   48.21
  -5  18   8  191.30   53.83
 -18  -5  -9   25.68   16.10
 -18   5   9   49.91   29.71
 -18   5  -9   70.75   31.22
  -5  18   9   77.56   32.02
 -18   5  10   66.64   36.29
 -18   5 -10  133.40   46.47
  -5  18  10   45.03   30.31
 -18  -5 -10   86.59   31.24
 -18   5  11  162.11   50.48
 -18   5 -11  124.86   43.95
  -5  18  11  188.75   50.90
 -18  -5 -11  165.14   50.60
 -18   5  12   91.65   44.67
 -18   5 -12   44.93   20.95
  -5  18  12   66.91   22.25
 -18  -5 -12   70.58   32.29
 -18   5  13   36.80   31.30
 -18   5 -13   24.05   19.78
  -5  18  13   28.55   29.81
   5  18  13   54.56   41.44
 -18  -5 -13   29.09   13.22
 -18   5  14   28.97   25.37
  -5  18  14    0.19   18.18
   5  18  14   75.94   40.83
  -5  18  15   21.86   21.44
 -18   5  15    0.14   14.93
  -5  18  16   10.42   16.94
   5  18  16  -17.97   16.18
 -18   5  16   -5.63   10.28
  -5  18  17   23.39   21.11
 -18  -6   0   38.82   26.10
 -18   6   0   55.44   31.20
 -18  -6   0   87.21   32.75
  -6 -18   0   47.92   36.13
 -18   6   0   24.41   28.11
 -18  -6   1   57.27   28.95
 -18  -6  -1   88.87   40.47
 -18   6  -1   60.37   28.04
 -18  -6  -1  107.09   30.98
  -6 -18  -1  195.36   60.68
 -18  -6   1  129.59   49.76
 -18   6   1  104.06   52.05
 -18   6  -1   91.92   50.48
 -18  -6  -2  -64.62   45.92
 -18   6  -2    1.30   19.35
 -18  -6  -2 -104.43   43.47
  -6 -18  -2  110.84   50.21
 -18   6   2   11.90   24.14
 -18   6  -2   28.91   33.16
 -18  -6   2   51.42   33.26
 -18  -6   2   17.10   16.15
 -18   6  -3   11.65   25.10
 -18  -6  -3  -15.16   26.53
 -18  -6  -3  -11.68   15.35
  -6 -18  -3    8.17   21.53
 -18   6   3   -8.76   15.23
 -18   6  -3  -26.01   21.54
 -18  -6   3  -73.18   32.88
 -18  -6  -4  117.90   38.31
 -18  -6  -4   66.02   22.46
  -6 -18  -4  133.96   59.86
 -18   6  -4  136.96   55.30
 -18  -6   4   50.39   23.06
 -18   6  -4  131.19   60.01
 -18  -6  -5  -26.17   18.07
  -6 -18  -5   20.64   30.61
 -18   6  -5   16.70   37.00
 -18  -6  -6  119.17   43.21
  -6  18   6  166.04   46.85
  -6 -18  -6   74.95   47.85
 -18   6  -6  118.58   50.82
 -18  -6  -7   59.02   26.90
  -6  18   7   89.45   43.21
 -18   6  -7  116.78   44.62
  -6 -18  -7   82.58   52.50
  -6  18   8   23.46   20.95
 -18   6  -8   13.01   17.91
 -18  -6  -8   27.97   22.35
 -18   6   9   18.28   17.05
  -6  18   9   86.81   33.94
 -18   6  -9   47.67   27.22
 -18  -6  -9   44.46   26.71
 -18   6  10  154.90   45.28
 -18   6 -10   31.68   18.24
  -6  18  10  164.20   46.90
 -18  -6 -10  129.87   45.92
 -18   6  11   16.56   29.66
 -18   6 -11   32.32   23.13
  -6  18  11   53.51   25.66
 -18  -6 -11   85.73   38.58
 -18   6  12   42.90   26.98
 -18   6 -12   26.26   20.74
  -6  18  12   30.38   12.41
 -18  -6 -12   72.03   24.58
 -18   6  13   30.23   23.40
 -18   6 -13   23.31   18.73
  -6  18  13  -15.80   24.85
   6  18  13   -4.46   23.61
 -18  -6 -13   27.22   17.00
 -18   6  14   17.95   16.50
  -6  18  14    9.74   13.98
   6  18  14    1.78   25.12
 -18   6  15   -6.83   14.32
  -6  18  15    9.05   13.14
   6  18  15   33.97   28.51
 -18   6  16   21.77   22.68
  -6  18  16   41.98   23.43
   6  18  16   58.51   27.15
  -6  18  17   16.97   14.22
  -7 -18   0   73.39   42.70
 -18  -7   0   52.86   37.85
 -18   7   0   80.34   52.73
 -18  -7   0   12.01   23.40
 -18  -7  -1   54.53   28.75
  -7 -18  -1   35.96   38.46
 -18  -7   1   70.06   32.00
 -18   7   1   43.32   36.99
 -18   7  -1   55.50   43.12
 -18  -7   1   29.67   24.89
 -18  -7  -1   18.70   25.96
 -18  -7  -2  -24.21   22.41
 -18   7  -2  -16.39   16.62
 -18  -7  -2    5.29   16.59
  -7 -18  -2  -30.75   30.95
 -18   7   2   28.36   33.79
 -18   7  -2    3.53   18.00
 -18  -7   2  -25.79   17.36
 -18  -7   2   -0.81   13.05
 -18  -7  -3   34.54   29.19
 -18   7  -3  -34.32   34.56
  -7 -18  -3   29.39   20.71
 -18   7   3   51.02   31.41
 -18   7  -3   25.95   38.45
 -18  -7   3   30.61   21.65
 -18  -7  -4   22.08   16.15
  -7 -18  -4   62.56   36.09
 -18   7  -4   10.90   29.11
 -18   7  -4   55.43   41.42
 -18  -7  -5  365.14   77.51
  -7 -18  -5  222.71   72.95
 -18   7  -5  377.97   82.32
  -7 -18  -6   49.97   38.02
 -18   7  -6  -18.03   14.13
 -18  -7  -6   19.87   14.20
  -7  18   7  101.01   39.03
 -18   7  -7  122.85   45.29
  -7 -18  -7   64.81   46.27
 -18  -7  -7   86.93   38.71
  -7  18   8   84.80   39.42
 -18   7  -8   38.62   32.97
  -7 -18  -8    3.33   20.01
 -18  -7  -8   18.66   27.99
  -7  18   9   37.35   25.81
 -18   7  -9  -24.80   30.02
 -18  -7  -9   12.39   24.28
 -18   7  10  -14.21   22.95
  -7  18  10   42.45   31.63
 -18   7 -10   28.05   25.42
 -18  -7 -10   -1.42   11.56
 -18   7  11   49.24   27.87
 -18   7 -11   53.85   31.46
  -7  18  11  106.66   34.47
 -18  -7 -11   40.32   29.47
 -18   7  12    3.51   13.69
  -7  18  12   18.01   20.14
 -18  -7 -12  -24.86   17.01
 -18   7  13   -8.65   19.24
 -18  -7 -13    3.20    8.42
 -18   7  14   32.85   25.31
  -7  18  14   -6.35   17.39
   7  18  14   53.93   33.58
 -18   7  15   16.52   17.65
  -7  18  15   28.06   25.14
   7  18  15   18.94   24.62
  -7  18  16   -0.32    7.61
   7  18  16   20.87   10.95
 -18   7  16   14.94   12.89
  -7  18  17   19.67   17.75
  -8 -18   0   -4.87   14.74
 -18  -8   0    7.09   15.21
 -18   8   0   30.99   39.09
 -18  -8   0   12.34   24.22
  -8 -18   1   17.14   23.38
  -8 -18  -1    8.01   26.62
 -18  -8  -1   48.64   34.96
 -18   8   1   63.64   40.73
 -18   8  -1   51.92   53.88
 -18  -8   1    5.50   20.99
 -18  -8   1    5.40   32.16
 -18  -8  -1   -8.12   17.35
 -18   8   2   -1.02   20.03
 -18   8  -2   17.70   24.73
 -18  -8   2   30.90   21.12
 -18  -8  -2   23.26   27.23
  -8 -18  -3   55.44   37.88
 -18   8   3   10.26   17.13
 -18   8  -3   10.70   33.21
 -18  -8  -3   19.29   23.33
  -8 -18  -4  185.77   69.63
 -18   8  -4  338.79   82.50
 -18  -8  -4  282.97   69.94
  -8 -18  -5    7.81   21.82
 -18   8  -5   -2.37   28.24
 -18  -8  -5   31.19   28.32
  -8 -18  -6  223.88   71.65
 -18   8  -6  292.21   74.22
 -18  -8  -6  325.69   77.27
  -8 -18  -7   -3.32   25.11
 -18   8  -7   30.33   19.51
 -18  -8  -7   16.36   27.10
  -8  18   8   40.61   23.69
 -18   8  -8  107.91   45.19
 -18  -8  -8  141.26   52.27
 -18   8  -9  -21.79   22.30
  -8 -18  -9    6.80   12.71
 -18  -8  -9   -5.45   13.68
  -8  18  10   32.91   29.24
 -18   8 -10   63.85   29.27
 -18  -8 -10   14.39   15.17
 -18   8  11   -0.93   22.57
  -8  18  11   14.76   19.05
 -18   8 -11   -6.86   20.17
 -18  -8 -11    8.10   18.12
 -18   8  12  -23.46   11.74
  -8  18  12   17.68   16.79
 -18  -8 -12    6.92   11.89
 -18   8  13   -6.44   10.66
  -8  18  13   -9.67   11.21
 -18  -8 -13    0.08   11.76
 -18   8  14   36.60   19.88
  -8  18  14    7.46   20.23
   8  18  14   41.06   24.86
 -18   8  15  -22.85   20.38
  -8  18  15    4.92    9.49
   8  18  15  -17.08   16.38
  -8  18  16   34.32   19.97
 -18   8  16    7.70    9.05
  -9 -18   0   30.16   29.81
 -18  -9   0   30.80   29.14
  -9 -18   1    9.27   31.34
  -9 -18  -1   15.09   34.76
 -18  -9   1   12.93   25.09
 -18  -9  -1   27.93   30.29
  -9 -18   2   30.74   36.99
  -9 -18  -2   26.42   29.47
 -18   9   2    1.29   29.74
 -18  -9   2   15.03   18.31
 -18  -9  -2    8.02   25.11
  -9 -18  -3   83.43   36.69
 -18   9   3   56.12   37.72
 -18  -9  -3  144.62   53.92
  -9 -18  -4    6.99   25.60
 -18  -9  -4   37.39   24.30
  -9 -18  -5  349.33   83.42
 -18   9  -5  380.42   86.05
 -18  -9  -5  368.22   76.41
  -9 -18  -6   43.17   25.98
 -18   9  -6   49.95   31.70
 -18  -9  -6   42.85   28.77
  -9 -18  -7  145.58   56.30
 -18   9  -7  113.99   45.41
 -18  -9  -7  188.05   55.06
  -9  18   8    6.21   15.50
 -18   9  -8    6.13   14.23
  -9 -18  -8   11.90   32.41
 -18  -9  -8  -10.49   13.27
  -9  18   9    3.63   13.00
  -9 -18  -9  -15.78   23.04
 -18  -9  -9    6.15   15.73
  -9  18  10   -6.52   19.24
 -18   9 -10  -34.20   24.91
  -9 -18 -10  -12.12   16.32
  -9  18  11  -24.39   17.50
 -18   9 -11  -25.65   18.76
 -18  -9 -11   23.57   17.95
  -9  18  12    4.63   16.93
 -18   9 -12    7.36   17.44
 -18  -9 -12  -19.22   18.10
 -18   9  13   -8.46   14.02
  -9  18  13   -7.09    9.30
   9  18  13   -4.66   24.49
 -18  -9 -13    0.15   11.11
 -18   9  14    8.93   18.86
  -9  18  14   -7.44   21.60
   9  18  14    3.59   19.81
  -9  18  15   13.25   10.57
   9  18  15   16.13   18.47
 -18   9  15   14.04   17.23
  -9  18  16    1.27    9.41
 -10 -18   0   12.14   19.51
 -18 -10   0    3.05   14.84
 -10 -18   1   62.61   36.77
 -10 -18  -1    6.39   23.64
 -18 -10   1    4.53   10.93
 -18 -10  -1   19.07   24.83
 -10 -18   2   14.88   31.08
 -10 -18  -2   17.06   28.88
 -18 -10   2    2.14   21.16
 -18 -10  -2   38.79   27.79
 -10 -18  -3   44.57   39.59
 -18  10   3   30.86   35.93
 -18 -10  -3  -62.72   32.83
 -10 -18  -4  103.43   50.18
 -18  10  -4  165.32   62.38
 -18 -10  -4  139.74   50.94
 -10 -18  -5  106.13   47.05
 -18  10  -5   45.71   22.29
 -18 -10  -5   79.12   34.00
 -10 -18  -6  158.84   47.85
 -18  10  -6  139.00   53.80
 -18 -10  -6  180.96   57.02
 -10 -18  -7   -6.01   17.01
 -18  10  -7  -27.87   28.62
 -18 -10  -7   10.08   20.75
 -10 -18  -8   30.12   25.36
 -18  10  -8  -10.05   17.00
 -18 -10  -8   -6.14   16.96
 -10  18   9   27.50   23.37
 -18  10  -9    9.96   15.36
 -10 -18  -9   36.78   15.81
 -18 -10  -9   31.96   23.39
 -10  18  10  -32.87   17.79
 -18  10 -10   38.63   22.82
 -10 -18 -10    8.26   18.97
 -18 -10 -10   -8.60   23.12
 -10  18  11   37.20   18.92
 -18  10 -11   76.00   33.47
 -18 -10 -11   22.50   13.28
 -10  18  12   20.79   10.42
 -18  10 -12    0.03    9.55
 -18 -10 -12    5.50   12.41
 -18  10  13   13.92   10.72
 -10  18  13   -0.27   10.97
  10  18  13   -5.32   19.45
 -18 -10 -13   11.85    9.65
 -18  10  14    0.37   13.22
 -10  18  14   29.70   18.05
  10  18  14   31.43   23.57
 -10  18  15    8.71   10.02
 -18  10  15    3.76    8.54
 -11 -18   0   55.30   46.78
 -18 -11   0   24.34   27.14
 -11 -18   1  -19.49   32.50
 -11 -18  -1    9.88   23.94
 -18 -11   1    1.64   19.44
 -11 -18   2   34.22   37.48
 -11 -18  -2   13.45   20.18
 -18 -11   2   29.28   18.77
 -18 -11  -2   81.78   43.50
 -11 -18  -3    6.34   23.29
 -18 -11  -3   31.49   35.85
 -11 -18  -4   74.67   33.85
 -18 -11  -4    9.47   23.24
 -11 -18  -5   66.19   36.76
 -18  11  -5   42.95   33.34
 -18 -11  -5    6.17   22.29
 -11 -18  -6   50.97   31.80
 -18  11  -6   20.35   14.22
 -18 -11  -6   36.15   26.12
 -18  11  -7    0.58   16.92
 -18 -11  -7   62.03   30.67
 -11 -18  -8  -15.06   26.58
 -18  11  -8    4.83   22.16
 -18 -11  -8   -3.23   12.10
 -18  11  -9   17.54   15.86
 -11 -18  -9  -13.38   11.94
 -18 -11  -9   10.10   16.93
 -18  11 -10   54.07   30.96
 -11 -18 -10   48.78   24.25
 -18 -11 -10   39.52   27.36
 -11  18  11   11.27   16.61
 -18  11 -11    3.61   13.16
 -18 -11 -11  -14.60   11.79
 -11  18  12   45.45   19.88
 -18  11 -12   64.73   23.58
 -18 -11 -12   25.23   17.68
 -11  18  13   11.26   12.57
  11  18  13   12.74   16.66
 -18 -11 -13   40.52   19.42
 -11  18  14   -8.45    7.17
  11  18  14  -10.82    8.08
 -12 -18   0   18.85   24.57
 -18 -12   0    5.25   22.63
 -12 -18   1  107.38   52.43
 -12 -18  -1  189.78   70.91
 -18 -12   1   97.73   53.43
 -18 -12  -1  106.35   52.96
 -12 -18   2  -15.06   20.08
 -12 -18  -2   -7.37   30.42
 -18 -12   2  -27.86   30.18
 -18 -12  -2  -14.64   19.69
 -12 -18  -3   19.89   31.96
 -18 -12  -3   -1.68   17.15
 -12 -18  -4   -9.16   21.81
 -18  12   4   31.98   33.22
 -18 -12  -4   20.68   19.27
 -12 -18  -5    3.89   24.56
 -18  12  -5    4.06   28.89
 -18 -12  -5   15.00   21.29
 -12 -18  -6  -21.64   24.34
 -18  12  -6   41.94   31.54
 -18 -12  -6  -14.93   25.39
 -12 -18  -7   10.94   20.66
 -18  12  -7   38.27   25.85
 -18 -12  -7   16.72   14.79
 -12 -18  -8    6.86   11.97
 -18  12  -8  -17.88   21.97
 -18 -12  -8   -9.23   15.64
 -18  12  -9   35.33   22.48
 -12 -18  -9   53.73   30.73
 -18 -12  -9   50.49   26.60
 -18  12 -10   -5.88   14.90
 -12 -18 -10   28.78   31.82
 -18 -12 -10  -27.41   21.03
 -18  12 -11   95.28   36.92
 -18 -12 -11   77.22   30.30
 -12  18  12   -8.27   13.70
 -18 -12 -12    7.74   10.76
 -12  18  13   13.36   11.30
 -18 -12 -13    8.50    9.37
 -13 -18   0  157.15   63.63
 -18 -13   0  186.05   59.95
 -13 -18   1   19.97   28.23
 -13 -18  -1  -52.07   39.77
 -18 -13   1    6.30   16.76
 -18 -13  -1   -2.71   22.84
 -13 -18   2   47.42   31.52
 -13 -18  -2   98.55   36.65
 -18 -13   2   86.64   40.67
 -18 -13  -2   70.02   43.07
 -13 -18  -3   47.93   39.44
 -18 -13  -3   -0.39   20.81
 -13 -18  -4   66.31   37.53
 -18 -13  -4   -8.07   24.64
 -13 -18  -5  -26.57   24.89
 -18 -13  -5  -26.28   28.00
 -13 -18  -6    1.16   25.33
 -18  13  -6  -23.30   30.13
 -18 -13  -6  -30.53   26.38
 -13 -18  -7   -3.39   18.40
 -18  13  -7   25.10   17.89
 -18 -13  -7   21.66   16.53
 -18  13  -8   40.13   30.74
 -18 -13  -8   26.04   25.53
 -18  13  -9   28.87   26.75
 -13 -18  -9  -42.43   25.95
 -18 -13  -9    9.14   18.72
 -18  13 -10   86.48   35.66
 -13 -18 -10   93.11   33.03
 -18 -13 -10  134.39   40.44
 -13  18 -10   55.23   31.08
 -18  13 -11    4.90   10.41
 -18 -13 -11    6.90   11.83
 -18  13 -12   69.90   26.50
  13  18  12   95.60   36.82
 -18 -13 -12   86.87   26.94
 -14 -18   0    0.34   15.59
 -18 -14   0  -21.57   28.60
 -14 -18   1   59.27   45.27
 -14 -18  -1  154.43   53.37
 -18 -14   1   83.55   44.86
 -18 -14  -1  111.27   55.37
 -14 -18   2  -24.91   20.96
 -14 -18  -2   -4.06   17.94
 -18 -14   2    2.49   11.55
 -18 -14  -2  -14.72   29.48
 -14 -18  -3   26.15   34.02
 -18 -14  -3   -4.14   17.43
 -14 -18  -4   39.75   30.39
 -18 -14  -4    1.29   13.32
 -14 -18  -5   -5.68   15.48
 -18 -14  -5   16.62   13.93
 -14 -18  -6  -20.26   19.95
 -18  14  -6  -22.05   15.70
 -18 -14  -6    9.41   22.71
 -14 -18  -7   18.78   11.84
 -18  14  -7    8.94   14.30
 -18 -14  -7   31.44   30.05
 -14 -18  -8  -11.32   14.51
 -18  14  -8  -12.94   18.80
 -18 -14  -8   33.02   22.50
 -18  14  -9   84.03   36.76
 -14 -18  -9   17.92   18.63
 -18 -14  -9   61.99   24.96
 -18  14 -10   23.93   20.22
 -14 -18 -10    1.49   12.51
 -14  18 -10    9.23   21.79
 -18 -14 -10   28.45   20.35
 -18  14 -11   57.72   23.89
 -18 -14 -11   79.94   29.49
 -18 -14 -12   24.11   14.76
 -15 -18   0   54.89   36.49
 -18 -15   0   42.88   33.85
 -15 -18   1  -19.48   30.29
 -15 -18  -1    4.01   13.22
 -18 -15   1   13.43   24.07
 -18 -15  -1   -2.51   17.63
 -15 -18   2    1.07   22.90
 -15 -18  -2   63.18   36.76
 -18 -15   2   23.18   22.15
 -18 -15  -2   76.11   44.17
 -15 -18  -3   -1.04   18.67
 -18 -15  -3   14.76   32.50
 -15 -18  -4   15.99   26.79
 -18 -15  -4    3.16   20.35
 -15 -18  -5    5.36   13.87
 -18 -15  -5   10.01   22.69
 -15 -18  -6  -20.61   19.92
 -18 -15  -6  -16.13   18.23
 -18  15  -6  -44.48   33.68
 -15 -18  -7    4.74   15.66
 -18 -15  -7  -31.77   25.95
 -15 -18  -8   38.57   26.04
 -18  15  -8   14.95   11.31
 -18 -15  -8   17.80   12.49
 -18  15  -9   -6.35   13.34
 -15 -18  -9   -9.84   10.77
 -18 -15  -9  -10.09   17.29
 -15  18  -9  -13.30   16.68
 -18  15 -10   62.11   28.50
 -15 -18 -10   19.99   16.41
 -15  18 -10    0.30   15.74
 -18 -15 -10   52.40   21.84
 -18  15 -11   60.98   30.18
 -18 -15 -11    1.04    7.25
 -18 -15 -12   18.20   13.48
 -16 -18   0  -13.98   24.66
 -18 -16   0  -15.22   27.77
 -16 -18   1    4.84   17.58
 -16 -18  -1   40.78   33.10
 -18 -16   1    8.30   19.22
 -18 -16  -1   35.96   31.74
 -16 -18   2  -61.74   26.94
 -18 -16   2   12.00   23.26
 -16 -18  -2    1.44   11.54
 -18 -16  -2  -14.82   26.08
 -16 -18  -3  -10.53   22.15
 -18 -16  -3   -8.55   15.53
 -16 -18  -4   -3.77   11.39
 -18 -16  -4   16.90   25.92
 -16 -18  -5   37.07   26.78
 -18 -16  -5  -12.27   15.44
 -16 -18  -6   -5.68   15.01
 -18 -16  -6   37.23   28.57
 -18  16  -6   -0.16   20.97
 -16 -18  -7    5.83   18.49
 -18  16  -7   27.40   23.33
 -18 -16  -7   36.12   27.18
 -16 -18  -8   18.15   18.09
 -18  16  -8    3.42   12.01
 -18 -16  -8   -1.84   11.88
 -16  18  -8   18.95   22.84
 -18  16  -9   -2.45    9.96
 -16 -18  -9  -11.32   14.15
 -16  18  -9   26.60   14.59
 -18 -16  -9   23.13   14.88
 -18  16 -10   18.78   19.32
 -16  18 -10   -5.76   12.19
 -16 -18 -10   -9.06    9.22
 -18 -16 -10   29.36   18.90
 -18  16 -11    6.90   10.28
 -18 -16 -11   -1.95    7.98
 -17 -18   0   -7.02   20.38
 -18 -17   0   42.20   24.83
 -17 -18   1   -8.18   19.64
 -18 -17   1    1.39   14.05
 -17 -18  -1   -2.20   24.02
 -18 -17  -1   18.33   25.57
 -18 -17   2   -6.00   15.76
 -17 -18  -2  -12.59   23.87
 -18 -17  -2   -6.40   14.21
 -17 -18  -3    0.55   11.41
 -18 -17  -3  -10.02   20.91
 -17 -18  -4  -10.57   20.59
 -18 -17  -4   11.03   19.92
 -18  17   4   -3.11   13.75
 -17 -18  -5   -4.50   17.90
 -18 -17  -5   25.91   26.21
 -18  17  -5   29.07   30.51
 -17 -18  -6    4.32   16.68
 -18 -17  -6   21.31   19.04
 -18  17  -6  -12.69   23.62
 -17 -18  -7    2.40   11.03
 -18 -17  -7   14.49   23.61
 -18  17  -7   33.52   25.58
 -17  18  -7   36.80   30.52
 -17 -18  -8   13.31   19.75
 -18  17  -8   19.23   24.26
 -18 -17  -8  -10.85   18.39
 -17  18  -8  -15.85   21.24
 -18  17  -9   16.47   19.64
 -17  18  -9   -8.02   14.14
 -17 -18  -9   -5.66    9.89
 -18 -17  -9    7.02   10.64
 -18  17 -10   11.46    7.83
 -17  18 -10    0.11   10.16
 -18 -17 -10  -17.47   16.28
 -18 -18   0   10.43   10.42
 -18 -18   1  -15.86   17.49
 -18 -18  -1  -16.97   19.80
 -18 -18  -2   13.18   21.58
 -18 -18  -3    5.61   13.01
 -18 -18  -4   12.01   23.01
 -18 -18  -5   -5.82   10.37
 -18  18  -5   42.87   30.59
 -18 -18  -6    8.47   15.26
 -18  18  -6   56.74   35.26
 -18 -18  -7    9.90   15.24
 -18  18  -7  -12.78   18.20
 -18  18  -8   -2.48   18.50
 -18 -18  -8   -3.67   11.02
 -18  18  -9   -7.32    8.09
 -18 -18  -9   -5.52   10.01
 -19   0   0  144.00   64.13
 -19   0   0  165.60   50.20
 -19   0  -1    7.62   17.41
 -19   0   1   34.32   39.36
 -19   0  -1   27.28   29.13
 -19   0   1  -11.12   19.48
 -19   0  -2  125.16   57.53
 -19   0   2   62.41   37.92
 -19   0  -2   15.76   24.34
 -19   0   2   55.71   36.15
 -19   0  -3  149.82   61.05
 -19   0  -3   11.29   21.64
 -19   0   3   85.36   32.68
 -19   0  -4  155.10   68.16
 -19   0  -4  175.51   56.32
 -19   0   4   73.49   27.67
 -19   0  -5  337.87   74.16
 -19   0  -6  379.14   83.08
 -19   0  -7  115.41   44.76
 -19   0  -8   42.76   33.98
 -19   0  -9   40.87   19.40
 -19   0 -10  174.33   49.75
 -19   0 -11  -25.83   15.48
   0  19  11   -9.32   23.53
 -19   0 -12   89.04   31.73
   0  19  12  162.30   52.19
   0  19  13   24.19   30.36
 -19   0 -13  -19.94   19.70
   0  19  14   57.16   33.94
   0  19  15   57.40   29.96
   0  19  16   68.27   33.39
   0  19  17   31.29   16.25
 -19  -1   0   40.92   40.31
 -19   1   0    0.44   32.20
 -19   1   0    9.16   20.35
 -19  -1   0    1.11   22.58
 -19  -1   1  212.76   68.19
 -19   1  -1  194.46   63.23
 -19  -1  -1  292.49   77.03
 -19  -1  -1  266.06   73.59
 -19   1   1  125.87   56.04
 -19   1  -1  201.25   61.73
 -19   1   1  161.93   46.13
 -19  -1   1  218.44   56.20
 -19   1  -2   93.29   51.58
 -19  -1   2   18.99   34.77
 -19  -1  -2   71.79   40.83
 -19  -1  -2   15.70   24.05
 -19   1   2   20.22   27.46
 -19   1  -2   18.25   21.98
 -19   1   2   23.28   39.10
 -19  -1   2   58.47   37.83
 -19   1  -3   98.91   61.20
 -19  -1  -3   11.17   32.58
 -19  -1  -3   30.28   29.90
 -19   1  -3   -3.90   23.50
 -19   1   3   -5.04   15.50
 -19  -1   3   16.15   21.44
 -19   1  -4  115.74   65.59
 -19  -1  -4   74.69   47.82
 -19  -1  -4  195.61   64.25
 -19   1  -4  171.63   60.08
 -19   1   4  146.06   39.40
 -19  -1   4   83.04   34.46
 -19  -1  -5  345.98   72.25
 -19   1  -5  350.82   77.76
 -19  -1  -6  182.24   55.67
 -19   1  -6  200.14   57.77
 -19  -1  -7  151.30   45.50
 -19   1  -7  161.25   51.87
 -19  -1  -8   55.04   34.31
 -19   1  -8   30.80   26.77
 -19  -1  -9   -6.34   19.35
 -19   1  -9   30.47   24.91
 -19  -1 -10    3.06   20.37
 -19   1 -10   36.41   21.26
 -19   1  10   54.00   35.57
 -19  -1 -11  145.89   40.83
 -19   1 -11  231.94   51.96
   1  19  11  331.85   83.95
  -1  19  11  369.32   94.22
 -19   1  11  281.04   65.16
 -19  -1 -12   -5.12   12.04
 -19   1 -12   15.30   17.39
  -1  19  12   32.06   34.74
   1  19  12   10.04   19.44
 -19   1 -13   35.60   23.77
  -1  19  13   17.44   25.67
   1  19  13   35.84   29.58
 -19  -1 -13   17.11   14.63
  -1  19  14    5.08   14.11
   1  19  14   56.31   32.61
  -1  19  15   41.28   26.70
   1  19  15   43.66   32.16
  -1  19  16   43.12   27.53
   1  19  16   44.76   21.24
  -1  19  17   32.99   18.91
   1  19  17   40.26   20.79
 -19  -2   0  264.25   75.39
 -19   2   0  243.35   67.57
 -19  -2   0  264.91   70.98
 -19   2   0  252.38   71.94
 -19  -2   1    7.36   29.83
 -19  -2  -1   59.06   41.86
 -19   2  -1  -12.01   19.32
 -19  -2  -1    4.84   36.64
 -19   2   1   23.86   30.78
 -19   2   1   50.40   20.59
 -19   2  -1   12.97   19.56
 -19  -2   1   83.51   46.58
 -19  -2   2   72.94   32.72
 -19   2  -2  161.80   60.22
 -19  -2  -2  125.34   48.88
 -19  -2  -2   86.02   44.69
 -19   2   2   59.04   28.13
 -19   2  -2  104.83   39.37
 -19   2   2  105.23   42.60
 -19  -2   2  132.55   49.32
 -19   2  -3   50.91   45.13
 -19  -2  -3   -3.99   38.22
 -19  -2  -3   39.81   29.98
 -19   2  -3   90.46   41.95
 -19   2   3   18.80   16.64
 -19  -2   3   40.09   29.22
 -19   2  -4   13.28   30.54
 -19  -2  -4  132.12   47.35
 -19  -2  -4   56.22   20.49
 -19   2  -4   73.15   29.38
 -19   2   4   42.05   13.72
 -19  -2   4   57.04   32.41
 -19  -2  -5  223.38   57.10
 -19   2  -5  188.87   52.57
 -19  -2  -6  297.02   68.19
 -19   2  -6  217.25   58.32
 -19  -2  -7   87.16   35.18
 -19   2  -7   13.31   20.83
 -19  -2  -8   -7.88   18.33
 -19   2  -8   39.53   28.12
 -19   2   8   45.40   53.65
 -19  -2  -9  -28.98   24.66
 -19   2  -9    1.65   17.93
 -19   2   9   -7.51   16.86
 -19  -2 -10  229.21   55.81
 -19   2 -10  312.56   65.55
  -2  19  10  325.74   70.84
 -19   2  10  269.89   66.06
 -19  -2 -11   13.17   13.48
 -19   2 -11  -15.11   22.72
 -19   2  11   35.42   31.58
 -19   2 -12  112.29   36.01
  -2  19  12  161.54   54.39
   2  19  12  196.67   69.10
 -19  -2 -12  142.06   36.90
 -19   2  12  152.95   45.80
 -19   2 -13   17.80   13.35
  -2  19  13   -1.09   16.17
   2  19  13   -8.12   29.27
 -19  -2 -13   48.49   22.40
  -2  19  14   18.69   22.55
   2  19  14   11.14   20.75
  -2  19  15   32.90   20.13
   2  19  15   17.68   21.87
  -2  19  16   66.99   29.50
   2  19  16   44.57   26.81
  -2  19  17   16.09   13.56
   2  19  17   22.72   18.05
 -19  -3   0  129.90   48.85
 -19   3   0   67.42   39.17
 -19  -3   0   54.86   26.30
 -19   3   0   58.46   44.59
 -19  -3   1  304.42   76.17
 -19   3  -1  373.87   83.55
 -19  -3  -1  302.14   70.43
 -19   3   1  308.08   69.87
 -19   3   1  297.65   83.38
 -19  -3   1  463.78   85.89
 -19  -3  -1  473.99   90.12
 -19   3  -1  527.53   99.04
 -19  -3   2   37.89   34.08
 -19   3  -2   82.77   40.76
 -19  -3  -2    0.19   14.60
 -19  -3  -2   13.45   21.61
 -19   3   2    5.66   14.45
 -19   3  -2   88.87   37.93
 -19   3   2   81.90   42.56
 -19  -3   2    6.17   27.06
 -19   3  -3  -10.02   31.01
 -19  -3  -3   46.15   38.95
 -19  -3  -3   -6.82   30.14
 -19   3  -3   12.19   24.14
 -19   3   3   16.87   13.79
 -19  -3   3  -37.24   25.17
 -19  -3  -4  158.27   52.63
 -19   3  -4  153.18   54.87
 -19   3   4   27.89   24.69
 -19  -3  -5  114.13   47.81
 -19   3  -5  206.54   56.74
 -19  -3  -6  176.68   55.97
 -19   3  -6  157.21   52.50
 -19  -3  -7  -11.07   24.62
 -19   3  -7   -3.35   13.00
 -19  -3  -8   60.83   32.35
 -19   3  -8    6.67   11.51
 -19   3   8   23.68   25.54
 -19  -3  -9  136.10   45.66
 -19   3  -9  134.13   45.73
  -3  19   9  127.70   41.96
 -19   3   9  133.33   46.73
 -19  -3 -10  114.08   41.09
 -19   3 -10   77.63   37.73
  -3  19  10   88.54   35.08
 -19   3  10  140.94   47.16
 -19   3 -11  176.03   46.98
  -3  19  11  296.52   71.51
 -19  -3 -11  179.50   48.16
 -19   3  11  166.49   48.26
 -19   3 -12   43.41   11.73
  -3  19  12   34.56   28.11
   3  19  12  115.16   53.53
 -19  -3 -12   57.49   26.94
 -19   3  12   45.09   29.87
 -19   3  13   39.32   28.10
 -19   3 -13   31.36   22.24
  -3  19  13   34.71   28.87
   3  19  13   45.72   39.22
 -19  -3 -13   19.63   13.97
  -3  19  14   10.87   23.85
   3  19  14   -0.47   21.47
  -3  19  15   13.88   17.98
   3  19  15   43.20   20.47
  -3  19  16   10.94   14.14
   3  19  16   45.04   22.47
  -3  19  17    0.78    9.16
 -19   4   0  360.06   78.27
 -19   4   0  425.00   87.61
 -19  -4   0  351.48   84.69
 -19  -4   0  501.29   92.51
 -19  -4   1  173.64   53.40
 -19  -4  -1  116.68   51.54
 -19   4  -1  186.31   64.85
 -19   4   1  179.66   49.21
 -19  -4  -1   91.76   28.47
 -19   4   1  192.56   62.73
 -19   4  -1  193.77   67.06
 -19  -4   1  188.15   50.03
 -19  -4   2   42.91   27.27
 -19  -4  -2  170.43   56.50
 -19   4  -2  113.92   55.68
 -19  -4  -2  154.13   52.61
 -19   4   2   98.91   46.27
 -19   4   2  175.58   52.62
 -19   4  -2  204.55   70.55
 -19  -4   2  199.64   58.01
 -19  -4  -3   -7.66   13.97
 -19   4  -3    3.68   23.74
 -19   4   3   42.82   36.16
 -19  -4  -4   39.28   26.06
 -19   4  -4   12.74   28.31
 -19  -4  -5  201.74   64.22
 -19   4  -5  250.60   61.77
 -19  -4  -6   25.47   32.73
 -19   4  -6   75.74   40.66
 -19  -4  -7   54.96   32.94
 -19   4  -7   20.87   23.73
 -19  -4  -8   89.27   37.14
 -19   4  -8   52.05   32.35
  -4  19   8  107.96   40.25
 -19   4   9   77.65   34.90
 -19  -4  -9   36.11   16.42
 -19   4  -9   15.65   12.21
  -4  19   9   52.16   34.40
 -19   4  10  220.32   55.14
 -19   4 -10  251.33   59.74
  -4  19  10  266.92   65.24
 -19  -4 -10  186.84   49.46
 -19   4  11  182.38   49.60
 -19   4 -11  127.79   38.93
  -4  19  11  205.32   53.49
 -19  -4 -11  149.21   40.09
 -19   4 -12   84.22   33.81
  -4  19  12  123.57   45.44
   4  19  12  182.79   65.65
 -19  -4 -12  128.53   37.85
 -19   4  12  119.10   45.03
 -19   4 -13   -2.48   13.25
  -4  19  13   31.69   25.35
   4  19  13   26.79   32.28
 -19  -4 -13   10.98   17.08
 -19   4  13   28.67   24.59
  -4  19  14   42.96   24.22
   4  19  14   26.58   19.51
 -19   4  14   -2.82   12.06
  -4  19  15   37.36   25.41
   4  19  15   17.30   20.37
  -4  19  16   -0.92   11.42
   4  19  16   12.91   11.92
  -4  19  17    1.66   11.37
 -19  -5   0  172.63   51.68
 -19   5   0  132.60   55.41
 -19  -5   0  280.71   71.82
 -19   5   0  140.18   62.90
 -19  -5   1  244.47   65.30
 -19  -5  -1  342.84   74.44
 -19   5  -1  236.80   69.85
 -19   5   1  297.34   68.83
 -19  -5  -1  336.98   74.93
 -19   5   1  298.12   82.82
 -19   5  -1  375.87   86.99
 -19  -5   1  342.93   75.55
 -19  -5  -2   47.64   29.25
 -19   5  -2  126.46   53.27
 -19   5   2   35.61   34.48
 -19   5  -2   41.41   39.36
 -19  -5   2   37.64   20.54
 -19  -5  -3   10.88   24.43
 -19   5   3   -1.19   18.14
 -19   5  -3   14.48   31.72
 -19  -5  -4   64.07   34.18
 -19   5  -4  137.91   52.13
 -19  -5  -5   -2.58   13.07
 -19   5  -5   12.48   22.52
 -19  -5  -6  137.83   45.01
 -19   5  -6  182.37   55.24
  -5  19   6  244.83   56.38
 -19  -5  -7   51.79   34.07
 -19   5  -7  -16.13   14.13
  -5  19   7   46.40   27.33
 -19  -5  -8  -29.37   17.99
 -19   5  -8   12.82   15.95
  -5  19   8    3.89   13.71
 -19   5  -9   79.99   35.75
  -5  19   9  146.18   45.77
 -19  -5  -9   53.88   26.07
 -19   5  10  132.35   43.14
 -19   5 -10  165.03   50.86
  -5  19  10  166.89   46.49
 -19  -5 -10  218.90   54.35
 -19   5  11   98.22   35.28
 -19   5 -11  122.73   42.18
  -5  19  11  120.51   38.20
 -19  -5 -11  114.21   40.37
 -19   5  12   42.63   26.74
 -19   5 -12   99.26   32.83
  -5  19  12   80.81   38.58
 -19  -5 -12  100.86   31.52
 -19   5 -13   58.46   25.32
  -5  19  13   21.88   25.62
   5  19  13   -6.83   18.74
 -19  -5 -13   42.96   21.46
 -19   5  13   56.49   23.76
   5  19  14  -10.85   21.94
 -19   5  14   -6.25   11.86
  -5  19  15   -7.14   11.93
   5  19  15  -16.82   20.73
  -5  19  16   -3.90    7.47
   5  19  16   54.38   22.76
 -19  -6   0  125.80   51.38
 -19   6   0  187.64   68.14
 -19  -6  -1  135.47   59.19
 -19   6   1  148.26   54.41
 -19   6  -1  301.23   73.21
 -19   6  -1  422.31  109.17
 -19  -6   1   63.61   37.83
 -19  -6  -2   27.88   16.90
 -19   6   2   33.07   32.20
 -19   6  -2  137.78   57.26
 -19  -6   2   65.19   38.73
 -19  -6  -3  -10.39   35.09
 -19   6   3    2.74   17.43
 -19   6  -3   22.19   29.00
 -19  -6  -4   -5.89   16.44
 -19   6  -4   10.75   22.22
 -19  -6  -5  283.88   65.70
 -19   6  -5  401.89   81.00
 -19  -6  -6   -4.21   21.74
  -6  19   6   19.14   13.47
 -19   6  -6   41.30   33.48
  -6  19   7   92.43   40.55
 -19   6  -7   58.46   38.30
 -19  -6  -7   90.39   36.79
 -19   6  -8   52.41   27.09
  -6  19   8   35.66   22.25
 -19  -6  -8   13.05   24.65
 -19   6  -9   53.16   27.60
  -6  19   9   49.94   33.41
 -19  -6  -9   49.14   28.74
 -19   6  10   43.16   26.89
 -19   6 -10   77.33   36.30
  -6  19  10   11.49   14.72
 -19  -6 -10   88.99   33.12
 -19   6  11  123.56   38.41
 -19   6 -11  136.37   43.70
  -6  19  11  160.73   42.35
 -19  -6 -11  188.80   46.95
 -19   6  12   39.98   17.05
 -19   6 -12   40.11   21.37
  -6  19  12   70.17   27.79
 -19  -6 -12   51.13   26.19
 -19   6 -13   37.35   25.14
  -6  19  13   21.74   13.49
   6  19  13   59.83   30.70
 -19  -6 -13   14.07    9.56
  -6  19  14   -0.65   11.74
   6  19  14    1.94   16.58
 -19   6  14  -14.55   14.26
  -6  19  15   48.23   22.15
   6  19  15   36.27   15.64
  -6  19  16   15.49   17.41
   6  19  16   -3.72   11.16
 -19   7   0  127.86   58.80
 -19  -7   0  133.91   55.36
 -19   7   1   43.67   18.15
 -19   7  -1  126.71   50.07
 -19  -7   1   87.17   49.03
 -19  -7  -1   25.55   25.47
  -7 -19  -2   25.53   35.48
 -19   7   2   33.85   45.36
 -19   7  -2   18.09   17.08
 -19  -7   2   29.31   24.66
 -19  -7  -2    3.42   24.03
  -7 -19  -3   31.29   32.65
 -19   7   3   28.00   27.58
 -19   7  -3   28.85   28.99
 -19  -7  -3  -32.56   31.70
  -7 -19  -4  115.49   65.62
 -19   7  -4  341.48   80.33
 -19  -7  -4  245.09   66.49
  -7 -19  -5   86.25   49.56
 -19   7  -5   61.72   38.60
 -19  -7  -5   -2.13   21.33
  -7 -19  -6  224.55   73.73
 -19   7  -6  262.54   67.77
 -19  -7  -6  230.53   62.25
  -7  19   7   -5.74   16.94
 -19   7  -7   10.18   14.65
 -19  -7  -7   20.62   16.86
  -7  19   8   60.32   28.14
 -19   7  -8   79.23   39.88
 -19  -7  -8   25.95   19.75
  -7  19   9   34.47   21.64
 -19   7  -9   20.73   12.47
 -19  -7  -9  -11.37   20.44
 -19   7 -10   61.08   29.80
  -7  19  10   41.41   28.30
 -19  -7 -10   90.90   36.65
 -19   7  11   26.59   24.13
 -19   7 -11   43.03   25.66
  -7  19  11   18.35   21.82
 -19  -7 -11   -4.09   11.07
 -19   7  12   66.97   28.96
 -19   7 -12   45.37   23.12
  -7  19  12   25.28   24.98
 -19  -7 -12   41.39   20.51
 -19   7 -13   -6.08    9.26
  -7  19  13   12.65   16.25
   7  19  13    4.15   16.79
 -19  -7 -13    1.73    6.81
 -19   7  13   12.29   13.64
  -7  19  14   17.21   15.52
   7  19  14   16.26   20.47
 -19   7  14    2.31   10.89
  -7  19  15    6.89   14.30
   7  19  15   20.90   17.06
  -7  19  16   22.25   19.81
 -19   8   0   37.46   49.98
 -19  -8   0   23.46   40.08
  -8 -19  -1   77.22   48.24
 -19   8   1   60.17   41.17
 -19   8  -1   75.26   44.17
 -19  -8   1   86.18   46.12
 -19  -8  -1   79.34   41.12
  -8 -19  -2   75.86   45.36
 -19   8   2    6.82   18.54
 -19   8  -2   26.45   32.62
 -19  -8   2  -10.23   15.91
 -19  -8  -2   39.46   25.10
  -8 -19  -3  118.58   58.57
 -19   8   3   36.16   35.37
 -19   8  -3  113.69   52.31
 -19  -8  -3   58.10   44.36
  -8 -19  -4   49.74   32.26
 -19   8  -4   -8.42   21.05
 -19  -8  -4  107.85   47.21
 -19  -8  -5  588.22   95.48
  -8 -19  -5  420.68   88.97
 -19   8  -5  461.08   95.64
  -8 -19  -6  122.16   42.99
 -19   8  -6   63.50   36.19
 -19  -8  -6  104.19   43.27
 -19   8  -7  150.67   53.24
  -8 -19  -7  221.00   63.13
 -19  -8  -7  231.87   58.31
  -8  19   8    6.52   15.53
 -19   8  -8   51.61   24.70
 -19  -8  -8   12.71   22.12
  -8  19   9  -40.41   24.55
 -19   8  -9  -21.63   16.57
 -19  -8  -9   -0.59   15.48
  -8  19  10   38.87   27.52
 -19   8 -10   18.29   22.50
 -19  -8 -10   -2.08   18.23
 -19   8 -11   48.00   22.67
  -8  19  11   18.98   15.78
 -19  -8 -11   62.68   24.13
 -19   8  12    8.56   18.65
 -19   8 -12   13.14   14.13
  -8  19  12   18.15   17.61
 -19  -8 -12    8.12    9.15
  -8  19  13    9.54   16.05
   8  19  13   33.08   31.71
 -19  -8 -13   -4.94    8.72
 -19   8  13   13.14   11.76
  -8  19  14  -18.51   19.86
   8  19  14    5.31   19.91
 -19   8  14   20.05   14.01
  -8  19  15   11.68   14.15
   8  19  15   49.25   23.98
  -9 -19   0    5.07   32.13
 -19   9   0   59.92   38.64
 -19  -9   0   34.92   25.96
  -9 -19  -1   24.00   32.12
 -19   9   1   -4.62   24.22
 -19   9  -1   37.98   37.47
 -19  -9   1   32.82   34.71
 -19  -9  -1   12.09   27.24
  -9 -19  -2   16.64   16.70
 -19   9   2   -6.25   17.52
 -19   9  -2   45.13   37.83
 -19  -9   2    6.37   16.82
 -19  -9  -2   17.86   26.33
  -9 -19  -3   21.68   28.25
 -19   9   3   11.17   29.24
 -19   9  -3   21.56   30.80
 -19  -9  -3   -2.39   17.21
  -9 -19  -4  227.93   64.04
 -19   9  -4  295.69   74.52
 -19  -9  -4  245.53   71.38
  -9 -19  -5   80.48   41.65
 -19   9  -5  146.95   50.90
 -19  -9  -5  144.23   48.65
  -9 -19  -6  323.73   79.75
 -19   9  -6  375.62   79.75
 -19  -9  -6  421.66   80.39
  -9 -19  -7   58.10   41.66
 -19   9  -7   41.11   19.62
 -19  -9  -7   26.67   26.37
 -19   9  -8   44.76   30.11
  -9 -19  -8    1.24   26.25
 -19  -9  -8   58.13   32.43
  -9  19   9   25.60    9.80
 -19  -9  -9    8.45   10.38
  -9  19  10   -7.41   12.95
 -19   9 -10   -6.47   16.70
 -19   9 -11   26.65   15.47
 -19  -9 -11    3.55    9.00
 -19   9 -12   12.45   15.42
  -9  19  12    3.42   14.38
 -19  -9 -12   -1.50   11.58
  -9  19  13   -0.39   10.93
   9  19  13   -0.03   14.23
 -19  -9 -13   19.02   13.44
  -9  19  14    0.37   10.19
   9  19  14   37.03   21.95
  -9  19  15    3.47    5.53
 -10 -19   0   87.91   48.70
 -19  10   0   66.04   51.85
 -19 -10   0   15.06   13.48
 -10 -19  -1   -2.38   18.06
 -19  10   1   52.35   37.23
 -19  10  -1   -0.53   21.92
 -19 -10   1   12.29   18.95
 -19 -10  -1   11.42   19.73
 -10 -19  -2    1.19   24.24
 -19  10   2   14.47   18.18
 -19  10  -2   25.18   19.58
 -19 -10   2   11.36   29.61
 -19 -10  -2    4.74   22.54
 -10 -19  -3   54.63   35.86
 -19  10   3    6.73   23.62
 -19  10  -3   11.75   25.86
 -19 -10  -3   73.01   40.58
 -10 -19  -4   73.34   42.73
 -19  10  -4   41.64   33.35
 -19 -10  -4   29.84   31.12
 -10 -19  -5  264.19   68.88
 -19  10  -5  363.66   80.61
 -19 -10  -5  253.67   65.91
 -10 -19  -6  111.07   47.42
 -19  10  -6  131.02   45.64
 -19 -10  -6  109.38   43.32
 -10 -19  -7  126.68   50.61
 -19  10  -7  154.15   48.98
 -19 -10  -7   68.33   35.83
 -19  10  -8   18.13   14.75
 -10 -19  -8  -22.38   22.26
 -19 -10  -8   20.17   19.70
 -19  10  -9    7.77   11.72
 -19 -10  -9  -13.79   18.84
 -10  19  10   17.57   13.36
 -19  10 -10   34.75   21.99
 -19 -10 -10   40.92   23.32
 -10  19  11   11.58   16.20
 -19  10 -11   -1.51   11.01
 -19 -10 -11   10.35    9.35
 -10  19  12   56.06   21.93
 -19  10 -12   44.90   23.48
 -19 -10 -12   46.97   21.19
 -10  19  13    7.90   11.96
  10  19  13   45.98   31.86
 -19 -10 -13   20.36   12.85
 -10  19  14    6.79    8.18
  10  19  14   -6.67   14.89
 -11 -19   0   45.25   37.92
 -19  11   0   39.83   46.20
 -19 -11   0   -0.99   24.42
 -11 -19   1   56.42   37.72
 -11 -19  -1   73.73   51.00
 -19  11   1  141.50   58.60
 -19  11  -1  104.12   63.22
 -19 -11   1   32.74   24.22
 -19 -11  -1   63.50   44.79
 -11 -19  -2    4.75   26.86
 -19  11   2   -8.81   21.78
 -19  11  -2   29.07   27.15
 -19 -11   2   11.18   16.80
 -19 -11  -2    8.18   17.24
 -11 -19  -3   34.28   36.35
 -19  11   3   51.08   30.17
 -19  11  -3  -12.55   23.55
 -19 -11  -3  -16.49   24.74
 -11 -19  -4  -13.04   24.87
 -19  11  -4   96.36   39.72
 -19 -11  -4   27.49   40.01
 -11 -19  -5   88.17   40.05
 -19  11  -5   65.12   33.94
 -19 -11  -5   80.61   41.28
 -11 -19  -6   77.70   34.46
 -19  11  -6   63.24   41.03
 -19 -11  -6   83.54   41.66
 -11 -19  -7    3.83   19.02
 -19  11  -7   -7.01   16.40
 -19 -11  -7   -8.11   15.42
 -19  11  -8  -12.31   20.89
 -11 -19  -8  -20.53   18.18
 -19  11  -9   35.55   31.42
 -11 -19  -9   20.40   25.51
 -19 -11  -9    7.20   16.31
 -19  11 -10    2.01   14.01
 -19 -11 -10  -26.46   24.24
 -19  11 -11   57.50   25.80
 -19 -11 -11   68.52   26.22
 -11  19  12    1.07   11.46
 -19  11 -12   20.71   19.20
  11  19  12   37.41   40.12
 -19 -11 -12  -33.46   22.03
 -11  19  13   13.85   10.07
  11  19  13   40.93   28.72
 -19 -11 -13   52.73   18.10
 -12 -19   0  163.90   65.50
 -19 -12   0   85.81   51.73
 -12 -19   1  -14.40   24.79
 -12 -19  -1  -16.00   19.88
 -19  12   1   27.59   35.66
 -19 -12   1   -6.94   21.66
 -19 -12  -1   -2.20   11.80
 -12 -19  -2   70.39   45.74
 -19  12   2   33.96   30.64
 -19 -12   2   -8.18   17.07
 -19  12  -2  135.75   59.44
 -19 -12  -2   63.62   35.13
 -12 -19  -3   -1.70   18.48
 -19  12   3    8.75   20.84
 -19  12  -3   46.98   34.59
 -19 -12  -3    9.85   26.49
 -12 -19  -4   24.35   23.60
 -19  12  -4   40.29   36.04
 -19 -12  -4   -5.31   18.79
 -12 -19  -5   -6.61   18.29
 -19  12  -5  -43.05   31.78
 -19 -12  -5    0.49   24.66
 -12 -19  -6   75.21   38.60
 -19  12  -6   74.76   36.28
 -19 -12  -6   33.33   27.82
 -12 -19  -7   -0.09   18.18
 -19  12  -7   30.66   18.66
 -19 -12  -7   27.33   22.19
 -19  12  -8   24.16   26.17
 -12 -19  -8  -29.94   29.02
 -19 -12  -8   22.21   19.42
 -19  12  -9   26.56   16.87
 -12 -19  -9    6.52   11.68
 -19 -12  -9   40.04   26.67
 -19  12 -10   29.88   23.78
 -19 -12 -10  115.71   34.82
 -19  12 -11   22.73   11.51
 -19 -12 -11   35.77   16.66
 -19  12 -12   54.85   24.64
  12  19  12  101.35   43.42
 -19 -12 -12   43.72   21.08
  12  19  13    6.45    8.05
 -13 -19   0   -0.29   24.16
 -19 -13   0   -2.39   10.97
 -13 -19   1   72.93   51.83
 -13 -19  -1  230.64   65.87
 -19 -13   1   67.55   39.35
 -19 -13  -1  115.13   46.34
 -13 -19  -2  -18.80   20.81
 -19 -13   2   10.66   26.74
 -19  13   2    5.76   26.02
 -19 -13  -2    9.40   11.17
 -13 -19  -3   -1.16   16.35
 -19  13   3   21.29   26.38
 -19  13  -3   25.13   32.50
 -19 -13  -3    5.45   17.01
 -13 -19  -4   11.61   18.68
 -19  13  -4   10.74   24.00
 -19 -13  -4  -14.63   25.82
 -13 -19  -5   11.96   22.70
 -19  13  -5   48.37   35.17
 -19 -13  -5   22.34   23.25
 -13 -19  -6  -16.44   16.35
 -19  13  -6  -23.67   16.95
 -19 -13  -6  -13.79   16.88
 -13 -19  -7  -10.24   17.04
 -19  13  -7   36.34   31.61
 -19 -13  -7   27.25   26.47
 -19  13  -8    1.55   21.14
 -13 -19  -8   26.66   22.19
 -19 -13  -8  -13.82   14.26
 -19  13  -9   36.33   24.48
 -13 -19  -9   72.90   30.86
 -19 -13  -9   64.56   28.96
 -19  13 -10  -19.11   20.97
 -13  19 -10    8.80   18.59
 -19 -13 -10  -18.02   16.60
 -19  13 -11   43.79   23.89
 -19 -13 -11   87.57   28.65
  13  19  12   29.15   22.16
 -19 -13 -12  -13.81    8.67
 -14 -19   0  137.17   56.06
 -19 -14   0  134.09   57.80
 -14 -19   1   -1.21   24.98
 -14 -19  -1   -5.64   19.30
 -19 -14   1   12.28   25.73
 -19 -14  -1   19.08   22.05
 -14 -19  -2   42.76   28.85
 -19 -14   2   27.72   29.22
 -19  14   2   16.60   37.99
 -19 -14  -2   54.58   41.85
 -14 -19  -3    8.03   24.30
 -19  14   3   16.24   21.37
 -19  14  -3   52.92   43.38
 -19 -14  -3   10.64   19.61
 -14 -19  -4   -8.66   19.50
 -19  14  -4   -7.18   21.30
 -19 -14  -4    8.59   21.90
 -14 -19  -5  -13.35   20.59
 -19  14  -5  -17.35   24.17
 -19 -14  -5    8.71   14.37
 -14 -19  -6    5.71   13.84
 -19  14  -6   35.95   28.47
 -19 -14  -6   10.05   24.59
 -14 -19  -7   12.25   13.18
 -19  14  -7   39.25   28.27
 -19 -14  -7   -1.58    9.52
 -19  14  -8    1.00   15.55
 -14 -19  -8   -6.66   12.95
 -19 -14  -8   17.78   18.66
 -19  14  -9    7.09   13.89
 -14 -19  -9   13.43   11.04
 -19 -14  -9    5.83    9.29
 -14  19  -9  -12.60   17.80
 -19  14 -10   60.91   23.97
 -14  19 -10   86.02   31.57
 -19 -14 -10   91.31   33.13
 -19  14 -11   28.71   22.13
  14  19  11   13.18   15.74
 -19 -14 -11   17.21   12.48
 -19 -14 -12    6.31    8.37
 -15 -19   0   -2.47   11.89
 -19 -15   0   -2.82   15.87
 -15 -19   1   43.00   26.09
 -15 -19  -1   57.49   42.64
 -19 -15   1   59.19   31.29
 -19 -15  -1  115.89   46.52
 -15 -19  -2  -12.82   25.97
 -19 -15   2   22.73   23.82
 -19 -15  -2   20.12   18.83
 -19  15   2    9.64   24.71
 -15 -19  -3   16.45   17.99
 -19  15   3    3.95   15.11
 -19 -15  -3   -4.78   17.87
 -19  15  -3   29.43   30.69
 -15 -19  -4   -8.08   18.82
 -19 -15  -4  -17.47   24.13
 -19  15  -4   26.52   33.68
 -15 -19  -5   15.42   16.08
 -19  15  -5   57.09   32.71
 -19 -15  -5   20.82   14.47
 -15 -19  -6  -12.53   19.94
 -19  15  -6   11.78   20.39
 -19 -15  -6    5.31   21.98
 -15 -19  -7    1.06   11.72
 -19  15  -7   34.02   15.45
 -19 -15  -7    8.64   25.93
 -15 -19  -8    9.73    9.94
 -19 -15  -8   -2.84    9.94
 -19  15  -9   47.20   23.53
 -15 -19  -9   21.49   16.49
 -19 -15  -9   30.71   22.25
 -15  19  -9    2.83   14.08
 -19  15 -10    2.60   13.40
 -15  19 -10   17.00   15.62
 -19 -15 -10    3.08    9.62
 -19  15 -11   12.43   13.64
 -19 -15 -11   19.03   15.84
 -16 -19   0   13.14   19.81
 -19 -16   0   30.92   27.73
 -16 -19  -1  -15.38   25.04
 -19 -16   1    0.55   11.51
 -19 -16  -1   32.72   21.43
 -19  16   1   13.47   21.33
 -16 -19  -2   -5.19    9.86
 -19 -16   2   13.65   14.86
 -19 -16  -2   45.45   30.40
 -19  16   2   46.56   31.41
 -19  16  -2   -3.31   20.36
 -16 -19  -3   17.99   19.33
 -19 -16  -3  -18.80   17.24
 -19  16   3   -4.06   10.46
 -19  16  -3   -0.04   15.57
 -16 -19  -4    0.57   13.86
 -19 -16  -4    6.13   22.53
 -19  16  -4   30.61   27.98
 -16 -19  -5   35.28   25.48
 -19 -16  -5   21.10   16.26
 -19  16  -5   27.23   27.97
 -16 -19  -6    5.91   17.91
 -19  16  -6    8.12   17.30
 -19 -16  -6   -3.92   18.58
 -16 -19  -7   -3.47   14.20
 -19  16  -7   32.80   27.61
 -19 -16  -7  -12.24   17.43
 -19  16  -8  -19.04   23.54
 -16 -19  -8  -14.69   20.91
 -19 -16  -8    8.30   12.35
 -16  19  -8  -29.16   21.09
 -19  16  -9    2.58   14.53
 -16  19  -9  -20.36   14.82
 -19 -16  -9    1.61   13.59
 -19  16 -10    2.54    7.03
 -16  19 -10    5.33    8.59
 -19 -16 -10   12.60    9.36
 -17 -19   0   -9.45   22.34
 -19 -17   0    3.53    8.67
 -19  17   0   17.42   24.19
 -17 -19  -1    4.66   16.63
 -19 -17   1  -14.10   22.90
 -19 -17  -1    8.55   12.92
 -19  17   1   10.59   24.18
 -19  17  -1    0.18   14.09
 -19 -17   2  -11.34   14.24
 -17 -19  -2  -30.51   22.72
 -19 -17  -2  -11.40   15.89
 -19  17   2   17.76   18.91
 -19  17  -2   20.66   22.61
 -17 -19  -3   -7.92   11.21
 -19 -17  -3    7.40   16.76
 -19  17   3    4.66   17.51
 -19  17  -3   14.18   21.91
 -17 -19  -4    4.73   15.26
 -19 -17  -4   14.10   15.93
 -19  17  -4   26.93   24.45
 -17 -19  -5   11.67   12.93
 -19 -17  -5   -4.57   14.67
 -19  17  -5   -1.93   12.47
 -17 -19  -6   14.20   22.68
 -19  17  -6   28.24   22.55
 -19 -17  -6   17.96   20.46
 -17  19  -6   51.71   30.23
 -17 -19  -7  -26.83   16.51
 -19  17  -7  -28.28   22.55
 -19 -17  -7   -7.29   13.77
 -17  19  -7   12.99   16.35
 -19  17  -8  -11.41   13.10
 -17 -19  -8   -1.79   11.91
 -19 -17  -8   -0.09    9.76
 -17  19  -8   -6.68   18.43
 -19  17  -9  -19.93   16.16
 -17  19  -9   13.45   19.44
 -19 -17  -9   -4.78    8.71
 -19 -17 -10   -5.91    8.04
 -19 -18   0   -8.46   12.53
 -19  18   0   24.68   19.59
 -18 -19  -1  -13.79   22.49
 -19 -18  -1    4.28   12.06
 -19  18   1    9.32   18.59
 -19  18  -1   28.09   22.50
 -18 -19  -2  -14.09   14.98
 -19 -18  -2   -5.87   15.24
 -19  18   2   21.83   19.96
 -19  18  -2   17.43   27.01
 -18 -19  -3   16.90   21.45
 -19 -18  -3    1.04   11.40
 -19  18   3   12.51   17.10
 -19  18  -3    1.80   18.60
 -18  19   3   16.61   16.69
 -18 -19  -4  -11.07    8.73
 -19 -18  -4   -2.19   11.06
 -19  18  -4   24.42   29.49
 -18  19  -4   12.79   14.65
 -18 -19  -5   19.78   20.08
 -19 -18  -5    0.93   13.82
 -19  18  -5   52.26   31.99
 -18  19  -5   68.61   35.52
 -18 -19  -6    2.88   10.28
 -19 -18  -6  -17.46   17.20
 -19  18  -6   14.13   21.63
 -18  19  -6   -8.29   12.50
 -18 -19  -7   26.62   19.81
 -19  18  -7    1.17   12.71
 -19 -18  -7    5.81   15.01
 -18  19  -7    9.39   19.59
 -19  18  -8    5.38   10.76
 -18  19  -8  -16.66   13.69
 -19 -18  -8   -8.40   10.90
 -19  19   0   25.68   18.46
 -19  19   1    3.43    9.55
 -19  19  -1   22.44   22.81
 -19 -19  -2  -15.08   18.79
 -19  19   2   19.66   17.53
 -19  19  -2   27.27   19.84
 -19 -19  -3   -3.70   13.92
 -19  19  -3   16.62   18.49
 -19 -19  -4   17.51   15.82
 -19  19  -4   25.37   22.16
 -19 -19  -5  -12.93   12.25
 -19  19  -5   -8.90   15.67
 -19 -19  -6   11.14    8.58
 -19  19  -6   42.52   26.61
 -19  19  -7   15.41   17.10
 -20   0   0   21.36   39.49
 -20   0   1  158.33   57.61
 -20   0  -1  125.15   60.16
 -20   0   2   11.42   18.78
 -20   0  -2   66.43   45.67
 -20   0  -3   55.34   45.09
 -20   0  -4  120.77   48.78
 -20   0  -5  456.27   87.88
 -20   0  -6   98.76   42.73
 -20   0  -7  219.92   59.84
 -20   0  -8   64.01   34.67
 -20   0  -9   11.46   19.52
 -20   0 -10    3.63   19.55
 -20   0 -11   89.08   33.77
   0  20  11  214.04   56.08
 -20   0 -12  -30.08   22.35
   0  20  12   12.13   25.30
   0  20  13   18.16   19.86
 -20   0 -13   45.32   23.60
   0  20  14   21.32   24.92
   0  20  15   67.50   31.30
   0  20  16   54.43   24.69
 -20  -1   0  141.10   57.96
 -20   1   0  155.72   63.15
 -20  -1   1   -1.63   19.46
 -20  -1  -1    6.78   15.53
 -20   1   1    5.59   15.38
 -20   1  -1    0.29   20.84
 -20  -1   2    9.86   17.38
 -20  -1  -2   42.23   31.55
 -20   1   2   15.93   24.10
 -20   1  -2   13.68   28.71
 -20  -1  -3   76.36   46.84
 -20   1  -3   10.90   22.65
 -20  -1  -4  203.92   64.02
 -20   1  -4  196.40   55.63
 -20  -1  -5  247.41   61.35
 -20   1  -5  305.60   71.52
 -20  -1  -6  369.17   78.47
 -20   1  -6  904.22  115.88
 -20  -1  -7   49.97   28.73
 -20   1  -7  130.87   47.64
 -20  -1  -8    3.12   18.65
 -20   1  -8    0.13   19.11
 -20  -1  -9   18.39   24.03
 -20   1  -9  -16.47   11.94
 -20  -1 -10   73.02   32.34
 -20   1 -10   84.15   34.09
  -1  20  10  136.21   53.35
 -20  -1 -11   -6.61   19.24
 -20   1 -11    3.84   17.42
  -1  20  11   11.08   14.91
   1  20  11    8.22   21.48
 -20   1 -12   22.07   13.99
  -1  20  12   95.34   39.42
   1  20  12   72.38   39.95
 -20  -1 -12   67.60   26.86
  -1  20  13  -17.84   22.93
   1  20  13   16.21   12.77
 -20  -1 -13    3.72   11.98
 -20   1 -13   10.45   18.29
  -1  20  14   10.52   15.86
   1  20  14    8.19   20.50
  -1  20  15   27.77   20.90
   1  20  15   66.61   26.83
  -1  20  16   56.99   27.15
   1  20  16   68.98   30.16
 -20  -2   0   60.11   31.92
 -20   2   0    3.70   27.65
 -20  -2   1  213.43   69.12
 -20  -2  -1  254.75   72.12
 -20   2   1  196.22   68.47
 -20   2  -1  291.19   72.99
 -20  -2   2    8.28   21.28
 -20  -2  -2   25.77   35.91
 -20   2   2   22.50   20.94
 -20   2  -2   -3.25   23.10
 -20  -2  -3   -4.69   14.23
 -20   2  -3  -20.67   30.28
 -20  -2  -4   44.34   35.34
 -20   2  -4   52.83   43.38
 -20  -2  -5  376.26   81.86
 -20   2  -5  332.90   76.65
 -20  -2  -6  130.22   47.23
 -20   2  -6  155.36   52.54
 -20  -2  -7   80.41   36.52
 -20   2  -7   54.25   30.76
 -20  -2  -8    7.19   14.66
 -20   2  -8   12.81   26.60
 -20  -2  -9   96.41   38.36
 -20   2  -9   67.45   29.78
  -2  20   9  123.35   41.68
 -20  -2 -10   22.15   21.24
 -20   2 -10   -5.46   16.87
  -2  20  10   53.06   28.07
 -20  -2 -11  192.67   44.44
 -20   2 -11  111.86   38.02
  -2  20  11  170.75   54.12
   2  20  11  172.53   57.58
 -20   2 -12   -6.28   10.10
  -2  20  12   29.56   23.34
 -20  -2 -12    0.79   11.83
 -20   2 -13   -0.74   16.95
  -2  20  13   33.37   30.27
   2  20  13    3.19   15.74
 -20  -2 -13   18.70   15.98
  -2  20  14   42.20   27.32
   2  20  14   20.31   18.39
  -2  20  15   27.15   23.93
   2  20  15   25.01   19.17
  -2  20  16   25.78   19.53
   2  20  16   31.84   17.72
 -20  -3   0  343.52   78.16
 -20   3   0  326.20   79.51
 -20  -3   1  127.57   43.86
 -20  -3  -1  160.40   55.17
 -20   3   1  197.00   56.51
 -20   3  -1  173.62   63.11
 -20  -3   2   68.44   35.18
 -20  -3  -2   52.97   38.44
 -20   3   2   56.42   41.62
 -20   3  -2  107.06   44.67
 -20  -3  -3    8.69   19.78
 -20   3  -3   -5.92   18.10
 -20  -3  -4   76.14   41.33
 -20   3  -4   90.65   30.66
 -20  -3  -5  153.77   54.05
 -20   3  -5  213.26   57.96
 -20  -3  -6  128.05   42.05
 -20   3  -6   86.46   42.53
 -20  -3  -7   70.46   34.65
 -20   3  -7  -14.05   28.66
 -20  -3  -8   33.48   26.35
 -20   3  -8   19.64   16.61
  -3  20   8    2.86   26.53
 -20  -3  -9    1.04   19.07
 -20   3  -9   19.97   17.02
  -3  20   9   50.86   32.07
 -20  -3 -10  232.60   55.86
 -20   3 -10  154.97   45.64
  -3  20  10  214.47   51.54
 -20   3 -11   66.58   28.36
  -3  20  11   90.99   39.17
 -20  -3 -11   62.44   26.57
 -20   3 -12  193.34   44.50
  -3  20  12   50.53   28.13
   3  20  12  144.74   58.42
 -20  -3 -12   70.28   27.75
 -20   3 -13   13.01   16.70
  -3  20  13  -10.89   14.80
   3  20  13   31.02   26.31
 -20  -3 -13    7.84    9.20
  -3  20  14   28.38   23.01
   3  20  14   -3.78   13.48
  -3  20  15   44.69   20.50
   3  20  15  -15.64   17.52
  -3  20  16   26.42   15.57
   3  20  16   42.26   20.04
 -20  -4   0  241.89   65.03
 -20   4   0  254.78   76.72
 -20  -4   1  244.42   67.81
 -20  -4  -1  247.49   75.69
 -20   4   1  255.36   78.88
 -20   4  -1  341.73   81.05
 -20  -4   2   59.97   35.14
 -20  -4  -2  146.85   55.40
 -20   4   2   53.21   32.15
 -20   4  -2   85.41   46.06
 -20  -4  -3    4.92   14.97
 -20   4  -3  -35.69   38.44
 -20  -4  -4   97.10   45.56
 -20   4  -4   14.22   29.44
 -20  -4  -5   31.00   33.44
 -20   4  -5   46.72   33.93
 -20  -4  -6  178.89   52.87
 -20   4  -6   76.41   38.86
 -20  -4  -7  -50.22   24.21
 -20   4  -7  -43.69   31.13
  -4  20   7   -1.94   15.48
 -20  -4  -8  -10.68   19.35
 -20   4  -8   49.67   33.66
  -4  20   8   30.64   22.62
 -20  -4  -9  103.73   31.86
 -20   4  -9   89.01   37.64
  -4  20   9   77.16   35.86
 -20   4 -10  150.22   46.23
  -4  20  10  182.98   47.15
 -20  -4 -10  135.08   39.92
 -20   4 -11  134.13   39.85
  -4  20  11  100.13   36.68
 -20  -4 -11  141.67   40.07
 -20   4 -12   81.80   33.24
  -4  20  12   77.43   35.68
   4  20  12  133.34   53.97
 -20  -4 -12   82.94   32.64
 -20   4 -13   38.67   21.67
  -4  20  13   26.22   22.61
   4  20  13   18.52   25.57
 -20  -4 -13   23.90    8.09
  -4  20  14    1.68   11.38
   4  20  14  -20.99   22.35
  -4  20  15    5.36   15.58
   4  20  15   15.39   10.99
  -4  20  16    8.96   11.82
   4  20  16   16.62   15.01
 -20  -5   0  204.65   58.67
 -20   5   0  262.60   70.48
 -20  -5   1  242.87   60.01
 -20  -5  -1  276.02   72.43
 -20   5   1  319.83   80.75
 -20   5  -1  219.62   80.01
 -20  -5  -2   25.40   24.35
 -20   5   2  103.90   54.19
 -20   5  -2   91.26   57.06
 -20  -5   2   60.79   40.17
 -20  -5  -3  -43.70   36.57
 -20   5  -3  -26.27   32.34
 -20  -5  -4    0.62   13.36
 -20   5  -4   24.01   28.53
 -20  -5  -5  191.90   51.35
 -20   5  -5  219.53   59.87
 -20  -5  -6   -3.32   22.95
 -20   5  -6  -33.35   29.02
 -20  -5  -7   24.97   16.37
 -20   5  -7    1.74   15.63
  -5  20   7   20.09   30.22
 -20   5  -8   42.44   28.45
  -5  20   8   27.75   24.21
 -20  -5  -8   50.99   30.50
 -20   5  -9  105.03   38.54
  -5  20   9   58.79   23.43
 -20  -5  -9   33.50   23.81
 -20   5 -10  105.84   40.29
  -5  20  10  180.09   46.56
 -20  -5 -10  107.34   39.89
 -20   5 -11  219.57   51.26
  -5  20  11  216.19   48.91
 -20  -5 -11  160.43   43.52
 -20   5 -12   43.13   23.89
  -5  20  12   21.00   18.55
   5  20  12   84.99   41.18
 -20  -5 -12   67.81   27.65
 -20   5 -13   -7.29   10.04
  -5  20  13   25.28   23.38
 -20  -5 -13   35.43   20.15
  -5  20  14   -8.87    8.69
   5  20  14   -7.41   12.87
  -5  20  15   21.23   16.19
   5  20  15   42.09   24.65
 -20   6   0  330.97   80.15
 -20  -6   0  205.65   64.78
 -20   6   1   93.07   49.86
 -20   6  -1   62.07   52.08
 -20  -6   1  110.79   53.54
 -20  -6  -1   62.64   40.41
 -20  -6  -2   25.80   22.48
 -20   6   2   46.57   39.02
 -20   6  -2   19.33   29.79
 -20  -6   2   21.03   21.94
 -20  -6  -3    3.35   14.81
 -20   6   3    5.79   17.39
 -20   6  -3    2.70   33.10
 -20  -6  -4  104.44   48.10
 -20   6  -4  114.17   48.38
 -20  -6  -5   20.59   28.02
 -20   6  -5   98.21   46.72
 -20   6  -6  229.40   65.94
 -20  -6  -6  168.72   53.87
 -20   6  -7  -16.21   22.38
  -6  20   7   22.23   16.51
 -20  -6  -7   36.40   29.18
 -20   6  -8   -0.63   19.76
  -6  20   8   29.64   21.47
 -20  -6  -8  -13.77   16.18
 -20   6  -9   52.87   34.75
  -6  20   9   23.85   24.83
 -20  -6  -9   15.94   23.19
 -20   6 -10  135.47   46.24
  -6  20  10  187.79   46.83
 -20  -6 -10  117.54   38.12
 -20   6 -11   77.32   33.24
  -6  20  11   54.30   21.27
 -20  -6 -11   42.39   21.50
 -20   6 -12   90.16   30.19
  -6  20  12   30.24   23.25
   6  20  12  101.76   44.70
 -20  -6 -12   63.96   25.88
 -20   6 -13   29.84   16.10
  -6  20  13   -0.83    9.74
   6  20  13  -10.93   21.00
 -20  -6 -13  -13.01   11.30
  -6  20  14    7.10   12.55
   6  20  14   18.54   21.59
  -6  20  15    2.56    7.31
   6  20  15    8.21   13.82
 -20   7   0   17.01   22.05
 -20  -7   0   26.61   33.94
 -20   7   1   84.96   44.14
 -20   7  -1  167.58   66.51
 -20  -7   1  162.02   56.77
 -20  -7  -1  165.95   60.40
 -20   7   2   22.34   24.99
 -20   7  -2   49.36   43.41
 -20  -7   2   14.03   14.41
 -20  -7  -2   61.13   42.74
 -20   7   3   12.63   18.93
 -20   7  -3   11.87   30.93
 -20  -7  -3   22.89   32.80
 -20   7  -4   60.58   34.32
 -20  -7  -4    7.67   18.23
 -20   7  -5  510.05   95.90
 -20  -7  -5  417.38   84.41
 -20   7  -6   49.15   36.92
 -20  -7  -6  110.57   41.61
 -20   7  -7  163.07   50.32
 -20  -7  -7  185.97   52.69
  -7  20   8   21.27   26.10
 -20   7  -8   -4.87   15.28
 -20  -7  -8   20.15   24.53
 -20   7  -9  -19.03   19.66
  -7  20   9    1.47    9.77
 -20   7 -10   22.81   20.54
  -7  20  10   44.05   22.37
 -20  -7 -10   54.94   28.39
 -20   7 -11  112.02   34.52
  -7  20  11  114.29   33.70
 -20  -7 -11  102.13   35.92
 -20   7 -12   26.62   16.43
  -7  20  12   -0.92   12.22
   7  20  12   28.00   31.32
 -20  -7 -12   17.60   14.99
 -20   7 -13   10.18   13.72
  -7  20  13  -32.89   22.43
   7  20  13   -7.41   14.96
 -20  -7 -13  -11.79   11.91
  -7  20  14    8.35   13.29
   7  20  14    4.61   10.24
  -7  20  15   15.26   11.88
   7  20  15   23.78   17.20
 -20   8   0  129.16   59.95
 -20  -8   0  137.96   54.91
 -20   8   1   -3.04   20.00
 -20   8  -1    9.24   14.87
 -20  -8   1   -9.98   13.65
 -20  -8  -1   21.49   25.52
 -20   8   2   90.15   38.05
 -20   8  -2   51.47   42.93
 -20  -8   2   11.93    9.53
 -20  -8  -2   33.92   36.49
 -20   8   3   -3.47   18.15
 -20   8  -3   35.79   35.54
 -20  -8  -3   24.54   27.26
 -20   8  -4  193.72   70.93
 -20  -8  -4  204.61   67.41
 -20   8  -5  164.59   53.46
 -20  -8  -5  110.56   40.35
 -20   8  -6  346.65   79.02
 -20  -8  -6  372.96   77.05
 -20   8  -7   34.69   20.50
 -20  -8  -7   49.30   33.61
 -20   8  -8    7.98   17.78
 -20  -8  -8   16.05   19.19
  -8  20   9   -1.65   13.47
 -20   8  -9  -12.35   15.79
 -20  -8  -9   10.26   22.87
  -8  20  10   54.67   24.52
 -20   8 -10   68.13   34.55
 -20  -8 -10   -4.92   17.88
 -20   8 -11   14.95   19.64
  -8  20  11   -5.52   11.76
 -20  -8 -11   28.16   23.02
 -20   8 -12    2.24   10.41
  -8  20  12    7.75    9.40
   8  20  12  -13.24   21.08
 -20  -8 -12   13.68   10.52
  -8  20  13   -9.82   12.86
   8  20  13   12.95   23.70
 -20  -8 -13    7.27   13.54
  -8  20  14    7.91   10.74
   8  20  14   15.22   17.65
 -20   9   0   51.42   39.31
 -20  -9   0   39.66   25.70
 -20   9   1   44.12   40.26
 -20   9  -1   20.40   35.95
 -20  -9   1   21.22   11.28
 -20  -9  -1   30.88   30.64
 -20   9   2   31.93   36.69
 -20   9  -2   -2.55   14.51
 -20  -9   2   -1.37    9.70
 -20  -9  -2   11.87   22.29
  -9 -20  -3  -16.82   29.25
 -20   9   3   20.15   25.13
 -20   9  -3   46.58   45.51
 -20  -9  -3   67.46   39.45
  -9 -20  -4  110.85   43.88
 -20   9  -4   64.35   47.16
 -20  -9  -4  104.23   45.76
 -20   9  -5  336.11   89.72
  -9 -20  -5  404.89   88.68
 -20  -9  -5  361.97   81.52
 -20   9  -6  160.09   51.40
 -20  -9  -6  120.32   44.40
 -20   9  -7  209.99   64.49
 -20  -9  -7  183.53   53.02
 -20   9  -8  -10.64   15.12
 -20  -9  -8   25.06   20.71
 -20   9  -9   26.31   26.55
 -20  -9  -9   41.97   24.92
  -9  20  10   22.44   14.96
 -20   9 -10   26.05   17.40
 -20  -9 -10   44.22   22.99
  -9  20  11   57.87   17.69
 -20   9 -11   57.49   29.84
 -20  -9 -11   22.55   17.65
 -20   9 -12   -6.34    9.94
  -9  20  12    1.98   10.85
 -20  -9 -12   -6.78   16.40
  -9  20  13    1.00    9.95
   9  20  13   28.00   24.42
 -20  -9 -13   -6.54   10.98
  -9  20  14  -10.40    6.92
   9  20  14   24.61   19.35
 -20  10   0   30.96   27.83
 -20 -10   0   30.18   26.12
 -20  10   1   45.58   40.35
 -20  10  -1   18.25   34.87
 -20 -10   1   28.94   32.32
 -20 -10  -1   46.73   31.21
 -10 -20  -2   25.41   29.93
 -20  10   2   -7.99   35.44
 -20  10  -2   38.88   35.37
 -20 -10   2   -6.97   15.36
 -20 -10  -2    5.59   21.96
 -10 -20  -3   23.57   29.71
 -20  10   3   15.70   28.09
 -20  10  -3   23.14   25.53
 -20 -10  -3   21.35   17.82
 -10 -20  -4   78.99   42.19
 -20  10  -4  115.74   56.32
 -20 -10  -4   80.32   49.42
 -10 -20  -5   71.34   41.74
 -20  10  -5   98.16   55.23
 -20 -10  -5   87.10   46.55
 -10 -20  -6  181.55   56.09
 -20  10  -6  174.37   57.74
 -20 -10  -6  114.59   53.33
 -20  10  -7  116.10   40.14
 -20 -10  -7   53.88   27.48
 -20  10  -8    1.66   25.55
 -20 -10  -8   -6.39   18.70
 -20  10  -9   12.22   17.86
 -20 -10  -9    9.25   14.18
 -20  10 -10   41.48   28.16
 -20 -10 -10   11.64   14.02
 -20  10 -11   35.82   19.75
 -20 -10 -11   18.13   14.79
 -20  10 -12    6.06   13.58
 -10  20  12   15.55   13.19
  10  20  12    7.54   16.69
 -20 -10 -12   -8.79    9.12
 -10  20  13   -4.83    8.38
  10  20  13    7.74   12.47
 -20 -10 -13   15.80   13.30
 -20  11   0  109.15   57.96
 -20 -11   0   76.28   45.60
 -11 -20  -1   44.30   44.81
 -20  11   1   42.14   36.66
 -20  11  -1   39.73   44.67
 -20 -11   1   -7.97   13.50
 -20 -11  -1   -6.35   21.28
 -11 -20  -2   31.58   33.43
 -20  11   2   16.30   26.66
 -20  11  -2   14.95   20.27
 -20 -11   2   11.69   24.42
 -20 -11  -2   31.24   25.52
 -11 -20  -3   28.16   33.02
 -20  11   3   14.58   35.40
 -20  11  -3   10.47   21.02
 -20 -11  -3  -22.18   22.24
 -11 -20  -4   58.71   35.14
 -20  11  -4   85.99   58.51
 -20 -11  -4   71.08   38.42
 -11 -20  -5   38.81   14.02
 -20  11  -5   38.95   33.16
 -20 -11  -5   78.58   44.58
 -11 -20  -6   97.32   41.23
 -20  11  -6   55.77   43.05
 -20 -11  -6   58.50   34.29
 -20  11  -7   65.17   33.22
 -11 -20  -7   43.68   24.66
 -20 -11  -7   -6.06   23.46
 -20  11  -8    3.63   14.85
 -20 -11  -8   -3.32   18.65
 -20  11  -9   -8.33   11.96
 -20 -11  -9    2.46   13.56
 -20  11 -10   34.79   23.33
 -20 -11 -10   16.68   16.59
 -20  11 -11   16.66   16.00
 -20 -11 -11   16.50   11.96
 -20  11 -12   -0.25   13.24
 -20 -11 -12   30.98   17.81
  11  20  13    2.05   13.80
 -20  12   0   29.73   23.75
 -20 -12   0    8.88   14.46
 -12 -20  -1   72.52   41.49
 -20  12   1   44.01   42.12
 -20  12  -1  182.38   62.18
 -20 -12   1   66.11   41.12
 -20 -12  -1   59.43   40.01
 -12 -20  -2    4.65   13.30
 -20  12   2    3.98   24.06
 -20  12  -2  -17.47   19.02
 -20 -12   2   30.84   28.85
 -20 -12  -2    3.57   23.69
 -12 -20  -3    1.09   14.80
 -20  12   3   27.74   24.68
 -20  12  -3   -4.74   18.39
 -20 -12  -3  -10.42   24.62
 -20  12  -4    1.12   15.96
 -20 -12  -4   -1.20   20.05
 -12 -20  -5   60.38   40.84
 -20  12  -5   56.80   41.05
 -20 -12  -5   52.48   34.18
 -12 -20  -6    9.23   19.31
 -20  12  -6   36.50   32.73
 -20 -12  -6   -3.84   10.57
 -20  12  -7   23.13   22.34
 -12 -20  -7    7.36   18.80
 -20 -12  -7   24.00   24.02
 -20  12  -8   28.11   25.35
 -20 -12  -8   13.34   12.16
 -20  12  -9   14.40   15.90
 -20 -12  -9   -0.21   11.99
 -20  12 -10   15.80   11.60
 -12  20 -10  -12.12   13.04
 -20 -12 -10   20.44   15.56
 -20  12 -11   94.40   29.03
 -20 -12 -11   38.90   22.46
  12  20  12   18.36   18.96
 -20 -12 -12    4.52    9.93
 -20  13   0  169.23   66.63
 -20 -13   0  152.68   56.10
 -13 -20  -1  -36.27   36.35
 -20  13   1    5.43   15.63
 -20  13  -1   11.11   30.66
 -20 -13   1   23.58   31.00
 -20 -13  -1   23.56   20.74
 -13 -20  -2   75.59   36.13
 -20  13   2    7.06   25.24
 -20  13  -2   69.91   44.56
 -20 -13   2   25.46   19.93
 -20 -13  -2   27.20   24.37
 -13 -20  -3   -1.54   21.39
 -20  13   3    6.37   17.79
 -20  13  -3   22.73   28.85
 -20 -13  -3  -18.75   16.68
 -13 -20  -4   22.16   26.06
 -20  13  -4   12.70   24.99
 -20 -13  -4    5.35   17.68
 -13 -20  -5  -23.18   26.49
 -20  13  -5   -4.43   12.03
 -20 -13  -5  -11.15   17.53
 -13 -20  -6   20.86   21.05
 -20  13  -6   -4.35   19.21
 -20 -13  -6   33.73   25.05
 -20  13  -7   32.75   29.61
 -13 -20  -7   21.74   16.39
 -20 -13  -7   -6.82   12.52
 -20  13  -8   -4.76   20.94
 -20 -13  -8  -12.52   15.66
 -20  13  -9    8.91   12.14
 -20 -13  -9   14.52   18.67
 -20  13 -10   49.61   25.23
 -13  20 -10    1.47    8.97
 -20 -13 -10   40.42   25.00
 -20  13 -11   54.32   21.71
  13  20  11   46.06   26.00
 -20 -13 -11   21.72   19.12
 -20  14   0   18.11   24.66
 -20 -14   0   39.34   30.83
 -14 -20  -1   55.68   32.46
 -20  14   1  121.29   48.82
 -20 -14   1   52.16   40.03
 -20  14  -1  125.76   55.25
 -20 -14  -1  134.86   52.38
 -14 -20  -2   42.62   32.06
 -20  14   2   25.69   34.50
 -20 -14   2    3.45   19.49
 -20  14  -2   21.25   27.94
 -20 -14  -2   12.55   22.01
 -14 -20  -3    7.82   22.72
 -20  14   3   -1.60   17.50
 -20  14  -3   20.72   31.69
 -20 -14  -3   29.38   30.43
 -14 -20  -4  -20.25   26.19
 -20  14  -4    1.92   13.91
 -20 -14  -4    2.03   16.80
 -14 -20  -5   20.77   25.29
 -20  14  -5   50.99   31.08
 -20 -14  -5   45.56   33.70
 -14 -20  -6  -17.56   19.14
 -20  14  -6  -25.93   22.53
 -20 -14  -6    4.55   18.36
 -20  14  -7   18.29   20.51
 -14 -20  -7   -8.02   12.38
 -20 -14  -7  -18.83   19.52
 -20  14  -8   52.38   28.15
 -20 -14  -8   -1.75   14.61
 -20  14  -9   26.49   24.97
 -20 -14  -9   16.21   12.98
 -14  20  -9    3.89   10.06
 -20  14 -10    8.87    7.82
 -20 -14 -10    1.36    7.46
 -20 -14 -11   25.01   15.65
 -20 -15   0   38.53   31.22
 -20  15   0  101.46   52.78
 -20 -15   1    2.20   15.20
 -20  15   1   22.05   24.74
 -20 -15  -1   37.50   34.64
 -20  15  -1   34.94   34.73
 -15 -20  -2    1.10   20.60
 -20  15   2    9.44   20.93
 -20  15  -2    4.69   14.91
 -20 -15  -2   20.97   21.68
 -15 -20  -3    1.09   22.84
 -20  15   3   -0.28   18.46
 -20  15  -3   21.85   30.07
 -20 -15  -3   -0.25   21.04
 -15 -20  -4   -9.72   20.82
 -20  15  -4   31.10   22.26
 -20 -15  -4    7.29   17.95
 -15 -20  -5   -6.69   17.46
 -20  15  -5  -19.79   19.32
 -20 -15  -5    4.80   16.10
 -15 -20  -6    3.53   22.46
 -20  15  -6    9.93   18.99
 -20 -15  -6   26.56   17.87
 -20  15  -7   -9.49   19.73
 -15 -20  -7    7.76   19.33
 -20 -15  -7  -11.53   15.36
 -20  15  -8   -0.27    9.73
 -20 -15  -8   10.25   10.93
 -15  20  -8  -25.17   27.83
 -20  15  -9   29.57   23.73
 -15  20  -9   -8.05   15.14
 -20 -15  -9   21.02   18.06
 -20  15 -10   35.20   20.32
 -20 -15 -10   39.32   17.76
 -20 -16   0  -13.71   15.19
 -20  16   0    2.04   11.42
 -20 -16   1   -0.49   13.98
 -20 -16  -1    8.99    9.82
 -20  16   1   37.86   20.22
 -20  16  -1   36.94   25.46
 -16 -20  -2  -31.54   26.93
 -20  16   2    9.51   13.43
 -20 -16  -2   53.71   51.55
 -20  16  -2   38.36   30.61
 -16 -20  -3   -9.13   16.90
 -20  16   3   -4.26   11.35
 -20  16  -3  -17.71   18.21
 -20 -16  -3   10.80   16.40
 -16 -20  -4   17.10   17.87
 -20  16  -4  -10.55   20.96
 -20 -16  -4   27.27   26.59
 -16 -20  -5   20.84   19.72
 -20  16  -5   -4.73   18.23
 -20 -16  -5   23.02   21.86
 -16 -20  -6  -29.19   18.95
 -20  16  -6   25.56   22.40
 -20 -16  -6   -0.20   12.11
 -20  16  -7  -17.96   19.66
 -20 -16  -7   11.46   20.58
 -16  20  -7  -10.56   17.55
 -20  16  -8    4.02    9.02
 -20 -16  -8  -10.18   12.06
 -16  20  -8  -10.70   13.45
 -20  16  -9   -4.83    9.65
 -16  20  -9    0.49   10.80
 -20 -16  -9    1.67    7.80
 -20 -17   0   -8.42   15.25
 -20  17   0   22.79   23.65
 -20 -17   1   -6.08    8.77
 -20 -17  -1   -1.84   10.20
 -20  17   1    9.25   12.82
 -20  17  -1   -0.44   12.29
 -20 -17  -2    6.18   15.49
 -20  17   2   10.97   13.84
 -20  17  -2    1.74    9.54
 -20  17   3  -16.15   11.41
 -20 -17  -3   -2.40    8.86
 -20  17  -3    8.91   13.29
 -17 -20  -4   13.08   18.34
 -20  17  -4    3.30   18.03
 -20 -17  -4  -21.85   12.47
 -20  17  -5   33.35   23.08
 -20 -17  -5   12.78   19.01
 -17  20  -5   41.84   27.47
 -20  17  -6   -2.67   12.32
 -20 -17  -6   18.42   18.86
 -17  20  -6   18.97   16.83
 -20  17  -7    0.10   10.52
 -20 -17  -7    6.65   10.03
 -20  17  -8  -12.43   12.24
 -17  20  -8  -12.98   19.06
 -20 -17  -8   -7.02   13.71
 -20 -17  -9   -0.53    9.77
 -20  18   0   12.04    8.63
 -20 -18  -1   12.44   12.77
 -20  18   1   -5.93   14.36
 -20  18  -1    3.51    9.44
 -18  20   1  -19.63   12.10
 -20 -18  -2   -8.82   16.97
 -20  18   2   15.40   14.82
 -20  18  -2   -8.05   14.76
 -18  20   2   28.63   22.95
 -18  20  -2   42.26   22.47
 -20 -18  -3   17.87   10.82
 -20  18  -3    1.48    8.87
 -18  20   3   -0.77   10.17
 -18  20  -3   -8.19    9.56
 -20 -18  -4   10.64   16.05
 -20  18  -4   10.79   17.19
 -18  20  -4   26.50   24.08
 -20  18  -5    5.19   13.49
 -20 -18  -5   -7.36    6.78
 -18  20  -5   15.10   17.94
 -20  18  -6    4.78   11.01
 -20 -18  -6   11.10    7.67
 -18  20  -6   22.10   18.05
 -20  18  -7    5.24    7.65
 -20 -18  -7   -4.18    9.91
 -20  19   0   14.14   13.43
 -19  20   0    3.76    7.22
 -20  19   1  -12.02   14.93
 -20  19  -1    7.68   16.65
 -19  20   1   11.46   13.13
 -19  20  -1   -7.70    8.25
 -20  19  -2   -6.16    9.62
 -19  20   2   10.34   12.73
 -19  20  -2    0.11   12.17
 -20  19  -3    8.04    9.64
 -19  20  -3    3.01   12.83
 -20  19  -4    8.75   13.26
 -19  20  -4   -8.24   11.31
 -20  19  -5   21.37   19.56
 -19  20  -5   29.28   19.90
 -20  19  -6   -1.51    6.83
 -19  20  -6   -4.22    6.81
 -20  20  -1   -7.09   11.74
 -20  20  -2  -18.06   13.24
 -20  20  -3    1.26    8.97
 -21   0   0   29.39   31.81
 -21   0   1    1.10   21.42
 -21   0  -1   18.56   30.37
 -21   0   2    9.61   17.60
 -21   0  -2   51.47   33.58
 -21   0  -3   49.59   31.09
 -21   0  -4  267.01   75.19
 -21   0  -5  196.56   58.27
 -21   0  -6  337.72   72.12
 -21   0  -7   68.67   31.64
 -21   0  -8    4.65   14.48
 -21   0  -9   11.98   18.60
 -21   0 -10    6.65   11.68
   0  21  10   70.16   40.39
 -21   0 -11   39.83   22.03
   0  21  11    2.83   16.63
   0  21  12   28.10   24.29
 -21   0 -12   13.93   11.53
   0  21  13  -19.04   19.81
 -21   0 -13   -1.68   12.25
   0  21  14    9.49   13.61
   0  21  15   21.70   18.41
 -21  -1   0   17.01   24.09
 -21   1   0   -4.33   12.24
 -21  -1   1   45.72   29.31
 -21  -1  -1   19.31   23.09
 -21   1   1   53.03   37.02
 -21   1  -1   29.61   34.32
 -21  -1   2    7.93   15.22
 -21  -1  -2   41.22   31.27
 -21   1   2   -5.75   18.39
 -21   1  -2   12.79   33.65
 -21  -1  -3   58.22   37.93
 -21   1  -3   31.64   42.70
 -21  -1  -4   69.86   41.12
 -21   1  -4  154.24   54.93
 -21  -1  -5  438.84   86.31
 -21   1  -5  356.62   77.99
 -21  -1  -6  103.85   35.18
 -21   1  -6  126.95   45.75
 -21  -1  -7   77.70   41.30
 -21   1  -7  132.51   46.97
 -21  -1  -8   25.31   24.87
 -21   1  -8   34.46   29.01
 -21  -1  -9    7.77   11.96
 -21   1  -9  -14.59   17.04
  -1  21   9  -20.65   17.13
 -21  -1 -10   10.09   11.31
 -21   1 -10   49.80   25.95
  -1  21  10   48.03   33.96
   1  21  10   66.21   36.99
 -21  -1 -11   34.29   21.73
 -21   1 -11   50.92   28.24
  -1  21  11   53.88   25.49
   1  21  11   69.85   36.49
 -21   1 -12  -10.83   11.38
  -1  21  12   29.55   23.68
   1  21  12  -15.20   23.75
 -21  -1 -12  -18.22   18.22
  -1  21  13   10.63   17.63
   1  21  13   12.06   24.24
 -21  -1 -13   -7.64   10.56
 -21   1 -13    2.42    9.37
  -1  21  14    7.07   10.97
   1  21  14    2.99   10.62
  -1  21  15   61.83   24.20
   1  21  15   16.47   19.71
 -21  -2   0   46.72   42.62
 -21   2   0  122.68   55.89
 -21  -2   1    9.00   14.18
 -21  -2  -1   36.57   41.73
 -21   2   1   68.97   42.77
 -21   2  -1   76.42   43.53
 -21  -2   2   -0.16   15.94
 -21  -2  -2    3.68   21.86
 -21   2   2   41.42   40.33
 -21   2  -2   -3.99   21.55
 -21  -2  -3   23.06   32.03
 -21   2  -3  -30.20   26.83
 -21  -2  -4  175.19   56.34
 -21   2  -4  119.19   58.40
 -21  -2  -5  101.10   41.62
 -21   2  -5  111.35   46.10
 -21  -2  -6  228.69   57.85
 -21   2  -6  158.03   52.01
 -21  -2  -7  -21.46   24.30
 -21   2  -7   59.32   33.22
 -21  -2  -8  -24.11   20.97
 -21   2  -8  -28.26   20.36
  -2  21   8  -15.43   17.83
 -21  -2  -9  -18.09   21.59
  -2  21   9   -9.43   24.10
 -21  -2 -10   18.62   16.71
 -21   2 -10   75.85   31.83
  -2  21  10   89.84   40.69
 -21   2 -11   -4.49   14.53
 -21  -2 -11    7.35    9.55
 -21   2 -12   20.44   16.78
  -2  21  12   30.06   24.47
   2  21  12   47.08   30.00
 -21  -2 -12    2.50    8.51
  -2  21  13   -0.13   10.61
   2  21  13   10.85   14.66
 -21  -2 -13  -21.75   15.70
 -21   2 -13  -36.71   19.92
  -2  21  14    7.50    9.59
   2  21  14    5.00   13.55
  -2  21  15   10.12   10.04
   2  21  15  -10.17   13.17
 -21  -3   0   72.42   41.31
 -21   3   0  100.73   43.36
 -21  -3   1  110.91   51.99
 -21  -3  -1   99.90   43.34
 -21   3   1   73.82   41.67
 -21   3  -1   86.06   54.69
 -21  -3   2   -2.23   10.27
 -21  -3  -2   48.54   31.09
 -21   3   2   36.98   33.86
 -21   3  -2   15.78   26.21
 -21  -3  -3   -2.75   16.42
 -21   3  -3   10.16   20.77
 -21  -3  -4   34.19   27.01
 -21   3  -4  -12.15   18.27
 -21  -3  -5  114.28   39.21
 -21   3  -5  115.09   43.28
 -21  -3  -6   54.92   31.48
 -21   3  -6   76.15   38.83
 -21  -3  -7   16.12   14.60
 -21   3  -7    3.71   18.52
 -21  -3  -8   65.44   32.01
 -21   3  -8   71.87   39.59
  -3  21   8    4.02   18.67
 -21  -3  -9   37.66   19.30
 -21   3  -9   39.50   25.78
  -3  21   9    0.96   16.35
 -21   3 -10   75.54   32.43
  -3  21  10   58.32   28.73
 -21  -3 -10   92.31   34.60
 -21   3 -11   75.44   31.23
  -3  21  11   97.31   42.41
   3  21  11  145.89   56.32
 -21  -3 -11   48.86   20.53
 -21   3 -12   46.74   21.28
  -3  21  12   22.68   20.10
   3  21  12   94.55   41.00
 -21  -3 -12   26.27   20.65
  -3  21  13    8.59   12.14
   3  21  13   12.30   16.35
 -21  -3 -13   -2.81    8.09
 -21   3 -13   36.86   17.04
  -3  21  14   10.86   15.71
   3  21  14    2.00   13.79
  -3  21  15   25.79   15.78
   3  21  15  -14.34   11.39
 -21  -4   0   79.42   39.17
 -21   4   0  135.36   47.12
 -21  -4   1  158.36   55.11
 -21  -4  -1  240.15   62.08
 -21   4   1  142.67   50.84
 -21   4  -1  196.11   71.21
 -21  -4  -2   55.56   38.65
 -21   4   2   31.91   24.84
 -21   4  -2   39.02   28.37
 -21  -4   2   50.72   31.77
 -21  -4  -3  -14.80   16.17
 -21   4  -3   -6.67   28.57
 -21  -4  -4  -53.41   35.68
 -21   4  -4  -21.33   19.30
 -21  -4  -5   55.31   26.39
 -21   4  -5   78.38   36.59
 -21  -4  -6   21.75   12.30
 -21   4  -6   39.40   29.35
 -21  -4  -7  -42.67   28.82
 -21   4  -7  -14.77   16.29
  -4  21   7  -16.47   32.52
 -21  -4  -8  -13.49   14.44
 -21   4  -8   26.43   24.33
  -4  21   8  -28.55   21.24
 -21   4  -9  108.98   41.23
  -4  21   9   78.07   26.94
 -21  -4  -9   56.18   31.13
 -21   4 -10   93.87   34.18
  -4  21  10  104.43   33.37
 -21  -4 -10   83.31   36.97
 -21   4 -11  120.70   36.26
  -4  21  11   68.80   33.28
 -21  -4 -11  137.20   39.99
 -21   4 -12   32.98   14.15
  -4  21  12   55.34   29.89
   4  21  12   48.70   35.40
 -21  -4 -12   32.75   17.66
 -21   4 -13   11.50   11.77
  -4  21  13   12.63   14.67
   4  21  13   16.52   22.70
 -21  -4 -13   28.40   17.76
  -4  21  14   -6.57   12.62
   4  21  14   17.51   14.75
  -4  21  15   -6.41   10.06
   4  21  15    1.27   11.54
 -21   5   0  262.89   76.24
 -21  -5   0  146.63   61.42
 -21  -5  -1   67.59   43.33
 -21   5   1   68.81   48.50
 -21   5  -1   63.91   46.95
 -21  -5   1   93.36   45.50
 -21  -5  -2   80.42   36.62
 -21   5  -2  124.46   48.97
 -21  -5   2   67.10   42.83
 -21  -5  -3   13.27   22.94
 -21   5  -3   13.02   30.34
 -21  -5  -4    5.71   23.08
 -21   5  -4   69.80   37.14
 -21  -5  -5   20.98   15.46
 -21   5  -5    5.08   15.86
 -21  -5  -6   85.13   39.32
 -21   5  -6   63.58   35.63
  -5  21   6   68.18   27.18
 -21   5  -7    8.71   19.29
  -5  21   7  -51.88   26.95
 -21  -5  -7  -14.10   15.00
  -5  21   8   29.50   19.05
 -21  -5  -8    0.12   12.67
 -21   5  -9   18.19   19.96
  -5  21   9    8.76   16.92
 -21  -5  -9   58.86   34.64
 -21   5 -10  175.37   48.95
  -5  21  10  141.90   38.11
 -21  -5 -10  117.55   35.34
 -21   5 -11   61.65   25.51
  -5  21  11   25.40   20.60
 -21  -5 -11   64.81   27.48
 -21   5 -12   76.57   27.26
  -5  21  12   96.31   33.69
   5  21  12   72.28   42.10
 -21  -5 -12   55.15   24.10
 -21   5 -13    4.97    8.59
  -5  21  13   -2.45   17.23
   5  21  13   10.45   15.07
 -21  -5 -13   -0.22    7.90
  -5  21  14    1.22    9.51
   5  21  14    6.75   10.93
   5  21  15  -24.98   15.42
 -21   6   0   62.22   41.80
 -21  -6   0   72.51   38.18
 -21   6   1  125.35   58.26
 -21   6  -1  182.91   68.88
 -21  -6   1  130.62   45.44
 -21  -6  -1  128.41   50.26
 -21   6   2   55.77   40.16
 -21   6  -2    6.30   24.23
 -21  -6   2   -6.22   14.54
 -21  -6  -2   -3.20   24.86
 -21   6  -3   14.08   30.94
 -21  -6  -3   -7.40   14.59
 -21   6  -4   34.73   36.50
 -21  -6  -4   -4.19   20.90
 -21   6  -5   95.36   43.37
 -21  -6  -5   84.10   38.86
 -21   6  -6   32.00   17.75
 -21  -6  -6   68.88   24.65
 -21   6  -7   47.45   30.11
  -6  21   7   86.33   31.99
 -21  -6  -7   30.00   25.05
 -21   6  -8   -5.35   15.19
  -6  21   8   55.95   25.87
 -21  -6  -8   29.05   25.44
 -21   6  -9   20.72   23.10
  -6  21   9   13.95   16.57
 -21  -6  -9   38.45   26.86
 -21   6 -10   75.38   33.83
  -6  21  10   29.15   13.92
 -21  -6 -10   56.34   28.71
 -21   6 -11   96.80   35.66
  -6  21  11   95.35   34.55
 -21  -6 -11  135.08   38.58
  -6  21  12   -7.09    8.15
   6  21  12   21.15   27.86
 -21  -6 -12   15.01   11.02
 -21   6 -13  -14.38   10.81
  -6  21  13    8.67   10.93
 -21  -6 -13   -9.42    5.76
  -6  21  14    7.34    9.27
   6  21  14  -11.31    8.87
 -21   7   0  127.15   52.78
 -21  -7   0  118.37   56.41
 -21   7   1   24.37   30.49
 -21   7  -1    3.01   22.97
 -21  -7   1   11.62   22.61
 -21  -7  -1   -3.55   15.39
 -21   7   2   28.92   23.53
 -21   7  -2    0.91   16.97
 -21  -7   2   19.38   22.07
 -21  -7  -2   46.55   38.34
 -21   7  -3    1.61   15.14
 -21  -7  -3   -1.66   17.85
 -21   7  -4   45.12   27.11
 -21  -7  -4  120.81   49.88
 -21   7  -5   65.62   30.36
 -21  -7  -5   30.66   31.99
 -21   7  -6  247.81   62.91
 -21  -7  -6  206.91   57.29
 -21   7  -7   41.07   24.34
 -21  -7  -7  132.77   45.08
 -21   7  -8  -15.87   24.20
  -7  21   8   -9.67   16.66
 -21  -7  -8  -12.51   20.09
  -7  21   9  -27.44   19.37
 -21  -7  -9   -6.77   11.73
 -21   7 -10   70.44   32.36
  -7  21  10   38.50   19.08
 -21  -7 -10  123.75   39.47
 -21   7 -11  -25.60   16.03
  -7  21  11   28.25   17.47
 -21  -7 -11   21.75   19.00
 -21   7 -12   61.35   24.92
  -7  21  12   42.41   20.59
   7  21  12   30.80   24.44
 -21  -7 -12   46.61   19.86
  -7  21  13   20.53   15.30
 -21  -7 -13    2.61    6.95
  -7  21  14   -2.29    9.19
   7  21  14    4.76   14.10
 -21   8   0   -7.23   17.27
 -21  -8   0   -7.51   14.86
 -21   8   1   14.47   18.12
 -21   8  -1   65.24   39.82
 -21  -8   1   66.45   34.19
 -21  -8  -1   59.91   34.86
 -21   8   2   11.85   25.43
 -21   8  -2   -6.22   21.59
 -21  -8   2   11.33   23.06
 -21  -8  -2   10.90   28.73
 -21   8   3  -37.58   35.34
 -21   8  -3   25.38   39.40
 -21  -8  -3   33.04   34.79
 -21   8  -4   68.51   39.68
 -21  -8  -4   77.89   44.47
 -21   8  -5  241.28   77.61
 -21  -8  -5  170.61   60.18
 -21   8  -6   86.36   47.82
 -21  -8  -6   25.19   27.69
 -21   8  -7   65.71   35.34
 -21  -8  -7   62.81   38.21
 -21   8  -8   36.10   24.02
 -21  -8  -8   -8.57   10.53
 -21   8  -9   -3.38   11.31
 -21  -8  -9   29.72   12.41
  -8  21  10   10.53   13.07
 -21  -8 -10  -19.00   11.30
 -21   8 -11   48.13   26.08
  -8  21  11   61.88   22.28
 -21  -8 -11   55.92   21.98
 -21   8 -12  -21.68   14.45
  -8  21  12    4.60    8.77
   8  21  12   29.32   24.61
 -21  -8 -12    8.04   12.91
  -8  21  13   15.64   10.56
   8  21  13   20.28   23.79
 -21  -8 -13  -17.70   16.63
 -21   9   0   47.79   42.50
 -21  -9   0   24.96   23.22
 -21   9   1   -5.08   14.22
 -21   9  -1   -7.58   13.28
 -21  -9   1   -3.48   12.24
 -21  -9  -1    1.21   16.35
 -21   9   2   29.59   31.30
 -21   9  -2   37.71   30.20
 -21  -9   2   -4.07   19.25
 -21  -9  -2    3.32   12.08
 -21   9   3    6.04   19.50
 -21   9  -3   49.55   30.55
 -21  -9  -3   33.72   24.37
 -21   9  -4  157.77   54.74
 -21  -9  -4  113.07   47.29
 -21   9  -5   75.61   44.37
 -21  -9  -5   81.20   41.63
 -21   9  -6  143.55   50.90
 -21  -9  -6  136.89   48.68
 -21   9  -7   60.87   31.45
 -21  -9  -7   60.11   31.87
 -21   9  -8   35.38   22.87
 -21  -9  -8   -7.61   13.76
 -21   9  -9  -27.19   28.47
 -21  -9  -9   -4.70    9.66
 -21   9 -10   35.43   26.01
 -21  -9 -10   45.91   24.01
 -21   9 -11   16.94   17.00
 -21  -9 -11    4.69   11.83
 -21   9 -12    5.86    9.64
  -9  21  12   13.19   10.35
   9  21  12    1.24   20.63
 -21  -9 -12   35.32   17.25
   9  21  13    9.20   14.92
 -21  10   0   24.78   27.82
 -21 -10   0   11.61   24.19
 -21  10   1   17.72   26.75
 -21  10  -1   10.11   29.12
 -21 -10   1   25.96   22.99
 -21 -10  -1   40.51   27.35
 -21  10   2    0.08   18.50
 -21  10  -2   13.82   37.53
 -21 -10   2   -0.88   18.90
 -21 -10  -2  -32.09   21.31
 -21  10   3    9.58   19.50
 -21  10  -3   30.53   27.50
 -21 -10  -3   27.81   30.97
 -21  10  -4   67.93   39.21
 -21 -10  -4   73.82   40.59
 -21  10  -5   51.38   37.93
 -21 -10  -5   76.36   48.11
 -21  10  -6  154.22   51.70
 -21 -10  -6  108.76   43.16
 -21  10  -7   13.05   22.29
 -21 -10  -7   20.31   25.34
 -21  10  -8   -8.47   19.54
 -21 -10  -8   33.13   22.38
 -21  10  -9   -4.98   12.06
 -21 -10  -9   -1.86    9.10
 -21  10 -10    3.54   18.54
 -21 -10 -10   -2.30   13.42
 -21  10 -11   13.92   14.07
 -21 -10 -11   22.59   15.09
 -21  10 -12    4.36    8.95
 -21 -10 -12   -3.18    6.66
 -21  11   0   19.34   23.43
 -21 -11   0    7.02   11.04
 -21  11   1   52.12   33.95
 -21  11  -1   34.68   30.77
 -21 -11   1   15.71   18.08
 -21 -11  -1   25.58   29.72
 -21  11   2    6.94   24.25
 -21  11  -2   -6.29   19.98
 -21 -11   2    7.48   13.99
 -21 -11  -2  -19.83   21.06
 -21  11   3   14.28   12.31
 -21  11  -3  -13.07   29.57
 -21 -11  -3   -0.91   17.80
 -21  11  -4   12.21   16.93
 -21 -11  -4   34.85   28.89
 -21  11  -5   47.98   40.65
 -21 -11  -5  118.47   43.19
 -21  11  -6   27.95   29.45
 -21 -11  -6    9.29   13.95
 -21  11  -7   41.87   35.10
 -21 -11  -7   19.06   18.50
 -21  11  -8  -12.36   10.63
 -21 -11  -8   11.02   13.13
 -21  11  -9  -36.22   21.24
 -21 -11  -9   -2.14   12.14
 -21  11 -10   13.49   15.12
 -21 -11 -10   55.90   23.26
 -21  11 -11   -3.98   11.94
 -21 -11 -11  -11.36   13.97
  11  21  12    9.92   12.54
 -21 -11 -12   -3.00    5.45
 -21  12   0   64.67   47.94
 -21 -12   0   15.84   18.43
 -21  12   1   29.07   30.01
 -21  12  -1   -7.69   15.07
 -21 -12   1    5.07   20.38
 -21 -12  -1   11.42   16.01
 -21  12   2   12.15   24.94
 -21  12  -2   55.98   41.11
 -21 -12  -2   11.47   25.97
 -21  12   3  -18.54   16.90
 -21  12  -3   31.37   29.54
 -21 -12  -3    5.35   18.23
 -21  12  -4    4.95   19.24
 -21 -12  -4    7.77   15.29
 -21  12  -5   -5.91   17.87
 -21 -12  -5   -9.23   22.65
 -21  12  -6   85.07   38.89
 -21 -12  -6   62.03   35.84
 -21  12  -7   -0.47   14.25
 -21 -12  -7   -0.52   14.72
 -21  12  -8   -7.82    9.70
 -21 -12  -8  -15.61   19.65
 -21  12  -9   10.47   19.01
 -21 -12  -9   36.00   21.78
 -21  12 -10   49.19   24.75
 -21 -12 -10   12.34   10.91
 -21  12 -11   -6.39   10.20
 -21 -12 -11   -6.07    7.26
 -21  13   0   56.18   41.51
 -21 -13   0   40.07   33.06
 -21  13   1   67.85   32.59
 -21 -13   1    4.90   19.35
 -21 -13  -1   76.19   42.67
 -21  13   2   20.23   27.37
 -21  13  -2   50.92   35.99
 -21 -13  -2  -10.80   18.51
 -21  13   3   -9.91   20.19
 -21  13  -3   28.55   26.84
 -21 -13  -3   -3.21   19.41
 -21  13  -4   -2.20   19.84
 -21 -13  -4  -26.79   26.06
 -21  13  -5   51.92   28.11
 -21 -13  -5   25.98   26.79
 -21  13  -6  -11.10   18.45
 -21 -13  -6   25.45   19.94
 -21  13  -7   53.37   32.56
 -21 -13  -7   27.66   22.13
 -21  13  -8  -15.77   14.23
 -21 -13  -8    9.54    7.28
 -21  13  -9    3.64   12.96
 -13  21  -9   -7.34   10.26
 -21  13 -10    1.34   12.72
 -21 -13 -10    8.64   12.00
 -21 -13 -11   18.88   13.97
 -21  14   0  147.04   49.42
 -21 -14   0   33.74   30.04
 -21  14   1    0.76   15.05
 -21  14  -1   30.09   22.91
 -21 -14   1   17.19   18.78
 -21 -14  -1    7.63   22.44
 -21  14   2   -5.21   16.74
 -21  14  -2    6.20   19.68
 -21 -14  -2   19.21   21.81
 -21  14  -3   12.03   24.63
 -21 -14  -3    2.55   12.37
 -21  14  -4   19.20   27.54
 -21 -14  -4   29.52   27.77
 -21  14  -5   -6.35   12.42
 -21 -14  -5  -13.19   17.94
 -21  14  -6   33.01   24.38
 -21 -14  -6   60.56   26.11
 -21  14  -7   -7.99   13.20
 -21 -14  -7   19.30   15.41
 -21  14  -8   21.35   17.98
 -21 -14  -8    7.05    9.70
 -14  21  -8  -21.65   21.26
 -21  14  -9   -3.71   11.17
 -14  21  -9   15.74   13.58
 -21 -14  -9    3.99   15.02
 -21  14 -10   11.19   14.54
 -21 -14 -10   24.82   16.23
 -21  15   0    7.80   20.92
 -21 -15   0   10.92   16.50
 -21  15   1   23.26   22.35
 -21  15  -1   30.63   25.16
 -21 -15   1   11.61   17.19
 -21 -15  -1   33.80   25.67
 -21  15   2    5.30    8.50
 -21  15  -2   16.91   15.31
 -21 -15  -2    9.46   17.50
 -21  15  -3    9.52   12.49
 -21 -15  -3   -5.63   16.91
 -21  15  -4    1.86   10.22
 -21 -15  -4   11.14   19.59
 -21  15  -5   24.30   26.54
 -21 -15  -5   -0.61   13.14
 -21  15  -6    5.51   11.02
 -21 -15  -6   20.14   17.13
 -21  15  -7    7.04   15.97
 -21 -15  -7    9.12   13.12
 -21  15  -8    5.96    9.96
 -21 -15  -8    7.87    7.61
 -21  15  -9    7.35   15.53
 -21 -15  -9    5.66    9.45
 -21  16   0   -0.63   13.52
 -21 -16   0   -1.44   10.55
 -21  16   1   -8.49   13.95
 -21 -16   1   -7.30   15.14
 -21  16  -1   13.46   16.44
 -21 -16  -1   17.01   13.96
 -21  16   2   -5.78   11.43
 -21  16  -2    5.77   14.38
 -21 -16  -2    3.77    9.05
 -21  16  -3   -1.75   14.48
 -21 -16  -3   -5.84   11.33
 -21  16  -4    2.26   12.55
 -21 -16  -4    5.95   12.41
 -21  16  -5   -1.62   11.31
 -21 -16  -5   10.02   10.76
 -21  16  -6   28.66   24.38
 -21 -16  -6   11.16   14.53
 -16  21  -6    1.61   10.97
 -21  16  -7   -9.30   15.51
 -21 -16  -7    2.47    7.15
 -16  21  -7   -3.36   14.27
 -21  16  -8   -7.34    9.10
 -16  21  -8   -2.55    8.00
 -21 -16  -8   -6.68    8.92
 -21 -17   0  -10.92   15.94
 -21  17   0   -4.62   13.31
 -21  17   1    8.59    8.91
 -21  17  -1    5.36   10.63
 -21  17   2   -6.48   13.62
 -21  17  -2   -0.86   10.66
 -21 -17  -2  -16.29   19.68
 -21  17  -3   -7.95   16.59
 -21 -17  -3   -1.59   14.85
 -17  21   3   15.82   13.25
 -21  17  -4   26.70   22.02
 -21 -17  -4   -6.81   10.93
 -17  21  -4   14.01   17.58
 -21  17  -5    6.58   13.16
 -21 -17  -5    5.11    6.71
 -17  21  -5    1.63   10.76
 -21  17  -6  -18.58   15.22
 -21 -17  -6    7.27    6.23
 -21  17  -7    8.36    8.84
 -21 -17  -7  -10.75   10.48
 -17  21  -7   -1.28   11.70
 -21  18   0    1.48    8.91
 -18  21   0   -4.60    6.81
 -21  18   1    5.86    6.19
 -21  18  -1   -6.21   11.35
 -18  21   1   12.11   16.56
 -18  21  -1    1.72   15.56
 -21  18  -2   15.32   13.23
 -18  21   2   -7.65    8.17
 -18  21  -2   10.09   12.94
 -21  18  -3   -0.92    9.67
 -21 -18  -3   -5.35    8.89
 -18  21  -3   -2.29   11.07
 -21  18  -4    2.86    9.26
 -21 -18  -4    2.21    7.50
 -18  21  -4   15.73   16.46
 -21  18  -5   17.89   16.97
 -21 -18  -5    5.66   14.39
 -18  21  -5   18.26   14.50
 -19  21  -1    5.69    9.08
 -21  19  -2   -2.09    6.38
 -19  21  -2   17.19   14.01
 -19  21  -3    2.39    8.31
 -22   0   0   10.04   26.19
 -22   0   1   23.97   29.36
 -22   0  -1   12.79   19.89
 -22   0   2  -17.09   27.37
 -22   0  -2   -0.66   17.07
 -22   0  -3   21.55   25.10
 -22   0  -4   55.20   43.96
 -22   0  -5  285.34   71.92
 -22   0  -6    5.85   19.23
 -22   0  -7  100.13   40.30
 -22   0  -8  -20.10   18.37
 -22   0  -9   12.40   19.03
   0  22   9   -0.67   15.97
 -22   0 -10   13.04   10.94
   0  22  10   34.33   24.46
   0  22  11   17.81   19.41
 -22   0 -11  -67.12   25.68
   0  22  12    0.94   12.22
 -22   0 -12  -22.10   12.72
   0  22  13   22.57   17.86
 -22   0 -13    1.50    7.25
   0  22  14   -9.38   11.97
 -22  -1   0    0.13   17.05
 -22   1   0   12.66   24.66
 -22  -1   1  -14.52   15.44
 -22  -1  -1    3.79   20.28
 -22   1   1    0.55   15.98
 -22   1  -1   -1.17   20.04
 -22  -1   2   -2.36   13.54
 -22  -1  -2   17.56   31.33
 -22   1   2   20.94   21.12
 -22   1  -2   27.62   26.45
 -22  -1  -3  -10.26   24.15
 -22   1  -3    5.36   28.42
 -22  -1  -4  156.42   54.80
 -22   1  -4  151.72   53.57
 -22  -1  -5   47.57   31.94
 -22   1  -5   25.18   22.48
 -22  -1  -6  117.76   49.19
 -22   1  -6  156.18   55.17
 -22  -1  -7   24.77   16.47
 -22   1  -7   10.23   22.40
 -22  -1  -8   32.58   30.91
 -22   1  -8   88.92   44.74
  -1  22   8  -35.86   19.04
 -22  -1  -9   42.35   27.49
 -22   1  -9   24.65   22.15
  -1  22   9    5.31   22.74
 -22  -1 -10   20.38   12.17
 -22   1 -10  -16.41    9.13
  -1  22  10   13.32   11.34
   1  22  10   -5.68   17.12
 -22   1 -11  -30.98   18.50
  -1  22  11   21.53   25.46
   1  22  11    4.37   12.63
 -22  -1 -11    3.05    8.14
  -1  22  12   -4.49    9.66
   1  22  12  -16.59   20.10
 -22  -1 -12   17.92   15.61
 -22   1 -12  -31.37   21.27
  -1  22  13   -6.37   12.95
   1  22  13  -31.29   22.09
 -22  -1 -13   21.32   13.80
 -22   1 -13   -4.21    5.82
  -1  22  14   26.88   13.57
   1  22  14    8.44   13.58
 -22  -2   0   -3.34   16.85
 -22   2   0   40.69   37.35
 -22  -2   1   29.79   23.29
 -22  -2  -1   21.42   35.23
 -22   2   1   40.64   36.76
 -22   2  -1   19.74   29.71
 -22  -2   2   -0.19   20.48
 -22  -2  -2    4.05   13.01
 -22   2   2   20.33   23.86
 -22   2  -2   35.28   32.50
 -22  -2  -3    4.30   14.25
 -22   2  -3   24.82   31.14
 -22  -2  -4   31.46   29.68
 -22   2  -4   -3.62   19.42
 -22  -2  -5   53.69   36.85
 -22   2  -5   35.90   38.47
 -22  -2  -6   -5.53   18.70
 -22   2  -6    3.79   24.55
 -22  -2  -7   31.42   17.68
 -22   2  -7   26.11   26.98
 -22  -2  -8   11.93   12.02
 -22   2  -8   38.04   21.30
  -2  22   8   27.82   19.83
 -22  -2  -9  -25.23   24.35
 -22   2  -9   33.15   25.60
  -2  22   9   39.17   21.12
 -22   2 -10   28.77   17.29
  -2  22  10   10.98   14.42
   2  22  10   -8.85   15.97
 -22  -2 -10  -10.50   18.29
 -22   2 -11   25.17   17.58
  -2  22  11   10.86   17.41
   2  22  11    9.60   25.72
 -22  -2 -11    2.76   13.77
  -2  22  12  -12.36   10.07
 -22  -2 -12  -30.91   16.47
 -22   2 -12   -6.00    9.56
  -2  22  13    8.95   12.66
   2  22  13  -22.17   20.10
 -22  -2 -13   -3.60    7.22
 -22   2 -13   -2.13    9.66
  -2  22  14   -8.34   11.39
   2  22  14  -18.30   15.68
 -22  -3   0   17.09   28.38
 -22   3   0  132.58   53.38
 -22  -3  -1   33.60   34.46
 -22   3   1  224.61   66.42
 -22   3  -1  160.20   59.47
 -22  -3  -2    2.65   12.79
 -22   3   2   12.22   21.86
 -22   3  -2    7.88   19.35
 -22  -3   2   13.76   28.49
 -22  -3  -3    2.56   23.54
 -22   3  -3   26.86   28.02
 -22  -3  -4   -5.16   28.99
 -22   3  -4   33.13   30.68
 -22  -3  -5   -9.01   22.17
 -22   3  -5   29.55   27.93
 -22  -3  -6   36.74   24.70
 -22   3  -6   66.01   30.58
  -3  22   6   51.92   28.96
 -22  -3  -7  -11.48   23.38
 -22   3  -7    1.27   20.91
  -3  22   7    3.73   14.47
 -22  -3  -8   -6.63   14.41
 -22   3  -8    3.33   14.89
  -3  22   8  -17.04   23.34
 -22   3  -9   19.13   16.95
  -3  22   9   18.39   21.50
 -22  -3  -9   18.09   17.17
 -22   3 -10   28.05   14.94
  -3  22  10   19.19   20.11
 -22  -3 -10    3.40   17.87
 -22   3 -11   21.40   14.51
  -3  22  11   12.73   10.99
   3  22  11   39.78   27.45
 -22  -3 -11   25.24   20.55
 -22   3 -12  -15.74   14.63
  -3  22  12   13.01   16.33
   3  22  12   15.08   24.61
 -22  -3 -12   12.47    7.45
  -3  22  13  -21.47   16.10
   3  22  13   20.36   16.69
 -22  -3 -13   12.65    9.52
 -22   3 -13   13.11    9.02
  -3  22  14    2.56    7.96
   3  22  14    5.88   12.88
 -22  -4   0  105.28   39.47
 -22   4   0   87.29   51.13
 -22  -4  -1   13.04   17.12
 -22   4   1   79.50   44.38
 -22   4  -1   25.93   23.16
 -22  -4   1   24.03   24.66
 -22  -4  -2   44.22   33.85
 -22   4   2   26.11   36.98
 -22   4  -2   72.10   48.37
 -22  -4   2   73.47   38.11
 -22  -4  -3   -0.91   26.16
 -22   4  -3   -8.13   19.27
 -22  -4  -4   -5.78   29.48
 -22   4  -4    7.62   20.85
 -22  -4  -5    3.23   17.86
 -22   4  -5   52.18   35.55
 -22  -4  -6    4.07   19.81
 -22   4  -6  -11.85   23.62
  -4  22   6    1.62   17.06
 -22   4  -7   -4.37   14.84
  -4  22   7    6.86   16.66
 -22  -4  -7  -23.04   21.89
 -22   4  -8   11.34   18.31
  -4  22   8   -4.22   14.72
 -22  -4  -8   21.59   12.91
 -22   4  -9    9.51   20.79
  -4  22   9   44.49   22.66
 -22  -4  -9   27.06   23.37
 -22   4 -10   85.58   35.17
  -4  22  10   62.72   26.12
 -22  -4 -10   67.11   29.08
 -22   4 -11   18.91   11.72
  -4  22  11   12.78   10.33
   4  22  11   28.76   24.92
 -22  -4 -11   49.48   24.53
 -22   4 -12   66.13   24.77
  -4  22  12   30.55   14.14
   4  22  12   18.62   24.71
 -22  -4 -12   43.97   20.81
  -4  22  13    4.13   12.30
   4  22  13  -12.39   11.38
 -22  -4 -13   -0.32    7.10
 -22   4 -13  -10.61   10.26
  -4  22  14  -10.04   12.47
   4  22  14    9.82   10.03
 -22   5   0    3.26   20.53
 -22  -5   0   55.07   34.02
 -22   5   1   41.42   37.35
 -22   5  -1  116.50   53.91
 -22  -5   1  156.78   54.55
 -22  -5  -1   91.19   46.71
 -22   5   2   -0.53   24.67
 -22   5  -2   36.64   39.58
 -22  -5   2   14.42   25.83
 -22  -5  -2   32.94   11.98
 -22   5  -3  -10.86   28.49
 -22  -5  -3   17.56   22.67
 -22   5  -4  -14.41   30.62
 -22  -5  -4   -6.02   18.84
 -22   5  -5   -6.21   16.37
 -22  -5  -5  -33.73   34.92
 -22   5  -6   23.15   25.01
 -22  -5  -6  -17.23   22.63
 -22   5  -7   16.74   27.96
  -5  22   7   21.90   17.90
 -22  -5  -7  -19.15   21.29
 -22   5  -8   22.45   18.05
  -5  22   8   26.48   24.10
 -22  -5  -8   -3.95   17.77
 -22   5  -9   25.48   23.63
  -5  22   9   55.27   22.03
 -22   5 -10   33.64   23.17
  -5  22  10   38.42   22.01
 -22  -5 -10   32.92   22.02
 -22   5 -11   83.44   30.31
  -5  22  11   68.94   27.28
   5  22  11   71.65   41.00
 -22  -5 -11   74.83   27.92
 -22   5 -12   24.47   17.94
  -5  22  12   18.44   16.54
   5  22  12   23.31   18.01
 -22  -5 -12  -10.40   11.60
  -5  22  13   -5.76   10.53
   5  22  13  -11.04   13.16
 -22  -5 -13    6.60    8.35
   5  22  14  -18.21   14.25
 -22   6   0   69.91   48.72
 -22  -6   0   47.90   36.06
 -22   6   1    7.21   20.50
 -22   6  -1    8.53   16.40
 -22  -6   1    2.23   11.73
 -22  -6  -1   -6.75   16.29
 -22   6   2    6.72   20.42
 -22   6  -2   45.89   31.49
 -22  -6   2   60.54   34.74
 -22  -6  -2  106.74   47.49
 -22   6  -3   -0.05   25.12
 -22  -6  -3   22.65   24.18
 -22   6  -4   -2.98   25.59
 -22  -6  -4    0.44   12.14
 -22   6  -5   -7.15   27.19
 -22  -6  -5   20.87   22.85
 -22   6  -6   19.05   20.09
 -22  -6  -6   67.03   37.56
 -22   6  -7   41.30   33.13
 -22  -6  -7   20.22   28.34
 -22   6  -8   -0.69   12.85
  -6  22   8   -8.41   14.10
 -22  -6  -8    3.20   19.45
 -22   6  -9   37.39   24.68
  -6  22   9   16.23   16.49
 -22  -6  -9   31.79   21.16
 -22   6 -10   81.59   27.54
  -6  22  10  110.33   33.03
 -22  -6 -10   70.72   27.97
 -22   6 -11   -3.19    8.28
  -6  22  11   29.71   19.22
   6  22  11   -5.10   12.59
 -22  -6 -11   27.43   15.99
 -22   6 -12   38.20   17.94
  -6  22  12   56.97   20.70
   6  22  12   17.31   28.21
 -22  -6 -12   19.75   12.24
  -6  22  13   -8.25    8.79
   6  22  13    0.79   11.66
 -22   7   0   16.24   22.50
 -22  -7   0   26.84   24.91
 -22   7   1  117.43   45.21
 -22   7  -1   83.66   49.27
 -22  -7   1  143.57   51.88
 -22  -7  -1   74.02   46.93
 -22   7   2   17.88   43.19
 -22   7  -2   19.86   21.60
 -22  -7  -2   -6.08   17.17
 -22   7  -3  -11.05   31.58
 -22  -7  -3    3.55   20.27
 -22   7  -4   13.59   21.45
 -22  -7  -4   28.73   26.28
 -22   7  -5   43.97   32.27
 -22  -7  -5   21.93   25.53
 -22   7  -6   21.36   23.92
 -22  -7  -6    9.64   20.21
 -22   7  -7   -5.20   14.55
 -22  -7  -7   12.05   23.58
 -22   7  -8   40.21   27.86
 -22  -7  -8    3.10   21.37
 -22   7  -9   14.21   19.41
 -22  -7  -9   48.55   24.47
 -22   7 -10   16.52   16.18
  -7  22  10    9.51   11.66
 -22  -7 -10  -14.07   13.55
 -22   7 -11   60.24   24.94
  -7  22  11   11.85   10.93
   7  22  11   63.35   32.59
 -22  -7 -11   54.89   21.67
 -22   7 -12  -12.79   16.47
  -7  22  12   -1.33    7.61
 -22  -7 -12    8.02    7.77
   7  22  13  -13.07   14.61
 -22   8   0    7.59   24.34
 -22  -8   0   53.37   36.74
 -22   8   1  -17.37   27.40
 -22   8  -1   18.30   32.05
 -22  -8   1   16.17   24.74
 -22  -8  -1   12.10   12.16
 -22   8   2  -22.92   26.06
 -22   8  -2   -6.58   16.39
 -22  -8  -2   11.73   24.60
 -22   8  -3   -8.77   21.70
 -22  -8  -3   -0.59   13.67
 -22   8  -4    2.73   21.97
 -22  -8  -4   34.87   34.46
 -22   8  -5   29.86   25.66
 -22  -8  -5   44.11   30.82
 -22   8  -6   35.53   35.21
 -22  -8  -6   24.74   21.74
 -22   8  -7   20.80   24.11
 -22  -8  -7   43.36   30.61
 -22   8  -8   -0.58   13.40
 -22  -8  -8  -14.08   20.31
 -22   8  -9   41.08   21.79
 -22  -8  -9   -2.51   12.90
 -22   8 -10   77.76   29.88
 -22  -8 -10   15.95   19.18
 -22   8 -11    1.66   13.25
   8  22  11   14.16   21.67
 -22  -8 -11    2.68    8.42
 -22   8 -12   11.88    8.98
   8  22  12   33.73   22.63
 -22  -8 -12   15.23   11.52
   8  22  13   14.30   16.72
 -22   9   0   -5.20   23.67
 -22  -9   0  -20.89   25.52
 -22   9   1   33.62   34.01
 -22   9  -1    9.48   26.66
 -22  -9   1   18.34   26.93
 -22  -9  -1   44.24   32.23
 -22   9   2    3.72   14.91
 -22   9  -2  -16.79   28.73
 -22  -9  -2   -2.85   12.93
 -22   9  -3  -19.93   32.37
 -22  -9  -3   37.32   31.49
 -22   9  -4   42.23   40.60
 -22  -9  -4    9.21   14.84
 -22   9  -5   49.75   31.42
 -22  -9  -5   58.61   35.06
 -22   9  -6   72.38   43.00
 -22  -9  -6   87.34   37.83
 -22   9  -7    4.03   14.50
 -22  -9  -7   34.83   22.65
 -22   9  -8    6.22   19.53
 -22  -9  -8   24.03   24.48
 -22   9  -9   56.40   27.56
 -22  -9  -9    0.45   11.99
 -22   9 -10   -0.14   13.54
 -22  -9 -10    1.11    7.62
 -22   9 -11   12.66   13.58
 -22  -9 -11   -1.33    6.56
   9  22  12   21.60   20.12
 -22  -9 -12   -5.49    6.30
 -22  10   0   -2.86   21.29
 -22 -10   0    8.16   21.65
 -22  10   1   -6.34   16.82
 -22  10  -1    2.29   14.31
 -22 -10   1   10.48   17.88
 -22 -10  -1  -25.33   30.78
 -22  10   2  -11.54   19.07
 -22  10  -2  -21.44   24.13
 -22 -10  -2    6.22   13.65
 -22  10  -3   19.38   22.86
 -22 -10  -3   -6.08   15.94
 -22  10  -4  -12.12   17.17
 -22 -10  -4    9.21   13.18
 -22  10  -5   71.15   35.17
 -22 -10  -5   64.13   33.90
 -22  10  -6   34.57   18.72
 -22 -10  -6    5.37   12.99
 -22  10  -7   16.46   21.57
 -22 -10  -7    8.05   13.63
 -22  10  -8   -3.08   17.90
 -22 -10  -8   -2.26   13.90
 -22  10  -9    2.77    8.85
 -22 -10  -9   13.31   14.80
 -22  10 -10    4.34   10.49
 -22 -10 -10   11.64   16.44
 -22  10 -11    5.49    8.29
 -22 -10 -11   -8.80    8.44
 -22  11   0    8.37   12.26
 -22 -11   0   13.61   21.65
 -22  11   1    3.06   14.04
 -22  11  -1   -1.19   17.91
 -22 -11   1   -1.35   18.73
 -22 -11  -1  -18.36   21.48
 -22  11   2    5.55   16.85
 -22  11  -2    6.27   15.49
 -22 -11  -2  -16.39   18.24
 -22  11  -3   24.41   26.82
 -22 -11  -3   14.65   10.68
 -22  11  -4   11.53   22.13
 -22 -11  -4   37.18   24.01
 -22  11  -5   -5.25   15.56
 -22 -11  -5  -47.52   33.04
 -22  11  -6   28.47   30.84
 -22 -11  -6   72.43   32.99
 -22  11  -7    1.50   12.01
 -22 -11  -7   -9.05   13.90
 -22  11  -8   22.55   16.23
 -22 -11  -8    5.89    7.75
 -22  11  -9    2.96   12.95
 -22 -11  -9   15.44   16.27
 -22  11 -10   24.79   20.92
 -22 -11 -10    5.87    6.55
  11  22  11  -19.81   13.87
 -22 -11 -11   -3.09   11.11
 -22  12   0   -2.87   14.59
 -22 -12   0   13.17   22.07
 -22  12   1   56.30   30.26
 -22  12  -1    0.81   17.21
 -22 -12   1    5.84   18.06
 -22 -12  -1   12.63   16.43
 -22  12   2    3.82   11.89
 -22  12  -2    0.08   20.71
 -22 -12  -2   -1.36   11.94
 -22  12  -3  -16.16   27.93
 -22 -12  -3  -36.27   23.55
 -22  12  -4    1.09   14.39
 -22 -12  -4  -15.98   19.96
 -22  12  -5    2.13   15.48
 -22 -12  -5   30.81   25.54
 -22  12  -6   -0.14   11.88
 -22 -12  -6   10.50   16.61
 -22  12  -7   -9.43   18.97
 -22 -12  -7   11.25   21.47
 -22  12  -8   -1.40   10.28
 -22 -12  -8    0.48   12.38
 -22  12  -9    8.84   11.15
 -22 -12  -9   -4.76   15.20
 -12  22  -9  -21.46   21.14
 -22  12 -10   -6.66    8.49
 -22 -12 -10   16.52   14.03
 -22  13   0   39.48   25.21
 -22 -13   0   37.14   26.23
 -22  13   1    2.86   15.71
 -22  13  -1   -5.56   17.94
 -22 -13   1    9.00   15.53
 -22 -13  -1   29.50   26.61
 -22  13   2    8.60   10.83
 -22  13  -2   -5.94   12.95
 -22 -13  -2   21.50   25.10
 -22  13  -3    6.15   13.43
 -22 -13  -3   16.31   12.22
 -22  13  -4   34.93   19.81
 -22 -13  -4   26.28   19.49
 -22  13  -5   -4.80   15.17
 -22 -13  -5   -7.23   17.52
 -22  13  -6    2.34   11.26
 -22 -13  -6   44.97   30.12
 -22  13  -7    4.68   16.01
 -22 -13  -7   15.49   18.64
 -22  13  -8   16.70   16.22
 -22 -13  -8    1.71    8.27
 -22  13  -9   10.86   15.81
 -22 -13  -9   15.48   13.84
 -22 -13 -10   13.95   12.48
 -22  14   0   11.41   13.07
 -22 -14   0   -0.05    9.18
 -22  14   1   -5.58   11.29
 -22  14  -1    4.34   13.12
 -22 -14   1   -3.49    8.33
 -22 -14  -1   13.80   15.46
 -22  14   2   -0.64    8.95
 -22  14  -2   -1.71   10.29
 -22 -14  -2   20.96   10.70
 -22  14  -3  -12.66   10.14
 -22 -14  -3    8.69   14.11
 -22  14  -4   21.39   19.06
 -22 -14  -4   -9.84   22.08
 -22  14  -5   -4.45   15.17
 -22 -14  -5   26.14   19.96
 -22  14  -6   -2.96   13.35
 -22 -14  -6   -5.79   14.78
 -22  14  -7    2.20   11.63
 -22 -14  -7   17.14   14.86
 -22  14  -8    5.33    7.82
 -22 -14  -8   -1.79    8.16
 -14  22  -8  -14.37   17.26
 -22  14  -9   13.04   15.04
 -22 -14  -9   -6.33    9.29
 -22  15   0   19.54   19.65
 -22 -15   0    1.33    7.20
 -22  15   1    5.92   10.78
 -22  15  -1   15.33   18.39
 -22 -15  -1    3.10   10.16
 -22  15   2  -18.09   17.58
 -22  15  -2  -11.68   16.04
 -22 -15  -2    3.55   12.19
 -22  15  -3   15.36   22.85
 -22 -15  -3    0.83   10.32
 -22  15  -4    8.15   15.65
 -22 -15  -4   21.92   16.09
 -22  15  -5   -5.65   19.39
 -22 -15  -5   -6.07   21.48
 -22  15  -6    1.96    8.40
 -22 -15  -6   22.04   16.76
 -22  15  -7   11.49    8.92
 -22 -15  -7   -5.76   10.68
 -15  22  -7    9.63   16.51
 -22  15  -8    2.53    7.00
 -22 -15  -8    7.87   11.19
 -22  16   0   -6.87   12.75
 -22 -16   0   -6.34   13.50
 -22  16   1    1.12    9.95
 -22  16  -1   -9.64    8.39
 -22 -16  -1   -2.17    7.19
 -22  16  -2    0.29   12.86
 -22 -16  -2   13.08   11.38
 -22  16  -3   -4.22   14.48
 -22 -16  -3    8.61   13.37
 -22  16  -4    1.66    7.86
 -22 -16  -4   -4.74    9.31
 -22  16  -5   21.22   16.03
 -22 -16  -5   26.00   16.84
 -16  22  -5    2.11   11.53
 -22  16  -6   -3.77   11.79
 -22 -16  -6    2.33    6.79
 -16  22  -6    3.98   11.89
 -22  16  -7    4.13    6.19
 -22 -16  -7    1.44   11.02
 -22  17   0    7.18    9.62
 -22  17  -1   -3.14    7.15
 -17  22   1   38.26   17.04
 -22  17  -2   -4.67   13.29
 -22 -17  -2  -11.50   14.40
 -17  22   2    6.69   27.00
 -17  22  -2   -2.64    9.11
 -22  17  -3   -7.32   10.43
 -22 -17  -3    1.49    5.88
 -17  22  -3    2.35   12.27
 -22 -17  -4    2.27    7.21
 -17  22  -4   -3.30    8.16
 -22  17  -5   -2.25    7.19
 -22 -17  -5   -8.77   10.57
 -17  22  -5   12.56   17.75
 -18  22  -2    5.38    8.69
 -23   0   0   20.85   25.66
 -23   0   1   12.04   20.93
 -23   0  -1  -13.95   22.51
 -23   0   2   27.30   23.48
 -23   0  -2   22.28   25.60
 -23   0  -3    7.98   19.83
 -23   0  -4   63.99   49.35
 -23   0  -5   31.89   27.65
 -23   0  -6   43.39   30.34
 -23   0  -7    6.43   15.86
 -23   0  -8    4.55   17.23
   0  23   8   -0.69   16.41
 -23   0  -9   17.35   10.88
   0  23   9    4.05   21.93
 -23   0 -10  -26.33   19.42
   0  23  10  -25.80   21.00
   0  23  11    4.96   16.03
 -23   0 -11    2.85   11.64
   0  23  12    4.28   14.52
 -23   0 -12   -9.79   13.27
   0  23  13    5.55   12.12
 -23  -1   0   10.10   24.49
 -23   1   0   49.37   39.57
 -23  -1   1  -16.36   15.58
 -23  -1  -1    0.13   14.87
 -23   1   1    0.35   15.68
 -23   1  -1    4.13   15.12
 -23  -1   2  -20.72   23.17
 -23   1   2   -1.29   15.46
 -23  -1  -2   -2.54   20.33
 -23   1  -2   15.29   22.03
 -23  -1  -3   33.59   32.11
 -23   1  -3   33.91   35.56
 -23  -1  -4   34.43   30.52
 -23   1  -4   13.85   19.36
 -23  -1  -5   53.63   40.07
 -23   1  -5   52.71   32.28
 -23  -1  -6   21.90   23.80
 -23   1  -6   62.64   33.58
 -23  -1  -7   -5.02   10.87
 -23   1  -7    1.73   17.49
  -1  23   7   -2.33   16.00
 -23  -1  -8    8.62   12.02
 -23   1  -8   -3.29   19.57
  -1  23   8    2.09   12.45
 -23  -1  -9  -16.96   20.33
 -23   1  -9   17.71   11.80
  -1  23   9  -16.19   17.97
   1  23   9   10.42   22.10
 -23   1 -10  -39.19   23.08
  -1  23  10   21.82   15.48
   1  23  10   -5.77   20.06
 -23  -1 -10  -18.66   20.38
  -1  23  11    6.77    8.55
   1  23  11    5.05   11.88
 -23  -1 -11   -4.62    9.39
  -1  23  12   -9.74   12.81
   1  23  12    8.93    8.83
 -23  -1 -12   -5.26    7.56
 -23   1 -12  -10.09   11.55
  -1  23  13    5.81    7.89
   1  23  13    8.67   12.16
 -23  -2   0  -12.22   27.86
 -23   2   0  -22.05   23.11
 -23  -2   1   -2.08    9.80
 -23  -2  -1    7.88   22.41
 -23   2   1  -10.78   22.66
 -23   2  -1    4.25   30.18
 -23  -2  -2    6.81   18.98
 -23   2   2   14.66   27.74
 -23   2  -2   33.93   39.23
 -23  -2  -3    0.57   14.27
 -23   2  -3   12.91   28.29
 -23  -2  -4   -0.30   16.05
 -23   2  -4   26.06   32.90
 -23  -2  -5    6.13   15.86
 -23   2  -5   43.93   35.95
 -23  -2  -6  -14.83   20.56
 -23   2  -6   18.41   27.53
  -2  23   6   16.88   24.81
 -23  -2  -7   13.62   14.23
 -23   2  -7   26.04   26.07
  -2  23   7   28.53   20.47
 -23  -2  -8   20.08   26.49
 -23   2  -8   28.85   23.61
  -2  23   8  -17.93   16.54
 -23   2  -9   -0.13   16.07
  -2  23   9  -13.33   16.41
   2  23   9    7.88   16.24
 -23  -2  -9  -31.93   17.21
 -23   2 -10  -19.08   17.23
  -2  23  10   -8.63    8.82
   2  23  10   29.05   27.21
 -23  -2 -10  -32.30   22.53
 -23   2 -11    4.40   11.69
  -2  23  11  -16.81   14.13
   2  23  11   -6.03   10.91
 -23  -2 -11   15.55   15.47
  -2  23  12    4.55   13.99
   2  23  12   -3.20    9.14
 -23  -2 -12    6.75    7.91
 -23   2 -12    1.43   11.38
  -2  23  13    2.18    7.64
   2  23  13    5.10   10.21
 -23  -3   0   26.81   29.98
 -23   3   0    1.75   13.64
 -23  -3  -1   -3.68   16.51
 -23   3   1   18.40   28.34
 -23   3  -1    9.58   21.09
 -23  -3   1  -10.26   23.53
 -23  -3  -2   10.28   17.83
 -23   3   2   27.48   23.50
 -23  -3  -3    6.71   16.13
 -23   3  -3  -15.35   27.99
 -23  -3  -4   -3.69   16.53
 -23   3  -4   11.51   26.95
 -23  -3  -5  -16.34   19.72
 -23   3  -5    6.99   30.01
 -23  -3  -6  -33.02   30.01
 -23   3  -6   24.52   25.35
  -3  23   6   48.61   25.51
 -23   3  -7   15.60   21.82
  -3  23   7  -47.10   25.82
 -23  -3  -7   -5.12   19.04
 -23   3  -8   17.35   15.35
  -3  23   8   25.63   16.75
 -23  -3  -8   30.70   24.09
 -23   3  -9  -15.25   13.59
  -3  23   9  -19.20   18.18
  -3  23  10   -1.47   10.91
   3  23  10    0.95   14.51
 -23  -3 -10   -2.71   12.37
 -23   3 -11    1.07    7.52
  -3  23  11  -24.26   14.21
   3  23  11   -9.26   20.27
 -23  -3 -11    4.13   13.66
  -3  23  12    5.49    7.38
   3  23  12   13.70   13.87
 -23  -3 -12    2.00    7.75
 -23   3 -12    4.68    7.08
  -3  23  13    8.36    8.29
   3  23  13  -13.82   14.84
 -23   4   0   21.38   31.22
 -23  -4   0   14.40   12.98
 -23   4   1   23.25   29.58
 -23   4  -1   11.72   26.61
 -23  -4   1   19.61   22.95
 -23  -4  -1   16.35   21.75
 -23   4   2    0.26   16.38
 -23   4  -2   39.23   33.28
 -23  -4  -2   10.29   21.49
 -23   4  -3   15.24   18.73
 -23  -4  -3  -16.23   18.88
 -23   4  -4   29.32   33.68
 -23  -4  -4   -2.93   20.06
 -23   4  -5   29.80   30.66
 -23  -4  -5    1.74   16.89
 -23   4  -6   26.93   28.03
 -23  -4  -6   -5.92   16.96
 -23   4  -7   15.21   27.96
  -4  23   7   82.97   26.99
 -23  -4  -7   37.86   26.18
 -23   4  -8    3.71   15.19
  -4  23   8   17.80   16.95
 -23  -4  -8   17.00   25.03
 -23   4  -9   95.89   36.04
  -4  23   9    4.20   13.10
 -23  -4  -9   58.16   27.50
 -23   4 -10    5.02   14.15
  -4  23  10   17.44   16.16
   4  23  10   -1.44   16.08
 -23  -4 -10   -1.80   14.63
 -23   4 -11   -5.74   15.09
  -4  23  11   19.72   17.11
   4  23  11   19.03   25.08
 -23  -4 -11   22.41   19.82
  -4  23  12    3.90    6.54
 -23  -4 -12    1.32    6.30
 -23   4 -12  -15.11    9.94
   4  23  13    2.71    8.96
 -23   5   0   25.37   36.86
 -23  -5   0   19.15   21.19
 -23   5   1   34.18   30.38
 -23   5  -1    0.44   18.10
 -23  -5   1   56.41   31.86
 -23  -5  -1    2.83   17.19
 -23   5   2   47.24   22.53
 -23   5  -2   26.86   25.52
 -23  -5  -2   28.96   29.62
 -23   5  -3   12.05   25.62
 -23  -5  -3    5.08   11.43
 -23   5  -4   23.71   21.03
 -23  -5  -4    1.07   14.85
 -23   5  -5   -1.15   19.29
 -23  -5  -5    0.04   10.01
 -23   5  -6   -3.24   14.30
 -23  -5  -6   12.91   18.86
 -23   5  -7   19.64   39.99
 -23  -5  -7   33.02   26.12
 -23   5  -8   18.66   23.02
  -5  23   8    6.55   11.95
 -23  -5  -8   34.81   27.69
 -23   5  -9   10.89   13.22
  -5  23   9   12.81   14.44
 -23  -5  -9   17.52   17.22
 -23   5 -10   52.41   25.90
  -5  23  10   24.79   17.69
   5  23  10   28.45   27.94
 -23  -5 -10   29.21   22.28
 -23   5 -11   -3.42    8.70
  -5  23  11   11.34   12.18
   5  23  11   31.44   22.86
 -23  -5 -11   10.87   10.01
  -5  23  12   14.07   11.21
   5  23  12   12.07   18.47
 -23  -5 -12   21.73   13.61
 -23   5 -12    8.57   13.82
   5  23  13  -16.30   13.49
 -23   6   0   33.30   31.01
 -23  -6   0   24.84   29.65
 -23   6   1   33.18   22.83
 -23   6  -1    8.79   21.17
 -23  -6   1   25.00   31.71
 -23  -6  -1   25.41   25.35
 -23   6   2   13.98   27.55
 -23   6  -2   -9.11   18.22
 -23  -6  -2    3.69   10.85
 -23   6  -3   -4.03   15.63
 -23  -6  -3    5.74   14.85
 -23   6  -4  -10.33   24.96
 -23  -6  -4   -3.53   11.29
 -23   6  -5    4.52   16.51
 -23  -6  -5   -8.88   21.93
 -23   6  -6    1.51   19.32
 -23  -6  -6   13.01   19.39
 -23   6  -7    3.34   12.41
 -23  -6  -7    3.65   16.16
 -23   6  -8    2.08   18.21
 -23  -6  -8    3.77   11.52
 -23   6  -9   26.05   27.93
 -23  -6  -9   13.50   14.83
 -23   6 -10   21.25   22.51
  -6  23  10   -8.07    8.90
 -23  -6 -10    0.37    8.89
 -23   6 -11   24.79   17.44
  -6  23  11    4.14   10.20
   6  23  11   24.24   23.60
 -23  -6 -11   10.03   10.65
   6  23  12   11.82   14.04
 -23  -6 -12  -14.10   10.40
 -23   7   0   24.48   19.79
 -23  -7   0   35.28   27.42
 -23   7   1   -8.40   22.07
 -23   7  -1   -9.60   21.58
 -23  -7   1    1.71   14.01
 -23  -7  -1    9.92   18.51
 -23   7   2  -10.19   21.62
 -23   7  -2    8.08   14.84
 -23  -7  -2  -11.41   18.18
 -23   7  -3   39.51   36.10
 -23  -7  -3    3.48   16.68
 -23   7  -4   21.95   21.18
 -23  -7  -4    9.45   10.84
 -23   7  -5   18.50   13.13
 -23  -7  -5   -1.39   12.22
 -23   7  -6   23.70   18.00
 -23  -7  -6    3.64   10.43
 -23   7  -7    7.41   20.59
 -23  -7  -7    3.52   11.30
 -23   7  -8    4.52   13.94
 -23  -7  -8    5.69   19.42
 -23   7  -9    6.15   13.42
 -23  -7  -9  -21.30   18.11
 -23   7 -10    8.57   14.03
 -23  -7 -10    5.18   11.44
 -23   7 -11   -9.09   11.47
   7  23  11   36.92   26.16
 -23  -7 -11   15.26   14.33
   7  23  12   11.60   18.53
 -23   8   0  -18.66   15.47
 -23  -8   0   -8.10    9.05
 -23   8   1  -20.11   20.64
 -23   8  -1    4.61   19.62
 -23  -8   1   -6.88   16.75
 -23  -8  -1   14.47   19.38
 -23   8   2   12.34   24.59
 -23   8  -2  -25.29   31.12
 -23  -8  -2   -3.53   13.40
 -23   8  -3  -37.49   31.94
 -23  -8  -3   14.15   16.35
 -23   8  -4   23.95   22.65
 -23  -8  -4    8.22   17.44
 -23   8  -5  -20.99   23.85
 -23  -8  -5   26.62   25.61
 -23   8  -6   34.66   20.38
 -23  -8  -6   11.90   17.77
 -23   8  -7   25.23   21.67
 -23  -8  -7   16.36   18.82
 -23   8  -8    5.09    8.98
 -23  -8  -8   14.03   12.92
 -23   8  -9   12.25   18.32
 -23  -8  -9    9.02   17.12
 -23   8 -10   16.63   15.41
 -23  -8 -10   13.39   15.18
 -23   8 -11    9.60   11.91
   8  23  11   10.68   18.45
 -23  -8 -11    3.68   11.99
   8  23  12   32.29   19.59
 -23   9   0  -14.32   26.20
 -23  -9   0   -1.16   14.76
 -23   9   1    1.45   12.80
 -23   9  -1   18.16   23.42
 -23  -9   1   -1.36   10.87
 -23  -9  -1   -1.20   14.60
 -23   9   2    4.26   15.33
 -23   9  -2  -22.49   22.64
 -23  -9  -2  -25.49   26.58
 -23   9  -3    0.04   13.05
 -23  -9  -3    8.17   17.66
 -23   9  -4  -19.45   29.00
 -23  -9  -4  -11.48   17.79
 -23   9  -5   59.88   34.80
 -23  -9  -5   23.35   25.25
 -23   9  -6   16.71   23.83
 -23  -9  -6    8.88   14.99
 -23   9  -7   17.40   22.30
 -23  -9  -7   -0.21   19.16
 -23   9  -8   39.37   25.20
 -23  -9  -8   -0.30   10.94
 -23   9  -9   19.37   19.90
 -23  -9  -9   -4.79   13.00
 -23   9 -10   -0.64    7.43
 -23  -9 -10    3.13    7.92
   9  23  11    9.39   15.24
 -23  -9 -11   -2.86    8.66
 -23  10   0   27.96   10.09
 -23 -10   0  -17.93   19.68
 -23  10   1  -19.73   23.83
 -23  10  -1  -35.04   30.12
 -23 -10   1   15.37   20.94
 -23 -10  -1    4.69   15.52
 -23  10   2  -12.58   12.26
 -23  10  -2  -18.42   18.66
 -23 -10  -2   21.79   23.65
 -23  10  -3    7.74   20.83
 -23 -10  -3  -33.33   25.63
 -23  10  -4    6.10   12.80
 -23 -10  -4    4.62   14.09
 -23  10  -5    4.39   19.45
 -23 -10  -5   -7.56   17.69
 -23  10  -6  -36.65   23.80
 -23 -10  -6    0.92   11.98
 -23  10  -7   22.03   23.76
 -23 -10  -7   -4.11   15.68
 -23  10  -8    9.92   19.25
 -23 -10  -8  -12.57   16.48
 -23  10  -9   -0.19    9.32
 -23 -10  -9   -3.33    8.49
 -23  10 -10   -0.54   11.68
  10  23  10    8.40   14.05
 -23 -10 -10    1.15   10.07
 -23  11   0   15.09   23.10
 -23 -11   0   -6.82   13.48
 -23  11   1   -6.72   18.23
 -23  11  -1   -6.68   24.30
 -23 -11   1   21.93   21.07
 -23 -11  -1  -22.22   23.90
 -23  11   2    8.38   16.76
 -23  11  -2   -3.01   21.13
 -23 -11  -2    3.60   16.86
 -23  11  -3    0.04   17.65
 -23 -11  -3   21.10   23.66
 -23  11  -4   63.19   41.04
 -23 -11  -4   -1.02   13.65
 -23  11  -5   26.90   25.36
 -23 -11  -5   -7.23    9.97
 -23  11  -6   -6.40   18.11
 -23 -11  -6   -9.80   20.57
 -23  11  -7    9.51   16.23
 -23 -11  -7    7.37   14.19
 -23  11  -8   23.45   20.48
 -23 -11  -8   26.00   18.29
 -23  11  -9   -6.36   14.06
 -23 -11  -9    0.46    9.48
  11  23  10   22.40   18.68
 -23 -11 -10    3.04    8.90
 -23  12   0   -2.18   11.77
 -23 -12   0   -0.66   12.76
 -23  12   1   -2.16   11.99
 -23  12  -1  -22.10   25.75
 -23 -12  -1   32.21   18.07
 -23  12   2  -10.90    8.44
 -23  12  -2  -10.10   19.30
 -23 -12  -2   12.65   15.41
 -23  12  -3  -20.51   26.07
 -23 -12  -3   -7.43   12.36
 -23  12  -4   12.43   21.51
 -23 -12  -4   -0.26   13.68
 -23  12  -5   -4.24   12.45
 -23 -12  -5   -9.44   20.73
 -23  12  -6   -9.36   14.47
 -23 -12  -6   -2.31   10.08
 -23  12  -7   13.34   19.56
 -23 -12  -7   14.20   13.16
 -23  12  -8    5.41   19.67
 -23 -12  -8   -9.43   13.99
 -23  12  -9   -3.07    8.46
 -23 -12  -9    4.01    7.16
 -23  13   0   30.11   17.14
 -23 -13   0    1.08    6.36
 -23  13   1    7.44   14.62
 -23  13  -1   -5.22   16.10
 -23 -13  -1   -1.13    8.34
 -23  13  -2   -7.47   15.03
 -23 -13  -2   -2.70    9.93
 -23  13  -3   12.44   12.42
 -23 -13  -3   13.29   13.56
 -23  13  -4   23.40   20.10
 -23 -13  -4   24.72   21.50
 -23  13  -5    6.20    8.20
 -23 -13  -5   14.54   16.81
 -23  13  -6   -8.74   20.36
 -23 -13  -6    5.00   12.99
 -23  13  -7  -12.94   16.81
 -23 -13  -7    0.48    7.74
 -23  13  -8   14.69   15.64
 -23 -13  -8    8.26   13.43
 -23  14   0   -1.01   10.30
 -23 -14   0   -8.21    9.86
 -23  14   1    6.57    8.13
 -23 -14  -1    2.22    6.68
 -23  14  -2  -13.75   16.01
 -23 -14  -2   -7.73   11.76
 -23  14  -3    3.97   12.98
 -23 -14  -3  -14.49    9.44
 -23  14  -4    8.18   13.57
 -23 -14  -4   22.68   16.44
 -23  14  -5   18.27   18.74
 -23 -14  -5   -4.84   11.11
 -23  14  -6    4.70   11.40
 -23 -14  -6   -1.80   11.13
 -23  14  -7   16.50   18.02
 -23 -14  -7   13.14   14.78
 -14  23  -7   11.77   12.08
 -23  15   0   -1.69    9.65
 -23  15   1   14.18   14.08
 -23  15  -1    0.63    7.29
 -23 -15  -1    0.13    5.77
 -23  15  -2   -0.47    9.20
 -23 -15  -2  -15.70   12.05
 -23  15  -3   -0.31    9.92
 -23 -15  -3   -5.99   13.14
 -23  15  -4  -41.96   17.87
 -23 -15  -4   -7.79    8.29
 -23  15  -5   30.26   22.38
 -23 -15  -5    1.20    8.27
 -23  15  -6    1.86    6.55
 -23 -15  -6   -3.84    9.03
 -15  23  -6   18.56   18.72
 -23  16  -1    4.32    6.09
 -23  16  -2   -5.45   10.79
 -23  16  -3   -6.15   12.84
 -23  16  -4    8.93   11.28
 -16  23  -4    3.29   10.99
 -24   0   0   25.14   27.80
 -24   0   1    9.80   28.27
 -24   0  -1   24.01   30.15
 -24   0  -2   36.05   32.49
 -24   0  -3   58.73   40.01
 -24   0  -4   10.27   13.40
 -24   0  -5  -19.86   29.05
 -24   0  -6   17.18   24.75
 -24   0  -7   32.27   19.58
   0  24   7   14.23   15.48
 -24   0  -8  -18.80   16.07
   0  24   8   21.73   20.67
   0  24   9  -15.17   16.08
 -24   0  -9    1.41   12.06
   0  24  10   14.39   17.58
 -24   0 -10   15.02   18.13
   0  24  11    5.53    8.87
 -24   0 -11    2.66    9.37
   0  24  12   13.10   11.60
 -24  -1   0   17.86   25.41
 -24   1   0   28.81   16.98
 -24  -1   1    7.86   19.67
 -24  -1  -1   66.40   36.82
 -24   1   1   21.53   19.61
 -24   1  -1   28.32   21.06
 -24  -1  -2   -4.96   11.33
 -24   1  -2   31.45   36.12
 -24  -1  -3    2.61   17.80
 -24   1  -3   20.90   24.32
 -24  -1  -4   -2.77   15.69
 -24   1  -4   10.02   21.58
 -24  -1  -5   -0.65   13.75
 -24   1  -5    1.70   14.86
 -24  -1  -6   15.80   24.20
 -24   1  -6  -10.09   13.31
  -1  24   6    3.73   12.94
 -24  -1  -7    5.57   16.16
 -24   1  -7   29.49   22.67
  -1  24   7   17.67   19.05
 -24  -1  -8   -7.23   18.10
 -24   1  -8   -8.14   12.11
  -1  24   8   13.14   16.35
   1  24   8  -10.91   21.27
 -24   1  -9  -14.86   15.54
  -1  24   9    8.09    9.35
   1  24   9   34.16   22.32
 -24  -1  -9   14.06   19.36
  -1  24  10   34.53   17.07
   1  24  10   28.76   20.83
 -24  -1 -10   -0.71    9.81
 -24   1 -10  -13.34   14.83
  -1  24  11   12.99    9.52
   1  24  11   25.19   20.42
 -24  -1 -11   14.14   13.40
 -24   1 -11   -2.68    6.76
  -1  24  12    2.08    5.78
   1  24  12    9.29   14.34
 -24   2   0   28.98   20.52
 -24  -2   0   24.17   29.67
 -24  -2  -1   28.39   21.20
 -24   2   1   69.63   39.40
 -24   2  -1   36.20   31.53
 -24  -2   1   -9.56   17.05
 -24  -2  -2   38.67   30.91
 -24   2  -2  -15.34   21.27
 -24  -2  -3   -2.02   19.22
 -24   2  -3   20.90   25.26
 -24  -2  -4   15.80   21.91
 -24   2  -4   52.08   37.45
 -24  -2  -5    6.69   15.31
 -24   2  -5   41.94   35.42
  -2  24   5  -31.63   14.34
 -24  -2  -6    1.04   31.23
 -24   2  -6   37.59   22.65
  -2  24   6   66.00   24.06
 -24   2  -7   13.84   15.10
  -2  24   7   -5.30   16.13
 -24  -2  -7  -29.71   27.43
 -24   2  -8   10.83   22.71
  -2  24   8    1.05   11.74
   2  24   8    2.23   10.78
 -24  -2  -8   -3.85   12.91
 -24   2  -9  -13.04    8.88
  -2  24   9    9.00    8.62
   2  24   9   -0.69   10.24
 -24  -2  -9    5.98    8.93
 -24   2 -10    4.01    7.63
  -2  24  10   13.78    9.03
   2  24  10   13.42   15.17
 -24  -2 -10    4.26    8.47
  -2  24  11    5.87    8.44
 -24  -2 -11    4.64    9.26
 -24   2 -11   -7.41    6.90
   2  24  12   14.26   12.08
 -24   3   0    4.76   20.31
 -24  -3   0   34.45   27.86
 -24   3   1   42.23   32.73
 -24   3  -1  -11.05   11.64
 -24  -3   1    2.75   10.84
 -24  -3  -1  -10.42   28.46
 -24   3  -2   11.76   19.66
 -24  -3  -2  -11.09   18.92
 -24   3  -3    0.74   18.75
 -24  -3  -3    9.74   18.67
 -24   3  -4  -23.50   24.87
 -24  -3  -4    3.47   16.85
 -24   3  -5   26.13   26.68
 -24  -3  -5   19.47   21.63
 -24   3  -6   39.07   31.90
 -24  -3  -6   19.68   16.81
 -24   3  -7   65.62   30.48
  -3  24   7   57.29   23.37
 -24  -3  -7   30.84   24.41
 -24   3  -8   -4.28   12.94
  -3  24   8  -12.40    8.40
 -24  -3  -8   15.30   19.80
 -24   3  -9   -6.42    7.76
  -3  24   9   -2.69   10.50
   3  24   9   -3.00   15.77
 -24  -3  -9   -0.32   13.67
 -24   3 -10  -14.14   11.95
  -3  24  10   20.39   12.26
   3  24  10    9.67   12.97
 -24  -3 -10    1.10    7.57
  -3  24  11    4.88    9.69
   3  24  11   10.81   16.56
 -24  -3 -11   -4.27    7.52
   3  24  12  -11.47    8.83
 -24   4   0    1.02   23.27
 -24  -4   0    1.23   12.91
 -24   4   1   22.52   25.61
 -24   4  -1   26.43   30.92
 -24  -4   1  -10.98   11.81
 -24  -4  -1    7.42   18.00
 -24   4  -2   26.91   29.45
 -24  -4  -2   -3.59   18.01
 -24   4  -3   -7.76   13.67
 -24  -4  -3  -11.20   21.57
 -24   4  -4   67.83   42.98
 -24  -4  -4   31.27   27.23
 -24   4  -5   63.58   40.56
 -24  -4  -5   51.03   31.38
 -24   4  -6   74.27   42.11
 -24  -4  -6   46.57   33.53
 -24   4  -7   72.31   30.35
 -24  -4  -7   16.28   23.28
 -24   4  -8   20.65   21.50
  -4  24   8   33.29   15.70
 -24  -4  -8   51.26   30.04
 -24   4  -9  -10.81   12.29
  -4  24   9    7.93   11.02
   4  24   9    9.85   16.11
 -24  -4  -9    5.24   12.88
 -24   4 -10    1.40   10.55
  -4  24  10    1.62    6.74
   4  24  10   -0.52    9.23
 -24  -4 -10    1.69    7.53
   4  24  11   21.21   16.60
 -24  -4 -11    9.01   10.88
 -24   4 -11  -15.48   12.41
   4  24  12   -8.25   10.23
 -24   5   0   57.34   41.32
 -24  -5   0   27.63   28.18
 -24   5   1   -2.54   17.44
 -24   5  -1    7.19   20.18
 -24  -5   1    6.26   13.53
 -24  -5  -1  -19.25   14.48
 -24   5  -2   14.34   27.35
 -24  -5  -2   31.77   28.05
 -24   5  -3   11.03   19.95
 -24  -5  -3   21.37   23.14
 -24   5  -4    1.29   19.27
 -24  -5  -4   44.09   33.74
 -24   5  -5   37.40   31.93
 -24  -5  -5   28.92   29.52
 -24   5  -6   37.28   29.73
 -24  -5  -6   68.70   43.30
 -24   5  -7   27.43   28.52
 -24  -5  -7   40.34   20.20
 -24   5  -8   11.14   14.27
 -24  -5  -8   -1.22   14.11
 -24   5  -9    7.74    9.39
 -24  -5  -9   -6.71    7.26
 -24   5 -10   33.87   19.17
   5  24  10    8.33   17.46
 -24  -5 -10   -9.69    7.38
 -24   5 -11    6.22   11.14
   5  24  11    9.90   14.39
 -24  -5 -11   -6.02   12.34
 -24   6   0   16.60   17.34
 -24  -6   0    1.97   13.46
 -24   6   1   19.79   26.53
 -24   6  -1   37.12   31.41
 -24  -6   1   19.51   20.50
 -24  -6  -1   29.35   21.84
 -24   6  -2   -3.97   21.57
 -24  -6  -2   10.66   15.15
 -24   6  -3   37.76   27.34
 -24  -6  -3   12.61   27.53
 -24   6  -4   14.28   22.28
 -24  -6  -4   -3.46   13.49
 -24   6  -5   45.39   32.21
 -24  -6  -5   49.43   29.44
 -24   6  -6   63.63   36.81
 -24  -6  -6   16.36   20.21
 -24   6  -7   11.49   20.52
 -24  -6  -7   33.46   22.47
 -24   6  -8   12.58   17.38
 -24  -6  -8    9.87   13.94
 -24   6  -9   23.53   20.13
 -24  -6  -9    8.74    7.85
 -24   6 -10    8.28   13.47
   6  24  10   12.87   17.56
 -24  -6 -10   10.92   13.61
 -24   6 -11    2.76    9.39
   6  24  11  -23.16   14.87
 -24  -6 -11   -3.08    8.22
 -24   7   0   18.84   31.33
 -24  -7   0    6.80   22.13
 -24   7   1    1.49    9.90
 -24   7  -1    4.82   23.94
 -24  -7   1    1.85    9.10
 -24  -7  -1   29.71   23.51
 -24   7  -2    8.99   25.70
 -24  -7  -2    2.22   10.89
 -24   7  -3   13.03   24.43
 -24  -7  -3  -12.91   20.22
 -24   7  -4    9.36   16.50
 -24  -7  -4   15.20   20.68
 -24   7  -5   16.48   25.37
 -24  -7  -5   12.12   17.39
 -24   7  -6   19.78   20.12
 -24  -7  -6   13.62   15.23
 -24   7  -7    0.06   12.43
 -24  -7  -7    8.92   14.02
 -24   7  -8    1.08   14.98
 -24  -7  -8   -1.89   11.68
 -24   7  -9   -3.16    8.90
 -24  -7  -9    6.13    8.40
 -24   7 -10   10.68   15.08
   7  24  10   19.90   16.03
 -24  -7 -10    7.57    9.45
   7  24  11   39.82   21.43
 -24   8   0   35.72   30.08
 -24  -8   0    8.46    9.40
 -24   8   1   42.04   30.04
 -24   8  -1   34.21   32.84
 -24  -8   1    8.98   16.91
 -24  -8  -1   24.55   23.35
 -24   8  -2   -0.44   15.40
 -24  -8  -2   -1.52   15.82
 -24   8  -3   13.37   23.40
 -24  -8  -3   10.09   18.04
 -24   8  -4  -11.03   16.36
 -24  -8  -4   11.55   16.61
 -24   8  -5  -12.32   13.18
 -24  -8  -5    2.33   13.27
 -24   8  -6    7.64   22.83
 -24  -8  -6   -0.83   19.19
 -24   8  -7    0.73   17.65
 -24  -8  -7   -2.66   14.71
 -24   8  -8    7.22   13.86
 -24  -8  -8   -2.33   10.01
 -24   8  -9   -0.18    8.68
 -24  -8  -9    0.65   14.37
 -24   8 -10   -8.16    7.12
   8  24  10   12.49   22.29
 -24  -8 -10   10.18   12.07
 -24   9   0   54.11   32.52
 -24  -9   0    7.08   14.31
 -24   9   1    4.64   16.52
 -24   9  -1   -7.63    9.83
 -24  -9  -1   -9.65   13.26
 -24   9  -2   12.53   23.17
 -24  -9  -2   19.31   27.24
 -24   9  -3   -3.10   14.09
 -24  -9  -3   -5.97   10.38
 -24   9  -4  -23.35   25.17
 -24  -9  -4  -17.19   20.77
 -24   9  -5   -0.90   11.86
 -24  -9  -5   -0.47   12.35
 -24   9  -6   -2.61   13.63
 -24  -9  -6    0.78   11.98
 -24   9  -7    8.89    9.44
 -24  -9  -7  -11.96   14.84
 -24   9  -8    6.23   10.54
 -24  -9  -8    6.65    7.52
 -24   9  -9   -7.72    9.31
 -24  -9  -9    0.64    6.35
   9  24  10   29.97   17.13
 -24  -9 -10   -4.38    9.36
 -24  10   0  -14.48   20.96
 -24 -10   0    2.26   11.45
 -24  10   1   -1.48   14.57
 -24  10  -1  -21.02   19.57
 -24 -10  -1   -6.21   13.99
 -24  10  -2   11.56   18.81
 -24 -10  -2    2.79   12.64
 -24  10  -3   15.25   23.68
 -24 -10  -3   -0.82   11.47
 -24  10  -4    4.67   10.64
 -24 -10  -4   14.44   15.62
 -24  10  -5   11.82   12.16
 -24 -10  -5    1.71   10.96
 -24  10  -6    4.07   13.78
 -24 -10  -6    8.37   12.15
 -24  10  -7    2.38   13.66
 -24 -10  -7  -10.11    7.97
 -24  10  -8   12.27   17.70
 -24 -10  -8    2.34    8.41
 -24  10  -9   -2.58   11.98
 -24 -10  -9   -6.97    9.53
 -24  11   0   -3.72   11.57
 -24 -11   0   24.71   16.32
 -24  11   1    8.69   12.15
 -24  11  -1  -15.03   18.09
 -24 -11  -1   23.60   22.20
 -24  11  -2   21.02   24.33
 -24 -11  -2  -23.56   16.21
 -24  11  -3    4.10   16.36
 -24 -11  -3    9.56   18.07
 -24  11  -4    3.65   12.20
 -24 -11  -4    1.37   10.95
 -24  11  -5   18.61   17.29
 -24 -11  -5   11.32   17.78
 -24  11  -6   20.57   19.25
 -24 -11  -6   -5.52   10.72
 -24  11  -7   30.97   22.95
 -24 -11  -7    0.02    8.20
 -24  11  -8    9.61   13.64
 -24 -11  -8   -9.27   12.20
 -24  12   0   10.57   15.55
 -24 -12   0   14.72   11.35
 -24  12   1   -3.86   12.61
 -24  12  -1    1.91   16.94
 -24 -12  -1   -1.92   11.21
 -24  12  -2   -0.93   12.98
 -24 -12  -2   11.23   14.93
 -24  12  -3   -6.32   16.18
 -24 -12  -3    2.79   17.72
 -24  12  -4   -2.12   14.61
 -24 -12  -4    0.71    9.65
 -24  12  -5    1.20   11.11
 -24 -12  -5    0.36   12.70
 -24  12  -6   14.43   20.94
 -24 -12  -6    4.69   13.42
 -24  12  -7    5.48   11.90
 -24 -12  -7  -12.08   13.46
 -24 -12  -8   -0.89    5.52
 -24  13   0    0.64    9.67
 -24  13   1  -10.53   10.63
 -24  13  -1  -20.37   18.46
 -24 -13  -1   21.15   16.85
 -24  13  -2   -3.28   12.00
 -24 -13  -2   13.12   16.74
 -24  13  -3  -14.72   16.56
 -24 -13  -3    8.31   12.63
 -24  13  -4   -6.34    7.85
 -24 -13  -4    6.88    6.38
 -24  13  -5   24.54   19.29
 -24 -13  -5   25.25   18.42
 -24  13  -6    4.85    6.89
 -24 -13  -6    4.96   10.86
 -24 -13  -7   22.82   15.66
 -24  14   0   -4.66   12.46
 -24  14  -1    6.57    6.82
 -24  14  -2   -1.06    6.51
 -24 -14  -2    5.74    8.94
 -24  14  -3   -4.92    6.53
 -24 -14  -3    0.53    9.33
 -24  14  -4   21.29   15.77
 -24 -14  -4    0.58    7.86
 -24  14  -5   17.26   15.37
 -24 -14  -5    1.45    7.84
 -25   0   0   67.26   30.71
 -25   0  -1   26.35   22.18
 -25   0   1   11.32   15.07
 -25   0  -2    3.47   15.18
 -25   0  -3   -3.85   15.48
 -25   0  -4   -0.56   12.09
 -25   0  -5    4.08   16.86
   0  25   5   30.37   16.43
 -25   0  -6    0.83   10.63
   0  25   6    5.64   13.41
 -25   0  -7   47.02   28.11
   0  25   7  -11.47   12.98
   0  25   8  -24.02   19.16
 -25   0  -8  -11.28   16.75
   0  25   9   43.29   21.41
 -25   0  -9   27.91   21.07
   0  25  10   18.73   15.07
 -25   0 -10    5.13    9.57
 -25   1   0   35.81   30.39
 -25  -1   0   52.99   36.81
 -25  -1  -1   35.41   25.72
 -25   1   1   16.72   23.35
 -25   1  -1   41.51   24.49
 -25  -1   1   35.87   23.98
 -25  -1  -2   29.95   17.06
 -25   1  -2   16.53   26.54
 -25  -1  -3   11.84   13.34
 -25   1  -3   -6.85   10.02
 -25  -1  -4   -8.93   22.33
 -25   1  -4   25.46   24.73
 -25  -1  -5   -5.83   12.65
 -25   1  -5   33.91   26.94
 -25   1  -6   23.83   13.82
  -1  25   6   65.48   23.44
   1  25   6   41.11   22.50
 -25  -1  -6   53.35   32.35
 -25   1  -7   -7.59   17.91
  -1  25   7    0.71    7.84
   1  25   7    0.83    8.34
 -25  -1  -7  -13.16   14.95
 -25   1  -8   -1.62   12.03
  -1  25   8   -1.18   11.43
   1  25   8  -14.64   15.22
 -25  -1  -8    7.87   13.87
  -1  25   9   14.62   13.30
   1  25   9   -6.07   12.41
 -25  -1  -9    2.85   10.17
 -25   1  -9    7.72    9.97
  -1  25  10   17.72   14.03
   1  25  10   13.93   15.50
 -25  -1 -10   38.38   18.72
 -25   1 -10   32.75   19.69
 -25   2   0   44.46   28.96
 -25  -2   0   18.23   17.59
 -25   2   1   26.49   21.86
 -25   2  -1   33.63   24.09
 -25  -2   1   14.97   20.15
 -25  -2  -1   10.24   16.48
 -25   2  -2    1.99   14.88
 -25  -2  -2   -3.74   10.34
 -25   2  -3    3.74   17.77
 -25  -2  -3   13.68   19.17
 -25   2  -4   30.00   28.36
 -25  -2  -4   35.42   25.16
 -25   2  -5   58.38   27.58
 -25  -2  -5   51.26   30.71
 -25   2  -6   13.19   16.31
 -25  -2  -6    5.08   14.03
 -25   2  -7   13.73   20.98
  -2  25   7   24.93   18.92
   2  25   7    3.98   11.08
 -25  -2  -7   63.64   30.07
 -25   2  -8   -1.32    7.84
  -2  25   8    1.28    6.85
   2  25   8    4.98   10.93
 -25  -2  -8    0.49   10.49
  -2  25   9   10.32   13.27
   2  25   9    4.31    8.97
 -25  -2  -9   -0.91    7.62
 -25   2  -9   -6.34    8.49
   2  25  10   28.35   17.06
 -25  -2 -10    4.28    9.29
 -25   2 -10   20.10   14.23
 -25   3   0   17.33   12.97
 -25  -3   0   58.37   28.75
 -25   3   1   -0.56   12.24
 -25   3  -1   21.39   23.17
 -25  -3   1   11.03   22.08
 -25  -3  -1   15.58   26.58
 -25   3  -2   -2.58   13.80
 -25  -3  -2   -0.58   15.47
 -25   3  -3   25.63   23.77
 -25  -3  -3   -2.09    9.67
 -25   3  -4   56.04   33.07
 -25  -3  -4   96.28   42.68
 -25   3  -5   99.86   34.88
 -25  -3  -5   67.93   36.10
 -25   3  -6   81.40   32.18
 -25  -3  -6   79.78   35.63
 -25   3  -7   55.20   26.63
 -25  -3  -7   28.30   24.58
 -25   3  -8   18.44   13.60
   3  25   8   -6.40   15.27
 -25  -3  -8   -1.37   13.66
 -25   3  -9   -6.93   13.80
   3  25   9   15.90   16.35
 -25  -3  -9   -6.62   16.06
 -25  -3 -10    1.04    5.88
 -25   3 -10    5.00    8.71
 -25   4   0   31.78   27.53
 -25  -4   0   38.45   29.47
 -25   4   1   -2.58   11.46
 -25   4  -1   17.38   20.70
 -25  -4  -1    4.38   18.20
 -25   4  -2   18.56   26.00
 -25  -4  -2   -5.13   13.85
 -25   4  -3  105.09   49.88
 -25  -4  -3   13.55   22.97
 -25   4  -4    7.31   17.14
 -25  -4  -4   30.29   25.60
 -25   4  -5   51.76   33.16
 -25  -4  -5   87.64   37.62
 -25   4  -6   48.90   28.11
 -25  -4  -6   48.90   30.75
 -25   4  -7   25.21   20.92
 -25  -4  -7   16.56   24.15
 -25   4  -8   -5.57   13.99
   4  25   8    3.57   17.78
 -25  -4  -8   23.49   16.64
 -25   4  -9    0.86    7.01
   4  25   9   13.88   14.75
 -25  -4  -9  -11.84   13.16
   4  25  10   -2.57   11.15
 -25  -4 -10   -1.79    7.83
 -25   4 -10   -4.05   10.28
 -25   5   0   11.46   22.58
 -25  -5   0   -2.18   13.54
 -25   5   1   13.44   24.93
 -25   5  -1   17.95   21.90
 -25  -5  -1   -4.01   14.25
 -25   5  -2  -12.88   13.00
 -25  -5  -2    4.99   13.45
 -25   5  -3   -8.05   20.37
 -25  -5  -3   39.73   29.43
 -25   5  -4   43.29   29.86
 -25  -5  -4   41.54   29.16
 -25   5  -5   78.80   34.47
 -25  -5  -5   90.38   31.81
 -25   5  -6   84.81   38.10
 -25  -5  -6   52.76   23.12
 -25   5  -7   44.08   26.25
 -25  -5  -7   23.90   22.23
 -25   5  -8   29.16   21.93
   5  25   8   11.16   19.38
 -25  -5  -8   23.74   16.51
 -25   5  -9    8.86   12.67
   5  25   9    7.02   16.85
 -25  -5  -9    6.30   13.24
   5  25  10    7.50   13.41
 -25  -5 -10   -7.11   12.58
 -25   5 -10    7.88   12.99
 -25   6   0   25.07   20.65
 -25  -6   0   14.86   16.86
 -25   6   1   20.53   21.98
 -25   6  -1   -0.39   12.49
 -25  -6  -1    0.44   10.48
 -25   6  -2   -7.01   20.46
 -25  -6  -2   20.78   18.79
 -25   6  -3   -0.30   13.57
 -25  -6  -3    1.52    8.80
 -25   6  -4   23.91   24.21
 -25  -6  -4   21.06   24.59
 -25   6  -5   36.06   25.07
 -25  -6  -5   37.16   25.10
 -25   6  -6   29.37   22.74
 -25  -6  -6   57.41   29.42
 -25   6  -7   22.25   20.76
 -25  -6  -7   25.21   19.60
 -25   6  -8   13.65   18.00
 -25  -6  -8    9.49    8.32
 -25   6  -9    9.99    9.60
   6  25   9    6.89    7.93
 -25  -6  -9   -9.19   10.52
   6  25  10  -20.23   15.51
 -25  -6 -10    6.11   11.80
 -25   7   0    5.17   14.11
 -25  -7   0   10.05   12.49
 -25   7   1   22.14   20.25
 -25   7  -1    4.30   10.06
 -25  -7  -1   -5.83    9.17
 -25   7  -2   30.13   25.65
 -25  -7  -2   -8.08    8.35
 -25   7  -3   27.14   25.02
 -25  -7  -3   -7.32   11.38
 -25   7  -4   -7.14   11.26
 -25  -7  -4   24.22   16.40
 -25   7  -5   25.64   28.94
 -25  -7  -5   41.10   24.37
 -25   7  -6   21.39   20.06
 -25  -7  -6    8.85   13.69
 -25   7  -7   -7.57   13.08
 -25  -7  -7    7.18   10.35
 -25   7  -8   -3.34   10.69
 -25  -7  -8    8.72    6.59
 -25   7  -9    0.35   12.02
   7  25   9   23.42   16.28
 -25  -7  -9   18.98   10.89
 -25   8   0   40.89   27.13
 -25  -8   0   -1.57    7.44
 -25   8   1   13.90   19.36
 -25   8  -1   26.02   23.57
 -25  -8  -1    9.83   12.25
 -25   8  -2   32.69   24.97
 -25  -8  -2   29.04   20.28
 -25   8  -3    8.70   15.72
 -25  -8  -3   -0.28   10.79
 -25   8  -4   -2.40   16.79
 -25  -8  -4    7.02   12.32
 -25   8  -5   -8.36   14.55
 -25  -8  -5   10.30   15.58
 -25   8  -6   15.14   15.92
 -25  -8  -6   12.72   16.90
 -25   8  -7  -25.01   17.78
 -25  -8  -7    9.90    8.62
 -25   8  -8    5.03    9.51
 -25  -8  -8   11.35    7.00
 -25   8  -9    2.57   10.22
   8  25   9    0.09   11.12
 -25  -8  -9    2.94    5.42
 -25   9   0   32.51   20.09
 -25  -9   0    8.88    7.22
 -25   9   1   -3.14    9.65
 -25   9  -1   27.49   25.23
 -25  -9  -1   28.15   19.74
 -25   9  -2    4.70   21.37
 -25  -9  -2  -10.46   20.03
 -25   9  -3    5.02   14.82
 -25  -9  -3    8.93   10.62
 -25   9  -4    0.60   14.53
 -25  -9  -4    1.14    9.84
 -25   9  -5   16.23   14.09
 -25  -9  -5  -13.15   18.95
 -25   9  -6  -11.58   17.29
 -25  -9  -6  -13.19   15.48
 -25   9  -7  -29.14   17.16
 -25  -9  -7  -16.28   12.88
 -25   9  -8   13.61   12.43
 -25  -9  -8   -6.83   11.33
 -25  10   0   28.15   17.15
 -25 -10   0   17.39   12.50
 -25  10  -1    7.94   18.11
 -25 -10  -1   20.05   23.30
 -25  10  -2    7.12   15.33
 -25 -10  -2    1.89   10.25
 -25  10  -3    1.58   12.45
 -25 -10  -3   -8.98   14.45
 -25  10  -4    3.75   12.06
 -25 -10  -4   -7.08   16.02
 -25  10  -5   12.33   16.65
 -25 -10  -5   -4.99   10.38
 -25  10  -6    3.73    7.74
 -25 -10  -6   -2.52   10.18
 -25  10  -7    5.44   10.43
 -25 -10  -7   23.93   14.76
 -25  11   0   29.10   16.40
 -25  11  -1    6.93   14.65
 -25 -11  -1    8.43   10.01
 -25  11  -2    5.94   18.30
 -25 -11  -2   16.46   13.75
 -25  11  -3   -1.28   10.58
 -25 -11  -3    6.15   13.92
 -25  11  -4    3.55   12.78
 -25 -11  -4    0.41    7.16
 -25  11  -5    3.87    9.37
 -25 -11  -5    1.72    8.48
 -25  11  -6   12.22   14.09
 -25 -11  -6   -8.30   11.45
 -25  12  -1   16.55   12.99
 -25  12  -2    3.22    6.61
 -25 -12  -2    7.02    8.58
 -25  12  -3    2.42    9.45
 -25 -12  -3    2.43    8.27
 -25  12  -4   10.46   11.45
 -25 -12  -4    7.00   10.28
 -25  12  -5    9.71   13.99
 -25 -12  -5   17.51   12.97
 -26   0   0  123.81   37.33
 -26   0  -1   38.38   23.59
 -26   0  -2   10.96   13.36
 -26   0  -3    4.73   10.44
 -26   0  -4    3.38    9.48
 -26   0  -5    8.60   13.74
   0  26   6   11.48    7.33
 -26   0  -6    5.57   12.99
   0  26   7   17.91   13.63
 -26   0  -7   -7.53    8.51
   0  26   8   -7.23    6.99
 -26   0  -8    5.44    7.51
 -26   0  -9   11.82   11.59
 -26  -1   0   53.23   28.88
 -26   1   0   45.00   28.74
 -26   1  -1   52.51   33.93
 -26  -1  -1   41.42   27.60
 -26   1  -2   22.35   18.71
 -26  -1  -2    1.64   11.65
 -26   1  -3   -6.22    9.68
 -26  -1  -3   -6.47   15.39
 -26   1  -4   -1.00   13.89
 -26  -1  -4  -13.81   18.70
 -26   1  -5   25.05   15.44
   1  26   5   23.30   15.90
 -26  -1  -5   73.81   32.30
 -26   1  -6   13.44    9.15
   1  26   6   19.33   16.25
 -26  -1  -6   17.24   17.81
   1  26   7   -7.95   12.11
 -26  -1  -7   33.62   20.82
 -26   1  -7  -16.45   18.57
   1  26   8   -8.15   10.88
 -26  -1  -8   12.94   10.04
 -26   1  -8   14.38   17.05
 -26  -1  -9   14.30   12.39
 -26   1  -9   15.81   15.78
 -26   2   0   55.74   27.84
 -26  -2   0   38.78   23.46
 -26   2  -1   25.57   19.73
 -26  -2  -1   38.03   26.24
 -26   2  -2   10.83   20.94
 -26  -2  -2   41.48   26.34
 -26   2  -3   19.80   22.44
 -26  -2  -3   15.83   21.89
 -26   2  -4   11.05   20.90
 -26  -2  -4   37.98   25.92
 -26   2  -5   41.69   23.76
   2  26   5   23.47   17.16
 -26  -2  -5   64.88   31.25
 -26   2  -6   17.01   15.96
   2  26   6   24.18   16.96
 -26  -2  -6   43.25   27.94
 -26   2  -7    2.40    7.57
   2  26   7   -8.71    9.72
 -26  -2  -7   12.75   15.29
   2  26   8    0.75    6.49
 -26  -2  -8   -5.95   14.42
 -26   2  -8  -16.74   13.87
 -26  -2  -9    0.30    7.64
 -26   2  -9   39.42   21.36
 -26   3   0   29.13   21.18
 -26  -3   0   36.41   24.35
 -26   3  -1    0.47   15.46
 -26  -3  -1   22.23   16.62
 -26   3  -2   15.65   14.82
 -26  -3  -2   11.67   16.05
 -26   3  -3    0.58   17.32
 -26  -3  -3   22.01   15.66
 -26   3  -4   71.61   39.97
 -26  -3  -4   72.07   29.33
 -26   3  -5   28.34   26.76
 -26  -3  -5   46.53   28.40
 -26   3  -6   47.41   29.35
   3  26   6   63.18   26.95
 -26  -3  -6   62.11   33.10
 -26   3  -7   11.38   12.24
   3  26   7    7.42   12.56
 -26  -3  -7   -1.01    8.11
   3  26   8   -5.62   13.93
 -26  -3  -8    5.52    7.05
 -26   3  -8   -6.23   12.52
 -26  -3  -9    2.28    5.69
 -26   3  -9    1.61    8.29
 -26   4   0  104.70   35.97
 -26  -4   0   19.00   15.93
 -26   4  -1    1.39   10.31
 -26  -4  -1   -9.34   14.03
 -26   4  -2  -18.30   21.72
 -26  -4  -2   -3.86   11.47
 -26   4  -3    9.55   12.06
 -26  -4  -3   -0.17   10.70
 -26   4  -4   48.22   29.08
 -26  -4  -4   29.77   28.27
 -26   4  -5   96.81   31.57
 -26  -4  -5   84.48   30.83
 -26   4  -6   53.19   27.75
 -26  -4  -6   30.83   21.66
 -26   4  -7   23.37   16.18
   4  26   7   30.19   25.34
 -26  -4  -7   14.10   15.48
 -26   4  -8   -0.22    8.06
   4  26   8  -14.97   13.53
 -26  -4  -8   -0.91   10.22
 -26  -4  -9   14.81   12.30
 -26   4  -9   -8.20    8.05
 -26   5   0    8.38   13.10
 -26  -5   0    9.63   10.18
 -26   5  -1   -0.31    8.00
 -26  -5  -1   28.01   20.18
 -26   5  -2    5.16   13.27
 -26  -5  -2   12.54   16.05
 -26   5  -3   14.54   20.90
 -26  -5  -3    9.90   12.72
 -26   5  -4   37.03   21.83
 -26  -5  -4   14.86   20.31
 -26   5  -5   12.55   19.14
 -26  -5  -5   43.92   20.74
 -26   5  -6   92.78   31.48
 -26  -5  -6   87.53   32.68
 -26   5  -7   15.76   11.39
   5  26   7    6.38   13.92
 -26  -5  -7   23.13   19.85
 -26   5  -8   -7.55   12.21
   5  26   8   11.58   12.20
 -26  -5  -8    6.19   11.79
 -26   6   0    4.00   13.86
 -26  -6   0   -1.22    8.01
 -26   6  -1   24.58   17.54
 -26  -6  -1    3.62    8.36
 -26   6  -2   18.44   18.79
 -26  -6  -2    8.73   13.51
 -26   6  -3   -0.84   13.82
 -26  -6  -3   15.02   14.83
 -26   6  -4    2.47   14.91
 -26  -6  -4    9.75   18.73
 -26   6  -5   62.21   32.30
 -26  -6  -5   41.78   23.69
 -26   6  -6   19.74   15.42
 -26  -6  -6   10.04   14.71
 -26   6  -7   26.23   15.40
   6  26   7   42.29   19.67
 -26  -6  -7   20.10   18.74
 -26   6  -8   -2.40    6.85
   6  26   8   -4.38    6.85
 -26  -6  -8   -3.34    6.44
 -26   7   0   31.96   18.88
 -26   7  -1    5.70   12.99
 -26  -7  -1   -8.25    7.67
 -26   7  -2   15.04   18.92
 -26  -7  -2  -12.45   10.75
 -26   7  -3    4.84   13.93
 -26  -7  -3   -0.45    8.13
 -26   7  -4   12.58   12.74
 -26  -7  -4   18.60   19.56
 -26   7  -5   32.81   23.00
 -26  -7  -5   10.12   17.24
 -26   7  -6   17.60   16.25
 -26  -7  -6   20.56   18.14
 -26   7  -7    7.55   12.33
 -26  -7  -7  -10.88   12.28
 -26   8   0   -1.14    9.08
 -26   8  -1   22.51   21.89
 -26  -8  -1   11.16    9.56
 -26   8  -2    9.73   13.44
 -26  -8  -2    2.44   12.26
 -26   8  -3   -1.35    9.55
 -26  -8  -3   16.15   15.32
 -26   8  -4   22.96   20.12
 -26  -8  -4   -7.45    8.58
 -26   8  -5   14.75   14.36
 -26  -8  -5    2.16    9.04
 -26   8  -6   -2.31    7.44
 -26  -8  -6    0.99    7.75
 -26   8  -7    6.26   11.03
 -26  -8  -7    5.53    9.97
 -26   9   0   15.96   11.70
 -26   9  -1   28.54   19.76
 -26  -9  -1   13.51   12.17
 -26   9  -2   13.20   14.44
 -26  -9  -2   18.39   15.50
 -26   9  -3   11.29   14.21
 -26  -9  -3  -11.31    6.89
 -26   9  -4   13.28   15.75
 -26  -9  -4   -5.50   12.57
 -26   9  -5    1.66    8.24
 -26  -9  -5   -0.26    8.28
 -26   9  -6    9.08   13.21
 -26  -9  -6   17.06   14.71
 -26  10  -2   11.12   13.63
 -26  10  -3    5.69   11.19
 -26 -10  -3   -3.10    6.25
 -26  10  -4   33.10   18.12
 -26 -10  -4   -6.85   12.79
 -26  10  -5   12.34   14.00
 -27   0  -1   50.85   25.69
 -27   0  -2   41.00   23.84
 -27   0  -3    4.12   12.17
 -27   0  -4   34.51   21.36
 -27   0  -5    3.77    7.29
 -27   0  -6    9.36   12.65
 -27   0  -7    6.87   10.84
 -27  -1  -1   32.45   18.77
 -27   1  -1   43.57   24.10
 -27  -1  -2    2.18   12.62
 -27   1  -2   10.35   14.43
 -27  -1  -3   22.44   19.26
 -27   1  -3  -10.41   14.06
 -27  -1  -4   -6.92    7.00
 -27   1  -4    5.56    9.99
 -27  -1  -5   20.16   14.84
 -27   1  -5    0.13   11.12
 -27  -1  -6   22.18   17.45
 -27   1  -6   25.56   15.26
 -27  -1  -7   -0.59    7.36
 -27   1  -7    5.43   11.25
 -27  -2  -1   14.82   12.91
 -27   2  -1   21.50   15.49
 -27  -2  -2  -17.80   16.00
 -27   2  -2    6.40    8.88
 -27  -2  -3    4.30   13.81
 -27   2  -3  -14.45   14.70
 -27  -2  -4   11.78   14.92
 -27   2  -4   14.17   14.96
 -27  -2  -5    6.65   11.16
 -27   2  -5    0.65   11.50
 -27  -2  -6    9.96   13.99
 -27   2  -6    0.38    7.88
 -27  -2  -7    4.96    8.85
 -27   2  -7   18.59   14.33
 -27  -3  -1   11.92   12.03
 -27   3  -1    7.35   13.10
 -27  -3  -2  -11.43    8.74
 -27   3  -2    7.68    9.27
 -27   3  -3    1.51   10.16
 -27  -3  -3   21.17   15.93
 -27   3  -4   19.36   17.21
 -27  -3  -4   15.88   11.90
 -27  -3  -5   25.82   18.25
 -27   3  -5   38.71   24.39
 -27  -3  -6   22.44   17.91
 -27   3  -6   -1.38    7.69
 -27  -3  -7    5.50    9.38
 -27   3  -7    0.45    6.30
 -27  -4  -1   30.55   18.48
 -27   4  -1   -4.99    8.98
 -27   4  -2   -5.50   12.20
 -27  -4  -2  -16.43   14.52
 -27   4  -3   14.73   15.68
 -27  -4  -3    4.15   11.54
 -27   4  -4   10.78   17.19
   4  27   4   22.52   11.31
 -27  -4  -4   30.25   19.49
 -27   4  -5   44.46   21.65
 -27  -4  -5   31.05   20.93
 -27  -4  -6   32.41   20.02
 -27   4  -6    7.89   14.31
 -27   5  -1    9.99    8.55
 -27  -5  -1   -9.17   12.59
 -27   5  -2    1.23    6.97
 -27  -5  -2    7.14   14.83
 -27   5  -3   -6.21    8.60
 -27  -5  -3   13.72    9.62
 -27   5  -4   -6.29    7.10
 -27  -5  -4   24.83   18.32
 -27   5  -5   45.27   23.36
 -27  -5  -5   39.85   24.02
 -27   5  -6    8.70   12.46
 -27  -5  -6   22.79   17.71
 -27   6  -1    4.83    9.75
 -27   6  -2   -5.24   13.41
 -27  -6  -2  -11.73   13.92
 -27   6  -3    7.81   13.65
 -27  -6  -3   24.79   13.12
 -27   6  -4    7.17   10.66
 -27  -6  -4    3.35    7.35
 -27   6  -5    6.62   13.38
 -27  -6  -5   17.55   11.65
 -27   7  -2    5.13    6.90
 -27   7  -3   -2.38    7.99
 -27   7  -4   -3.56    8.09


TITL exp_1518 in P4(2)/mmc
REM P4(2)/mmc (#131 in standard setting)
CELL 1.54184  23.046999  23.046999  18.698853  90.0000  90.0000  90.0000
ZERR   43.00   0.001157   0.001157   0.001502   0.0000   0.0000   0.0000
LATT  1
SYMM -x,-y, z
SYMM -y, x, z+1/2
SYMM  y,-x, z+1/2
SYMM -x, y,-z
SYMM  x,-y,-z
SYMM  y, x,-z+1/2
SYMM -y,-x,-z+1/2
SFAC C H N O
UNIT 473.00 430.00 43.00 43.00
TREF
HKLF 4
END
_computing_structure_solution     'SHELXT 2014/4 (Sheldrick, 2014)'
_computing_structure_solution     'SHELXT 2014/4 (Sheldrick, 2014)'
;
_shelx_hkl_checksum              90544
_shelx_fab_file
;
    0    0    2    131.43      0.00
    0    0    4    240.29      0.00
    0    0    6      7.94      0.00
    0    0    8     24.26      0.00
    0    1    2     45.58      0.00
    0    1    3     -0.81      0.00
    0    1    4    -12.49      0.00
    0    1    5     25.64      0.00
    0    1    6     41.59      0.00
    0    1    7    -10.96      0.00
    0    1    8     -8.26      0.00
    0    1    9     14.57      0.00
    0    1   10      2.89      0.00
    1    1    2    -19.61      0.00
    1    1    4      3.04      0.00
    1    1    6      2.68      0.00
    1    1    8      5.96      0.00
    1    1   10     -4.17      0.00
    1    1   14      4.90      0.00
    1    1   16     -0.42      0.00
    0    2    0     23.47      0.00
    0    2    1    -12.62      0.00
    0    2    2   -195.01      0.00
    0    2    3    -11.30      0.00
    0    2    4    -37.16      0.00
    0    2    5      7.79      0.00
    0    2    6    -36.60      0.00
    0    2    7      0.91      0.00
    0    2    8     -0.31      0.00
    0    2    9      2.73      0.00
    0    2   10      6.57      0.00
    0    2   11     -1.06      0.00
    0    2   14     -3.23      0.00
    0    2   15      0.47      0.00
    0    2   16     -0.89      0.00
    1    2    0     84.70      0.00
    1    2    1    -29.25      0.00
    1    2    2     46.46      0.00
    1    2    3     -6.80      0.00
    1    2    4    -16.71      0.00
    1    2    5      8.40      0.00
    1    2    6    -11.05      0.00
    1    2    7      8.88      0.00
    1    2    8      3.91      0.00
    1    2    9     -2.97      0.00
    1    2   10     -0.09      0.00
    1    2   11     -0.60      0.00
    1    2   12     -0.20      0.00
    1    2   14     -7.13      0.00
    1    2   15     -1.17      0.00
    1    2   16      3.31      0.00
    1    2   17      1.41      0.00
    1    2   18      8.30      0.00
    2    2    0   -253.00      0.00
    2    2    2    138.41      0.00
    2    2    4      4.70      0.00
    2    2    6     16.10      0.00
    2    2    8     -0.57      0.00
    2    2   10     -3.42      0.00
    2    2   12     -4.18      0.00
    2    2   14     -6.28      0.00
    2    2   16     -2.76      0.00
    2    2   18     -0.42      0.00
    0    3    0    278.13      0.00
    0    3    1      5.18      0.00
    0    3    2    -16.30      0.00
    0    3    3    -48.72      0.00
    0    3    4     -6.04      0.00
    0    3    5      5.09      0.00
    0    3    6    -10.42      0.00
    0    3    7     -2.33      0.00
    0    3    8    -12.96      0.00
    0    3    9      1.08      0.00
    0    3   10     13.52      0.00
    0    3   11     -2.88      0.00
    0    3   12    -23.77      0.00
    0    3   14      8.03      0.00
    0    3   15      1.69      0.00
    0    3   16     -2.92      0.00
    0    3   17      4.02      0.00
    0    3   18     -3.07      0.00
    1    3    0    100.44      0.00
    1    3    1     39.34      0.00
    1    3    2     13.73      0.00
    1    3    3    -14.21      0.00
    1    3    4     -2.03      0.00
    1    3    5      2.35      0.00
    1    3    6      2.26      0.00
    1    3    7      8.22      0.00
    1    3    8     -5.32      0.00
    1    3    9     -9.82      0.00
    1    3   10      0.72      0.00
    1    3   11      8.54      0.00
    1    3   12     -7.40      0.00
    1    3   13      0.43      0.00
    1    3   14     -8.04      0.00
    1    3   15      2.70      0.00
    1    3   16      0.46      0.00
    1    3   17      1.44      0.00
    1    3   18     -1.19      0.00
    1    3   19      4.73      0.00
    2    3    0    -60.73      0.00
    2    3    1    104.58      0.00
    2    3    2    -77.41      0.00
    2    3    3     12.58      0.00
    2    3    4     20.66      0.00
    2    3    5     -6.55      0.00
    2    3    6    -13.54      0.00
    2    3    7      6.40      0.00
    2    3    8      2.69      0.00
    2    3    9     -1.72      0.00
    2    3   10      4.50      0.00
    2    3   11      4.36      0.00
    2    3   12     -0.97      0.00
    2    3   13     -9.22      0.00
    2    3   14      0.47      0.00
    2    3   15     -1.80      0.00
    2    3   16     -8.22      0.00
    2    3   17      0.76      0.00
    2    3   18     -0.02      0.00
    2    3   19     -2.43      0.00
    3    3    0     -7.92      0.00
    3    3    2    -49.44      0.00
    3    3    4     -6.03      0.00
    3    3    6    -11.51      0.00
    3    3    8     -7.25      0.00
    3    3   10     23.20      0.00
    3    3   12     -5.59      0.00
    3    3   14     -0.41      0.00
    3    3   16     -1.74      0.00
    3    3   18     -8.95      0.00
    3    3   20     -0.59      0.00
    0    4    0    101.60      0.00
    0    4    1     44.69      0.00
    0    4    2    -24.38      0.00
    0    4    3    -20.81      0.00
    0    4    4     27.69      0.00
    0    4    5     30.05      0.00
    0    4    6      1.92      0.00
    0    4    7    -14.59      0.00
    0    4    8     -7.87      0.00
    0    4    9     14.26      0.00
    0    4   10    -11.99      0.00
    0    4   11    -11.75      0.00
    0    4   12     -1.17      0.00
    0    4   13     12.83      0.00
    0    4   14      8.55      0.00
    0    4   15      1.76      0.00
    0    4   16      0.20      0.00
    0    4   17     -1.40      0.00
    0    4   18      3.31      0.00
    0    4   19     12.85      0.00
    1    4    0    -35.96      0.00
    1    4    1    -47.00      0.00
    1    4    2      2.32      0.00
    1    4    3     14.73      0.00
    1    4    4    -11.18      0.00
    1    4    5     -1.45      0.00
    1    4    6      5.77      0.00
    1    4    7     -0.75      0.00
    1    4    8     -0.35      0.00
    1    4    9      4.86      0.00
    1    4   10     -1.65      0.00
    1    4   11     -0.22      0.00
    1    4   12      0.64      0.00
    1    4   13      3.91      0.00
    1    4   14      1.59      0.00
    1    4   15      1.58      0.00
    1    4   16      2.26      0.00
    1    4   17     -2.45      0.00
    1    4   18     -1.68      0.00
    1    4   19      4.80      0.00
    2    4    0    -84.83      0.00
    2    4    1    -74.27      0.00
    2    4    2     23.10      0.00
    2    4    3     -6.92      0.00
    2    4    4    -41.36      0.00
    2    4    5      8.12      0.00
    2    4    6      7.48      0.00
    2    4    7    -12.41      0.00
    2    4    8      6.73      0.00
    2    4    9      6.66      0.00
    2    4   10      3.84      0.00
    2    4   11     -0.67      0.00
    2    4   12     -1.25      0.00
    2    4   13     -2.66      0.00
    2    4   14      2.12      0.00
    2    4   15     -2.56      0.00
    2    4   16      0.40      0.00
    2    4   17     -0.01      0.00
    2    4   18     -2.90      0.00
    2    4   19      4.38      0.00
    2    4   20      1.69      0.00
    3    4    0    -47.54      0.00
    3    4    1     28.72      0.00
    3    4    2      1.07      0.00
    3    4    3    -14.40      0.00
    3    4    4     -1.63      0.00
    3    4    5      7.24      0.00
    3    4    6     10.87      0.00
    3    4    7    -17.80      0.00
    3    4    8      0.42      0.00
    3    4    9      9.79      0.00
    3    4   10     -0.18      0.00
    3    4   11     -3.03      0.00
    3    4   12     -2.80      0.00
    3    4   13     -2.54      0.00
    3    4   14     -0.34      0.00
    3    4   15      0.62      0.00
    3    4   16     -0.59      0.00
    3    4   17     -1.39      0.00
    3    4   18      2.12      0.00
    3    4   19     -1.91      0.00
    3    4   20      6.95      0.00
    4    4    0    -12.48      0.00
    4    4    2     20.45      0.00
    4    4    4      6.76      0.00
    4    4    6      8.62      0.00
    4    4    8     -3.71      0.00
    4    4   10      5.50      0.00
    4    4   12      0.89      0.00
    4    4   14      3.94      0.00
    4    4   16     -5.96      0.00
    4    4   18      5.74      0.00
    4    4   20      2.53      0.00
    0    5    0     89.98      0.00
    0    5    1     25.68      0.00
    0    5    2    -24.82      0.00
    0    5    3     24.45      0.00
    0    5    4     -3.09      0.00
    0    5    5     -2.82      0.00
    0    5    6      8.34      0.00
    0    5    7      5.88      0.00
    0    5    8      6.33      0.00
    0    5    9     -4.14      0.00
    0    5   10      3.10      0.00
    0    5   11     13.71      0.00
    0    5   12     -5.00      0.00
    0    5   13     -0.57      0.00
    0    5   14      4.40      0.00
    0    5   15     -5.55      0.00
    0    5   16      1.27      0.00
    0    5   17     -1.58      0.00
    0    5   18      7.72      0.00
    0    5   19      9.38      0.00
    0    5   20      7.33      0.00
    1    5    0     14.18      0.00
    1    5    1      2.61      0.00
    1    5    2     24.08      0.00
    1    5    3    -14.09      0.00
    1    5    4     -7.78      0.00
    1    5    5     -6.77      0.00
    1    5    6     -2.35      0.00
    1    5    7     13.12      0.00
    1    5    8      6.91      0.00
    1    5    9      0.64      0.00
    1    5   10     -1.78      0.00
    1    5   11     -0.06      0.00
    1    5   12      7.69      0.00
    1    5   13     -1.31      0.00
    1    5   14      3.70      0.00
    1    5   15     -5.18      0.00
    1    5   16      0.58      0.00
    1    5   17     -2.49      0.00
    1    5   18     12.56      0.00
    1    5   19      0.31      0.00
    1    5   20     -1.03      0.00
    2    5    0    -11.04      0.00
    2    5    1    -42.22      0.00
    2    5    2      5.83      0.00
    2    5    3      9.19      0.00
    2    5    4     27.54      0.00
    2    5    5     -3.54      0.00
    2    5    6    -15.96      0.00
    2    5    7      5.92      0.00
    2    5    8      7.77      0.00
    2    5    9      0.84      0.00
    2    5   10     -1.31      0.00
    2    5   11      5.53      0.00
    2    5   12      7.84      0.00
    2    5   13     -6.22      0.00
    2    5   14     -2.38      0.00
    2    5   15      1.26      0.00
    2    5   16     -2.71      0.00
    2    5   17      3.73      0.00
    2    5   18     -0.34      0.00
    2    5   19      0.52      0.00
    2    5   20    -10.38      0.00
    3    5    0    -49.48      0.00
    3    5    1    -13.70      0.00
    3    5    2    -17.18      0.00
    3    5    3      9.68      0.00
    3    5    4     19.90      0.00
    3    5    5      3.60      0.00
    3    5    6      0.80      0.00
    3    5    7     -4.69      0.00
    3    5    8     -0.71      0.00
    3    5    9      4.38      0.00
    3    5   10      1.88      0.00
    3    5   11      0.70      0.00
    3    5   12     -2.99      0.00
    3    5   13      2.48      0.00
    3    5   14      5.26      0.00
    3    5   15     -1.01      0.00
    3    5   16     -3.58      0.00
    3    5   17      0.19      0.00
    3    5   18     -0.07      0.00
    3    5   19     -8.87      0.00
    3    5   20      2.73      0.00
    3    5   21     -3.44      0.00
    4    5    0     12.30      0.00
    4    5    1     -8.49      0.00
    4    5    2     -2.93      0.00
    4    5    3     -4.85      0.00
    4    5    4    -11.33      0.00
    4    5    5    -10.68      0.00
    4    5    6     -2.60      0.00
    4    5    7     -0.14      0.00
    4    5    8      4.12      0.00
    4    5    9     -4.75      0.00
    4    5   10     -3.11      0.00
    4    5   11     -2.54      0.00
    4    5   12      0.70      0.00
    4    5   13      4.02      0.00
    4    5   14      5.96      0.00
    4    5   15     -2.77      0.00
    4    5   16     -2.60      0.00
    4    5   17     -8.78      0.00
    4    5   18      5.00      0.00
    4    5   19     -3.86      0.00
    4    5   20     -1.94      0.00
    4    5   21      3.80      0.00
    5    5    0      9.61      0.00
    5    5    2     30.98      0.00
    5    5    4      0.34      0.00
    5    5    6    -10.07      0.00
    5    5    8      7.09      0.00
    5    5   10     -5.44      0.00
    5    5   12     -2.80      0.00
    5    5   14      1.51      0.00
    5    5   16     -3.60      0.00
    5    5   18     -4.71      0.00
    5    5   20     -4.42      0.00
    0    6    0     61.12      0.00
    0    6    1      7.02      0.00
    0    6    2     14.09      0.00
    0    6    3    -15.66      0.00
    0    6    4      7.88      0.00
    0    6    5     11.62      0.00
    0    6    6     -3.21      0.00
    0    6    7     -1.62      0.00
    0    6    8      1.08      0.00
    0    6    9      5.06      0.00
    0    6   10      2.90      0.00
    0    6   11     -7.47      0.00
    0    6   12    -10.47      0.00
    0    6   13      6.94      0.00
    0    6   14      0.72      0.00
    0    6   15     -3.65      0.00
    0    6   16      1.19      0.00
    0    6   17     -1.23      0.00
    0    6   18     -4.60      0.00
    0    6   19      2.18      0.00
    0    6   20      1.62      0.00
    1    6    0     -5.93      0.00
    1    6    1     17.99      0.00
    1    6    2    -11.97      0.00
    1    6    3      9.65      0.00
    1    6    4     -1.52      0.00
    1    6    5    -25.44      0.00
    1    6    6     -0.59      0.00
    1    6    7      8.16      0.00
    1    6    8     -3.21      0.00
    1    6    9      0.17      0.00
    1    6   10     -2.86      0.00
    1    6   11     -9.80      0.00
    1    6   12      1.84      0.00
    1    6   13     -2.70      0.00
    1    6   14      5.11      0.00
    1    6   15     -0.89      0.00
    1    6   16     -1.19      0.00
    1    6   17     -3.78      0.00
    1    6   18      1.56      0.00
    1    6   19     -5.89      0.00
    1    6   20     -2.31      0.00
    1    6   21     -3.30      0.00
    2    6    0      8.87      0.00
    2    6    1      8.54      0.00
    2    6    2     -1.56      0.00
    2    6    3      4.66      0.00
    2    6    4     -5.63      0.00
    2    6    5      0.35      0.00
    2    6    6     -4.34      0.00
    2    6    7     -0.07      0.00
    2    6    8     -3.57      0.00
    2    6    9      3.90      0.00
    2    6   10      0.70      0.00
    2    6   11     -0.86      0.00
    2    6   12      1.62      0.00
    2    6   13     -1.67      0.00
    2    6   14     -2.75      0.00
    2    6   15     -0.75      0.00
    2    6   16      1.40      0.00
    2    6   17      0.36      0.00
    2    6   18    -11.41      0.00
    2    6   19     -8.07      0.00
    2    6   20      1.03      0.00
    2    6   21     13.67      0.00
    3    6    0      8.00      0.00
    3    6    1     12.10      0.00
    3    6    2     17.34      0.00
    3    6    3     -8.85      0.00
    3    6    4      0.78      0.00
    3    6    5     17.79      0.00
    3    6    6     11.21      0.00
    3    6    7     -1.21      0.00
    3    6    8     -4.06      0.00
    3    6    9      3.80      0.00
    3    6   10      5.85      0.00
    3    6   11     -2.53      0.00
    3    6   12     -2.43      0.00
    3    6   13     -1.61      0.00
    3    6   14      0.02      0.00
    3    6   15     -5.07      0.00
    3    6   16     -1.89      0.00
    3    6   17      6.03      0.00
    3    6   18     -2.83      0.00
    3    6   19      0.04      0.00
    3    6   20      2.47      0.00
    3    6   21     -0.40      0.00
    4    6    0      0.71      0.00
    4    6    1     -6.47      0.00
    4    6    2    -10.68      0.00
    4    6    3    -16.15      0.00
    4    6    4      3.88      0.00
    4    6    5      6.29      0.00
    4    6    6      3.73      0.00
    4    6    7      7.11      0.00
    4    6    8     -0.89      0.00
    4    6    9     -2.08      0.00
    4    6   10     -2.11      0.00
    4    6   11     -3.05      0.00
    4    6   12      0.15      0.00
    4    6   13      0.53      0.00
    4    6   14     -3.37      0.00
    4    6   15     -3.74      0.00
    4    6   16      2.98      0.00
    4    6   17      4.17      0.00
    4    6   18      4.42      0.00
    4    6   19     -8.55      0.00
    4    6   20      1.55      0.00
    4    6   21     -0.63      0.00
    5    6    0      2.14      0.00
    5    6    1     -0.97      0.00
    5    6    2    -11.29      0.00
    5    6    3      3.98      0.00
    5    6    4     -2.54      0.00
    5    6    5     -0.54      0.00
    5    6    6      1.57      0.00
    5    6    7     -0.42      0.00
    5    6    8      0.28      0.00
    5    6    9     -4.14      0.00
    5    6   10      4.81      0.00
    5    6   11      3.94      0.00
    5    6   12     -1.07      0.00
    5    6   13      1.61      0.00
    5    6   14      3.57      0.00
    5    6   15     -3.13      0.00
    5    6   16    -11.23      0.00
    5    6   17     -2.40      0.00
    5    6   18     -5.61      0.00
    5    6   19     -2.88      0.00
    5    6   20     -2.37      0.00
    5    6   21      2.01      0.00
    6    6    0     18.01      0.00
    6    6    2     -5.96      0.00
    6    6    4      1.44      0.00
    6    6    6     -6.65      0.00
    6    6    8     -2.35      0.00
    6    6   10     -2.44      0.00
    6    6   12      4.82      0.00
    6    6   14      0.18      0.00
    6    6   16     -0.58      0.00
    6    6   18    -11.87      0.00
    6    6   20      2.80      0.00
    0    7    0    -21.59      0.00
    0    7    1     33.53      0.00
    0    7    2     -1.87      0.00
    0    7    3     -6.94      0.00
    0    7    4    -10.91      0.00
    0    7    5     -4.31      0.00
    0    7    6      2.70      0.00
    0    7    7     17.85      0.00
    0    7    8     -6.91      0.00
    0    7    9     -2.13      0.00
    0    7   10     -2.99      0.00
    0    7   11     -3.47      0.00
    0    7   12      1.03      0.00
    0    7   13     -0.53      0.00
    0    7   14      1.69      0.00
    0    7   15      1.09      0.00
    0    7   16     -3.30      0.00
    0    7   17     -3.94      0.00
    0    7   18     -5.28      0.00
    0    7   19      4.15      0.00
    0    7   20      9.65      0.00
    1    7    0    -18.88      0.00
    1    7    1     13.23      0.00
    1    7    2     -0.94      0.00
    1    7    3     14.68      0.00
    1    7    4     -8.64      0.00
    1    7    5     -1.47      0.00
    1    7    6     -1.59      0.00
    1    7    7     -9.73      0.00
    1    7    8      6.43      0.00
    1    7    9      5.32      0.00
    1    7   10     -8.14      0.00
    1    7   11     -1.22      0.00
    1    7   12      9.94      0.00
    1    7   13     -0.22      0.00
    1    7   14     -2.57      0.00
    1    7   15      1.23      0.00
    1    7   16     -0.77      0.00
    1    7   17     -1.68      0.00
    1    7   18     -0.53      0.00
    1    7   19      6.94      0.00
    1    7   20      3.23      0.00
    1    7   21     -4.29      0.00
    2    7    0    -31.77      0.00
    2    7    1    -32.20      0.00
    2    7    2     19.57      0.00
    2    7    3      8.53      0.00
    2    7    4      4.10      0.00
    2    7    5     -1.35      0.00
    2    7    6     -6.77      0.00
    2    7    7     -6.62      0.00
    2    7    8      2.52      0.00
    2    7    9      0.63      0.00
    2    7   10     -1.51      0.00
    2    7   11      1.82      0.00
    2    7   12     -1.25      0.00
    2    7   13      3.18      0.00
    2    7   14     -6.80      0.00
    2    7   15      3.46      0.00
    2    7   16      2.16      0.00
    2    7   17      3.28      0.00
    2    7   18     -2.36      0.00
    2    7   19     -2.02      0.00
    2    7   20     -1.91      0.00
    2    7   21      5.98      0.00
    3    7    0      8.53      0.00
    3    7    1    -21.51      0.00
    3    7    2     -2.32      0.00
    3    7    3     -6.77      0.00
    3    7    4      9.45      0.00
    3    7    5     14.26      0.00
    3    7    6     11.24      0.00
    3    7    7    -12.22      0.00
    3    7    8      1.80      0.00
    3    7    9     -0.15      0.00
    3    7   10     -0.58      0.00
    3    7   11     -2.81      0.00
    3    7   12     -1.96      0.00
    3    7   13     -3.61      0.00
    3    7   14     -3.24      0.00
    3    7   15     -0.94      0.00
    3    7   16     -0.64      0.00
    3    7   17     -2.57      0.00
    3    7   18    -11.88      0.00
    3    7   19     -1.60      0.00
    3    7   20     -1.29      0.00
    3    7   21     -3.73      0.00
    4    7    0     -2.59      0.00
    4    7    1     11.95      0.00
    4    7    2      3.17      0.00
    4    7    3     -1.95      0.00
    4    7    4      3.44      0.00
    4    7    5      0.37      0.00
    4    7    6      0.06      0.00
    4    7    7      3.12      0.00
    4    7    8      1.72      0.00
    4    7    9      4.44      0.00
    4    7   10     -3.97      0.00
    4    7   11     -2.70      0.00
    4    7   12     -0.71      0.00
    4    7   13     -4.80      0.00
    4    7   14      1.95      0.00
    4    7   15      1.98      0.00
    4    7   16     -2.35      0.00
    4    7   17     -4.16      0.00
    4    7   18     -1.48      0.00
    4    7   19     -5.19      0.00
    4    7   20      0.92      0.00
    4    7   21      1.11      0.00
    5    7    0     -7.24      0.00
    5    7    1      1.62      0.00
    5    7    2     -6.72      0.00
    5    7    3     -0.55      0.00
    5    7    4    -15.63      0.00
    5    7    5      8.37      0.00
    5    7    6     -6.40      0.00
    5    7    7     -4.19      0.00
    5    7    8     -2.30      0.00
    5    7    9     -3.30      0.00
    5    7   10      5.25      0.00
    5    7   11      0.46      0.00
    5    7   12     -5.15      0.00
    5    7   13      0.62      0.00
    5    7   14     -2.31      0.00
    5    7   15      2.72      0.00
    5    7   16     -2.71      0.00
    5    7   17      9.99      0.00
    5    7   18     -2.72      0.00
    5    7   19      1.85      0.00
    5    7   20      4.72      0.00
    5    7   21     -0.85      0.00
    6    7    0     10.20      0.00
    6    7    1     -0.50      0.00
    6    7    2     -2.26      0.00
    6    7    3      4.90      0.00
    6    7    4     -9.39      0.00
    6    7    5      7.23      0.00
    6    7    6      0.48      0.00
    6    7    7     -4.43      0.00
    6    7    8     -2.38      0.00
    6    7    9     -1.84      0.00
    6    7   10     -5.19      0.00
    6    7   11     -0.24      0.00
    6    7   12     -0.62      0.00
    6    7   13     -2.44      0.00
    6    7   14      3.18      0.00
    6    7   15     -4.87      0.00
    6    7   16      4.40      0.00
    6    7   17     -2.11      0.00
    6    7   18     -5.82      0.00
    6    7   19     -3.30      0.00
    6    7   20     -2.16      0.00
    6    7   21      5.19      0.00
    7    7    0     11.72      0.00
    7    7    2      7.68      0.00
    7    7    4      2.53      0.00
    7    7    6     -2.63      0.00
    7    7    8     -0.33      0.00
    7    7   10     -0.19      0.00
    7    7   12     -3.63      0.00
    7    7   14     16.30      0.00
    7    7   16     -1.31      0.00
    7    7   18     -2.62      0.00
    7    7   20     -4.45      0.00
    0    8    0     -3.03      0.00
    0    8    1     13.96      0.00
    0    8    2     -7.51      0.00
    0    8    3      9.35      0.00
    0    8    4     -8.62      0.00
    0    8    5    -24.61      0.00
    0    8    6      9.79      0.00
    0    8    7      1.81      0.00
    0    8    8     -2.54      0.00
    0    8    9     -5.07      0.00
    0    8   10      5.76      0.00
    0    8   11      5.00      0.00
    0    8   12     -2.17      0.00
    0    8   13      4.75      0.00
    0    8   14      2.83      0.00
    0    8   15     -6.58      0.00
    0    8   16     -3.08      0.00
    0    8   17      0.20      0.00
    0    8   18      4.68      0.00
    0    8   19      4.48      0.00
    0    8   20     -3.84      0.00
    1    8    0     22.06      0.00
    1    8    1      0.25      0.00
    1    8    2      3.03      0.00
    1    8    3      1.05      0.00
    1    8    4      7.15      0.00
    1    8    5     -9.64      0.00
    1    8    6    -10.49      0.00
    1    8    7      2.20      0.00
    1    8    8     10.64      0.00
    1    8    9     -0.36      0.00
    1    8   10     -2.15      0.00
    1    8   11      7.55      0.00
    1    8   12     -0.54      0.00
    1    8   13      2.08      0.00
    1    8   14     -2.22      0.00
    1    8   15      2.22      0.00
    1    8   16     -1.87      0.00
    1    8   17     -0.33      0.00
    1    8   18      1.14      0.00
    1    8   19     -3.30      0.00
    1    8   20      0.06      0.00
    1    8   21      4.98      0.00
    2    8    0    -14.23      0.00
    2    8    1     -3.92      0.00
    2    8    2     -6.60      0.00
    2    8    3     -3.41      0.00
    2    8    4      0.62      0.00
    2    8    5     -2.51      0.00
    2    8    6      1.01      0.00
    2    8    7     -2.88      0.00
    2    8    8      0.59      0.00
    2    8    9     -0.42      0.00
    2    8   10     -0.18      0.00
    2    8   11     -0.66      0.00
    2    8   12     -0.13      0.00
    2    8   13      1.56      0.00
    2    8   14     -3.59      0.00
    2    8   15      3.52      0.00
    2    8   16     -5.24      0.00
    2    8   17      6.25      0.00
    2    8   18     -1.03      0.00
    2    8   19     -5.18      0.00
    2    8   20      3.02      0.00
    2    8   21      3.93      0.00
    3    8    0     16.70      0.00
    3    8    1    -21.57      0.00
    3    8    2    -10.97      0.00
    3    8    3     -0.64      0.00
    3    8    4      2.38      0.00
    3    8    5      2.48      0.00
    3    8    6     -0.90      0.00
    3    8    7      2.79      0.00
    3    8    8     -0.76      0.00
    3    8    9     -8.80      0.00
    3    8   10      3.76      0.00
    3    8   11      5.53      0.00
    3    8   12     -1.67      0.00
    3    8   13      0.42      0.00
    3    8   14     -2.34      0.00
    3    8   15     -1.73      0.00
    3    8   16     -3.76      0.00
    3    8   17      2.26      0.00
    3    8   18     -4.30      0.00
    3    8   19     -1.71      0.00
    3    8   20     -2.61      0.00
    3    8   21      0.52      0.00
    4    8    0     10.71      0.00
    4    8    1      1.43      0.00
    4    8    2      8.27      0.00
    4    8    3     12.22      0.00
    4    8    4     -2.60      0.00
    4    8    5      4.82      0.00
    4    8    6      3.69      0.00
    4    8    7     -1.68      0.00
    4    8    8      5.75      0.00
    4    8    9      1.91      0.00
    4    8   10      1.67      0.00
    4    8   11      1.76      0.00
    4    8   12      2.15      0.00
    4    8   13      4.02      0.00
    4    8   14      3.07      0.00
    4    8   15     -9.35      0.00
    4    8   16     -2.88      0.00
    4    8   17     -2.52      0.00
    4    8   18      5.18      0.00
    4    8   19     -3.86      0.00
    4    8   20     -6.88      0.00
    4    8   21      1.94      0.00
    5    8    0     11.92      0.00
    5    8    1     -4.55      0.00
    5    8    2     -5.74      0.00
    5    8    3      2.03      0.00
    5    8    4      2.81      0.00
    5    8    5     -5.43      0.00
    5    8    6      0.68      0.00
    5    8    7      6.30      0.00
    5    8    8     -1.19      0.00
    5    8    9     -6.11      0.00
    5    8   10     -0.39      0.00
    5    8   11      4.10      0.00
    5    8   12     -4.04      0.00
    5    8   13      7.17      0.00
    5    8   14      1.19      0.00
    5    8   15      4.51      0.00
    5    8   16     -4.28      0.00
    5    8   17      1.32      0.00
    5    8   18      3.46      0.00
    5    8   19     -2.09      0.00
    5    8   20     -0.15      0.00
    5    8   21     -2.82      0.00
    6    8    0      6.84      0.00
    6    8    1     -7.95      0.00
    6    8    2      5.19      0.00
    6    8    3      6.35      0.00
    6    8    4     -0.98      0.00
    6    8    5     -3.11      0.00
    6    8    6     -3.88      0.00
    6    8    7     -1.57      0.00
    6    8    8      4.07      0.00
    6    8    9      0.29      0.00
    6    8   10      1.74      0.00
    6    8   11      0.56      0.00
    6    8   12      0.06      0.00
    6    8   13     -0.31      0.00
    6    8   14      6.56      0.00
    6    8   15     -1.38      0.00
    6    8   16     -2.99      0.00
    6    8   17      1.83      0.00
    6    8   18     -3.24      0.00
    6    8   19     -5.57      0.00
    6    8   20     -0.80      0.00
    6    8   21      3.31      0.00
    7    8    0      8.58      0.00
    7    8    1      1.43      0.00
    7    8    2     -4.83      0.00
    7    8    3      3.23      0.00
    7    8    4     -0.93      0.00
    7    8    5     -3.23      0.00
    7    8    6      3.19      0.00
    7    8    7      6.40      0.00
    7    8    8     -0.60      0.00
    7    8    9     -0.91      0.00
    7    8   10      6.26      0.00
    7    8   11     -3.86      0.00
    7    8   12      4.76      0.00
    7    8   13     -4.16      0.00
    7    8   14     -3.98      0.00
    7    8   15     -4.27      0.00
    7    8   16      4.79      0.00
    7    8   17     -7.34      0.00
    7    8   18     -0.48      0.00
    7    8   19     -0.26      0.00
    7    8   20     -1.47      0.00
    7    8   21     -0.62      0.00
    8    8    0     -1.94      0.00
    8    8    2     -8.73      0.00
    8    8    4     -6.57      0.00
    8    8    6     -0.05      0.00
    8    8    8      0.60      0.00
    8    8   10     -0.74      0.00
    8    8   12     -3.71      0.00
    8    8   14     -5.78      0.00
    8    8   16      7.48      0.00
    8    8   18     -1.83      0.00
    8    8   20     -8.39      0.00
    0    9    0    -22.24      0.00
    0    9    1     -2.75      0.00
    0    9    2     -0.95      0.00
    0    9    3    -25.34      0.00
    0    9    4    -14.15      0.00
    0    9    5    -17.26      0.00
    0    9    6     10.51      0.00
    0    9    7    -10.13      0.00
    0    9    8      4.75      0.00
    0    9    9      0.82      0.00
    0    9   10     -2.79      0.00
    0    9   11      0.60      0.00
    0    9   12      6.05      0.00
    0    9   13      1.01      0.00
    0    9   14     -0.68      0.00
    0    9   15     -1.09      0.00
    0    9   16      0.28      0.00
    0    9   17     -0.85      0.00
    0    9   18     -3.08      0.00
    0    9   19     -1.15      0.00
    0    9   20      9.84      0.00
    1    9    0    -15.32      0.00
    1    9    1     -2.84      0.00
    1    9    2     11.07      0.00
    1    9    3     -2.77      0.00
    1    9    4      3.14      0.00
    1    9    5     -1.99      0.00
    1    9    6      0.99      0.00
    1    9    7     -0.32      0.00
    1    9    8     -3.22      0.00
    1    9    9      3.94      0.00
    1    9   10     -0.04      0.00
    1    9   11     -4.35      0.00
    1    9   12     -7.15      0.00
    1    9   13      7.66      0.00
    1    9   14     -2.28      0.00
    1    9   15     -1.82      0.00
    1    9   16     -0.98      0.00
    1    9   17      2.33      0.00
    1    9   18     -2.08      0.00
    1    9   19     -4.71      0.00
    1    9   20      4.20      0.00
    2    9    0      0.90      0.00
    2    9    1      3.49      0.00
    2    9    2     11.63      0.00
    2    9    3      5.15      0.00
    2    9    4     -0.82      0.00
    2    9    5      9.78      0.00
    2    9    6      8.12      0.00
    2    9    7     -8.06      0.00
    2    9    8      0.44      0.00
    2    9    9     -1.34      0.00
    2    9   10     -0.01      0.00
    2    9   11     -2.54      0.00
    2    9   12      0.68      0.00
    2    9   13      3.23      0.00
    2    9   14     -5.64      0.00
    2    9   15      2.43      0.00
    2    9   16      2.24      0.00
    2    9   17      5.69      0.00
    2    9   18      0.16      0.00
    2    9   19     -8.08      0.00
    2    9   20      3.78      0.00
    2    9   21     -2.56      0.00
    3    9    0     19.43      0.00
    3    9    1     -1.21      0.00
    3    9    2     -6.63      0.00
    3    9    3    -10.31      0.00
    3    9    4     -8.80      0.00
    3    9    5      4.04      0.00
    3    9    6      1.82      0.00
    3    9    7     -5.28      0.00
    3    9    8     -0.65      0.00
    3    9    9      1.65      0.00
    3    9   10     -2.88      0.00
    3    9   11      2.44      0.00
    3    9   12      2.67      0.00
    3    9   13      7.02      0.00
    3    9   14     -3.51      0.00
    3    9   15      2.05      0.00
    3    9   16      9.37      0.00
    3    9   17      6.82      0.00
    3    9   18     -1.73      0.00
    3    9   19     -2.50      0.00
    3    9   20      5.40      0.00
    3    9   21      2.48      0.00
    4    9    0     14.33      0.00
    4    9    1     -0.88      0.00
    4    9    2      1.21      0.00
    4    9    3     -7.68      0.00
    4    9    4      2.10      0.00
    4    9    5      9.46      0.00
    4    9    6     -2.79      0.00
    4    9    7     -1.48      0.00
    4    9    8      2.25      0.00
    4    9    9      1.90      0.00
    4    9   10     -1.13      0.00
    4    9   11      0.36      0.00
    4    9   12      2.90      0.00
    4    9   13      2.26      0.00
    4    9   14      2.74      0.00
    4    9   15     -0.12      0.00
    4    9   16     -1.00      0.00
    4    9   17      2.91      0.00
    4    9   18      0.52      0.00
    4    9   19     -1.25      0.00
    4    9   20     10.20      0.00
    4    9   21     -2.09      0.00
    5    9    0     -3.54      0.00
    5    9    1      7.87      0.00
    5    9    2     -5.69      0.00
    5    9    3     -0.43      0.00
    5    9    4     -1.13      0.00
    5    9    5      3.25      0.00
    5    9    6      3.42      0.00
    5    9    7      3.62      0.00
    5    9    8      0.70      0.00
    5    9    9      0.34      0.00
    5    9   10      4.13      0.00
    5    9   11     -0.27      0.00
    5    9   12      5.57      0.00
    5    9   13      0.37      0.00
    5    9   14     -5.58      0.00
    5    9   15     -1.96      0.00
    5    9   16      2.24      0.00
    5    9   17      2.27      0.00
    5    9   18     -1.72      0.00
    5    9   19    -11.63      0.00
    5    9   20     -0.17      0.00
    5    9   21      5.87      0.00
    6    9    0    -10.87      0.00
    6    9    1     -1.94      0.00
    6    9    2     -9.15      0.00
    6    9    3     -7.62      0.00
    6    9    4     -5.58      0.00
    6    9    5     -3.70      0.00
    6    9    6     -5.07      0.00
    6    9    7      1.89      0.00
    6    9    8      7.37      0.00
    6    9    9     -2.10      0.00
    6    9   10     -3.87      0.00
    6    9   11     -2.87      0.00
    6    9   12      2.75      0.00
    6    9   13      2.17      0.00
    6    9   14     -0.25      0.00
    6    9   15     -5.52      0.00
    6    9   16     -0.64      0.00
    6    9   17      5.34      0.00
    6    9   18      0.19      0.00
    6    9   19     -5.23      0.00
    6    9   20     -1.33      0.00
    6    9   21      2.23      0.00
    7    9    0      2.99      0.00
    7    9    1     -6.20      0.00
    7    9    2      3.80      0.00
    7    9    3     -1.02      0.00
    7    9    4     -1.57      0.00
    7    9    5     -0.86      0.00
    7    9    6     -0.35      0.00
    7    9    7     -6.12      0.00
    7    9    8      5.66      0.00
    7    9    9     -3.89      0.00
    7    9   10     -8.62      0.00
    7    9   11     -0.17      0.00
    7    9   12     -1.73      0.00
    7    9   13     -5.21      0.00
    7    9   14     -0.99      0.00
    7    9   15      4.55      0.00
    7    9   16      0.23      0.00
    7    9   17      2.06      0.00
    7    9   18      0.45      0.00
    7    9   19     -3.97      0.00
    7    9   20     -0.46      0.00
    7    9   21      6.02      0.00
    8    9    0     -0.61      0.00
    8    9    1      1.87      0.00
    8    9    2      2.08      0.00
    8    9    3     -3.91      0.00
    8    9    4      7.80      0.00
    8    9    5     -6.35      0.00
    8    9    6      1.84      0.00
    8    9    7      5.05      0.00
    8    9    8     -1.55      0.00
    8    9    9     -3.89      0.00
    8    9   10     -6.29      0.00
    8    9   11      0.24      0.00
    8    9   12      2.66      0.00
    8    9   13      3.99      0.00
    8    9   14     -2.41      0.00
    8    9   15      3.12      0.00
    8    9   16      4.01      0.00
    8    9   17      2.46      0.00
    8    9   18      4.76      0.00
    8    9   19      3.51      0.00
    8    9   20      0.97      0.00
    9    9    0    -19.09      0.00
    9    9    2      5.19      0.00
    9    9    4     -4.74      0.00
    9    9    6      2.02      0.00
    9    9    8      0.78      0.00
    9    9   10      3.29      0.00
    9    9   12     14.11      0.00
    9    9   14      3.82      0.00
    9    9   16      4.33      0.00
    9    9   18     13.38      0.00
    9    9   20     -1.76      0.00
    0   10    0     10.60      0.00
    0   10    1     -9.50      0.00
    0   10    2     -7.53      0.00
    0   10    3     -7.27      0.00
    0   10    4     10.72      0.00
    0   10    5    -36.25      0.00
    0   10    6     -4.79      0.00
    0   10    7      6.64      0.00
    0   10    8      5.58      0.00
    0   10    9     -2.84      0.00
    0   10   10      3.45      0.00
    0   10   11      2.56      0.00
    0   10   12      6.47      0.00
    0   10   13      2.00      0.00
    0   10   14      5.17      0.00
    0   10   15      8.63      0.00
    0   10   16      4.36      0.00
    0   10   17      0.67      0.00
    0   10   18     17.11      0.00
    0   10   19      1.50      0.00
    0   10   20      1.99      0.00
    1   10    0    -13.23      0.00
    1   10    1      2.90      0.00
    1   10    2      2.01      0.00
    1   10    3     -4.86      0.00
    1   10    4     -2.28      0.00
    1   10    5     -4.28      0.00
    1   10    6      0.60      0.00
    1   10    7      3.84      0.00
    1   10    8     -3.17      0.00
    1   10    9     -1.02      0.00
    1   10   10      1.05      0.00
    1   10   11      1.90      0.00
    1   10   12     -1.62      0.00
    1   10   13      0.44      0.00
    1   10   14      0.77      0.00
    1   10   15      2.63      0.00
    1   10   16      3.50      0.00
    1   10   17     -1.03      0.00
    1   10   18      0.90      0.00
    1   10   19     -0.08      0.00
    1   10   20      7.09      0.00
    2   10    0      4.35      0.00
    2   10    1      4.40      0.00
    2   10    2     -3.98      0.00
    2   10    3     15.74      0.00
    2   10    4      8.08      0.00
    2   10    5      8.44      0.00
    2   10    6     -3.35      0.00
    2   10    7      4.37      0.00
    2   10    8      2.02      0.00
    2   10    9      1.15      0.00
    2   10   10     -1.75      0.00
    2   10   11     -1.86      0.00
    2   10   12     -4.66      0.00
    2   10   13     -1.59      0.00
    2   10   14     -3.85      0.00
    2   10   15      3.82      0.00
    2   10   16     -4.77      0.00
    2   10   17      0.15      0.00
    2   10   18     -8.02      0.00
    2   10   19     -6.75      0.00
    2   10   20      1.85      0.00
    3   10    0     -2.11      0.00
    3   10    1      3.02      0.00
    3   10    2     -4.96      0.00
    3   10    3      6.86      0.00
    3   10    4      2.26      0.00
    3   10    5      3.52      0.00
    3   10    6      0.29      0.00
    3   10    7      6.41      0.00
    3   10    8      0.43      0.00
    3   10    9     -3.54      0.00
    3   10   10     -0.57      0.00
    3   10   11      0.18      0.00
    3   10   12     -2.30      0.00
    3   10   13     -4.80      0.00
    3   10   14     -5.22      0.00
    3   10   15      5.91      0.00
    3   10   16      5.55      0.00
    3   10   17      4.82      0.00
    3   10   18      2.83      0.00
    3   10   19     -0.30      0.00
    3   10   20     -6.10      0.00
    3   10   21     -3.59      0.00
    4   10    0      8.23      0.00
    4   10    1      1.58      0.00
    4   10    2    -12.46      0.00
    4   10    3     -4.93      0.00
    4   10    4      1.20      0.00
    4   10    5      1.66      0.00
    4   10    6     -0.02      0.00
    4   10    7      3.06      0.00
    4   10    8     -2.50      0.00
    4   10    9     -2.13      0.00
    4   10   10     -1.14      0.00
    4   10   11     -5.00      0.00
    4   10   12     -5.10      0.00
    4   10   13     -1.66      0.00
    4   10   14     -2.60      0.00
    4   10   15      5.18      0.00
    4   10   16      6.43      0.00
    4   10   17      4.65      0.00
    4   10   18      6.71      0.00
    4   10   19      4.69      0.00
    4   10   20      7.24      0.00
    4   10   21     -8.15      0.00
    5   10    0      4.34      0.00
    5   10    1      7.52      0.00
    5   10    2      8.39      0.00
    5   10    3      2.94      0.00
    5   10    4      2.22      0.00
    5   10    5      1.73      0.00
    5   10    6     -0.74      0.00
    5   10    7     -2.38      0.00
    5   10    8     -0.93      0.00
    5   10    9      3.47      0.00
    5   10   10      1.45      0.00
    5   10   11     -4.54      0.00
    5   10   12      5.19      0.00
    5   10   13     -3.09      0.00
    5   10   14      1.32      0.00
    5   10   15     -1.98      0.00
    5   10   16     -0.56      0.00
    5   10   17      7.23      0.00
    5   10   18     -0.11      0.00
    5   10   19     -2.71      0.00
    5   10   20      5.50      0.00
    5   10   21     -2.70      0.00
    6   10    0     -7.39      0.00
    6   10    1      7.10      0.00
    6   10    2      1.31      0.00
    6   10    3     -1.69      0.00
    6   10    4      1.04      0.00
    6   10    5     -0.45      0.00
    6   10    6     -3.10      0.00
    6   10    7     -0.33      0.00
    6   10    8     -2.49      0.00
    6   10    9     -1.08      0.00
    6   10   10     -0.19      0.00
    6   10   11      5.41      0.00
    6   10   12      3.86      0.00
    6   10   13      4.26      0.00
    6   10   14      5.58      0.00
    6   10   15      2.55      0.00
    6   10   16     -0.10      0.00
    6   10   17      2.33      0.00
    6   10   18      0.01      0.00
    6   10   19     -0.09      0.00
    6   10   20     -0.19      0.00
    6   10   21      2.29      0.00
    7   10    0     -1.79      0.00
    7   10    1     -3.75      0.00
    7   10    2     -1.79      0.00
    7   10    3     -8.01      0.00
    7   10    4     -3.41      0.00
    7   10    5     -1.46      0.00
    7   10    6    -11.42      0.00
    7   10    7     -2.11      0.00
    7   10    8      0.95      0.00
    7   10    9     -0.56      0.00
    7   10   10      1.67      0.00
    7   10   11      0.47      0.00
    7   10   12      5.69      0.00
    7   10   13      8.44      0.00
    7   10   14      0.31      0.00
    7   10   15      4.28      0.00
    7   10   16      1.60      0.00
    7   10   17      0.82      0.00
    7   10   18     -2.99      0.00
    7   10   19     -2.25      0.00
    7   10   20     -4.28      0.00
    8   10    0    -12.69      0.00
    8   10    1      6.23      0.00
    8   10    2      1.24      0.00
    8   10    3     -3.59      0.00
    8   10    4     -1.60      0.00
    8   10    5     -8.38      0.00
    8   10    6      4.30      0.00
    8   10    7     -5.40      0.00
    8   10    8      2.12      0.00
    8   10    9      3.29      0.00
    8   10   10     -1.00      0.00
    8   10   11      3.51      0.00
    8   10   12      8.16      0.00
    8   10   13      0.92      0.00
    8   10   14     -5.00      0.00
    8   10   15     -5.75      0.00
    8   10   16      2.96      0.00
    8   10   17     -0.22      0.00
    8   10   18      0.96      0.00
    8   10   19     -4.18      0.00
    8   10   20      0.13      0.00
    9   10    0     -6.29      0.00
    9   10    1      0.32      0.00
    9   10    2     -0.67      0.00
    9   10    3     -5.43      0.00
    9   10    4      7.48      0.00
    9   10    5     -2.05      0.00
    9   10    6     -2.15      0.00
    9   10    7     -1.16      0.00
    9   10    8      7.35      0.00
    9   10    9     -1.17      0.00
    9   10   10     -6.00      0.00
    9   10   11     -0.31      0.00
    9   10   12      6.23      0.00
    9   10   13      0.16      0.00
    9   10   14      1.28      0.00
    9   10   15     -3.06      0.00
    9   10   16     -3.69      0.00
    9   10   17      2.31      0.00
    9   10   18      7.02      0.00
    9   10   19      1.67      0.00
    9   10   20     -0.10      0.00
   10   10    0     -2.68      0.00
   10   10    2     -1.75      0.00
   10   10    4     -5.43      0.00
   10   10    6     -3.82      0.00
   10   10    8      1.42      0.00
   10   10   10     -6.66      0.00
   10   10   12      7.09      0.00
   10   10   14     -0.35      0.00
   10   10   16    -10.62      0.00
   10   10   18      0.42      0.00
   10   10   20      2.56      0.00
    0   11    0     -2.71      0.00
    0   11    1      3.12      0.00
    0   11    2     11.52      0.00
    0   11    3      3.10      0.00
    0   11    4      5.86      0.00
    0   11    5     -6.14      0.00
    0   11    6     10.45      0.00
    0   11    7      1.61      0.00
    0   11    8     -1.73      0.00
    0   11    9     -0.65      0.00
    0   11   10     -1.76      0.00
    0   11   11     -1.28      0.00
    0   11   12     -3.00      0.00
    0   11   13     -1.72      0.00
    0   11   14     -5.00      0.00
    0   11   15     -5.99      0.00
    0   11   16      5.13      0.00
    0   11   17     -5.61      0.00
    0   11   18      0.39      0.00
    0   11   19     -0.12      0.00
    0   11   20     -1.66      0.00
    1   11    0     -1.95      0.00
    1   11    1     -7.84      0.00
    1   11    2     -7.23      0.00
    1   11    3     -4.28      0.00
    1   11    4     -0.43      0.00
    1   11    5    -11.06      0.00
    1   11    6     -0.59      0.00
    1   11    7      5.72      0.00
    1   11    8     -1.40      0.00
    1   11    9      3.12      0.00
    1   11   10      3.69      0.00
    1   11   11     -5.40      0.00
    1   11   12     -1.83      0.00
    1   11   13      2.31      0.00
    1   11   14      3.03      0.00
    1   11   15      0.37      0.00
    1   11   16     -4.30      0.00
    1   11   17     -0.75      0.00
    1   11   18     11.71      0.00
    1   11   19     -5.87      0.00
    1   11   20     -1.54      0.00
    2   11    0     -6.85      0.00
    2   11    1      0.59      0.00
    2   11    2    -10.97      0.00
    2   11    3      0.51      0.00
    2   11    4    -13.28      0.00
    2   11    5      3.14      0.00
    2   11    6     -3.34      0.00
    2   11    7      6.85      0.00
    2   11    8     -9.68      0.00
    2   11    9      0.83      0.00
    2   11   10      8.70      0.00
    2   11   11      0.68      0.00
    2   11   12     -1.24      0.00
    2   11   13     -0.54      0.00
    2   11   14     -3.05      0.00
    2   11   15      6.50      0.00
    2   11   16     -2.20      0.00
    2   11   17      1.76      0.00
    2   11   18      1.32      0.00
    2   11   19      1.55      0.00
    2   11   20     -2.08      0.00
    3   11    0      4.80      0.00
    3   11    1      4.53      0.00
    3   11    2     -2.27      0.00
    3   11    3      6.39      0.00
    3   11    4      3.68      0.00
    3   11    5      2.46      0.00
    3   11    6     -1.12      0.00
    3   11    7      5.76      0.00
    3   11    8     -8.24      0.00
    3   11    9      2.28      0.00
    3   11   10     -1.10      0.00
    3   11   11     -0.56      0.00
    3   11   12      3.94      0.00
    3   11   13     -2.01      0.00
    3   11   14      0.88      0.00
    3   11   15     -2.47      0.00
    3   11   16     -3.96      0.00
    3   11   17     -3.42      0.00
    3   11   18      0.31      0.00
    3   11   19      4.56      0.00
    3   11   20     -6.97      0.00
    4   11    0     -5.54      0.00
    4   11    1     -0.71      0.00
    4   11    2    -11.46      0.00
    4   11    3      8.02      0.00
    4   11    4     -9.53      0.00
    4   11    5      0.59      0.00
    4   11    6     -0.36      0.00
    4   11    7     -0.84      0.00
    4   11    8     -5.80      0.00
    4   11    9     -1.56      0.00
    4   11   10      8.86      0.00
    4   11   11     -3.29      0.00
    4   11   12      0.85      0.00
    4   11   13      0.57      0.00
    4   11   14      2.33      0.00
    4   11   15      0.24      0.00
    4   11   16      0.47      0.00
    4   11   17     -6.67      0.00
    4   11   18      1.01      0.00
    4   11   19      6.22      0.00
    4   11   20     -1.62      0.00
    5   11    0     -0.10      0.00
    5   11    1     -3.49      0.00
    5   11    2      4.18      0.00
    5   11    3     -1.57      0.00
    5   11    4     -2.27      0.00
    5   11    5     -2.99      0.00
    5   11    6      5.05      0.00
    5   11    7     -1.27      0.00
    5   11    8     -6.90      0.00
    5   11    9      1.00      0.00
    5   11   10      5.96      0.00
    5   11   11      1.82      0.00
    5   11   12      2.12      0.00
    5   11   13     -4.78      0.00
    5   11   14     -0.78      0.00
    5   11   15     -0.04      0.00
    5   11   16     -6.07      0.00
    5   11   17      4.52      0.00
    5   11   18      5.85      0.00
    5   11   19     -0.39      0.00
    5   11   20     -4.40      0.00
    6   11    0      4.28      0.00
    6   11    1      2.50      0.00
    6   11    2      6.44      0.00
    6   11    3    -12.12      0.00
    6   11    4      7.99      0.00
    6   11    5     -3.62      0.00
    6   11    6     -1.09      0.00
    6   11    7      7.27      0.00
    6   11    8      0.82      0.00
    6   11    9      3.51      0.00
    6   11   10     -0.76      0.00
    6   11   11      5.56      0.00
    6   11   12     -2.57      0.00
    6   11   13      3.40      0.00
    6   11   14     -3.93      0.00
    6   11   15      0.76      0.00
    6   11   16     -2.49      0.00
    6   11   17      1.04      0.00
    6   11   18      4.45      0.00
    6   11   19      1.51      0.00
    6   11   20     -6.72      0.00
    7   11    0      1.99      0.00
    7   11    1      2.25      0.00
    7   11    2      3.31      0.00
    7   11    3     -3.86      0.00
    7   11    4     -5.65      0.00
    7   11    5     -3.18      0.00
    7   11    6     -1.33      0.00
    7   11    7      0.17      0.00
    7   11    8      0.86      0.00
    7   11    9      0.78      0.00
    7   11   10      3.06      0.00
    7   11   11      2.09      0.00
    7   11   12      3.95      0.00
    7   11   13     -1.39      0.00
    7   11   14      0.18      0.00
    7   11   15      2.60      0.00
    7   11   16      2.65      0.00
    7   11   17      3.27      0.00
    7   11   18      3.99      0.00
    7   11   19      2.26      0.00
    7   11   20      2.06      0.00
    8   11    0      4.53      0.00
    8   11    1      7.27      0.00
    8   11    2     -0.69      0.00
    8   11    3      2.22      0.00
    8   11    4     -0.73      0.00
    8   11    5      4.97      0.00
    8   11    6     -0.73      0.00
    8   11    7     -0.55      0.00
    8   11    8     -6.22      0.00
    8   11    9     -4.41      0.00
    8   11   10      2.00      0.00
    8   11   11      6.73      0.00
    8   11   12      5.40      0.00
    8   11   13     -8.86      0.00
    8   11   14     -1.39      0.00
    8   11   15     -1.73      0.00
    8   11   16     10.21      0.00
    8   11   17     -3.11      0.00
    8   11   18      3.24      0.00
    8   11   19      5.23      0.00
    8   11   20     -4.09      0.00
    9   11    0     -6.38      0.00
    9   11    1      1.63      0.00
    9   11    2     -3.09      0.00
    9   11    3     -0.18      0.00
    9   11    4     -0.23      0.00
    9   11    5     -1.26      0.00
    9   11    6      4.78      0.00
    9   11    7      3.10      0.00
    9   11    8     -2.30      0.00
    9   11    9      1.50      0.00
    9   11   10     -2.54      0.00
    9   11   11      3.57      0.00
    9   11   12      3.15      0.00
    9   11   13      1.24      0.00
    9   11   14     -0.34      0.00
    9   11   15      3.69      0.00
    9   11   16     -4.46      0.00
    9   11   17     -3.66      0.00
    9   11   18      4.89      0.00
    9   11   19      5.22      0.00
    9   11   20      1.38      0.00
   10   11    0     -6.22      0.00
   10   11    1     -4.28      0.00
   10   11    2     -1.47      0.00
   10   11    3     -1.23      0.00
   10   11    4     -1.26      0.00
   10   11    5      6.32      0.00
   10   11    6     -0.52      0.00
   10   11    7     -0.97      0.00
   10   11    8      4.92      0.00
   10   11    9     -0.72      0.00
   10   11   10     -2.29      0.00
   10   11   11      1.36      0.00
   10   11   12     11.64      0.00
   10   11   13     -0.54      0.00
   10   11   14      4.17      0.00
   10   11   15      6.82      0.00
   10   11   16     -3.15      0.00
   10   11   17      7.02      0.00
   10   11   18     -2.41      0.00
   10   11   19     -1.03      0.00
   11   11    0     10.39      0.00
   11   11    2     -6.68      0.00
   11   11    4     12.63      0.00
   11   11    6      2.54      0.00
   11   11    8      2.60      0.00
   11   11   10     -4.53      0.00
   11   11   12     -6.06      0.00
   11   11   14     10.23      0.00
   11   11   16      3.46      0.00
   11   11   18     -3.50      0.00
    0   12    0      5.36      0.00
    0   12    1      5.02      0.00
    0   12    2      2.86      0.00
    0   12    3     -5.14      0.00
    0   12    4      5.02      0.00
    0   12    5      8.86      0.00
    0   12    6      0.01      0.00
    0   12    7     -0.53      0.00
    0   12    8     -2.42      0.00
    0   12    9     -1.14      0.00
    0   12   10     -9.98      0.00
    0   12   11      5.64      0.00
    0   12   12      6.88      0.00
    0   12   13     -5.86      0.00
    0   12   14      2.33      0.00
    0   12   15     -0.96      0.00
    0   12   16     -4.55      0.00
    0   12   17     -6.00      0.00
    0   12   18      7.08      0.00
    0   12   19      3.69      0.00
    0   12   20    -11.79      0.00
    1   12    0     -4.32      0.00
    1   12    1     -2.03      0.00
    1   12    2      0.47      0.00
    1   12    3      1.76      0.00
    1   12    4     -1.35      0.00
    1   12    5      0.36      0.00
    1   12    6     -1.65      0.00
    1   12    7     -4.34      0.00
    1   12    8     -5.51      0.00
    1   12    9      3.91      0.00
    1   12   10      3.15      0.00
    1   12   11     -4.92      0.00
    1   12   12      2.22      0.00
    1   12   13      4.01      0.00
    1   12   14     -4.98      0.00
    1   12   15     -2.23      0.00
    1   12   16      0.37      0.00
    1   12   17     -3.96      0.00
    1   12   18     -3.56      0.00
    1   12   19     -1.81      0.00
    1   12   20      7.26      0.00
    2   12    0      1.70      0.00
    2   12    1     -4.91      0.00
    2   12    2     -0.23      0.00
    2   12    3     -1.26      0.00
    2   12    4     -5.56      0.00
    2   12    5     -2.99      0.00
    2   12    6      0.46      0.00
    2   12    7      1.22      0.00
    2   12    8     -3.15      0.00
    2   12    9     -3.87      0.00
    2   12   10      2.10      0.00
    2   12   11      0.85      0.00
    2   12   12      0.14      0.00
    2   12   13     -1.62      0.00
    2   12   14     -0.11      0.00
    2   12   15     -0.91      0.00
    2   12   16      0.08      0.00
    2   12   17     -4.42      0.00
    2   12   18     -1.21      0.00
    2   12   19      2.56      0.00
    2   12   20     -4.82      0.00
    3   12    0      6.88      0.00
    3   12    1      7.92      0.00
    3   12    2      2.24      0.00
    3   12    3     -2.55      0.00
    3   12    4     -2.62      0.00
    3   12    5     -0.29      0.00
    3   12    6      1.18      0.00
    3   12    7     -1.43      0.00
    3   12    8      5.04      0.00
    3   12    9      3.27      0.00
    3   12   10     -9.66      0.00
    3   12   11     -0.89      0.00
    3   12   12      2.64      0.00
    3   12   13     -1.33      0.00
    3   12   14     -1.92      0.00
    3   12   15     -0.77      0.00
    3   12   16      3.50      0.00
    3   12   17     -4.66      0.00
    3   12   18      3.97      0.00
    3   12   19      0.57      0.00
    3   12   20     -5.37      0.00
    4   12    0     15.60      0.00
    4   12    1     -0.02      0.00
    4   12    2     -0.89      0.00
    4   12    3     -3.16      0.00
    4   12    4     -2.27      0.00
    4   12    5     -1.45      0.00
    4   12    6     -3.62      0.00
    4   12    7      2.86      0.00
    4   12    8     -2.27      0.00
    4   12    9      7.14      0.00
    4   12   10      4.35      0.00
    4   12   11     -1.74      0.00
    4   12   12      0.63      0.00
    4   12   13     -8.94      0.00
    4   12   14     -2.84      0.00
    4   12   15      4.97      0.00
    4   12   16     -1.44      0.00
    4   12   17      2.34      0.00
    4   12   18      0.00      0.00
    4   12   19      4.98      0.00
    4   12   20      6.88      0.00
    5   12    0     -1.12      0.00
    5   12    1      1.89      0.00
    5   12    2     -5.86      0.00
    5   12    3     -2.49      0.00
    5   12    4     -1.45      0.00
    5   12    5      1.60      0.00
    5   12    6     -1.93      0.00
    5   12    7      0.77      0.00
    5   12    8      2.34      0.00
    5   12    9      1.13      0.00
    5   12   10      0.32      0.00
    5   12   11      0.31      0.00
    5   12   12      0.59      0.00
    5   12   13     -2.90      0.00
    5   12   14     -1.21      0.00
    5   12   15     -3.57      0.00
    5   12   16     -1.20      0.00
    5   12   17      3.13      0.00
    5   12   18     -0.78      0.00
    5   12   19     11.91      0.00
    5   12   20      7.28      0.00
    6   12    0      0.94      0.00
    6   12    1     -3.22      0.00
    6   12    2      6.00      0.00
    6   12    3     -0.71      0.00
    6   12    4      4.05      0.00
    6   12    5     -0.67      0.00
    6   12    6     -0.15      0.00
    6   12    7     -1.52      0.00
    6   12    8     -2.74      0.00
    6   12    9      2.64      0.00
    6   12   10      0.91      0.00
    6   12   11      0.49      0.00
    6   12   12      2.98      0.00
    6   12   13     -1.52      0.00
    6   12   14     -2.20      0.00
    6   12   15     -4.22      0.00
    6   12   16     -3.58      0.00
    6   12   17     -4.17      0.00
    6   12   18      1.90      0.00
    6   12   19     -4.60      0.00
    6   12   20     -3.49      0.00
    7   12    0      1.66      0.00
    7   12    1     -1.94      0.00
    7   12    2      1.50      0.00
    7   12    3     -7.65      0.00
    7   12    4     -0.86      0.00
    7   12    5     -0.55      0.00
    7   12    6     -1.60      0.00
    7   12    7     -3.23      0.00
    7   12    8      3.06      0.00
    7   12    9     -2.29      0.00
    7   12   10      3.45      0.00
    7   12   11      5.86      0.00
    7   12   12     -2.98      0.00
    7   12   13     -7.39      0.00
    7   12   14      4.60      0.00
    7   12   15      0.42      0.00
    7   12   16     -1.83      0.00
    7   12   17     -6.82      0.00
    7   12   18     -2.17      0.00
    7   12   19     -3.62      0.00
    7   12   20      1.05      0.00
    8   12    0     -4.11      0.00
    8   12    1     -6.00      0.00
    8   12    2      4.35      0.00
    8   12    3    -10.64      0.00
    8   12    4     -3.90      0.00
    8   12    5      0.86      0.00
    8   12    6      1.46      0.00
    8   12    7     -0.75      0.00
    8   12    8     -4.68      0.00
    8   12    9      1.79      0.00
    8   12   10     -7.40      0.00
    8   12   11      1.61      0.00
    8   12   12     -5.39      0.00
    8   12   13      0.05      0.00
    8   12   14     -6.99      0.00
    8   12   15     -2.00      0.00
    8   12   16      6.38      0.00
    8   12   17      3.07      0.00
    8   12   18      5.98      0.00
    8   12   19     -3.35      0.00
    8   12   20      1.28      0.00
    9   12    0     -1.26      0.00
    9   12    1      0.01      0.00
    9   12    2     -4.60      0.00
    9   12    3      3.46      0.00
    9   12    4     -4.81      0.00
    9   12    5      1.53      0.00
    9   12    6     -0.97      0.00
    9   12    7      2.84      0.00
    9   12    8     -7.09      0.00
    9   12    9     -5.82      0.00
    9   12   10     -0.98      0.00
    9   12   11      3.47      0.00
    9   12   12     -5.58      0.00
    9   12   13     -8.73      0.00
    9   12   14     -0.02      0.00
    9   12   15      5.33      0.00
    9   12   16     -3.37      0.00
    9   12   17      7.75      0.00
    9   12   18      4.51      0.00
    9   12   19     -0.59      0.00
   10   12    0      7.05      0.00
   10   12    1      0.60      0.00
   10   12    2     -0.65      0.00
   10   12    3     -5.99      0.00
   10   12    4      4.51      0.00
   10   12    5      2.71      0.00
   10   12    6      2.15      0.00
   10   12    7     -4.30      0.00
   10   12    8      0.56      0.00
   10   12    9     -0.45      0.00
   10   12   10     -1.44      0.00
   10   12   11     -2.65      0.00
   10   12   12      4.22      0.00
   10   12   13     -8.46      0.00
   10   12   14      9.25      0.00
   10   12   15      6.07      0.00
   10   12   16     -0.41      0.00
   10   12   17      1.20      0.00
   10   12   18      2.66      0.00
   10   12   19      0.69      0.00
   11   12    0      1.05      0.00
   11   12    1      1.16      0.00
   11   12    2      4.46      0.00
   11   12    3     -0.66      0.00
   11   12    4     -1.26      0.00
   11   12    5      6.26      0.00
   11   12    6     14.68      0.00
   11   12    7     -4.33      0.00
   11   12    8     -4.46      0.00
   11   12    9     -0.10      0.00
   11   12   10     -2.93      0.00
   11   12   11      4.18      0.00
   11   12   12     -3.99      0.00
   11   12   13      3.61      0.00
   11   12   14     -1.03      0.00
   11   12   15     -1.49      0.00
   11   12   16      2.11      0.00
   11   12   17      3.27      0.00
   11   12   18     -2.56      0.00
   11   12   19     -4.64      0.00
   12   12    0      1.43      0.00
   12   12    2      7.67      0.00
   12   12    4     -1.43      0.00
   12   12    6      1.75      0.00
   12   12    8     -1.11      0.00
   12   12   10      1.80      0.00
   12   12   12     -3.72      0.00
   12   12   14      8.45      0.00
   12   12   16     -7.60      0.00
   12   12   18    -10.29      0.00
    0   13    0      1.07      0.00
    0   13    1    -12.64      0.00
    0   13    2      4.19      0.00
    0   13    3     -3.28      0.00
    0   13    4      0.84      0.00
    0   13    5     -6.17      0.00
    0   13    6      0.23      0.00
    0   13    7      5.12      0.00
    0   13    8      3.11      0.00
    0   13    9      4.20      0.00
    0   13   10      2.02      0.00
    0   13   11     -4.98      0.00
    0   13   12      1.06      0.00
    0   13   13      6.19      0.00
    0   13   14      0.71      0.00
    0   13   15    -10.08      0.00
    0   13   16      3.46      0.00
    0   13   17      2.51      0.00
    0   13   18      2.38      0.00
    0   13   19      0.00      0.00
    0   13   20     -7.63      0.00
    1   13    0      9.30      0.00
    1   13    1      1.91      0.00
    1   13    2     -3.26      0.00
    1   13    3      7.28      0.00
    1   13    4      3.06      0.00
    1   13    5     -1.25      0.00
    1   13    6      0.00      0.00
    1   13    7      4.47      0.00
    1   13    8      0.99      0.00
    1   13    9     -2.98      0.00
    1   13   10      1.95      0.00
    1   13   11      4.52      0.00
    1   13   12     -4.17      0.00
    1   13   13     -4.10      0.00
    1   13   14      5.54      0.00
    1   13   15      6.89      0.00
    1   13   16     -1.40      0.00
    1   13   17     -6.73      0.00
    1   13   18      1.57      0.00
    1   13   19      1.23      0.00
    1   13   20      6.45      0.00
    2   13    0      2.01      0.00
    2   13    1     -1.80      0.00
    2   13    2     -3.87      0.00
    2   13    3      2.71      0.00
    2   13    4      9.32      0.00
    2   13    5     -6.01      0.00
    2   13    6      1.62      0.00
    2   13    7     -1.45      0.00
    2   13    8     -3.73      0.00
    2   13    9      0.78      0.00
    2   13   10     -1.83      0.00
    2   13   11      1.43      0.00
    2   13   12     -5.41      0.00
    2   13   13      1.84      0.00
    2   13   14     12.32      0.00
    2   13   15      3.26      0.00
    2   13   16     -1.31      0.00
    2   13   17      1.98      0.00
    2   13   18      2.42      0.00
    2   13   19     -1.62      0.00
    2   13   20     -1.05      0.00
    3   13    0     -8.55      0.00
    3   13    1     -3.71      0.00
    3   13    2     -5.64      0.00
    3   13    3      1.37      0.00
    3   13    4      1.26      0.00
    3   13    5     -7.36      0.00
    3   13    6     -1.20      0.00
    3   13    7     -2.25      0.00
    3   13    8      2.01      0.00
    3   13    9     -8.82      0.00
    3   13   10      1.36      0.00
    3   13   11     -0.16      0.00
    3   13   12     -4.15      0.00
    3   13   13      0.35      0.00
    3   13   14     -0.33      0.00
    3   13   15      6.05      0.00
    3   13   16      2.66      0.00
    3   13   17     -2.10      0.00
    3   13   18     -1.25      0.00
    3   13   19     11.13      0.00
    3   13   20      2.01      0.00
    4   13    0      9.05      0.00
    4   13    1     -5.43      0.00
    4   13    2      2.47      0.00
    4   13    3      5.96      0.00
    4   13    4      4.29      0.00
    4   13    5     -6.26      0.00
    4   13    6      2.73      0.00
    4   13    7     -0.39      0.00
    4   13    8     -3.69      0.00
    4   13    9      3.63      0.00
    4   13   10      1.22      0.00
    4   13   11     -4.75      0.00
    4   13   12     -4.41      0.00
    4   13   13     -3.19      0.00
    4   13   14     -2.97      0.00
    4   13   15      5.49      0.00
    4   13   16     -4.36      0.00
    4   13   17      0.17      0.00
    4   13   18     -2.64      0.00
    4   13   19      8.88      0.00
    4   13   20      3.67      0.00
    5   13    0      2.86      0.00
    5   13    1     -2.86      0.00
    5   13    2     -3.27      0.00
    5   13    3     -3.15      0.00
    5   13    4     -2.70      0.00
    5   13    5     -2.34      0.00
    5   13    6      4.17      0.00
    5   13    7      4.60      0.00
    5   13    8     -1.01      0.00
    5   13    9      1.67      0.00
    5   13   10     -1.41      0.00
    5   13   11      4.57      0.00
    5   13   12      2.71      0.00
    5   13   13     -3.18      0.00
    5   13   14      2.66      0.00
    5   13   15      0.24      0.00
    5   13   16      1.39      0.00
    5   13   17      4.31      0.00
    5   13   18      0.54      0.00
    5   13   19     -3.27      0.00
    5   13   20     -0.11      0.00
    6   13    0      1.68      0.00
    6   13    1      0.41      0.00
    6   13    2     -0.05      0.00
    6   13    3     -2.93      0.00
    6   13    4     -0.36      0.00
    6   13    5     -1.94      0.00
    6   13    6     -0.31      0.00
    6   13    7      2.81      0.00
    6   13    8     10.89      0.00
    6   13    9      0.18      0.00
    6   13   10     -2.78      0.00
    6   13   11      1.15      0.00
    6   13   12      1.19      0.00
    6   13   13     -0.61      0.00
    6   13   14      3.71      0.00
    6   13   15     -3.07      0.00
    6   13   16      4.06      0.00
    6   13   17      0.50      0.00
    6   13   18      1.47      0.00
    6   13   19      0.11      0.00
    6   13   20      0.75      0.00
    7   13    0     -1.82      0.00
    7   13    1      3.08      0.00
    7   13    2      5.22      0.00
    7   13    3      3.07      0.00
    7   13    4      4.49      0.00
    7   13    5      3.27      0.00
    7   13    6     -3.73      0.00
    7   13    7      7.10      0.00
    7   13    8      3.11      0.00
    7   13    9      2.69      0.00
    7   13   10      0.51      0.00
    7   13   11     -1.29      0.00
    7   13   12      0.90      0.00
    7   13   13     -3.05      0.00
    7   13   14     -6.09      0.00
    7   13   15     -3.62      0.00
    7   13   16      3.96      0.00
    7   13   17     -0.13      0.00
    7   13   18      0.19      0.00
    7   13   19     -2.06      0.00
    8   13    0      5.42      0.00
    8   13    1     -3.99      0.00
    8   13    2      3.13      0.00
    8   13    3     -1.00      0.00
    8   13    4      0.61      0.00
    8   13    5     -5.62      0.00
    8   13    6      1.36      0.00
    8   13    7     -5.99      0.00
    8   13    8      1.70      0.00
    8   13    9     -2.00      0.00
    8   13   10      0.17      0.00
    8   13   11      9.99      0.00
    8   13   12     -0.73      0.00
    8   13   13      0.50      0.00
    8   13   14     -8.59      0.00
    8   13   15      0.85      0.00
    8   13   16      4.50      0.00
    8   13   17     -0.61      0.00
    8   13   18      1.30      0.00
    8   13   19     -8.26      0.00
    9   13    0      5.04      0.00
    9   13    1     -1.02      0.00
    9   13    2      7.40      0.00
    9   13    3      2.77      0.00
    9   13    4     -0.03      0.00
    9   13    5     -4.04      0.00
    9   13    6     -0.56      0.00
    9   13    7     -5.53      0.00
    9   13    8     -2.10      0.00
    9   13    9     -3.28      0.00
    9   13   10     -7.71      0.00
    9   13   11      0.05      0.00
    9   13   12      4.86      0.00
    9   13   13     -0.64      0.00
    9   13   14     -2.71      0.00
    9   13   15      2.50      0.00
    9   13   16     -4.10      0.00
    9   13   17     -2.89      0.00
    9   13   18     -6.11      0.00
    9   13   19      6.68      0.00
   10   13    0      8.72      0.00
   10   13    1      3.00      0.00
   10   13    2      3.49      0.00
   10   13    3     -1.41      0.00
   10   13    4     -3.65      0.00
   10   13    5      1.37      0.00
   10   13    6     -4.68      0.00
   10   13    7     -4.58      0.00
   10   13    8     -2.01      0.00
   10   13    9     -3.53      0.00
   10   13   10     -3.69      0.00
   10   13   11     -6.68      0.00
   10   13   12     -4.57      0.00
   10   13   13     -1.79      0.00
   10   13   14      3.64      0.00
   10   13   15     -4.44      0.00
   10   13   16     -8.18      0.00
   10   13   17      6.33      0.00
   10   13   18     -3.72      0.00
   10   13   19    -15.91      0.00
   11   13    0      1.00      0.00
   11   13    1      2.71      0.00
   11   13    2      0.07      0.00
   11   13    3     -2.81      0.00
   11   13    4     -5.06      0.00
   11   13    5    -13.87      0.00
   11   13    6     -0.16      0.00
   11   13    7     -4.49      0.00
   11   13    8      1.43      0.00
   11   13    9      0.12      0.00
   11   13   10     -6.60      0.00
   11   13   11      2.67      0.00
   11   13   12     -1.09      0.00
   11   13   13      1.14      0.00
   11   13   14      1.24      0.00
   11   13   15      3.95      0.00
   11   13   16      3.45      0.00
   11   13   17     -0.68      0.00
   11   13   18     -4.80      0.00
   12   13    0      2.14      0.00
   12   13    1     -1.40      0.00
   12   13    2      1.00      0.00
   12   13    3     -0.83      0.00
   12   13    4      1.24      0.00
   12   13    5      0.57      0.00
   12   13    6     -0.25      0.00
   12   13    7      2.54      0.00
   12   13    8     -2.73      0.00
   12   13    9     -0.05      0.00
   12   13   10      5.00      0.00
   12   13   11      1.50      0.00
   12   13   12     -1.29      0.00
   12   13   13      1.51      0.00
   12   13   14      4.41      0.00
   12   13   15     -0.57      0.00
   12   13   16      2.45      0.00
   12   13   17      0.78      0.00
   12   13   18     -0.48      0.00
   13   13    0      3.75      0.00
   13   13    2      4.26      0.00
   13   13    4     -8.14      0.00
   13   13    6      0.58      0.00
   13   13    8      0.09      0.00
   13   13   10      0.22      0.00
   13   13   12      4.61      0.00
   13   13   14     -4.32      0.00
   13   13   16      5.10      0.00
    0   14    0     -3.98      0.00
    0   14    1     -2.55      0.00
    0   14    2     -1.30      0.00
    0   14    3     -0.02      0.00
    0   14    4     -6.77      0.00
    0   14    5     16.21      0.00
    0   14    6     -2.95      0.00
    0   14    7     -5.55      0.00
    0   14    8     -2.36      0.00
    0   14    9      4.55      0.00
    0   14   10     -2.09      0.00
    0   14   11     -1.63      0.00
    0   14   12      2.74      0.00
    0   14   13      4.54      0.00
    0   14   14      0.05      0.00
    0   14   15     -2.71      0.00
    0   14   16      2.01      0.00
    0   14   17     -2.60      0.00
    0   14   18      1.53      0.00
    0   14   19     -3.33      0.00
    1   14    0      3.27      0.00
    1   14    1     -0.07      0.00
    1   14    2      0.86      0.00
    1   14    3     -4.95      0.00
    1   14    4      5.50      0.00
    1   14    5      3.30      0.00
    1   14    6      5.45      0.00
    1   14    7     -3.06      0.00
    1   14    8     -5.99      0.00
    1   14    9     -1.22      0.00
    1   14   10      0.06      0.00
    1   14   11      3.53      0.00
    1   14   12     -0.68      0.00
    1   14   13      0.01      0.00
    1   14   14      3.19      0.00
    1   14   15      2.45      0.00
    1   14   16     -3.36      0.00
    1   14   17     -3.62      0.00
    1   14   18      1.82      0.00
    1   14   19      5.43      0.00
    2   14    0     -3.75      0.00
    2   14    1      5.65      0.00
    2   14    2      3.26      0.00
    2   14    3     -4.28      0.00
    2   14    4      0.86      0.00
    2   14    5     -7.87      0.00
    2   14    6      4.01      0.00
    2   14    7     -2.99      0.00
    2   14    8     -3.47      0.00
    2   14    9     -3.51      0.00
    2   14   10     -1.95      0.00
    2   14   11     -1.93      0.00
    2   14   12     -4.84      0.00
    2   14   13      6.92      0.00
    2   14   14     -6.68      0.00
    2   14   15     -0.79      0.00
    2   14   16     -0.04      0.00
    2   14   17     -3.84      0.00
    2   14   18     -1.01      0.00
    2   14   19      0.16      0.00
    3   14    0     -2.53      0.00
    3   14    1      0.35      0.00
    3   14    2      6.08      0.00
    3   14    3     -2.82      0.00
    3   14    4     -6.05      0.00
    3   14    5     -7.57      0.00
    3   14    6      4.59      0.00
    3   14    7     -4.38      0.00
    3   14    8      0.28      0.00
    3   14    9      1.37      0.00
    3   14   10      0.85      0.00
    3   14   11     -6.59      0.00
    3   14   12     -3.38      0.00
    3   14   13     -1.48      0.00
    3   14   14      2.87      0.00
    3   14   15      2.41      0.00
    3   14   16     -5.60      0.00
    3   14   17     -0.62      0.00
    3   14   18     -0.82      0.00
    3   14   19      5.42      0.00
    4   14    0     -7.37      0.00
    4   14    1      3.63      0.00
    4   14    2     -0.78      0.00
    4   14    3      1.54      0.00
    4   14    4      2.86      0.00
    4   14    5      5.11      0.00
    4   14    6      3.24      0.00
    4   14    7     -3.34      0.00
    4   14    8      1.89      0.00
    4   14    9      2.49      0.00
    4   14   10      3.19      0.00
    4   14   11     -1.98      0.00
    4   14   12      0.47      0.00
    4   14   13     -6.90      0.00
    4   14   14      5.45      0.00
    4   14   15      7.34      0.00
    4   14   16     -2.58      0.00
    4   14   17     -1.10      0.00
    4   14   18     -1.81      0.00
    4   14   19      8.08      0.00
    5   14    0     -0.50      0.00
    5   14    1     -7.74      0.00
    5   14    2     -2.42      0.00
    5   14    3      4.17      0.00
    5   14    4      1.19      0.00
    5   14    5      0.24      0.00
    5   14    6      0.99      0.00
    5   14    7     -0.31      0.00
    5   14    8     -5.36      0.00
    5   14    9      2.28      0.00
    5   14   10      1.75      0.00
    5   14   11     -3.29      0.00
    5   14   12     -0.35      0.00
    5   14   13      4.29      0.00
    5   14   14     -2.99      0.00
    5   14   15     -0.55      0.00
    5   14   16      0.77      0.00
    5   14   17      0.40      0.00
    5   14   18      1.17      0.00
    5   14   19     -2.18      0.00
    6   14    0     -4.02      0.00
    6   14    1      1.00      0.00
    6   14    2      0.18      0.00
    6   14    3     -3.13      0.00
    6   14    4     -2.99      0.00
    6   14    5     -2.06      0.00
    6   14    6     -0.70      0.00
    6   14    7     -2.49      0.00
    6   14    8     -1.50      0.00
    6   14    9     -1.00      0.00
    6   14   10     -1.48      0.00
    6   14   11      2.80      0.00
    6   14   12     -6.52      0.00
    6   14   13      6.65      0.00
    6   14   14      3.46      0.00
    6   14   15      3.03      0.00
    6   14   16     -1.42      0.00
    6   14   17     -1.14      0.00
    6   14   18      6.25      0.00
    6   14   19      0.55      0.00
    7   14    0      1.38      0.00
    7   14    1      8.18      0.00
    7   14    2      3.86      0.00
    7   14    3     -4.33      0.00
    7   14    4      2.18      0.00
    7   14    5      4.49      0.00
    7   14    6      3.98      0.00
    7   14    7     -2.16      0.00
    7   14    8     -2.21      0.00
    7   14    9      4.84      0.00
    7   14   10      0.42      0.00
    7   14   11      2.54      0.00
    7   14   12     -1.71      0.00
    7   14   13      5.24      0.00
    7   14   14      1.03      0.00
    7   14   15      5.10      0.00
    7   14   16      0.14      0.00
    7   14   17      4.33      0.00
    7   14   18      0.61      0.00
    7   14   19     -4.19      0.00
    8   14    0      8.76      0.00
    8   14    1     -1.21      0.00
    8   14    2      6.64      0.00
    8   14    3      0.61      0.00
    8   14    4     -5.80      0.00
    8   14    5      3.47      0.00
    8   14    6      4.77      0.00
    8   14    7      2.01      0.00
    8   14    8      5.11      0.00
    8   14    9     -0.59      0.00
    8   14   10      9.61      0.00
    8   14   11     -0.62      0.00
    8   14   12      0.14      0.00
    8   14   13      3.32      0.00
    8   14   14      3.76      0.00
    8   14   15     -0.03      0.00
    8   14   16     -1.82      0.00
    8   14   17      3.87      0.00
    8   14   18      1.93      0.00
    8   14   19     -5.39      0.00
    9   14    0      5.14      0.00
    9   14    1      0.42      0.00
    9   14    2     -1.54      0.00
    9   14    3      1.31      0.00
    9   14    4      1.62      0.00
    9   14    5     -4.44      0.00
    9   14    6      2.12      0.00
    9   14    7      3.14      0.00
    9   14    8      5.94      0.00
    9   14    9      0.24      0.00
    9   14   10      0.71      0.00
    9   14   11      1.87      0.00
    9   14   12     -3.18      0.00
    9   14   13     -3.48      0.00
    9   14   14      1.08      0.00
    9   14   15     -0.65      0.00
    9   14   16      4.05      0.00
    9   14   17      0.55      0.00
    9   14   18      5.42      0.00
   10   14    0      7.10      0.00
   10   14    1      0.72      0.00
   10   14    2     -5.71      0.00
   10   14    3      3.20      0.00
   10   14    4      3.62      0.00
   10   14    5     12.17      0.00
   10   14    6     -1.01      0.00
   10   14    7      2.95      0.00
   10   14    8      2.10      0.00
   10   14    9      2.44      0.00
   10   14   10      0.50      0.00
   10   14   11     -3.65      0.00
   10   14   12      1.99      0.00
   10   14   13     -3.00      0.00
   10   14   14      2.33      0.00
   10   14   15      3.53      0.00
   10   14   16     -3.06      0.00
   10   14   17      6.04      0.00
   10   14   18     -1.75      0.00
   11   14    0     -1.56      0.00
   11   14    1      1.85      0.00
   11   14    2      2.94      0.00
   11   14    3     -2.29      0.00
   11   14    4     -0.64      0.00
   11   14    5      1.52      0.00
   11   14    6     10.37      0.00
   11   14    7     -3.09      0.00
   11   14    8      1.69      0.00
   11   14    9      2.21      0.00
   11   14   10      0.63      0.00
   11   14   11      0.67      0.00
   11   14   12     -0.17      0.00
   11   14   13      7.52      0.00
   11   14   14     10.68      0.00
   11   14   15     -0.53      0.00
   11   14   16      2.54      0.00
   11   14   17     -5.87      0.00
   11   14   18    -10.35      0.00
   12   14    0     -2.66      0.00
   12   14    1      1.33      0.00
   12   14    2      1.45      0.00
   12   14    3      3.33      0.00
   12   14    4     -2.22      0.00
   12   14    5     -7.32      0.00
   12   14    6      2.50      0.00
   12   14    7      5.04      0.00
   12   14    8      1.60      0.00
   12   14    9     -7.86      0.00
   12   14   10     -1.39      0.00
   12   14   11      3.12      0.00
   12   14   12     -6.79      0.00
   12   14   13      8.30      0.00
   12   14   14     -0.18      0.00
   12   14   15      0.04      0.00
   12   14   16      1.64      0.00
   12   14   17     -3.02      0.00
   13   14    0     -1.59      0.00
   13   14    1     -0.56      0.00
   13   14    2      4.06      0.00
   13   14    3     -1.33      0.00
   13   14    4     -4.01      0.00
   13   14    5      5.14      0.00
   13   14    6     -5.30      0.00
   13   14    7      3.17      0.00
   13   14    8     -1.23      0.00
   13   14    9      2.84      0.00
   13   14   10     -5.31      0.00
   13   14   11     -5.44      0.00
   13   14   12     -2.10      0.00
   13   14   13     -1.78      0.00
   13   14   14      7.29      0.00
   13   14   15      0.37      0.00
   13   14   16     -2.85      0.00
   14   14    0     -3.53      0.00
   14   14    2      4.88      0.00
   14   14    4     -5.43      0.00
   14   14    6     -0.70      0.00
   14   14    8     -4.36      0.00
   14   14   10     -0.87      0.00
   14   14   12      2.71      0.00
   14   14   14      9.50      0.00
   14   14   16     13.03      0.00
    0   15    0     -2.10      0.00
    0   15    1      2.77      0.00
    0   15    2     -2.80      0.00
    0   15    3      6.16      0.00
    0   15    4     -8.45      0.00
    0   15    5      5.69      0.00
    0   15    6     -1.77      0.00
    0   15    7      2.44      0.00
    0   15    8      1.94      0.00
    0   15    9      2.44      0.00
    0   15   10     -5.45      0.00
    0   15   11     -3.17      0.00
    0   15   12     -1.85      0.00
    0   15   13     -5.48      0.00
    0   15   14    -12.80      0.00
    0   15   15     -8.78      0.00
    0   15   16     -4.35      0.00
    0   15   17     -4.00      0.00
    0   15   18      0.35      0.00
    0   15   19     -4.82      0.00
    1   15    0      2.02      0.00
    1   15    1     -1.76      0.00
    1   15    2     -1.93      0.00
    1   15    3     -3.16      0.00
    1   15    4      2.27      0.00
    1   15    5     -0.72      0.00
    1   15    6     -2.20      0.00
    1   15    7      2.43      0.00
    1   15    8      1.15      0.00
    1   15    9      3.75      0.00
    1   15   10     -1.74      0.00
    1   15   11     -1.18      0.00
    1   15   12      1.12      0.00
    1   15   13     -0.30      0.00
    1   15   14     -6.76      0.00
    1   15   15     -7.40      0.00
    1   15   16      0.05      0.00
    1   15   17     -1.26      0.00
    1   15   18     -6.52      0.00
    1   15   19      0.47      0.00
    2   15    0     -1.31      0.00
    2   15    1     -1.30      0.00
    2   15    2     -1.46      0.00
    2   15    3     -2.06      0.00
    2   15    4      2.84      0.00
    2   15    5     -2.55      0.00
    2   15    6     -5.39      0.00
    2   15    7      2.99      0.00
    2   15    8      4.33      0.00
    2   15    9     -0.07      0.00
    2   15   10      1.17      0.00
    2   15   11      4.33      0.00
    2   15   12     -6.31      0.00
    2   15   13      1.96      0.00
    2   15   14      5.59      0.00
    2   15   15     -0.04      0.00
    2   15   16     -3.56      0.00
    2   15   17     -4.66      0.00
    2   15   18      3.01      0.00
    2   15   19      0.69      0.00
    3   15    0     -2.67      0.00
    3   15    1     -0.14      0.00
    3   15    2      2.22      0.00
    3   15    3      4.05      0.00
    3   15    4      2.43      0.00
    3   15    5     -4.30      0.00
    3   15    6      3.17      0.00
    3   15    7     -4.30      0.00
    3   15    8     -0.27      0.00
    3   15    9      7.21      0.00
    3   15   10      0.23      0.00
    3   15   11     -6.57      0.00
    3   15   12     -3.41      0.00
    3   15   13      3.19      0.00
    3   15   14     -2.67      0.00
    3   15   15     -3.70      0.00
    3   15   16     -0.49      0.00
    3   15   17     -0.23      0.00
    3   15   18     -1.65      0.00
    3   15   19      5.75      0.00
    4   15    0      9.40      0.00
    4   15    1      7.66      0.00
    4   15    2      5.28      0.00
    4   15    3     -0.69      0.00
    4   15    4      2.61      0.00
    4   15    5     -4.03      0.00
    4   15    6      4.64      0.00
    4   15    7     -0.01      0.00
    4   15    8      0.03      0.00
    4   15    9      0.62      0.00
    4   15   10      2.81      0.00
    4   15   11     -3.83      0.00
    4   15   12      2.89      0.00
    4   15   13     -4.69      0.00
    4   15   14     -2.90      0.00
    4   15   15      4.33      0.00
    4   15   16     -3.22      0.00
    4   15   17     -2.72      0.00
    4   15   18      0.02      0.00
    4   15   19      5.01      0.00
    5   15    0     15.32      0.00
    5   15    1      6.47      0.00
    5   15    2      0.76      0.00
    5   15    3      1.47      0.00
    5   15    4      1.29      0.00
    5   15    5      3.67      0.00
    5   15    6      0.18      0.00
    5   15    7      0.50      0.00
    5   15    8      0.70      0.00
    5   15    9      2.08      0.00
    5   15   10      3.01      0.00
    5   15   11      0.65      0.00
    5   15   12     -5.64      0.00
    5   15   13      7.74      0.00
    5   15   14      0.24      0.00
    5   15   15     -1.29      0.00
    5   15   16      1.19      0.00
    5   15   17      5.92      0.00
    5   15   18     -1.17      0.00
    5   15   19     -0.27      0.00
    6   15    0     -2.42      0.00
    6   15    1     -2.30      0.00
    6   15    2     -0.86      0.00
    6   15    3     -0.02      0.00
    6   15    4     -3.93      0.00
    6   15    5      0.04      0.00
    6   15    6      0.98      0.00
    6   15    7      1.29      0.00
    6   15    8     -7.06      0.00
    6   15    9      6.42      0.00
    6   15   10     -2.29      0.00
    6   15   11      2.64      0.00
    6   15   12      3.71      0.00
    6   15   13      7.32      0.00
    6   15   14      1.92      0.00
    6   15   15     -5.23      0.00
    6   15   16     -2.39      0.00
    6   15   17     -0.72      0.00
    6   15   18      0.88      0.00
    6   15   19      1.18      0.00
    7   15    0      5.26      0.00
    7   15    1     -0.56      0.00
    7   15    2     -3.64      0.00
    7   15    3     -2.92      0.00
    7   15    4     -0.58      0.00
    7   15    5      0.73      0.00
    7   15    6     -5.62      0.00
    7   15    7     -4.99      0.00
    7   15    8      1.50      0.00
    7   15    9     -3.97      0.00
    7   15   10     11.04      0.00
    7   15   11      0.00      0.00
    7   15   12     -1.62      0.00
    7   15   13      5.94      0.00
    7   15   14      3.02      0.00
    7   15   15     -0.95      0.00
    7   15   16     -6.11      0.00
    7   15   17     -2.13      0.00
    7   15   18      0.49      0.00
    8   15    0      1.44      0.00
    8   15    1      5.13      0.00
    8   15    2     -0.60      0.00
    8   15    3      9.86      0.00
    8   15    4      4.29      0.00
    8   15    5      5.12      0.00
    8   15    6      3.33      0.00
    8   15    7     -0.31      0.00
    8   15    8     -4.13      0.00
    8   15    9      1.17      0.00
    8   15   10     -0.66      0.00
    8   15   11      0.28      0.00
    8   15   12      0.49      0.00
    8   15   13      2.97      0.00
    8   15   14     -6.86      0.00
    8   15   15     -1.30      0.00
    8   15   16      1.88      0.00
    8   15   17      0.24      0.00
    8   15   18     -5.46      0.00
    9   15    0      5.51      0.00
    9   15    1      3.57      0.00
    9   15    2     -5.64      0.00
    9   15    3      0.20      0.00
    9   15    4      2.02      0.00
    9   15    5      9.49      0.00
    9   15    6      1.39      0.00
    9   15    7     -0.64      0.00
    9   15    8     -5.98      0.00
    9   15    9     -2.48      0.00
    9   15   10     -0.59      0.00
    9   15   11     -0.73      0.00
    9   15   12     -8.28      0.00
    9   15   13      2.85      0.00
    9   15   14      8.16      0.00
    9   15   15     -1.66      0.00
    9   15   16     -0.86      0.00
    9   15   17     -5.04      0.00
    9   15   18      5.44      0.00
   10   15    0      5.30      0.00
   10   15    1     -1.89      0.00
   10   15    2     -2.40      0.00
   10   15    3     -2.81      0.00
   10   15    4     -6.67      0.00
   10   15    5     -0.64      0.00
   10   15    6      2.30      0.00
   10   15    7      1.94      0.00
   10   15    8     -7.29      0.00
   10   15    9     -1.04      0.00
   10   15   10     -0.90      0.00
   10   15   11     -5.67      0.00
   10   15   12     -2.30      0.00
   10   15   13      4.34      0.00
   10   15   14     11.19      0.00
   10   15   15      3.81      0.00
   10   15   16     -1.66      0.00
   10   15   17      4.17      0.00
   11   15    0     -2.07      0.00
   11   15    1      0.39      0.00
   11   15    2      2.29      0.00
   11   15    3      0.24      0.00
   11   15    4     -1.03      0.00
   11   15    5      1.28      0.00
   11   15    6      5.05      0.00
   11   15    7     -2.67      0.00
   11   15    8      0.94      0.00
   11   15    9      0.91      0.00
   11   15   10      4.04      0.00
   11   15   11     -0.76      0.00
   11   15   12     -2.47      0.00
   11   15   13     -8.00      0.00
   11   15   14      6.89      0.00
   11   15   15      0.45      0.00
   11   15   16     -0.76      0.00
   11   15   17     -1.13      0.00
   12   15    0     -2.94      0.00
   12   15    1      2.29      0.00
   12   15    2     -1.61      0.00
   12   15    3      2.69      0.00
   12   15    4     -0.56      0.00
   12   15    5      2.01      0.00
   12   15    6     -1.21      0.00
   12   15    7      2.28      0.00
   12   15    8      2.44      0.00
   12   15    9     -2.35      0.00
   12   15   10      0.80      0.00
   12   15   11     -0.16      0.00
   12   15   12     -5.05      0.00
   12   15   13      0.97      0.00
   12   15   14     -4.41      0.00
   12   15   15     -3.52      0.00
   12   15   16      5.07      0.00
   13   15    0     -4.45      0.00
   13   15    1     -0.49      0.00
   13   15    2      5.02      0.00
   13   15    3      0.41      0.00
   13   15    4      5.53      0.00
   13   15    5      1.60      0.00
   13   15    6      2.63      0.00
   13   15    7      0.84      0.00
   13   15    8     -0.86      0.00
   13   15    9      1.75      0.00
   13   15   10      1.16      0.00
   13   15   11      0.07      0.00
   13   15   12     -4.08      0.00
   13   15   13     -1.69      0.00
   13   15   14     -3.70      0.00
   13   15   15     -2.94      0.00
   13   15   16     -5.81      0.00
   14   15    0     -2.07      0.00
   14   15    1      4.69      0.00
   14   15    2      6.98      0.00
   14   15    3      2.03      0.00
   14   15    4     -0.09      0.00
   14   15    5      1.84      0.00
   14   15    6     -2.19      0.00
   14   15    7     -0.88      0.00
   14   15    8     14.69      0.00
   14   15    9      4.74      0.00
   14   15   10      0.81      0.00
   14   15   11     -3.19      0.00
   14   15   12     -0.35      0.00
   14   15   13    -13.39      0.00
   14   15   14      3.20      0.00
   14   15   15     -2.01      0.00
   15   15    0     -5.02      0.00
   15   15    2     14.02      0.00
   15   15    4     -8.67      0.00
   15   15    6      0.72      0.00
   15   15    8     -2.97      0.00
   15   15   10     -2.49      0.00
   15   15   12     -6.14      0.00
    0   16    0      1.03      0.00
    0   16    1     -2.91      0.00
    0   16    2     -1.46      0.00
    0   16    3      5.54      0.00
    0   16    4      2.19      0.00
    0   16    5      2.09      0.00
    0   16    6      0.47      0.00
    0   16    7      1.89      0.00
    0   16    8      1.42      0.00
    0   16    9     -5.27      0.00
    0   16   10      2.40      0.00
    0   16   11     -0.87      0.00
    0   16   12     -1.96      0.00
    0   16   13      0.16      0.00
    0   16   14      3.49      0.00
    0   16   15     -3.92      0.00
    0   16   16      1.93      0.00
    0   16   17      6.79      0.00
    0   16   18     -1.85      0.00
    1   16    0     -2.68      0.00
    1   16    1     -5.17      0.00
    1   16    2     -5.71      0.00
    1   16    3      2.97      0.00
    1   16    4     -1.84      0.00
    1   16    5      7.28      0.00
    1   16    6     -2.13      0.00
    1   16    7     -0.04      0.00
    1   16    8     -1.64      0.00
    1   16    9     -0.08      0.00
    1   16   10     -2.75      0.00
    1   16   11     -1.66      0.00
    1   16   12     -2.83      0.00
    1   16   13     -1.74      0.00
    1   16   14      2.36      0.00
    1   16   15     -3.69      0.00
    1   16   16     -2.33      0.00
    1   16   17     -1.90      0.00
    1   16   18      4.52      0.00
    2   16    0      0.74      0.00
    2   16    1      1.87      0.00
    2   16    2     -0.46      0.00
    2   16    3      1.87      0.00
    2   16    4      3.37      0.00
    2   16    5     -0.92      0.00
    2   16    6      0.43      0.00
    2   16    7      1.68      0.00
    2   16    8      2.12      0.00
    2   16    9      4.79      0.00
    2   16   10     -2.64      0.00
    2   16   11      3.32      0.00
    2   16   12      2.99      0.00
    2   16   13      2.49      0.00
    2   16   14      3.45      0.00
    2   16   15     -8.25      0.00
    2   16   16      0.78      0.00
    2   16   17      3.03      0.00
    2   16   18     -5.67      0.00
    2   16   19     -0.94      0.00
    3   16    0     -0.97      0.00
    3   16    1      3.68      0.00
    3   16    2      9.22      0.00
    3   16    3      1.83      0.00
    3   16    4      2.66      0.00
    3   16    5     -6.26      0.00
    3   16    6      4.02      0.00
    3   16    7      1.33      0.00
    3   16    8     -3.82      0.00
    3   16    9      6.41      0.00
    3   16   10      6.99      0.00
    3   16   11      8.22      0.00
    3   16   12     -6.53      0.00
    3   16   13      6.86      0.00
    3   16   14      5.18      0.00
    3   16   15     -0.21      0.00
    3   16   16     -0.86      0.00
    3   16   17      1.10      0.00
    3   16   18      1.77      0.00
    4   16    0      0.41      0.00
    4   16    1    -14.52      0.00
    4   16    2     -0.66      0.00
    4   16    3     -0.15      0.00
    4   16    4      2.29      0.00
    4   16    5     -0.29      0.00
    4   16    6     -4.87      0.00
    4   16    7     -7.13      0.00
    4   16    8      1.23      0.00
    4   16    9     -0.20      0.00
    4   16   10     -0.67      0.00
    4   16   11     -1.21      0.00
    4   16   12     -0.86      0.00
    4   16   13     -3.19      0.00
    4   16   14     -2.35      0.00
    4   16   15      6.33      0.00
    4   16   16     -1.53      0.00
    4   16   17     -0.51      0.00
    4   16   18     -5.65      0.00
    5   16    0      1.46      0.00
    5   16    1     -4.52      0.00
    5   16    2     -1.62      0.00
    5   16    3      1.99      0.00
    5   16    4     -1.84      0.00
    5   16    5      2.60      0.00
    5   16    6      6.04      0.00
    5   16    7      0.08      0.00
    5   16    8     -1.23      0.00
    5   16    9     -0.93      0.00
    5   16   10     -1.09      0.00
    5   16   11      0.06      0.00
    5   16   12      1.20      0.00
    5   16   13      0.98      0.00
    5   16   14     -3.72      0.00
    5   16   15     -0.57      0.00
    5   16   16     -2.96      0.00
    5   16   17      2.40      0.00
    5   16   18     -5.57      0.00
    6   16    0      4.55      0.00
    6   16    1      5.07      0.00
    6   16    2      0.91      0.00
    6   16    3     -2.03      0.00
    6   16    4      7.50      0.00
    6   16    5      3.11      0.00
    6   16    6     10.77      0.00
    6   16    7      3.30      0.00
    6   16    8      1.04      0.00
    6   16    9      2.12      0.00
    6   16   10     -0.95      0.00
    6   16   11      5.38      0.00
    6   16   12      0.28      0.00
    6   16   13      5.52      0.00
    6   16   14     -0.65      0.00
    6   16   15     -6.48      0.00
    6   16   16      4.74      0.00
    6   16   17     -3.46      0.00
    6   16   18     -6.18      0.00
    7   16    0     -0.91      0.00
    7   16    1     -4.19      0.00
    7   16    2      2.03      0.00
    7   16    3     -1.35      0.00
    7   16    4     -2.53      0.00
    7   16    5     10.41      0.00
    7   16    6     -3.41      0.00
    7   16    7     -0.03      0.00
    7   16    8     -1.59      0.00
    7   16    9     -3.48      0.00
    7   16   10     -1.46      0.00
    7   16   11     -2.78      0.00
    7   16   12      2.00      0.00
    7   16   13      0.42      0.00
    7   16   14      4.02      0.00
    7   16   15     -3.15      0.00
    7   16   16      1.07      0.00
    7   16   17     -2.87      0.00
    7   16   18     -1.51      0.00
    8   16    0      0.93      0.00
    8   16    1      4.78      0.00
    8   16    2     -4.63      0.00
    8   16    3      3.46      0.00
    8   16    4     -6.42      0.00
    8   16    5     -0.99      0.00
    8   16    6      2.56      0.00
    8   16    7     -4.28      0.00
    8   16    8    -11.66      0.00
    8   16    9     -1.66      0.00
    8   16   10     -4.25      0.00
    8   16   11     -0.57      0.00
    8   16   12     -3.83      0.00
    8   16   13      1.66      0.00
    8   16   14     -1.48      0.00
    8   16   15     -5.85      0.00
    8   16   16      3.94      0.00
    8   16   17     -1.91      0.00
    8   16   18     -0.37      0.00
    9   16    0      8.63      0.00
    9   16    1      0.24      0.00
    9   16    2     -1.85      0.00
    9   16    3      3.56      0.00
    9   16    4      3.35      0.00
    9   16    5     -3.56      0.00
    9   16    6     -9.33      0.00
    9   16    7      2.30      0.00
    9   16    8      1.43      0.00
    9   16    9      0.50      0.00
    9   16   10     -3.46      0.00
    9   16   11      2.96      0.00
    9   16   12      7.03      0.00
    9   16   13      4.33      0.00
    9   16   14     -1.98      0.00
    9   16   15     -1.74      0.00
    9   16   16      1.25      0.00
    9   16   17     -0.67      0.00
   10   16    0     -0.75      0.00
   10   16    1     -1.11      0.00
   10   16    2     -3.15      0.00
   10   16    3     -4.48      0.00
   10   16    4     -2.25      0.00
   10   16    5      2.93      0.00
   10   16    6     -2.32      0.00
   10   16    7     -6.01      0.00
   10   16    8     -1.03      0.00
   10   16    9      6.75      0.00
   10   16   10     -1.55      0.00
   10   16   11      4.63      0.00
   10   16   12      0.80      0.00
   10   16   13     10.93      0.00
   10   16   14      2.35      0.00
   10   16   15      3.93      0.00
   10   16   16     -0.94      0.00
   10   16   17      1.06      0.00
   11   16    0      7.85      0.00
   11   16    1     -3.12      0.00
   11   16    2     -5.42      0.00
   11   16    3     -5.86      0.00
   11   16    4     -1.30      0.00
   11   16    5     -2.28      0.00
   11   16    6      7.26      0.00
   11   16    7     -0.93      0.00
   11   16    8     -3.41      0.00
   11   16    9     -0.06      0.00
   11   16   10     -4.25      0.00
   11   16   11     -1.68      0.00
   11   16   12      0.63      0.00
   11   16   13      6.68      0.00
   11   16   14      2.60      0.00
   11   16   15      2.87      0.00
   11   16   16     -1.11      0.00
   12   16    0     -4.92      0.00
   12   16    1      0.90      0.00
   12   16    2      2.65      0.00
   12   16    3     -1.37      0.00
   12   16    4      0.72      0.00
   12   16    5     -7.11      0.00
   12   16    6      0.52      0.00
   12   16    7      9.96      0.00
   12   16    8      2.72      0.00
   12   16    9     -1.62      0.00
   12   16   10     -1.77      0.00
   12   16   11     -4.35      0.00
   12   16   12      1.47      0.00
   12   16   13      1.07      0.00
   12   16   14      4.66      0.00
   12   16   15     -6.44      0.00
   12   16   16      7.07      0.00
   13   16    0     -0.11      0.00
   13   16    1      1.65      0.00
   13   16    2     -3.01      0.00
   13   16    3     -0.84      0.00
   13   16    4     -1.25      0.00
   13   16    5      1.98      0.00
   13   16    6      2.22      0.00
   13   16    7     -6.10      0.00
   13   16    8      2.73      0.00
   13   16    9      3.74      0.00
   13   16   10      0.65      0.00
   13   16   11     -6.24      0.00
   13   16   12      0.61      0.00
   13   16   13      1.33      0.00
   13   16   14      0.02      0.00
   13   16   15     -6.84      0.00
   14   16    0     -6.44      0.00
   14   16    1      1.32      0.00
   14   16    2      0.09      0.00
   14   16    3      1.42      0.00
   14   16    4     -3.52      0.00
   14   16    5      7.30      0.00
   14   16    6      3.06      0.00
   14   16    7     -8.13      0.00
   14   16    8      4.01      0.00
   14   16    9     -1.84      0.00
   14   16   10     -2.09      0.00
   14   16   11      1.04      0.00
   14   16   12      6.35      0.00
   14   16   14      5.76      0.00
   15   16    0     -3.72      0.00
   15   16    1     -3.49      0.00
   15   16    2      5.16      0.00
   15   16    3     -3.43      0.00
   15   16    4      8.53      0.00
   15   16    5     -3.06      0.00
   15   16    6     -8.89      0.00
   15   16    7      1.37      0.00
   15   16    8     -2.97      0.00
   15   16    9      4.61      0.00
   15   16   10      1.26      0.00
   15   16   11      0.07      0.00
   15   16   12     -4.60      0.00
   16   16    0      7.49      0.00
   16   16    2     -4.31      0.00
   16   16    4      2.29      0.00
   16   16    6     -5.40      0.00
   16   16    8      2.89      0.00
   16   16   10     -2.48      0.00
   16   16   12     -1.30      0.00
    0   17    0      7.14      0.00
    0   17    1     -3.37      0.00
    0   17    2     -3.50      0.00
    0   17    3      0.13      0.00
    0   17    4      0.11      0.00
    0   17    5      7.88      0.00
    0   17    6      0.67      0.00
    0   17    7     -1.13      0.00
    0   17    8     -9.98      0.00
    0   17    9     -5.71      0.00
    0   17   10     -6.64      0.00
    0   17   11     -1.90      0.00
    0   17   12      9.62      0.00
    0   17   13     -5.91      0.00
    0   17   14     -5.25      0.00
    0   17   15     -5.90      0.00
    0   17   16     -1.39      0.00
    0   17   17     -3.71      0.00
    0   17   18     -9.95      0.00
    1   17    0      1.86      0.00
    1   17    1      2.33      0.00
    1   17    2      2.58      0.00
    1   17    3     -2.53      0.00
    1   17    4      1.76      0.00
    1   17    5      6.33      0.00
    1   17    6     -2.87      0.00
    1   17    7     -7.00      0.00
    1   17    8      0.06      0.00
    1   17    9     -3.95      0.00
    1   17   10     -8.05      0.00
    1   17   11      3.23      0.00
    1   17   12     -2.01      0.00
    1   17   13     -4.30      0.00
    1   17   14      1.60      0.00
    1   17   15      2.71      0.00
    1   17   16     -1.39      0.00
    1   17   17     -3.38      0.00
    1   17   18     -2.02      0.00
    2   17    0      0.56      0.00
    2   17    1      9.65      0.00
    2   17    2      0.84      0.00
    2   17    3      3.90      0.00
    2   17    4      5.56      0.00
    2   17    5      5.10      0.00
    2   17    6      2.79      0.00
    2   17    7     -5.31      0.00
    2   17    8      2.59      0.00
    2   17    9     -6.20      0.00
    2   17   10      0.83      0.00
    2   17   11     -0.28      0.00
    2   17   12     -3.75      0.00
    2   17   13      3.18      0.00
    2   17   14      3.65      0.00
    2   17   15      0.31      0.00
    2   17   16     -2.48      0.00
    2   17   17      6.27      0.00
    2   17   18     -3.85      0.00
    3   17    0     -0.12      0.00
    3   17    1     -0.84      0.00
    3   17    2      8.70      0.00
    3   17    3     -0.49      0.00
    3   17    4      6.51      0.00
    3   17    5     -0.73      0.00
    3   17    6      7.48      0.00
    3   17    7     -2.18      0.00
    3   17    8      5.03      0.00
    3   17    9      0.60      0.00
    3   17   10     -8.59      0.00
    3   17   11     -0.86      0.00
    3   17   12      1.78      0.00
    3   17   13      1.01      0.00
    3   17   14      6.35      0.00
    3   17   15      5.62      0.00
    3   17   16     -4.57      0.00
    3   17   17     -3.77      0.00
    3   17   18      3.05      0.00
    4   17    0      1.68      0.00
    4   17    1     -3.04      0.00
    4   17    2     -0.33      0.00
    4   17    3     -8.72      0.00
    4   17    4     -0.94      0.00
    4   17    5      3.64      0.00
    4   17    6      1.66      0.00
    4   17    7     -6.00      0.00
    4   17    8     -2.00      0.00
    4   17    9      0.45      0.00
    4   17   10     -2.78      0.00
    4   17   11     -3.24      0.00
    4   17   12     -1.49      0.00
    4   17   13     -3.09      0.00
    4   17   14      4.51      0.00
    4   17   15      6.52      0.00
    4   17   16     -0.96      0.00
    4   17   17      2.81      0.00
    4   17   18     -3.40      0.00
    5   17    0      2.13      0.00
    5   17    1     -1.35      0.00
    5   17    2     -0.39      0.00
    5   17    3     -1.04      0.00
    5   17    4     -3.23      0.00
    5   17    5      4.64      0.00
    5   17    6     -3.10      0.00
    5   17    7     -3.35      0.00
    5   17    8      0.86      0.00
    5   17    9     -6.72      0.00
    5   17   10     -8.73      0.00
    5   17   11      1.10      0.00
    5   17   12      2.89      0.00
    5   17   13     -0.83      0.00
    5   17   14      0.28      0.00
    5   17   15     -2.39      0.00
    5   17   16     -0.14      0.00
    5   17   17     -1.09      0.00
    5   17   18     -3.92      0.00
    6   17    0     -0.71      0.00
    6   17    1      0.21      0.00
    6   17    2      8.89      0.00
    6   17    3      0.43      0.00
    6   17    4     -0.96      0.00
    6   17    5      0.98      0.00
    6   17    6      4.24      0.00
    6   17    7     -6.09      0.00
    6   17    8      1.63      0.00
    6   17    9      0.98      0.00
    6   17   10     -1.89      0.00
    6   17   11     -0.09      0.00
    6   17   12     -4.95      0.00
    6   17   13      9.57      0.00
    6   17   14      9.31      0.00
    6   17   15      1.66      0.00
    6   17   16     -6.38      0.00
    6   17   17     -2.44      0.00
    6   17   18      0.19      0.00
    7   17    0      1.60      0.00
    7   17    1      4.70      0.00
    7   17    2      1.74      0.00
    7   17    3      0.10      0.00
    7   17    4     -0.41      0.00
    7   17    5     -0.33      0.00
    7   17    6      0.93      0.00
    7   17    7     -0.72      0.00
    7   17    8     -4.54      0.00
    7   17    9      7.23      0.00
    7   17   10     -1.76      0.00
    7   17   11     10.01      0.00
    7   17   12      1.66      0.00
    7   17   13      4.90      0.00
    7   17   14      2.51      0.00
    7   17   15      4.07      0.00
    7   17   16     -2.04      0.00
    7   17   17      0.53      0.00
    8   17    0      5.85      0.00
    8   17    1     -4.69      0.00
    8   17    2      1.82      0.00
    8   17    3     -4.51      0.00
    8   17    4      2.99      0.00
    8   17    5      2.19      0.00
    8   17    6     -7.35      0.00
    8   17    7     -6.30      0.00
    8   17    8      8.63      0.00
    8   17    9      2.19      0.00
    8   17   10     -3.76      0.00
    8   17   11     -0.75      0.00
    8   17   12      2.97      0.00
    8   17   13      1.75      0.00
    8   17   14      3.93      0.00
    8   17   15     -2.59      0.00
    8   17   16      1.05      0.00
    8   17   17      1.68      0.00
    9   17    0     -2.55      0.00
    9   17    1     -6.94      0.00
    9   17    2     -2.00      0.00
    9   17    3     -0.44      0.00
    9   17    4     -2.44      0.00
    9   17    5     -1.01      0.00
    9   17    6      3.23      0.00
    9   17    7      1.70      0.00
    9   17    8     -3.44      0.00
    9   17    9      2.54      0.00
    9   17   10     -2.19      0.00
    9   17   11     -1.75      0.00
    9   17   12     -9.20      0.00
    9   17   13      2.34      0.00
    9   17   14      9.24      0.00
    9   17   15      1.01      0.00
    9   17   16      1.30      0.00
    9   17   17      3.37      0.00
   10   17    0      0.06      0.00
   10   17    1      2.29      0.00
   10   17    2     -2.71      0.00
   10   17    3     -6.05      0.00
   10   17    4     -0.27      0.00
   10   17    5      2.77      0.00
   10   17    6      2.56      0.00
   10   17    7     -1.28      0.00
   10   17    8     -1.12      0.00
   10   17    9      7.58      0.00
   10   17   10     -2.19      0.00
   10   17   11      1.43      0.00
   10   17   12     -3.78      0.00
   10   17   13     -0.63      0.00
   10   17   14      4.69      0.00
   10   17   15      2.12      0.00
   10   17   16      0.86      0.00
   11   17    0     -1.83      0.00
   11   17    1     -3.79      0.00
   11   17    2      4.93      0.00
   11   17    3      4.93      0.00
   11   17    4     -6.55      0.00
   11   17    5     -2.42      0.00
   11   17    6      0.24      0.00
   11   17    7      1.47      0.00
   11   17    8      1.20      0.00
   11   17    9     -0.26      0.00
   11   17   10     -1.10      0.00
   11   17   11      4.30      0.00
   11   17   12     -1.29      0.00
   11   17   13      6.12      0.00
   11   17   14      2.94      0.00
   11   17   15      3.07      0.00
   12   17    0      1.35      0.00
   12   17    1     -4.12      0.00
   12   17    2     -2.77      0.00
   12   17    3     -0.04      0.00
   12   17    4      3.80      0.00
   12   17    5     -7.67      0.00
   12   17    6      2.72      0.00
   12   17    7     -6.28      0.00
   12   17    8     -4.89      0.00
   12   17    9      2.03      0.00
   12   17   10     -0.79      0.00
   12   17   11      8.55      0.00
   12   17   12      6.43      0.00
   12   17   13      9.26      0.00
   12   17   14     -0.98      0.00
   12   17   15      0.03      0.00
   13   17    0      2.76      0.00
   13   17    1      1.38      0.00
   13   17    2     -7.99      0.00
   13   17    3     -3.76      0.00
   13   17    4     -1.17      0.00
   13   17    5     -3.48      0.00
   13   17    6     -8.53      0.00
   13   17    7     -1.96      0.00
   13   17    8      5.88      0.00
   13   17    9     -3.75      0.00
   13   17   10      2.07      0.00
   13   17   11      0.73      0.00
   13   17   12     12.48      0.00
   13   17   13      4.85      0.00
   13   17   14     -0.70      0.00
   14   17    0     -4.39      0.00
   14   17    1     -2.95      0.00
   14   17    2     -1.60      0.00
   14   17    3     -1.54      0.00
   14   17    4     -4.42      0.00
   14   17    5     -1.41      0.00
   14   17    6     -1.65      0.00
   14   17    7     -3.81      0.00
   14   17    8     -0.56      0.00
   14   17    9      6.94      0.00
   14   17   10     -6.80      0.00
   14   17   11      7.77      0.00
   14   17   12      2.85      0.00
   15   17    0      4.90      0.00
   15   17    1     -4.73      0.00
   15   17    2      3.41      0.00
   15   17    3     -2.22      0.00
   15   17    4     -0.57      0.00
   15   17    5     -3.50      0.00
   15   17    6     -2.92      0.00
   15   17    7     -1.18      0.00
   15   17    8      1.15      0.00
   15   17    9     -1.98      0.00
   15   17   10     -1.01      0.00
   15   17   11      1.14      0.00
   15   17   12     -1.55      0.00
   16   17    0      5.05      0.00
   16   17    1      0.88      0.00
   16   17    2     -0.99      0.00
   16   17    3     -0.12      0.00
   16   17    4     -1.50      0.00
   16   17    5     -1.74      0.00
   16   17    6     -1.82      0.00
   16   17    7     -3.41      0.00
   16   17    8     -3.50      0.00
   16   17    9     -2.07      0.00
   16   17   10     -0.21      0.00
   16   17   11     -2.10      0.00
   16   17   12      0.68      0.00
   17   17    0      1.75      0.00
   17   17    2     -4.49      0.00
   17   17    4      2.88      0.00
   17   17    6    -13.15      0.00
   17   17    8      6.78      0.00
   17   17   10      0.27      0.00
    0   18    0    -10.02      0.00
    0   18    1     -1.71      0.00
    0   18    2     -3.74      0.00
    0   18    3      4.53      0.00
    0   18    4      3.67      0.00
    0   18    5      0.38      0.00
    0   18    6      4.05      0.00
    0   18    7      8.43      0.00
    0   18    8      0.10      0.00
    0   18    9     -4.97      0.00
    0   18   10      5.52      0.00
    0   18   11     -4.74      0.00
    0   18   12     -2.74      0.00
    0   18   13     -7.51      0.00
    0   18   14      3.27      0.00
    0   18   15      5.51      0.00
    0   18   16      2.38      0.00
    0   18   17     -6.29      0.00
    1   18    0      4.80      0.00
    1   18    1     -0.19      0.00
    1   18    2      1.21      0.00
    1   18    3      0.55      0.00
    1   18    4      4.59      0.00
    1   18    5      0.21      0.00
    1   18    6      6.75      0.00
    1   18    7     -1.13      0.00
    1   18    8      5.68      0.00
    1   18    9     -1.60      0.00
    1   18   10      0.10      0.00
    1   18   11     -6.04      0.00
    1   18   12     -0.04      0.00
    1   18   13     -2.39      0.00
    1   18   14     -3.82      0.00
    1   18   15     -1.94      0.00
    1   18   16     -1.53      0.00
    1   18   17      8.65      0.00
    2   18    0      2.61      0.00
    2   18    1      1.80      0.00
    2   18    2      0.37      0.00
    2   18    3     -0.56      0.00
    2   18    4      1.55      0.00
    2   18    5      1.91      0.00
    2   18    6      0.79      0.00
    2   18    7      0.55      0.00
    2   18    8     -6.13      0.00
    2   18    9      1.10      0.00
    2   18   10     -2.87      0.00
    2   18   11     -2.64      0.00
    2   18   12     -7.92      0.00
    2   18   13      2.44      0.00
    2   18   14     -1.93      0.00
    2   18   15     -5.26      0.00
    2   18   16     -5.89      0.00
    2   18   17     -4.59      0.00
    3   18    0     -3.29      0.00
    3   18    1     -1.43      0.00
    3   18    2      0.10      0.00
    3   18    3      0.60      0.00
    3   18    4      4.87      0.00
    3   18    5     -4.39      0.00
    3   18    6     -0.45      0.00
    3   18    7     -5.58      0.00
    3   18    8      0.92      0.00
    3   18    9     -2.42      0.00
    3   18   10      3.59      0.00
    3   18   11     -3.22      0.00
    3   18   12     -0.63      0.00
    3   18   13     -0.63      0.00
    3   18   14      3.45      0.00
    3   18   15      0.89      0.00
    3   18   16     -0.37      0.00
    3   18   17     -0.88      0.00
    4   18    0      4.32      0.00
    4   18    1      0.78      0.00
    4   18    2      1.03      0.00
    4   18    3      3.61      0.00
    4   18    4      1.32      0.00
    4   18    5     -8.85      0.00
    4   18    6      6.17      0.00
    4   18    7     -3.29      0.00
    4   18    8      7.08      0.00
    4   18    9      2.21      0.00
    4   18   10      6.28      0.00
    4   18   11     -0.76      0.00
    4   18   12     -0.47      0.00
    4   18   13      1.70      0.00
    4   18   14      1.37      0.00
    4   18   15     11.52      0.00
    4   18   16      1.45      0.00
    4   18   17      5.94      0.00
    5   18    0      1.63      0.00
    5   18    1     -1.13      0.00
    5   18    2     -0.46      0.00
    5   18    3     -1.58      0.00
    5   18    4     -6.06      0.00
    5   18    5      1.58      0.00
    5   18    6     -1.36      0.00
    5   18    7      1.65      0.00
    5   18    8      2.78      0.00
    5   18    9      0.90      0.00
    5   18   10     -6.36      0.00
    5   18   11     -0.53      0.00
    5   18   12      1.11      0.00
    5   18   13      1.74      0.00
    5   18   14      5.08      0.00
    5   18   15      3.15      0.00
    5   18   16      3.61      0.00
    5   18   17      2.50      0.00
    6   18    0      0.61      0.00
    6   18    1     -1.63      0.00
    6   18    2      0.04      0.00
    6   18    3     -1.26      0.00
    6   18    4     -2.26      0.00
    6   18    5     -4.31      0.00
    6   18    6     -1.05      0.00
    6   18    7      2.87      0.00
    6   18    8     -5.17      0.00
    6   18    9     -2.73      0.00
    6   18   10     -5.11      0.00
    6   18   11     -4.94      0.00
    6   18   12      1.57      0.00
    6   18   13      5.04      0.00
    6   18   14      5.46      0.00
    6   18   15     -0.16      0.00
    6   18   16      0.22      0.00
    6   18   17      7.32      0.00
    7   18    0     -2.19      0.00
    7   18    1      4.24      0.00
    7   18    2     -0.11      0.00
    7   18    3      4.12      0.00
    7   18    4     -5.02      0.00
    7   18    5     -2.01      0.00
    7   18    6      5.89      0.00
    7   18    7     -2.33      0.00
    7   18    8      2.03      0.00
    7   18    9      0.74      0.00
    7   18   10     -3.60      0.00
    7   18   11      1.90      0.00
    7   18   12     -3.26      0.00
    7   18   13      4.39      0.00
    7   18   14      5.57      0.00
    7   18   15      3.76      0.00
    7   18   16     -2.28      0.00
    7   18   17      5.31      0.00
    8   18    0      9.78      0.00
    8   18    1     -4.90      0.00
    8   18    2      4.70      0.00
    8   18    3      4.66      0.00
    8   18    4      2.19      0.00
    8   18    5     -3.94      0.00
    8   18    6      0.24      0.00
    8   18    7      1.89      0.00
    8   18    8      7.66      0.00
    8   18    9     -0.73      0.00
    8   18   10     -1.94      0.00
    8   18   11      2.42      0.00
    8   18   12      1.81      0.00
    8   18   13      4.15      0.00
    8   18   14      4.56      0.00
    8   18   15     -0.45      0.00
    8   18   16     -3.71      0.00
    9   18    0      7.01      0.00
    9   18    1      5.70      0.00
    9   18    2      7.33      0.00
    9   18    3      3.64      0.00
    9   18    4      3.18      0.00
    9   18    5     -4.12      0.00
    9   18    6     -0.95      0.00
    9   18    7      1.15      0.00
    9   18    8     -6.22      0.00
    9   18    9      6.14      0.00
    9   18   10     -7.00      0.00
    9   18   11     -0.89      0.00
    9   18   12     -2.97      0.00
    9   18   13      3.29      0.00
    9   18   14     -0.77      0.00
    9   18   15      1.14      0.00
    9   18   16      2.25      0.00
   10   18    0     12.48      0.00
   10   18    1      1.79      0.00
   10   18    2      0.73      0.00
   10   18    3      6.82      0.00
   10   18    4     -0.17      0.00
   10   18    5     -2.87      0.00
   10   18    6     -1.76      0.00
   10   18    7     -3.79      0.00
   10   18    8     -3.53      0.00
   10   18    9     -5.46      0.00
   10   18   10    -10.18      0.00
   10   18   11     -0.72      0.00
   10   18   12     -7.82      0.00
   10   18   13     -1.46      0.00
   10   18   14      3.63      0.00
   10   18   15     -2.02      0.00
   11   18    0     -6.62      0.00
   11   18    1      0.91      0.00
   11   18    2      0.24      0.00
   11   18    3      4.56      0.00
   11   18    4    -11.03      0.00
   11   18    5      4.54      0.00
   11   18    6      2.76      0.00
   11   18    7      2.38      0.00
   11   18    8     -5.98      0.00
   11   18    9     -3.31      0.00
   11   18   10     -3.31      0.00
   11   18   11      0.73      0.00
   11   18   12     -2.98      0.00
   11   18   13    -11.99      0.00
   11   18   14      2.65      0.00
   12   18    0      2.96      0.00
   12   18    1     -5.36      0.00
   12   18    2     -1.17      0.00
   12   18    3      4.95      0.00
   12   18    4      4.42      0.00
   12   18    5     -8.37      0.00
   12   18    6      4.55      0.00
   12   18    7      8.26      0.00
   12   18    8      3.01      0.00
   12   18    9      0.94      0.00
   12   18   10     -0.76      0.00
   12   18   11      3.48      0.00
   12   18   12     -7.80      0.00
   12   18   13      3.42      0.00
   13   18    0     -0.95      0.00
   13   18    1     -2.65      0.00
   13   18    2      5.77      0.00
   13   18    3      7.92      0.00
   13   18    4     -5.21      0.00
   13   18    5     -2.93      0.00
   13   18    6      4.22      0.00
   13   18    7     -7.84      0.00
   13   18    8      2.52      0.00
   13   18    9     -8.54      0.00
   13   18   10     -2.74      0.00
   13   18   11      1.83      0.00
   13   18   12      2.08      0.00
   14   18    0      0.02      0.00
   14   18    1     -2.02      0.00
   14   18    2      3.77      0.00
   14   18    3      0.79      0.00
   14   18    4     -5.07      0.00
   14   18    5     -3.44      0.00
   14   18    6     -3.49      0.00
   14   18    7    -10.03      0.00
   14   18    8     -7.18      0.00
   14   18    9     -2.98      0.00
   14   18   10     -9.06      0.00
   14   18   11      3.41      0.00
   14   18   12     -7.31      0.00
   15   18    0     -3.45      0.00
   15   18    1     -2.88      0.00
   15   18    2      3.00      0.00
   15   18    3     -1.60      0.00
   15   18    4     -2.35      0.00
   15   18    5     -4.04      0.00
   15   18    6     -2.18      0.00
   15   18    7      2.65      0.00
   15   18    8      3.57      0.00
   15   18    9      0.85      0.00
   15   18   10     -0.42      0.00
   15   18   11      4.43      0.00
   15   18   12     -0.99      0.00
   16   18    0      3.54      0.00
   16   18    1     -1.07      0.00
   16   18    2     -0.93      0.00
   16   18    3      6.29      0.00
   16   18    4     -1.45      0.00
   16   18    5      0.89      0.00
   16   18    6     -4.25      0.00
   16   18    7     11.12      0.00
   16   18    8      2.60      0.00
   16   18    9      4.03      0.00
   16   18   10      5.86      0.00
   16   18   11      6.76      0.00
   17   18    0      5.65      0.00
   17   18    1      1.12      0.00
   17   18    2     -2.41      0.00
   17   18    3      4.30      0.00
   17   18    4     -4.83      0.00
   17   18    5      2.81      0.00
   17   18    6     -2.64      0.00
   17   18    7     -3.40      0.00
   17   18    8      3.45      0.00
   17   18    9     -1.77      0.00
   17   18   10     -0.06      0.00
   18   18    0    -10.03      0.00
   18   18    2      8.39      0.00
   18   18    4     -6.81      0.00
   18   18    6      2.19      0.00
   18   18    8     -2.15      0.00
    0   19    0     -0.40      0.00
    0   19    1     -0.46      0.00
    0   19    2     -5.50      0.00
    0   19    3     -3.63      0.00
    0   19    4     -0.74      0.00
    0   19    5     -3.73      0.00
    0   19    6     -7.35      0.00
    0   19    7     -0.67      0.00
    0   19    8     -1.29      0.00
    0   19    9     -3.23      0.00
    0   19   10      3.07      0.00
    0   19   11      1.64      0.00
    0   19   12      4.22      0.00
    0   19   13     -2.53      0.00
    0   19   14      4.95      0.00
    0   19   15      4.90      0.00
    0   19   16      4.39      0.00
    0   19   17     -4.01      0.00
    1   19    0     -0.04      0.00
    1   19    1      2.12      0.00
    1   19    2     -2.11      0.00
    1   19    3     -2.15      0.00
    1   19    4     -0.43      0.00
    1   19    5      1.27      0.00
    1   19    6      5.47      0.00
    1   19    7     -2.46      0.00
    1   19    8     -5.92      0.00
    1   19    9     -9.04      0.00
    1   19   10     10.87      0.00
    1   19   11     -1.49      0.00
    1   19   12      4.70      0.00
    1   19   13      2.22      0.00
    1   19   14      2.34      0.00
    1   19   15     -2.04      0.00
    1   19   16     -1.48      0.00
    1   19   17      3.37      0.00
    2   19    0     -0.62      0.00
    2   19    1     -0.89      0.00
    2   19    2      3.13      0.00
    2   19    3     -0.55      0.00
    2   19    4     -3.02      0.00
    2   19    5     -2.40      0.00
    2   19    6     -1.41      0.00
    2   19    7     -6.43      0.00
    2   19    8     -1.58      0.00
    2   19    9      2.68      0.00
    2   19   10     -2.29      0.00
    2   19   11      2.29      0.00
    2   19   12     -1.33      0.00
    2   19   13     -3.32      0.00
    2   19   14      5.91      0.00
    2   19   15     -1.18      0.00
    2   19   16      3.54      0.00
    2   19   17     -2.09      0.00
    3   19    0      0.84      0.00
    3   19    1      3.05      0.00
    3   19    2      0.22      0.00
    3   19    3     -2.54      0.00
    3   19    4     -1.09      0.00
    3   19    5     -2.41      0.00
    3   19    6     -5.03      0.00
    3   19    7      4.90      0.00
    3   19    8     -5.93      0.00
    3   19    9     -0.97      0.00
    3   19   10      4.27      0.00
    3   19   11     -1.78      0.00
    3   19   12     -3.97      0.00
    3   19   13     -5.27      0.00
    3   19   14      0.55      0.00
    3   19   15     -4.04      0.00
    3   19   16      0.35      0.00
    3   19   17      7.36      0.00
    4   19    0      3.95      0.00
    4   19    1      2.90      0.00
    4   19    2      2.27      0.00
    4   19    3      3.60      0.00
    4   19    4      4.21      0.00
    4   19    5      7.56      0.00
    4   19    6     12.93      0.00
    4   19    7     -0.57      0.00
    4   19    8      2.14      0.00
    4   19    9     -1.28      0.00
    4   19   10     -0.24      0.00
    4   19   11      2.38      0.00
    4   19   12     -3.42      0.00
    4   19   13      0.61      0.00
    4   19   14     -9.60      0.00
    4   19   15      4.47      0.00
    4   19   16     -3.69      0.00
    4   19   17     -4.68      0.00
    5   19    0      1.26      0.00
    5   19    1     -2.17      0.00
    5   19    2     -2.82      0.00
    5   19    3     -1.28      0.00
    5   19    4     -3.06      0.00
    5   19    5      2.75      0.00
    5   19    6      5.65      0.00
    5   19    7     -0.16      0.00
    5   19    8      2.15      0.00
    5   19    9      0.40      0.00
    5   19   10      2.19      0.00
    5   19   11     -1.04      0.00
    5   19   12     -1.25      0.00
    5   19   13     -0.78      0.00
    5   19   14      2.77      0.00
    5   19   15      3.56      0.00
    5   19   16      6.21      0.00
    6   19    0     -7.25      0.00
    6   19    1      0.10      0.00
    6   19    2     -1.80      0.00
    6   19    3     -1.31      0.00
    6   19    4    -10.09      0.00
    6   19    5     -3.14      0.00
    6   19    6      6.43      0.00
    6   19    7      2.75      0.00
    6   19    8     -5.26      0.00
    6   19    9     -3.85      0.00
    6   19   10      1.89      0.00
    6   19   11     -1.73      0.00
    6   19   12     -0.53      0.00
    6   19   13     -6.09      0.00
    6   19   14      1.00      0.00
    6   19   15      4.38      0.00
    6   19   16     -0.65      0.00
    7   19    0      2.29      0.00
    7   19    1      3.82      0.00
    7   19    2     -2.15      0.00
    7   19    3      4.63      0.00
    7   19    4      2.35      0.00
    7   19    5      3.50      0.00
    7   19    6      9.27      0.00
    7   19    7      1.58      0.00
    7   19    8     -3.57      0.00
    7   19    9      2.50      0.00
    7   19   10     -2.92      0.00
    7   19   11     -6.83      0.00
    7   19   12     -0.71      0.00
    7   19   13     -2.17      0.00
    7   19   14     -1.17      0.00
    7   19   15     -5.88      0.00
    7   19   16      6.39      0.00
    8   19    0      0.07      0.00
    8   19    1      0.62      0.00
    8   19    2     -3.51      0.00
    8   19    3      4.50      0.00
    8   19    4     -1.94      0.00
    8   19    5      3.76      0.00
    8   19    6     -0.76      0.00
    8   19    7      0.30      0.00
    8   19    8      2.75      0.00
    8   19    9     -1.01      0.00
    8   19   10     -1.99      0.00
    8   19   11     -1.99      0.00
    8   19   12     -0.45      0.00
    8   19   13     -2.06      0.00
    8   19   14      5.14      0.00
    8   19   15     -0.76      0.00
    9   19    0      0.83      0.00
    9   19    1     -4.86      0.00
    9   19    2     -4.35      0.00
    9   19    3     -0.71      0.00
    9   19    4      0.94      0.00
    9   19    5     -6.27      0.00
    9   19    6      1.85      0.00
    9   19    7      3.37      0.00
    9   19    8     -3.54      0.00
    9   19    9      5.27      0.00
    9   19   10     -7.43      0.00
    9   19   11     -2.38      0.00
    9   19   12     -1.75      0.00
    9   19   13      1.09      0.00
    9   19   14      1.05      0.00
    9   19   15      3.36      0.00
   10   19    0     -4.78      0.00
   10   19    1     -1.34      0.00
   10   19    2      0.49      0.00
   10   19    3      2.10      0.00
   10   19    4     -5.76      0.00
   10   19    5      7.98      0.00
   10   19    6      7.60      0.00
   10   19    7      0.38      0.00
   10   19    8      3.68      0.00
   10   19    9      6.73      0.00
   10   19   10     -0.72      0.00
   10   19   11      0.85      0.00
   10   19   12     -6.36      0.00
   10   19   13      9.69      0.00
   10   19   14      3.09      0.00
   11   19    0      9.63      0.00
   11   19    1      1.44      0.00
   11   19    2     -0.06      0.00
   11   19    3      6.11      0.00
   11   19    4      0.79      0.00
   11   19    5     -1.44      0.00
   11   19    6      2.17      0.00
   11   19    7      6.52      0.00
   11   19    8      1.09      0.00
   11   19    9      4.63      0.00
   11   19   10     -2.18      0.00
   11   19   11      0.98      0.00
   11   19   12      5.74      0.00
   11   19   13      7.70      0.00
   12   19    0      5.52      0.00
   12   19    1      1.30      0.00
   12   19    2      2.43      0.00
   12   19    3      4.18      0.00
   12   19    4     -6.56      0.00
   12   19    5     -4.15      0.00
   12   19    6      4.65      0.00
   12   19    7      5.67      0.00
   12   19    8     -0.96      0.00
   12   19    9     -8.28      0.00
   12   19   10     -7.45      0.00
   12   19   11     -9.02      0.00
   12   19   12      1.14      0.00
   12   19   13      7.13      0.00
   13   19    0     -1.00      0.00
   13   19    1     -2.74      0.00
   13   19    2    -14.69      0.00
   13   19    3      1.20      0.00
   13   19    4     -1.51      0.00
   13   19    5     -0.91      0.00
   13   19    6      5.65      0.00
   13   19    7     -7.46      0.00
   13   19    8      8.75      0.00
   13   19    9      3.47      0.00
   13   19   10    -13.78      0.00
   13   19   11     -0.26      0.00
   13   19   12     -1.86      0.00
   14   19    0     -3.89      0.00
   14   19    1     -3.04      0.00
   14   19    2     -0.81      0.00
   14   19    3     -3.07      0.00
   14   19    4     -8.63      0.00
   14   19    5      2.69      0.00
   14   19    6     -3.06      0.00
   14   19    7      3.34      0.00
   14   19    8      3.73      0.00
   14   19    9     -3.08      0.00
   14   19   10     -0.73      0.00
   14   19   11     -3.51      0.00
   14   19   12      5.41      0.00
   15   19    0     -2.81      0.00
   15   19    1      0.11      0.00
   15   19    2      3.24      0.00
   15   19    3      3.40      0.00
   15   19    4      0.43      0.00
   15   19    5     -2.42      0.00
   15   19    6      5.36      0.00
   15   19    7     -3.28      0.00
   15   19    8     -5.98      0.00
   15   19    9     -1.44      0.00
   15   19   10     -0.53      0.00
   15   19   11     -3.75      0.00
   16   19    0      5.10      0.00
   16   19    1     -5.61      0.00
   16   19    2     -2.05      0.00
   16   19    3      4.28      0.00
   16   19    4     -1.41      0.00
   16   19    5      5.89      0.00
   16   19    6     -3.93      0.00
   16   19    7     -2.01      0.00
   16   19    8      0.72      0.00
   16   19    9      3.23      0.00
   16   19   10      0.27      0.00
   17   19    0     -1.60      0.00
   17   19    1     -2.95      0.00
   17   19    2     -1.35      0.00
   17   19    3     -6.19      0.00
   17   19    4     -1.89      0.00
   17   19    5      0.19      0.00
   17   19    6     -0.12      0.00
   17   19    7      1.55      0.00
   17   19    8     -0.93      0.00
   17   19    9      1.63      0.00
   17   19   10     -1.39      0.00
   18   19    0     -2.27      0.00
   18   19    1     -3.28      0.00
   18   19    2     -2.16      0.00
   18   19    3     -1.78      0.00
   18   19    4      3.59      0.00
   18   19    5     -2.32      0.00
   18   19    6     -1.39      0.00
   18   19    7     -2.06      0.00
   18   19    8      3.34      0.00
   19   19    0      3.15      0.00
   19   19    2     -7.28      0.00
   19   19    4     -2.45      0.00
   19   19    6      0.27      0.00
    0   20    0      2.63      0.00
    0   20    1     -1.65      0.00
    0   20    2      6.06      0.00
    0   20    3      5.00      0.00
    0   20    4     -6.67      0.00
    0   20    5     -3.68      0.00
    0   20    6     -7.30      0.00
    0   20    7      6.22      0.00
    0   20    8      5.15      0.00
    0   20    9     -0.75      0.00
    0   20   10     -6.25      0.00
    0   20   11     -3.03      0.00
    0   20   12     -5.00      0.00
    0   20   13    -12.06      0.00
    0   20   14     -2.49      0.00
    0   20   15     -1.90      0.00
    0   20   16      0.29      0.00
    1   20    0     -5.31      0.00
    1   20    1     -0.84      0.00
    1   20    2     -2.20      0.00
    1   20    3     -1.11      0.00
    1   20    4     -1.19      0.00
    1   20    5     -4.16      0.00
    1   20    6     -8.46      0.00
    1   20    7      5.29      0.00
    1   20    8     -0.21      0.00
    1   20    9      0.90      0.00
    1   20   10     -1.93      0.00
    1   20   11     -1.30      0.00
    1   20   12     -1.54      0.00
    1   20   13     -2.79      0.00
    1   20   14      4.08      0.00
    1   20   15     -1.99      0.00
    1   20   16      1.54      0.00
    2   20    0     -0.94      0.00
    2   20    1     -3.16      0.00
    2   20    2     -4.88      0.00
    2   20    3     -2.18      0.00
    2   20    4     -6.72      0.00
    2   20    5      0.37      0.00
    2   20    6     -2.48      0.00
    2   20    7     -1.49      0.00
    2   20    8      4.55      0.00
    2   20    9     -7.24      0.00
    2   20   10      5.27      0.00
    2   20   11     -0.24      0.00
    2   20   12      5.67      0.00
    2   20   13      1.89      0.00
    2   20   14      9.51      0.00
    2   20   15     -4.00      0.00
    2   20   16     -1.93      0.00
    3   20    0      7.47      0.00
    3   20    1      2.08      0.00
    3   20    2     -6.26      0.00
    3   20    3     -0.79      0.00
    3   20    4     -1.94      0.00
    3   20    5     -0.15      0.00
    3   20    6     -3.41      0.00
    3   20    7     -1.55      0.00
    3   20    8      3.48      0.00
    3   20    9     -3.53      0.00
    3   20   10      1.86      0.00
    3   20   11     -1.61      0.00
    3   20   12      4.33      0.00
    3   20   13     -0.71      0.00
    3   20   14     -1.64      0.00
    3   20   15      1.41      0.00
    3   20   16     -0.44      0.00
    4   20    0      0.28      0.00
    4   20    1      2.16      0.00
    4   20    2     -1.91      0.00
    4   20    3      0.61      0.00
    4   20    4     -1.85      0.00
    4   20    5     -0.42      0.00
    4   20    6      0.50      0.00
    4   20    7     -2.68      0.00
    4   20    8     -1.37      0.00
    4   20    9      2.28      0.00
    4   20   10     -1.14      0.00
    4   20   11      2.90      0.00
    4   20   12     -1.89      0.00
    4   20   13     -4.53      0.00
    4   20   14      0.87      0.00
    4   20   15      0.46      0.00
    4   20   16     -1.76      0.00
    5   20    0      0.07      0.00
    5   20    1      1.34      0.00
    5   20    2     -1.52      0.00
    5   20    3      1.15      0.00
    5   20    4      0.23      0.00
    5   20    5      3.65      0.00
    5   20    6      5.33      0.00
    5   20    7      5.19      0.00
    5   20    8      3.05      0.00
    5   20    9     -3.11      0.00
    5   20   10      0.61      0.00
    5   20   11      6.79      0.00
    5   20   12      1.83      0.00
    5   20   13     -4.09      0.00
    5   20   14     -0.35      0.00
    5   20   15     -1.15      0.00
    6   20    0      1.86      0.00
    6   20    1     -0.37      0.00
    6   20    2      1.27      0.00
    6   20    3     -0.71      0.00
    6   20    4     -2.57      0.00
    6   20    5      7.22      0.00
    6   20    6     -0.89      0.00
    6   20    7      2.45      0.00
    6   20    8     -7.64      0.00
    6   20    9      2.82      0.00
    6   20   10      1.73      0.00
    6   20   11      1.85      0.00
    6   20   12      1.73      0.00
    6   20   13      0.57      0.00
    6   20   14     -0.30      0.00
    6   20   15      0.03      0.00
    7   20    0      0.11      0.00
    7   20    1     -1.35      0.00
    7   20    2      1.55      0.00
    7   20    3      6.94      0.00
    7   20    4     -4.75      0.00
    7   20    5     -9.80      0.00
    7   20    6      2.46      0.00
    7   20    7     -7.14      0.00
    7   20    8     -8.16      0.00
    7   20    9     -5.59      0.00
    7   20   10      1.41      0.00
    7   20   11      2.17      0.00
    7   20   12     -0.45      0.00
    7   20   13     -3.38      0.00
    7   20   14      0.83      0.00
    7   20   15      1.02      0.00
    8   20    0     -7.18      0.00
    8   20    1      7.51      0.00
    8   20    2     -2.93      0.00
    8   20    3      1.69      0.00
    8   20    4     -1.31      0.00
    8   20    5      0.26      0.00
    8   20    6     -1.26      0.00
    8   20    7      0.41      0.00
    8   20    8      0.88      0.00
    8   20    9     -0.28      0.00
    8   20   10      2.36      0.00
    8   20   11     -1.59      0.00
    8   20   12      7.19      0.00
    8   20   13     -6.30      0.00
    8   20   14      3.09      0.00
    9   20    0      0.18      0.00
    9   20    1     -5.21      0.00
    9   20    2     -0.16      0.00
    9   20    3      2.69      0.00
    9   20    4      1.14      0.00
    9   20    5     -3.47      0.00
    9   20    6     -1.20      0.00
    9   20    7     -1.62      0.00
    9   20    8      0.11      0.00
    9   20    9     11.61      0.00
    9   20   10      2.83      0.00
    9   20   11      2.96      0.00
    9   20   12     -5.63      0.00
    9   20   13      7.67      0.00
    9   20   14      4.58      0.00
   10   20    0      0.09      0.00
   10   20    1     -2.20      0.00
   10   20    2     -3.64      0.00
   10   20    3      1.11      0.00
   10   20    4     -3.47      0.00
   10   20    5     -6.24      0.00
   10   20    6      3.12      0.00
   10   20    7      0.15      0.00
   10   20    8     -8.93      0.00
   10   20    9     -0.70      0.00
   10   20   10      2.19      0.00
   10   20   11      1.35      0.00
   10   20   12     -0.49      0.00
   10   20   13     -4.66      0.00
   11   20    0     -2.28      0.00
   11   20    1     -1.60      0.00
   11   20    2     -0.61      0.00
   11   20    3     -4.54      0.00
   11   20    4     -3.71      0.00
   11   20    5      3.33      0.00
   11   20    6     -0.24      0.00
   11   20    7     -4.13      0.00
   11   20    8     -0.93      0.00
   11   20    9     -3.31      0.00
   11   20   10      1.91      0.00
   11   20   11     -0.55      0.00
   11   20   12     -3.85      0.00
   11   20   13     -3.18      0.00
   12   20    0     -0.13      0.00
   12   20    1     -1.02      0.00
   12   20    2     -4.04      0.00
   12   20    3     10.29      0.00
   12   20    4     -3.56      0.00
   12   20    5     -1.33      0.00
   12   20    6     -2.70      0.00
   12   20    7     -1.35      0.00
   12   20    8     -4.65      0.00
   12   20    9      1.97      0.00
   12   20   10      4.36      0.00
   12   20   11     -1.22      0.00
   12   20   12      0.81      0.00
   13   20    0      6.31      0.00
   13   20    1      0.95      0.00
   13   20    2     -4.88      0.00
   13   20    3      1.68      0.00
   13   20    4      0.07      0.00
   13   20    5     -1.48      0.00
   13   20    6      3.22      0.00
   13   20    7     -5.73      0.00
   13   20    8     -0.90      0.00
   13   20    9      1.58      0.00
   13   20   10     -4.53      0.00
   13   20   11      7.59      0.00
   14   20    0     -3.67      0.00
   14   20    1     -1.81      0.00
   14   20    2     -2.77      0.00
   14   20    3     -4.39      0.00
   14   20    4      1.58      0.00
   14   20    5      1.33      0.00
   14   20    6     -0.21      0.00
   14   20    7     -5.18      0.00
   14   20    8     -0.84      0.00
   14   20    9      3.32      0.00
   14   20   10      3.27      0.00
   14   20   11      3.87      0.00
   15   20    0     -1.60      0.00
   15   20    1      3.88      0.00
   15   20    2     -3.59      0.00
   15   20    3      1.14      0.00
   15   20    4      0.18      0.00
   15   20    5      3.15      0.00
   15   20    6      0.24      0.00
   15   20    7     -2.72      0.00
   15   20    8      0.28      0.00
   15   20    9      1.83      0.00
   15   20   10      2.76      0.00
   16   20    0     12.08      0.00
   16   20    1     -0.64      0.00
   16   20    2     -5.05      0.00
   16   20    3      1.18      0.00
   16   20    4      2.69      0.00
   16   20    5      1.62      0.00
   16   20    6     -3.18      0.00
   16   20    7     -1.87      0.00
   16   20    8      3.50      0.00
   16   20    9      0.51      0.00
   17   20    0     -1.26      0.00
   17   20    1     -2.12      0.00
   17   20    2      4.41      0.00
   17   20    3     -1.24      0.00
   17   20    4      2.50      0.00
   17   20    5     -2.22      0.00
   17   20    6     -4.25      0.00
   17   20    7     -0.94      0.00
   17   20    8     -0.16      0.00
   17   20    9      0.25      0.00
   18   20    0     -1.69      0.00
   18   20    1     -1.32      0.00
   18   20    2      5.57      0.00
   18   20    3      1.17      0.00
   18   20    4      0.44      0.00
   18   20    5     -2.45      0.00
   18   20    6      1.31      0.00
   18   20    7     -0.83      0.00
   19   20    0     -7.07      0.00
   19   20    1     -1.13      0.00
   19   20    2     -0.33      0.00
   19   20    3     -0.47      0.00
   19   20    4     -1.02      0.00
   19   20    5     -2.84      0.00
   19   20    6      2.91      0.00
   20   20    2      0.00      0.00
    0   21    0     -0.66      0.00
    0   21    1     -5.91      0.00
    0   21    2    -11.41      0.00
    0   21    3      5.33      0.00
    0   21    4      0.41      0.00
    0   21    5      2.73      0.00
    0   21    6     -5.88      0.00
    0   21    7      6.73      0.00
    0   21    8     -3.79      0.00
    0   21    9    -17.48      0.00
    0   21   10      2.09      0.00
    0   21   11     -6.34      0.00
    0   21   12      3.18      0.00
    0   21   13      0.67      0.00
    0   21   14     -6.74      0.00
    0   21   15     -2.54      0.00
    1   21    0      1.28      0.00
    1   21    1     -3.46      0.00
    1   21    2     -3.59      0.00
    1   21    3      1.02      0.00
    1   21    4     -6.05      0.00
    1   21    5     -2.75      0.00
    1   21    6     -4.03      0.00
    1   21    7     -0.37      0.00
    1   21    8     -6.22      0.00
    1   21    9     -0.14      0.00
    1   21   10      4.70      0.00
    1   21   11      0.77      0.00
    1   21   12     -3.73      0.00
    1   21   13     -5.70      0.00
    1   21   14      1.41      0.00
    1   21   15     -0.09      0.00
    2   21    0      1.04      0.00
    2   21    1     -1.80      0.00
    2   21    2      6.51      0.00
    2   21    3     -1.38      0.00
    2   21    4      1.30      0.00
    2   21    5      0.14      0.00
    2   21    6     -1.54      0.00
    2   21    7      4.54      0.00
    2   21    8     -1.56      0.00
    2   21    9      0.94      0.00
    2   21   10      4.35      0.00
    2   21   11      5.89      0.00
    2   21   12      4.46      0.00
    2   21   13     -1.74      0.00
    2   21   14     -2.82      0.00
    2   21   15     -4.73      0.00
    3   21    0     -2.98      0.00
    3   21    1     -3.12      0.00
    3   21    2     -5.47      0.00
    3   21    3     12.30      0.00
    3   21    4      6.45      0.00
    3   21    5      1.58      0.00
    3   21    6     -2.90      0.00
    3   21    7      0.62      0.00
    3   21    8      8.16      0.00
    3   21    9     -4.24      0.00
    3   21   10      4.62      0.00
    3   21   11      1.33      0.00
    3   21   12      3.99      0.00
    3   21   13      1.68      0.00
    3   21   14     -4.44      0.00
    3   21   15      3.24      0.00
    4   21    0      0.29      0.00
    4   21    1     -2.07      0.00
    4   21    2     -3.22      0.00
    4   21    3      0.44      0.00
    4   21    4     -7.57      0.00
    4   21    5      0.54      0.00
    4   21    6     -2.27      0.00
    4   21    7     -1.57      0.00
    4   21    8      0.99      0.00
    4   21    9     -3.89      0.00
    4   21   10      4.02      0.00
    4   21   11     -1.02      0.00
    4   21   12      1.23      0.00
    4   21   13     -1.09      0.00
    4   21   14      1.62      0.00
    4   21   15     -5.15      0.00
    5   21    0      4.74      0.00
    5   21    1      3.18      0.00
    5   21    2     -1.08      0.00
    5   21    3      3.75      0.00
    5   21    4     -0.82      0.00
    5   21    5     -1.12      0.00
    5   21    6     -5.00      0.00
    5   21    7      0.27      0.00
    5   21    8      1.64      0.00
    5   21    9     -2.00      0.00
    5   21   10     -1.29      0.00
    5   21   11     -1.52      0.00
    5   21   12      0.14      0.00
    5   21   13     -0.77      0.00
    5   21   14      0.01      0.00
    5   21   15      4.53      0.00
    6   21    0     -3.94      0.00
    6   21    1     -0.64      0.00
    6   21    2      4.76      0.00
    6   21    3     -1.97      0.00
    6   21    4     -0.50      0.00
    6   21    5     -5.43      0.00
    6   21    6     -0.61      0.00
    6   21    7      5.19      0.00
    6   21    8    -10.08      0.00
    6   21    9      7.00      0.00
    6   21   10     -1.65      0.00
    6   21   11      1.90      0.00
    6   21   12      3.33      0.00
    6   21   13      3.83      0.00
    6   21   14      2.84      0.00
    7   21    0      2.22      0.00
    7   21    1     -4.84      0.00
    7   21    2     -5.17      0.00
    7   21    3     -0.86      0.00
    7   21    4     -4.15      0.00
    7   21    5      0.74      0.00
    7   21    6      1.49      0.00
    7   21    7     -7.93      0.00
    7   21    8      1.37      0.00
    7   21    9     -3.49      0.00
    7   21   10      1.92      0.00
    7   21   11     -1.40      0.00
    7   21   12      3.16      0.00
    7   21   13      5.79      0.00
    7   21   14      1.32      0.00
    8   21    0      0.86      0.00
    8   21    1      1.36      0.00
    8   21    2      0.63      0.00
    8   21    3      3.43      0.00
    8   21    4      2.85      0.00
    8   21    5     -2.23      0.00
    8   21    6     -6.07      0.00
    8   21    7      1.02      0.00
    8   21    8     -6.19      0.00
    8   21    9     -1.51      0.00
    8   21   10     -3.07      0.00
    8   21   11     -4.40      0.00
    8   21   12     -3.82      0.00
    8   21   13     -4.87      0.00
    9   21    0     -2.15      0.00
    9   21    1     -1.03      0.00
    9   21    2      5.19      0.00
    9   21    3     -3.81      0.00
    9   21    4     -2.10      0.00
    9   21    5      1.00      0.00
    9   21    6     -1.36      0.00
    9   21    7     -0.05      0.00
    9   21    8     -3.43      0.00
    9   21    9      1.16      0.00
    9   21   10      2.03      0.00
    9   21   11      3.58      0.00
    9   21   12     -1.45      0.00
    9   21   13     -3.76      0.00
   10   21    0      2.42      0.00
   10   21    1     -2.20      0.00
   10   21    2     -1.44      0.00
   10   21    3     -0.20      0.00
   10   21    4      1.31      0.00
   10   21    5      1.15      0.00
   10   21    6      3.88      0.00
   10   21    7     -5.92      0.00
   10   21    8     -1.69      0.00
   10   21    9      5.01      0.00
   10   21   10      4.73      0.00
   10   21   11      1.01      0.00
   10   21   12      0.36      0.00
   11   21    0     -0.29      0.00
   11   21    1      0.93      0.00
   11   21    2      2.57      0.00
   11   21    3      0.76      0.00
   11   21    4     -3.98      0.00
   11   21    5      0.39      0.00
   11   21    6      0.10      0.00
   11   21    7      0.74      0.00
   11   21    8     -7.69      0.00
   11   21    9     -5.32      0.00
   11   21   10      6.93      0.00
   11   21   11     -6.70      0.00
   11   21   12     -3.60      0.00
   12   21    0      1.74      0.00
   12   21    1     -0.48      0.00
   12   21    2     -2.21      0.00
   12   21    3     -1.56      0.00
   12   21    4     -5.45      0.00
   12   21    5     -3.54      0.00
   12   21    6      2.73      0.00
   12   21    7     -2.52      0.00
   12   21    8     -4.84      0.00
   12   21    9     -6.05      0.00
   12   21   10     -1.96      0.00
   12   21   11      6.80      0.00
   13   21    0     10.94      0.00
   13   21    1     -2.66      0.00
   13   21    2      0.91      0.00
   13   21    3      2.17      0.00
   13   21    4     -3.83      0.00
   13   21    5      0.78      0.00
   13   21    6     -3.59      0.00
   13   21    7     -7.16      0.00
   13   21    8     -2.66      0.00
   13   21    9     -5.20      0.00
   13   21   10     -1.69      0.00
   13   21   11     -3.10      0.00
   14   21    0     -5.50      0.00
   14   21    1      3.97      0.00
   14   21    2      3.40      0.00
   14   21    3     -2.21      0.00
   14   21    4      3.49      0.00
   14   21    5     -3.14      0.00
   14   21    6      6.20      0.00
   14   21    7     -4.41      0.00
   14   21    8     -5.27      0.00
   14   21    9      1.58      0.00
   14   21   10     -0.58      0.00
   15   21    0     -1.97      0.00
   15   21    1      0.99      0.00
   15   21    2      2.49      0.00
   15   21    3     -0.52      0.00
   15   21    4     -3.81      0.00
   15   21    5      5.07      0.00
   15   21    6     -1.38      0.00
   15   21    7      1.64      0.00
   15   21    8      0.90      0.00
   15   21    9      4.03      0.00
   16   21    0      4.47      0.00
   16   21    1      2.31      0.00
   16   21    2     -1.39      0.00
   16   21    3      1.69      0.00
   16   21    4     -2.05      0.00
   16   21    5     -1.40      0.00
   16   21    6     -0.74      0.00
   16   21    7     -1.80      0.00
   16   21    8     -0.10      0.00
   17   21    0     -6.28      0.00
   17   21    1      4.92      0.00
   17   21    2     -1.97      0.00
   17   21    3     -2.32      0.00
   17   21    4     -1.50      0.00
   17   21    5      3.47      0.00
   17   21    6     -0.30      0.00
   17   21    7      3.71      0.00
   18   21    0     -0.96      0.00
   18   21    1     -0.65      0.00
   18   21    2      3.33      0.00
   18   21    3     -2.98      0.00
   18   21    4     -0.97      0.00
   18   21    5      1.34      0.00
   19   21    1     -4.51      0.00
   19   21    2      1.75      0.00
   19   21    3     -0.31      0.00
    0   22    0     -0.35      0.00
    0   22    1     -1.93      0.00
    0   22    2      0.11      0.00
    0   22    3     -3.72      0.00
    0   22    4      7.52      0.00
    0   22    5     -0.37      0.00
    0   22    6     -5.68      0.00
    0   22    7      2.98      0.00
    0   22    8     -6.71      0.00
    0   22    9      3.02      0.00
    0   22   10     13.35      0.00
    0   22   11      1.87      0.00
    0   22   12      6.51      0.00
    0   22   13      0.33      0.00
    0   22   14     -3.97      0.00
    1   22    0     -6.27      0.00
    1   22    1     -4.60      0.00
    1   22    2      3.40      0.00
    1   22    3      2.59      0.00
    1   22    4     -7.22      0.00
    1   22    5      0.45      0.00
    1   22    6     -0.48      0.00
    1   22    7     -4.92      0.00
    1   22    8     -2.18      0.00
    1   22    9    -11.72      0.00
    1   22   10      4.65      0.00
    1   22   11      1.35      0.00
    1   22   12     -0.42      0.00
    1   22   13     -2.77      0.00
    1   22   14      0.63      0.00
    2   22    0      6.92      0.00
    2   22    1     -0.75      0.00
    2   22    2     -0.03      0.00
    2   22    3     -4.41      0.00
    2   22    4      1.09      0.00
    2   22    5     -4.25      0.00
    2   22    6     -2.46      0.00
    2   22    7     -5.65      0.00
    2   22    8     -9.78      0.00
    2   22    9    -14.60      0.00
    2   22   10     -2.05      0.00
    2   22   11      0.88      0.00
    2   22   12      2.41      0.00
    2   22   13     -4.94      0.00
    2   22   14     -2.61      0.00
    3   22    0      8.01      0.00
    3   22    1      7.96      0.00
    3   22    2      1.60      0.00
    3   22    3      0.89      0.00
    3   22    4     -1.23      0.00
    3   22    5      5.21      0.00
    3   22    6     -3.79      0.00
    3   22    7      1.07      0.00
    3   22    8     -7.58      0.00
    3   22    9     -2.09      0.00
    3   22   10     -0.68      0.00
    3   22   11     -1.28      0.00
    3   22   12      2.92      0.00
    3   22   13      5.05      0.00
    3   22   14     -3.53      0.00
    4   22    0      3.17      0.00
    4   22    1      3.54      0.00
    4   22    2      1.91      0.00
    4   22    3      6.64      0.00
    4   22    4     -1.62      0.00
    4   22    5      2.36      0.00
    4   22    6      4.92      0.00
    4   22    7      5.32      0.00
    4   22    8      5.01      0.00
    4   22    9     -5.91      0.00
    4   22   10     -0.16      0.00
    4   22   11      4.95      0.00
    4   22   12     -0.74      0.00
    4   22   13      1.16      0.00
    4   22   14     -4.48      0.00
    5   22    0     -0.05      0.00
    5   22    1      0.08      0.00
    5   22    2      3.14      0.00
    5   22    3     -5.13      0.00
    5   22    4      0.03      0.00
    5   22    5      3.46      0.00
    5   22    6      2.16      0.00
    5   22    7      5.26      0.00
    5   22    8     -1.36      0.00
    5   22    9     -1.66      0.00
    5   22   10      0.23      0.00
    5   22   11      1.19      0.00
    5   22   12     -0.22      0.00
    5   22   13     -2.77      0.00
    5   22   14      0.32      0.00
    6   22    0      1.79      0.00
    6   22    1      5.04      0.00
    6   22    2      2.35      0.00
    6   22    3      0.91      0.00
    6   22    4     -0.12      0.00
    6   22    5      2.06      0.00
    6   22    6      4.42      0.00
    6   22    7      5.20      0.00
    6   22    8      4.40      0.00
    6   22    9     -3.16      0.00
    6   22   10     -2.55      0.00
    6   22   11     -3.59      0.00
    6   22   12     -1.86      0.00
    6   22   13      0.11      0.00
    7   22    0      4.14      0.00
    7   22    1      7.12      0.00
    7   22    2      3.77      0.00
    7   22    3     -0.65      0.00
    7   22    4     -5.63      0.00
    7   22    5      3.43      0.00
    7   22    6      0.76      0.00
    7   22    7      7.40      0.00
    7   22    8     -1.11      0.00
    7   22    9      3.32      0.00
    7   22   10      2.30      0.00
    7   22   11     -2.60      0.00
    7   22   12      2.04      0.00
    7   22   13     -2.67      0.00
    8   22    0      3.63      0.00
    8   22    1     -3.17      0.00
    8   22    2      1.85      0.00
    8   22    3     -5.68      0.00
    8   22    4     -4.92      0.00
    8   22    5     -0.93      0.00
    8   22    6     -7.11      0.00
    8   22    7     -2.02      0.00
    8   22    8      0.98      0.00
    8   22    9      6.10      0.00
    8   22   10     -1.44      0.00
    8   22   11     -4.55      0.00
    8   22   12      0.58      0.00
    8   22   13      3.40      0.00
    9   22    0      2.22      0.00
    9   22    1      0.86      0.00
    9   22    2     -2.30      0.00
    9   22    3     -5.09      0.00
    9   22    4      4.36      0.00
    9   22    5     -1.76      0.00
    9   22    6     -5.16      0.00
    9   22    7      0.09      0.00
    9   22    8      2.80      0.00
    9   22    9      4.47      0.00
    9   22   10      1.65      0.00
    9   22   11     -8.34      0.00
    9   22   12     -2.30      0.00
   10   22    0      2.41      0.00
   10   22    1     -1.31      0.00
   10   22    2      0.57      0.00
   10   22    3     -2.46      0.00
   10   22    4     -6.72      0.00
   10   22    5      5.01      0.00
   10   22    6     -1.36      0.00
   10   22    7     -3.96      0.00
   10   22    8      3.57      0.00
   10   22    9      5.54      0.00
   10   22   10      3.08      0.00
   10   22   11      1.01      0.00
   11   22    0      4.59      0.00
   11   22    1     -6.92      0.00
   11   22    2      2.09      0.00
   11   22    3     -9.22      0.00
   11   22    4     -2.29      0.00
   11   22    5      1.04      0.00
   11   22    6     -4.54      0.00
   11   22    7      0.75      0.00
   11   22    8     -1.65      0.00
   11   22    9      0.36      0.00
   11   22   10      4.03      0.00
   11   22   11     -7.59      0.00
   12   22    0      4.12      0.00
   12   22    1     -1.27      0.00
   12   22    2      1.94      0.00
   12   22    3     -4.91      0.00
   12   22    4     -6.17      0.00
   12   22    5     -1.13      0.00
   12   22    6      0.09      0.00
   12   22    7     -4.55      0.00
   12   22    8      9.37      0.00
   12   22    9      2.24      0.00
   12   22   10     -1.29      0.00
   13   22    0      6.41      0.00
   13   22    1      0.28      0.00
   13   22    2      0.07      0.00
   13   22    3      0.52      0.00
   13   22    4     -7.19      0.00
   13   22    5     -3.91      0.00
   13   22    6     -1.10      0.00
   13   22    7      2.82      0.00
   13   22    8      5.99      0.00
   13   22    9      5.47      0.00
   13   22   10      0.24      0.00
   14   22    0      1.79      0.00
   14   22    1      5.50      0.00
   14   22    2      2.47      0.00
   14   22    3     -5.30      0.00
   14   22    4     -2.98      0.00
   14   22    5     -0.40      0.00
   14   22    6      2.16      0.00
   14   22    7      2.37      0.00
   14   22    8      2.58      0.00
   14   22    9     -0.17      0.00
   15   22    0      0.99      0.00
   15   22    1      0.72      0.00
   15   22    2     -0.07      0.00
   15   22    3     -0.19      0.00
   15   22    4     -3.69      0.00
   15   22    5      0.59      0.00
   15   22    6     -1.07      0.00
   15   22    7      1.70      0.00
   15   22    8      5.24      0.00
   16   22    0      7.88      0.00
   16   22    1      1.86      0.00
   16   22    2     -0.55      0.00
   16   22    3     -0.93      0.00
   16   22    4      0.86      0.00
   16   22    5      2.30      0.00
   16   22    6      2.63      0.00
   16   22    7      0.49      0.00
   17   22    0     -3.69      0.00
   17   22    1      4.61      0.00
   17   22    2      1.66      0.00
   17   22    3      0.11      0.00
   17   22    4      2.23      0.00
   17   22    5      1.30      0.00
   18   22    2     -5.18      0.00
    0   23    0      8.57      0.00
    0   23    1     -1.09      0.00
    0   23    2      4.26      0.00
    0   23    3      0.18      0.00
    0   23    4     -5.11      0.00
    0   23    5    -17.24      0.00
    0   23    6     -3.68      0.00
    0   23    7      1.24      0.00
    0   23    8     -1.55      0.00
    0   23    9      6.57      0.00
    0   23   10     -2.28      0.00
    0   23   11    -14.63      0.00
    0   23   12     -3.91      0.00
    0   23   13      3.10      0.00
    1   23    0     -0.61      0.00
    1   23    1      0.33      0.00
    1   23    2     14.02      0.00
    1   23    3     -0.87      0.00
    1   23    4    -11.14      0.00
    1   23    5     -4.72      0.00
    1   23    6      7.21      0.00
    1   23    7      4.94      0.00
    1   23    8      1.63      0.00
    1   23    9     -3.79      0.00
    1   23   10     -3.33      0.00
    1   23   11     -1.67      0.00
    1   23   12      2.53      0.00
    1   23   13      1.09      0.00
    2   23    0     -5.60      0.00
    2   23    1      1.92      0.00
    2   23    2      4.48      0.00
    2   23    3     -2.56      0.00
    2   23    4     -4.01      0.00
    2   23    5     -4.92      0.00
    2   23    6      0.48      0.00
    2   23    7      1.17      0.00
    2   23    8      4.28      0.00
    2   23    9     -2.17      0.00
    2   23   10      6.35      0.00
    2   23   11     -7.14      0.00
    2   23   12      3.63      0.00
    2   23   13     -0.68      0.00
    3   23    0     -1.33      0.00
    3   23    1     -4.07      0.00
    3   23    2      2.11      0.00
    3   23    3     -3.51      0.00
    3   23    4     -4.44      0.00
    3   23    5     -8.43      0.00
    3   23    6      1.30      0.00
    3   23    7      0.58      0.00
    3   23    8      0.31      0.00
    3   23    9     -0.89      0.00
    3   23   10     -7.07      0.00
    3   23   11     -0.65      0.00
    3   23   12      3.64      0.00
    3   23   13     -0.54      0.00
    4   23    0      8.29      0.00
    4   23    1      5.82      0.00
    4   23    2     -5.24      0.00
    4   23    3      5.68      0.00
    4   23    4     -2.57      0.00
    4   23    5      1.56      0.00
    4   23    6      3.30      0.00
    4   23    7     -0.47      0.00
    4   23    8      6.99      0.00
    4   23    9     -5.56      0.00
    4   23   10     -0.88      0.00
    4   23   11      1.45      0.00
    4   23   12     -2.73      0.00
    4   23   13      0.87      0.00
    5   23    0      2.65      0.00
    5   23    1     11.10      0.00
    5   23    2      3.88      0.00
    5   23    3      1.31      0.00
    5   23    4     -2.10      0.00
    5   23    5     -3.07      0.00
    5   23    6     -1.61      0.00
    5   23    7     11.14      0.00
    5   23    8     -5.06      0.00
    5   23    9      5.71      0.00
    5   23   10     -1.65      0.00
    5   23   11      5.60      0.00
    5   23   12      1.83      0.00
    5   23   13     -0.30      0.00
    6   23    0      7.29      0.00
    6   23    1     -0.32      0.00
    6   23    2     -1.14      0.00
    6   23    3      1.34      0.00
    6   23    4      2.14      0.00
    6   23    5     -4.54      0.00
    6   23    6     -3.76      0.00
    6   23    7     -0.24      0.00
    6   23    8     -6.36      0.00
    6   23    9     -2.35      0.00
    6   23   10     -0.50      0.00
    6   23   11     -0.51      0.00
    6   23   12      2.92      0.00
    7   23    0      3.62      0.00
    7   23    1     -4.07      0.00
    7   23    2     -1.62      0.00
    7   23    3     -1.41      0.00
    7   23    4     -6.93      0.00
    7   23    5     -5.50      0.00
    7   23    6     -7.49      0.00
    7   23    7     -2.60      0.00
    7   23    8     -3.45      0.00
    7   23    9     -3.61      0.00
    7   23   10     -1.74      0.00
    7   23   11     -3.25      0.00
    7   23   12      7.21      0.00
    8   23    0      1.46      0.00
    8   23    1      1.33      0.00
    8   23    2     -2.73      0.00
    8   23    3      2.48      0.00
    8   23    4     -1.52      0.00
    8   23    5     -4.45      0.00
    8   23    6     -2.35      0.00
    8   23    7      8.28      0.00
    8   23    8      7.38      0.00
    8   23    9     -4.91      0.00
    8   23   10      8.15      0.00
    8   23   11     -1.59      0.00
    8   23   12      7.09      0.00
    9   23    0     -3.74      0.00
    9   23    1      5.33      0.00
    9   23    2      4.92      0.00
    9   23    3      3.00      0.00
    9   23    4      4.22      0.00
    9   23    5     -1.56      0.00
    9   23    6      0.81      0.00
    9   23    7      2.46      0.00
    9   23    8      6.65      0.00
    9   23    9      2.35      0.00
    9   23   10     -3.90      0.00
    9   23   11      3.37      0.00
   10   23    0     13.16      0.00
   10   23    1     -3.70      0.00
   10   23    2     -2.36      0.00
   10   23    3      0.72      0.00
   10   23    4     -2.30      0.00
   10   23    5     -2.77      0.00
   10   23    6     -9.53      0.00
   10   23    7      6.38      0.00
   10   23    8     -0.81      0.00
   10   23    9      4.51      0.00
   10   23   10      0.33      0.00
   11   23    0      5.41      0.00
   11   23    1     -1.91      0.00
   11   23    2      1.26      0.00
   11   23    3      0.19      0.00
   11   23    4     -2.06      0.00
   11   23    5      3.00      0.00
   11   23    6     -0.96      0.00
   11   23    7      1.15      0.00
   11   23    8      7.93      0.00
   11   23    9      1.02      0.00
   11   23   10      7.52      0.00
   12   23    0      7.50      0.00
   12   23    1     -3.45      0.00
   12   23    2     -2.01      0.00
   12   23    3      1.71      0.00
   12   23    4     -1.19      0.00
   12   23    5      1.11      0.00
   12   23    6     -4.75      0.00
   12   23    7     -1.45      0.00
   12   23    8      2.93      0.00
   12   23    9     -2.29      0.00
   13   23    0      5.29      0.00
   13   23    1     -7.83      0.00
   13   23    2     -4.79      0.00
   13   23    3     -3.91      0.00
   13   23    4      6.22      0.00
   13   23    5     -3.40      0.00
   13   23    6     -2.63      0.00
   13   23    7     -0.62      0.00
   13   23    8      1.12      0.00
   14   23    0      2.38      0.00
   14   23    1     -2.27      0.00
   14   23    2      2.03      0.00
   14   23    3      2.18      0.00
   14   23    4      8.40      0.00
   14   23    5      2.16      0.00
   14   23    6      0.03      0.00
   14   23    7     -4.13      0.00
   15   23    0     -6.08      0.00
   15   23    1      0.86      0.00
   15   23    2     -2.78      0.00
   15   23    3      3.60      0.00
   15   23    4     -4.26      0.00
   15   23    5      0.29      0.00
   15   23    6     -0.93      0.00
   16   23    1     -4.18      0.00
   16   23    2     -5.29      0.00
   16   23    3     -0.68      0.00
   16   23    4      2.28      0.00
    0   24    0     -1.29      0.00
    0   24    1     -1.16      0.00
    0   24    2      3.20      0.00
    0   24    3      5.14      0.00
    0   24    4     -8.11      0.00
    0   24    5     -1.23      0.00
    0   24    6      3.64      0.00
    0   24    7      5.87      0.00
    0   24    8     -2.57      0.00
    0   24    9     -0.27      0.00
    0   24   10      1.78      0.00
    0   24   11     -4.96      0.00
    0   24   12     -1.45      0.00
    1   24    0      3.27      0.00
    1   24    1     -3.21      0.00
    1   24    2      8.31      0.00
    1   24    3     -3.19      0.00
    1   24    4     -0.78      0.00
    1   24    5     -7.83      0.00
    1   24    6      7.20      0.00
    1   24    7      2.29      0.00
    1   24    8     -1.78      0.00
    1   24    9     -3.03      0.00
    1   24   10      0.92      0.00
    1   24   11      4.73      0.00
    1   24   12      3.65      0.00
    2   24    0     -4.55      0.00
    2   24    1      3.33      0.00
    2   24    2      4.60      0.00
    2   24    3      0.74      0.00
    2   24    4     -7.33      0.00
    2   24    5     -4.09      0.00
    2   24    6      5.04      0.00
    2   24    7     -0.19      0.00
    2   24    8     -0.50      0.00
    2   24    9     -1.42      0.00
    2   24   10     -3.28      0.00
    2   24   11     -0.82      0.00
    2   24   12      5.83      0.00
    3   24    0      6.25      0.00
    3   24    1      1.38      0.00
    3   24    2     -0.70      0.00
    3   24    3     -3.52      0.00
    3   24    4      0.71      0.00
    3   24    5     -8.95      0.00
    3   24    6     -1.01      0.00
    3   24    7      1.83      0.00
    3   24    8     -3.29      0.00
    3   24    9     -1.64      0.00
    3   24   10     -2.27      0.00
    3   24   11     -1.32      0.00
    3   24   12      4.15      0.00
    4   24    0     -0.72      0.00
    4   24    1     -3.29      0.00
    4   24    2     -3.35      0.00
    4   24    3      3.47      0.00
    4   24    4     -4.24      0.00
    4   24    5     -4.17      0.00
    4   24    6      0.65      0.00
    4   24    7     -5.86      0.00
    4   24    8      0.29      0.00
    4   24    9     -1.64      0.00
    4   24   10     -1.74      0.00
    4   24   11     -1.30      0.00
    4   24   12      2.08      0.00
    5   24    0     -4.83      0.00
    5   24    1      1.65      0.00
    5   24    2     -7.85      0.00
    5   24    3      2.58      0.00
    5   24    4     -3.07      0.00
    5   24    5     -1.01      0.00
    5   24    6     -0.10      0.00
    5   24    7      1.48      0.00
    5   24    8     -1.28      0.00
    5   24    9     -4.81      0.00
    5   24   10     -2.87      0.00
    5   24   11     -1.19      0.00
    6   24    0      4.18      0.00
    6   24    1      3.27      0.00
    6   24    2     -2.06      0.00
    6   24    3    -10.58      0.00
    6   24    4      7.17      0.00
    6   24    5     -4.26      0.00
    6   24    6     -3.64      0.00
    6   24    7     -0.72      0.00
    6   24    8     -5.09      0.00
    6   24    9      6.55      0.00
    6   24   10     -7.67      0.00
    6   24   11     -2.03      0.00
    7   24    0      4.00      0.00
    7   24    1     -4.24      0.00
    7   24    2      2.45      0.00
    7   24    3      2.99      0.00
    7   24    4      3.03      0.00
    7   24    5      2.16      0.00
    7   24    6      4.09      0.00
    7   24    7     -6.44      0.00
    7   24    8     -0.12      0.00
    7   24    9    -10.62      0.00
    7   24   10     -2.14      0.00
    7   24   11    -13.66      0.00
    8   24    0      5.47      0.00
    8   24    1      6.11      0.00
    8   24    2     -5.04      0.00
    8   24    3      6.91      0.00
    8   24    4      4.78      0.00
    8   24    5      6.70      0.00
    8   24    6     -2.83      0.00
    8   24    7     -2.73      0.00
    8   24    8     -2.83      0.00
    8   24    9     -4.04      0.00
    8   24   10      1.96      0.00
    9   24    0     -3.97      0.00
    9   24    1      1.01      0.00
    9   24    2     -5.83      0.00
    9   24    3      4.62      0.00
    9   24    4      4.38      0.00
    9   24    5     -1.19      0.00
    9   24    6     -1.68      0.00
    9   24    7      2.35      0.00
    9   24    8      0.81      0.00
    9   24    9      3.85      0.00
    9   24   10      1.80      0.00
   10   24    0     -2.87      0.00
   10   24    1     -9.90      0.00
   10   24    2     -1.70      0.00
   10   24    3     -0.94      0.00
   10   24    4      9.49      0.00
   10   24    5      8.95      0.00
   10   24    6      0.05      0.00
   10   24    7      2.45      0.00
   10   24    8     -2.56      0.00
   10   24    9     -3.70      0.00
   11   24    0     -0.18      0.00
   11   24    1     -0.54      0.00
   11   24    2     -1.23      0.00
   11   24    3      6.40      0.00
   11   24    4     -1.18      0.00
   11   24    5      5.71      0.00
   11   24    6      3.39      0.00
   11   24    7     -3.15      0.00
   11   24    8     -2.63      0.00
   12   24    0      3.09      0.00
   12   24    1     -1.43      0.00
   12   24    2     -1.94      0.00
   12   24    3      3.21      0.00
   12   24    4      5.37      0.00
   12   24    5      0.43      0.00
   12   24    6      0.88      0.00
   12   24    7      0.56      0.00
   12   24    8      4.38      0.00
   13   24    0      3.61      0.00
   13   24    1     -4.90      0.00
   13   24    2      2.86      0.00
   13   24    3     -0.94      0.00
   13   24    4      3.91      0.00
   13   24    5      1.16      0.00
   13   24    6      2.70      0.00
   13   24    7      1.12      0.00
   14   24    0     -2.19      0.00
   14   24    1     -5.32      0.00
   14   24    2      0.63      0.00
   14   24    3     -0.80      0.00
   14   24    4      1.70      0.00
   14   24    5     -4.90      0.00
    0   25    0      2.10      0.00
    0   25    1     -3.93      0.00
    0   25    2     -5.37      0.00
    0   25    3     -0.35      0.00
    0   25    4      0.65      0.00
    0   25    5      0.47      0.00
    0   25    6     -0.31      0.00
    0   25    7      5.81      0.00
    0   25    8     -1.74      0.00
    0   25    9      5.38      0.00
    0   25   10      0.19      0.00
    1   25    0      5.18      0.00
    1   25    1     -3.40      0.00
    1   25    2     -3.93      0.00
    1   25    3     -5.66      0.00
    1   25    4     -1.23      0.00
    1   25    5     -3.49      0.00
    1   25    6      0.48      0.00
    1   25    7     -3.58      0.00
    1   25    8     -3.15      0.00
    1   25    9      0.89      0.00
    1   25   10      5.00      0.00
    2   25    0     -4.55      0.00
    2   25    1     -0.26      0.00
    2   25    2     -2.92      0.00
    2   25    3     -1.03      0.00
    2   25    4     -3.97      0.00
    2   25    5      0.61      0.00
    2   25    6      4.76      0.00
    2   25    7      0.22      0.00
    2   25    8     -1.20      0.00
    2   25    9     -6.01      0.00
    2   25   10     -2.00      0.00
    3   25    0     -0.77      0.00
    3   25    1      1.22      0.00
    3   25    2     -5.40      0.00
    3   25    3     -2.96      0.00
    3   25    4      7.55      0.00
    3   25    5      5.00      0.00
    3   25    6      3.10      0.00
    3   25    7      2.86      0.00
    3   25    8      1.78      0.00
    3   25    9      1.00      0.00
    3   25   10     -0.47      0.00
    4   25    0      4.49      0.00
    4   25    1      0.85      0.00
    4   25    2      3.96      0.00
    4   25    3     -2.45      0.00
    4   25    4      2.67      0.00
    4   25    5     -3.84      0.00
    4   25    6      6.91      0.00
    4   25    7      5.31      0.00
    4   25    8      1.95      0.00
    4   25    9     -3.43      0.00
    4   25   10     -8.54      0.00
    5   25    0      3.12      0.00
    5   25    1      0.93      0.00
    5   25    2      1.11      0.00
    5   25    3      2.67      0.00
    5   25    4      2.08      0.00
    5   25    5      1.82      0.00
    5   25    6      4.04      0.00
    5   25    7     -0.66      0.00
    5   25    8      3.80      0.00
    5   25    9     -6.19      0.00
    5   25   10      0.56      0.00
    6   25    0     -4.31      0.00
    6   25    1      3.78      0.00
    6   25    2      3.06      0.00
    6   25    3     -0.19      0.00
    6   25    4      1.52      0.00
    6   25    5     -2.06      0.00
    6   25    6      1.01      0.00
    6   25    7      0.71      0.00
    6   25    8     -2.10      0.00
    6   25    9      3.71      0.00
    6   25   10     -5.50      0.00
    7   25    0      4.34      0.00
    7   25    1      7.76      0.00
    7   25    2     -0.85      0.00
    7   25    3      0.18      0.00
    7   25    4      2.09      0.00
    7   25    5      3.76      0.00
    7   25    6      1.93      0.00
    7   25    7     -3.02      0.00
    7   25    8      3.29      0.00
    7   25    9     -2.18      0.00
    8   25    0     -6.05      0.00
    8   25    1      4.50      0.00
    8   25    2      8.39      0.00
    8   25    3     -0.15      0.00
    8   25    4     -2.75      0.00
    8   25    5      1.63      0.00
    8   25    6     -1.22      0.00
    8   25    7     -3.66      0.00
    8   25    8      3.66      0.00
    8   25    9     -3.23      0.00
    9   25    0      0.39      0.00
    9   25    1      2.67      0.00
    9   25    2      1.40      0.00
    9   25    3     -2.51      0.00
    9   25    4      4.05      0.00
    9   25    5      1.61      0.00
    9   25    6     -3.51      0.00
    9   25    7     -2.27      0.00
    9   25    8     -5.42      0.00
   10   25    0     -3.86      0.00
   10   25    1      0.26      0.00
   10   25    2     -1.18      0.00
   10   25    3      3.58      0.00
   10   25    4      0.94      0.00
   10   25    5      3.70      0.00
   10   25    6     -0.29      0.00
   10   25    7     -7.57      0.00
   11   25    0     -4.36      0.00
   11   25    1     -1.28      0.00
   11   25    2     -1.90      0.00
   11   25    3     -3.90      0.00
   11   25    4     -7.72      0.00
   11   25    5      0.86      0.00
   11   25    6     -4.96      0.00
   12   25    1      5.41      0.00
   12   25    2      4.10      0.00
   12   25    3      0.02      0.00
   12   25    4     -0.40      0.00
   12   25    5     -0.43      0.00
    0   26    0      7.30      0.00
    0   26    1      0.92      0.00
    0   26    2     -3.72      0.00
    0   26    3      2.79      0.00
    0   26    4     -0.77      0.00
    0   26    5      2.06      0.00
    0   26    6      5.44      0.00
    0   26    7      0.45      0.00
    0   26    8     -2.64      0.00
    0   26    9     -1.91      0.00
    1   26    0      1.18      0.00
    1   26    1     -0.14      0.00
    1   26    2     -0.24      0.00
    1   26    3      1.92      0.00
    1   26    4     -6.00      0.00
    1   26    5      1.61      0.00
    1   26    6      3.52      0.00
    1   26    7      0.47      0.00
    1   26    8     -2.54      0.00
    1   26    9      5.29      0.00
    2   26    0     -1.81      0.00
    2   26    1      2.56      0.00
    2   26    2      3.61      0.00
    2   26    3     -6.36      0.00
    2   26    4     -1.60      0.00
    2   26    5     -1.33      0.00
    2   26    6      2.72      0.00
    2   26    7     -0.26      0.00
    2   26    8     -0.59      0.00
    2   26    9      0.26      0.00
    3   26    0      0.81      0.00
    3   26    1      0.06      0.00
    3   26    2     -3.50      0.00
    3   26    3      2.36      0.00
    3   26    4      4.74      0.00
    3   26    5     -1.92      0.00
    3   26    6      3.89      0.00
    3   26    7     -5.15      0.00
    3   26    8      0.67      0.00
    3   26    9      4.56      0.00
    4   26    0      2.73      0.00
    4   26    1     -4.72      0.00
    4   26    2      1.97      0.00
    4   26    3      0.78      0.00
    4   26    4     -2.36      0.00
    4   26    5     -2.56      0.00
    4   26    6      1.20      0.00
    4   26    7     -0.06      0.00
    4   26    8     -0.22      0.00
    4   26    9     -0.39      0.00
    5   26    0     -0.34      0.00
    5   26    1      4.20      0.00
    5   26    2     -6.14      0.00
    5   26    3     -0.06      0.00
    5   26    4      0.36      0.00
    5   26    5     -0.19      0.00
    5   26    6      0.06      0.00
    5   26    7     -3.37      0.00
    5   26    8      2.38      0.00
    6   26    0     -4.14      0.00
    6   26    1      1.70      0.00
    6   26    2      6.97      0.00
    6   26    3     -1.66      0.00
    6   26    4      4.47      0.00
    6   26    5      3.02      0.00
    6   26    6      3.59      0.00
    6   26    7      0.21      0.00
    6   26    8     -0.53      0.00
    7   26    0      2.14      0.00
    7   26    1      4.08      0.00
    7   26    2      0.22      0.00
    7   26    3      1.60      0.00
    7   26    4      0.39      0.00
    7   26    5      3.60      0.00
    7   26    6     -5.16      0.00
    7   26    7     -0.02      0.00
    8   26    0     -9.35      0.00
    8   26    1     -1.97      0.00
    8   26    2     -1.65      0.00
    8   26    3     -1.70      0.00
    8   26    4     -5.19      0.00
    8   26    5      2.74      0.00
    8   26    6      6.87      0.00
    8   26    7     -0.85      0.00
    9   26    0      1.30      0.00
    9   26    1     -2.16      0.00
    9   26    2     -0.48      0.00
    9   26    3     -1.51      0.00
    9   26    4      2.50      0.00
    9   26    5     -4.22      0.00
    9   26    6     -1.64      0.00
   10   26    2      2.09      0.00
   10   26    3      0.48      0.00
   10   26    4     -7.43      0.00
   10   26    5      0.33      0.00
    0   27    1      0.57      0.00
    0   27    2      4.54      0.00
    0   27    3      5.09      0.00
    0   27    4     -6.58      0.00
    0   27    5     -1.23      0.00
    0   27    6     -3.61      0.00
    0   27    7     -9.81      0.00
    1   27    1     -2.03      0.00
    1   27    2      7.78      0.00
    1   27    3      5.82      0.00
    1   27    4     -2.37      0.00
    1   27    5     -2.77      0.00
    1   27    6      6.56      0.00
    1   27    7      0.33      0.00
    2   27    1     -2.95      0.00
    2   27    2      3.15      0.00
    2   27    3      0.62      0.00
    2   27    4     -1.13      0.00
    2   27    5      2.53      0.00
    2   27    6      6.34      0.00
    2   27    7     -5.09      0.00
    3   27    1      0.82      0.00
    3   27    2      1.10      0.00
    3   27    3     -1.66      0.00
    3   27    4     -1.80      0.00
    3   27    5     -0.30      0.00
    3   27    6     -4.64      0.00
    3   27    7     -3.22      0.00
    4   27    1     -3.36      0.00
    4   27    2     -4.84      0.00
    4   27    3     -2.36      0.00
    4   27    4      1.45      0.00
    4   27    5      2.12      0.00
    4   27    6      2.50      0.00
    5   27    1      1.22      0.00
    5   27    2     -3.37      0.00
    5   27    3      0.76      0.00
    5   27    4     -4.92      0.00
    5   27    5     -1.69      0.00
    5   27    6      0.08      0.00
    6   27    1     -4.68      0.00
    6   27    2     -4.76      0.00
    6   27    3     -7.90      0.00
    6   27    4      3.94      0.00
    6   27    5      1.08      0.00
    7   27    2     -0.33      0.00
    7   27    3     -3.54      0.00
    7   27    4     -2.25      0.00
    0    1    0    193.88      0.00
    1    1    0    102.43      0.00
   20   20    0     -7.49      0.00
   19   21    0     -0.07      0.00
   20   21    0     -8.88      0.00
   21   21    0     -6.40      0.00
   18   22    0     -6.45      0.00
   19   22    0      3.80      0.00
   20   22    0     -4.29      0.00
   16   23    0      0.19      0.00
   17   23    0      7.43      0.00
   18   23    0     -1.83      0.00
   19   23    0     -0.60      0.00
   15   24    0      4.55      0.00
   16   24    0     -5.33      0.00
   17   24    0     -2.14      0.00
   18   24    0     -0.75      0.00
   12   25    0      3.20      0.00
   13   25    0      5.77      0.00
   14   25    0     -3.40      0.00
   15   25    0     -8.09      0.00
   16   25    0      7.12      0.00
   10   26    0     -3.15      0.00
   11   26    0     -3.49      0.00
   12   26    0      3.00      0.00
   13   26    0     -0.19      0.00
   14   26    0     -2.34      0.00
   15   26    0     -0.70      0.00
    0   27    0     -3.87      0.00
    1   27    0     -8.48      0.00
    2   27    0     -2.09      0.00
    3   27    0     -8.64      0.00
    4   27    0      1.14      0.00
    5   27    0     -7.67      0.00
    6   27    0      8.19      0.00
    7   27    0      3.38      0.00
    8   27    0     -0.76      0.00
    9   27    0     -5.96      0.00
   10   27    0     -6.24      0.00
   11   27    0      1.58      0.00
   12   27    0      1.34      0.00
   13   27    0     -4.95      0.00
    0    1    1   -197.61      0.00
   20   21    1      2.85      0.00
   18   22    1     -3.08      0.00
   19   22    1     -1.48      0.00
   20   22    1      5.49      0.00
   17   23    1      5.10      0.00
   18   23    1      3.15      0.00
   19   23    1     -1.45      0.00
   15   24    1     -0.38      0.00
   16   24    1      3.81      0.00
   17   24    1     -1.81      0.00
   18   24    1     -2.90      0.00
   13   25    1      3.68      0.00
   14   25    1     -2.93      0.00
   15   25    1      1.51      0.00
   16   25    1      7.63      0.00
   10   26    1     11.24      0.00
   11   26    1     -1.38      0.00
   12   26    1     -3.85      0.00
   13   26    1      2.95      0.00
   14   26    1      1.70      0.00
   15   26    1      2.81      0.00
    7   27    1      2.07      0.00
    8   27    1     10.91      0.00
    9   27    1     -4.66      0.00
   10   27    1     -5.07      0.00
   11   27    1      1.86      0.00
   12   27    1     -0.12      0.00
   13   27    1     -1.05      0.00
   20   21    2     -0.39      0.00
   21   21    2      3.82      0.00
   19   22    2     -0.44      0.00
   20   22    2     -4.99      0.00
   17   23    2      5.57      0.00
   18   23    2      5.95      0.00
   19   23    2     -3.50      0.00
   15   24    2     -6.51      0.00
   16   24    2      2.27      0.00
   17   24    2     -3.83      0.00
   18   24    2      4.63      0.00
   13   25    2      7.35      0.00
   14   25    2     -4.36      0.00
   15   25    2      2.55      0.00
   16   25    2      1.06      0.00
   11   26    2     -1.77      0.00
   12   26    2     -1.89      0.00
   13   26    2      1.58      0.00
   14   26    2     -0.12      0.00
   15   26    2     -4.42      0.00
    8   27    2     -0.51      0.00
    9   27    2     -2.82      0.00
   10   27    2     -8.13      0.00
   11   27    2      4.21      0.00
   12   27    2      1.10      0.00
   13   27    2     -3.70      0.00
   20   21    3     -4.28      0.00
   18   22    3     -0.20      0.00
   19   22    3     -4.89      0.00
   20   22    3      1.26      0.00
   17   23    3      2.90      0.00
   18   23    3      6.19      0.00
   19   23    3      2.84      0.00
   15   24    3      3.16      0.00
   16   24    3      2.48      0.00
   17   24    3      1.75      0.00
   13   25    3      2.03      0.00
   14   25    3     -4.19      0.00
   15   25    3      1.87      0.00
   16   25    3     -0.23      0.00
   11   26    3     -0.50      0.00
   12   26    3     -3.14      0.00
   13   26    3     -6.48      0.00
   14   26    3      5.01      0.00
    8   27    3      0.19      0.00
    9   27    3     -1.35      0.00
   10   27    3     -0.90      0.00
   11   27    3      1.65      0.00
   12   27    3     -2.59      0.00
   20   20    4      0.87      0.00
   19   21    4      5.35      0.00
   20   21    4     -1.75      0.00
   21   21    4     -7.39      0.00
   18   22    4     -2.72      0.00
   19   22    4      0.54      0.00
   17   23    4      5.96      0.00
   18   23    4     -1.42      0.00
   15   24    4      4.20      0.00
   16   24    4      1.28      0.00
   17   24    4      4.02      0.00
   13   25    4      4.96      0.00
   14   25    4     -6.24      0.00
   15   25    4     -5.04      0.00
   16   25    4      3.36      0.00
   11   26    4     -2.53      0.00
   12   26    4     -3.35      0.00
   13   26    4     -0.81      0.00
   14   26    4     -0.18      0.00
    8   27    4     -0.93      0.00
    9   27    4     -0.86      0.00
   10   27    4     -0.31      0.00
   11   27    4     -1.69      0.00
   12   27    4      0.90      0.00
   19   21    5     -3.35      0.00
   20   21    5      2.89      0.00
   18   22    5     -1.23      0.00
   19   22    5      5.05      0.00
   16   23    5     -0.09      0.00
   17   23    5     -3.53      0.00
   18   23    5      1.58      0.00
   15   24    5      0.63      0.00
   16   24    5      3.73      0.00
   17   24    5     -1.86      0.00
   13   25    5     -1.67      0.00
   14   25    5     -3.44      0.00
   15   25    5     -0.50      0.00
   11   26    5      5.81      0.00
   12   26    5     -1.92      0.00
   13   26    5     -3.93      0.00
    7   27    5      6.17      0.00
    8   27    5      3.84      0.00
    9   27    5      3.73      0.00
   10   27    5      4.89      0.00
   11   27    5      2.79      0.00
   20   20    6     -3.08      0.00
   18   21    6      3.36      0.00
   19   21    6      0.26      0.00
   20   21    6      1.83      0.00
   17   22    6     -3.18      0.00
   18   22    6     -1.00      0.00
   19   22    6      2.01      0.00
   16   23    6     -6.68      0.00
   17   23    6      0.54      0.00
   14   24    6     -0.71      0.00
   15   24    6     -0.96      0.00
   16   24    6     -2.31      0.00
   12   25    6      1.59      0.00
   13   25    6     -2.72      0.00
   14   25    6      1.00      0.00
   15   25    6      5.90      0.00
   10   26    6     -2.36      0.00
   11   26    6      0.59      0.00
   12   26    6     -2.60      0.00
   13   26    6     -0.76      0.00
    6   27    6     -0.35      0.00
    7   27    6      2.24      0.00
    8   27    6     -2.66      0.00
    9   27    6      2.63      0.00
   10   27    6      0.44      0.00
   11   27    6      3.45      0.00
   19   20    7      3.97      0.00
   18   21    7      3.22      0.00
   19   21    7      0.92      0.00
   17   22    7      0.85      0.00
   18   22    7      3.43      0.00
   15   23    7     -5.01      0.00
   16   23    7      2.15      0.00
   17   23    7      5.18      0.00
   14   24    7     -1.34      0.00
   15   24    7     -2.08      0.00
   16   24    7     -0.97      0.00
   11   25    7     -5.51      0.00
   12   25    7     -4.19      0.00
   13   25    7      1.75      0.00
   14   25    7      1.15      0.00
    9   26    7      1.80      0.00
   10   26    7     -0.75      0.00
   11   26    7      0.03      0.00
   12   26    7     -1.28      0.00
    4   27    7     -4.05      0.00
    5   27    7     -4.90      0.00
    6   27    7     -4.11      0.00
    7   27    7     -1.64      0.00
    8   27    7     -1.37      0.00
    9   27    7     -0.40      0.00
   10   27    7      4.01      0.00
   19   19    8     -3.10      0.00
   18   20    8      3.05      0.00
   19   20    8      1.04      0.00
   20   20    8      8.83      0.00
   17   21    8      8.21      0.00
   18   21    8      4.01      0.00
   19   21    8      1.17      0.00
   16   22    8      5.58      0.00
   17   22    8      2.55      0.00
   18   22    8     -2.94      0.00
   14   23    8      3.41      0.00
   15   23    8     -0.75      0.00
   16   23    8      7.43      0.00
   13   24    8     -2.55      0.00
   14   24    8     -5.26      0.00
   15   24    8     -0.24      0.00
   10   25    8      4.92      0.00
   11   25    8     -1.64      0.00
   12   25    8     -1.99      0.00
   13   25    8      0.38      0.00
    7   26    8      5.34      0.00
    8   26    8      4.97      0.00
    9   26    8      5.76      0.00
   10   26    8      2.69      0.00
   11   26    8      3.17      0.00
    0   27    8     -6.72      0.00
    1   27    8     -3.63      0.00
    2   27    8     -4.36      0.00
    3   27    8     -4.28      0.00
    4   27    8     -4.22      0.00
    5   27    8      0.76      0.00
    6   27    8     -1.23      0.00
    7   27    8     -0.48      0.00
    8   27    8      1.37      0.00
    9   27    8      1.72      0.00
   18   19    9     -1.70      0.00
   18   20    9      1.78      0.00
   19   20    9      4.02      0.00
   16   21    9      4.09      0.00
   17   21    9     -0.01      0.00
   18   21    9      5.21      0.00
   15   22    9      2.32      0.00
   16   22    9      2.90      0.00
   17   22    9      3.58      0.00
   13   23    9     -0.32      0.00
   14   23    9      3.85      0.00
   15   23    9      0.29      0.00
   11   24    9     -9.48      0.00
   12   24    9     -4.88      0.00
   13   24    9     -3.25      0.00
   14   24    9     -3.10      0.00
    9   25    9     -0.45      0.00
   10   25    9     -3.38      0.00
   11   25    9      0.84      0.00
   12   25    9     -3.50      0.00
    5   26    9      0.40      0.00
    6   26    9      3.91      0.00
    7   26    9      4.96      0.00
    8   26    9     -1.63      0.00
    9   26    9      3.62      0.00
   10   26    9     -0.24      0.00
    0   27    9      0.56      0.00
    1   27    9     -2.29      0.00
    2   27    9      1.72      0.00
    3   27    9     -2.43      0.00
    4   27    9     -0.67      0.00
    5   27    9      2.30      0.00
    6   27    9      4.54      0.00
    7   27    9      2.57      0.00
    0    0   10     10.94      0.00
   18   18   10      5.32      0.00
   18   19   10      5.90      0.00
   19   19   10      6.66      0.00
   16   20   10     -2.62      0.00
   17   20   10      3.62      0.00
   18   20   10      0.90      0.00
   15   21   10      5.47      0.00
   16   21   10      1.51      0.00
   17   21   10      6.12      0.00
   14   22   10     -0.91      0.00
   15   22   10      0.95      0.00
   16   22   10      2.95      0.00
   12   23   10      3.19      0.00
   13   23   10     -0.92      0.00
   14   23   10      4.07      0.00
   15   23   10      2.11      0.00
   10   24   10      0.77      0.00
   11   24   10      2.88      0.00
   12   24   10      1.17      0.00
   13   24   10     -1.00      0.00
    7   25   10      4.62      0.00
    8   25   10     -2.56      0.00
    9   25   10     -0.93      0.00
   10   25   10      4.23      0.00
   11   25   10      1.72      0.00
    0   26   10     -0.58      0.00
    1   26   10     -1.80      0.00
    2   26   10     -0.01      0.00
    3   26   10     -2.78      0.00
    4   26   10      0.86      0.00
    5   26   10      0.03      0.00
    6   26   10     -3.81      0.00
    7   26   10     -1.96      0.00
    8   26   10      8.25      0.00
    0   27   10     -1.46      0.00
    1   27   10     -3.57      0.00
    2   27   10      1.41      0.00
    3   27   10     -5.93      0.00
    4   27   10     -2.96      0.00
    5   27   10     -2.44      0.00
    0    1   11    -22.80      0.00
   17   18   11      3.11      0.00
   16   19   11      3.11      0.00
   17   19   11      9.65      0.00
   18   19   11     -5.23      0.00
   15   20   11      1.26      0.00
   16   20   11     -4.45      0.00
   17   20   11     -3.49      0.00
   14   21   11      1.17      0.00
   15   21   11      0.27      0.00
   16   21   11      1.22      0.00
   12   22   11     -5.07      0.00
   13   22   11     -3.98      0.00
   14   22   11     -1.43      0.00
   15   22   11     -5.63      0.00
   10   23   11     -7.88      0.00
   11   23   11     -3.69      0.00
   12   23   11     -5.30      0.00
   13   23   11      2.60      0.00
    8   24   11     -9.33      0.00
    9   24   11      3.32      0.00
   10   24   11     -3.70      0.00
   11   24   11     -3.42      0.00
   12   24   11     -3.28      0.00
    0   25   11      0.66      0.00
    1   25   11     -1.06      0.00
    2   25   11      6.16      0.00
    3   25   11     -1.85      0.00
    4   25   11      4.11      0.00
    5   25   11     -7.93      0.00
    6   25   11     -0.36      0.00
    7   25   11     -3.19      0.00
    8   25   11     -3.83      0.00
    9   25   11     -5.68      0.00
    0   26   11      2.30      0.00
    1   26   11     -5.13      0.00
    2   26   11      1.83      0.00
    3   26   11     -2.93      0.00
    4   26   11     -2.51      0.00
    5   26   11      4.84      0.00
    6   26   11     -0.19      0.00
    0    0   12    -30.34      0.00
    0    1   12    -15.80      0.00
    1    1   12     -9.19      0.00
    0    2   12     -0.50      0.00
   17   17   12     12.62      0.00
   16   18   12      2.12      0.00
   17   18   12     -3.23      0.00
   18   18   12      2.57      0.00
   15   19   12     -5.25      0.00
   16   19   12     -1.00      0.00
   17   19   12     -1.59      0.00
   18   19   12      4.18      0.00
   13   20   12      3.70      0.00
   14   20   12      6.61      0.00
   15   20   12     -0.99      0.00
   16   20   12      1.37      0.00
   12   21   12     -4.20      0.00
   13   21   12      1.85      0.00
   14   21   12     -5.99      0.00
   15   21   12     -2.37      0.00
   10   22   12     -1.72      0.00
   11   22   12      0.78      0.00
   12   22   12     -1.66      0.00
   13   22   12      8.24      0.00
   14   22   12     -1.82      0.00
    9   23   12     -3.68      0.00
   10   23   12     -0.52      0.00
   11   23   12     -0.50      0.00
   12   23   12      3.92      0.00
    5   24   12     -0.75      0.00
    6   24   12     -0.10      0.00
    7   24   12      1.53      0.00
    8   24   12     -3.70      0.00
    9   24   12     -0.86      0.00
   10   24   12      4.01      0.00
    0   25   12     -2.90      0.00
    1   25   12     -0.33      0.00
    2   25   12      2.29      0.00
    3   25   12      1.84      0.00
    4   25   12      1.87      0.00
    5   25   12     -6.79      0.00
    6   25   12      0.39      0.00
    7   25   12      4.81      0.00
    0   26   12     -1.43      0.00
    1   26   12     -1.19      0.00
    2   26   12      0.77      0.00
    3   26   12     -0.75      0.00
    0    1   13     20.02      0.00
    0    2   13     20.44      0.00
    1    2   13      7.17      0.00
    0    3   13     14.71      0.00
   14   16   13     -5.90      0.00
   15   16   13      2.73      0.00
   14   17   13     -0.69      0.00
   15   17   13     13.11      0.00
   16   17   13      4.33      0.00
   13   18   13     -2.36      0.00
   14   18   13    -12.73      0.00
   15   18   13      0.40      0.00
   16   18   13      7.40      0.00
   17   18   13     -6.50      0.00
   13   19   13     -0.86      0.00
   14   19   13      0.46      0.00
   15   19   13      3.35      0.00
   16   19   13      6.07      0.00
   17   19   13      3.16      0.00
   12   20   13      3.34      0.00
   13   20   13      2.07      0.00
   14   20   13      0.83      0.00
   15   20   13      6.98      0.00
   10   21   13     -4.28      0.00
   11   21   13     -4.70      0.00
   12   21   13     -0.85      0.00
   13   21   13     -6.27      0.00
   14   21   13     -9.32      0.00
    9   22   13      0.98      0.00
   10   22   13      4.39      0.00
   11   22   13      5.05      0.00
   12   22   13      0.29      0.00
    6   23   13      3.40      0.00
    7   23   13     -3.64      0.00
    8   23   13      1.62      0.00
    9   23   13     -0.04      0.00
   10   23   13     -3.89      0.00
   11   23   13      1.07      0.00
    0   24   13      4.57      0.00
    1   24   13     -7.12      0.00
    2   24   13     -2.43      0.00
    3   24   13      4.35      0.00
    4   24   13      1.58      0.00
    5   24   13     -1.20      0.00
    6   24   13     -2.91      0.00
    7   24   13     -3.71      0.00
    8   24   13     -4.01      0.00
    0   25   13      2.86      0.00
    1   25   13     -3.73      0.00
    2   25   13     -0.93      0.00
    3   25   13      2.79      0.00
    4   25   13     -8.28      0.00
    5   25   13     -0.70      0.00
    0    0   14    -14.93      0.00
    0    1   14     -8.35      0.00
   15   15   14     14.13      0.00
   15   16   14     -1.91      0.00
   16   16   14    -14.26      0.00
   14   17   14      9.66      0.00
   15   17   14     -5.37      0.00
   16   17   14      7.34      0.00
   17   17   14      1.28      0.00
   12   18   14     -6.50      0.00
   13   18   14     -6.55      0.00
   14   18   14      5.01      0.00
   15   18   14      0.41      0.00
   16   18   14     -2.74      0.00
   11   19   14      6.23      0.00
   12   19   14     -6.11      0.00
   13   19   14      0.98      0.00
   14   19   14      2.93      0.00
   15   19   14      2.91      0.00
   10   20   14     -0.20      0.00
   11   20   14      2.16      0.00
   12   20   14     -9.00      0.00
   13   20   14     -5.43      0.00
   14   20   14      7.44      0.00
    8   21   14      0.31      0.00
    9   21   14     -2.48      0.00
   10   21   14      2.71      0.00
   11   21   14     -5.02      0.00
   12   21   14     -4.20      0.00
    6   22   14     -1.11      0.00
    7   22   14      3.19      0.00
    8   22   14      5.53      0.00
    9   22   14      6.05      0.00
   10   22   14      1.28      0.00
   11   22   14     -0.43      0.00
    0   23   14      4.25      0.00
    1   23   14      2.96      0.00
    2   23   14      1.51      0.00
    3   23   14     -8.19      0.00
    4   23   14     -1.67      0.00
    5   23   14      5.99      0.00
    6   23   14     -1.02      0.00
    7   23   14      3.90      0.00
    8   23   14      4.45      0.00
    0   24   14     -0.50      0.00
    1   24   14      1.85      0.00
    2   24   14     -0.33      0.00
    3   24   14     -2.37      0.00
    4   24   14      4.50      0.00
    5   24   14     -2.74      0.00
    0    1   15     -0.02      0.00
   14   16   15      3.57      0.00
   15   16   15     -7.70      0.00
   13   17   15     -4.21      0.00
   14   17   15     -2.20      0.00
   15   17   15      1.49      0.00
   16   17   15      0.21      0.00
   11   18   15      1.96      0.00
   12   18   15      1.31      0.00
   13   18   15      2.05      0.00
   14   18   15     -2.63      0.00
   15   18   15      1.51      0.00
   10   19   15      6.99      0.00
   11   19   15      3.65      0.00
   12   19   15     -4.08      0.00
   13   19   15     -5.33      0.00
   14   19   15     -0.80      0.00
    8   20   15      0.69      0.00
    9   20   15      1.69      0.00
   10   20   15      4.70      0.00
   11   20   15      1.73      0.00
   12   20   15      5.25      0.00
    6   21   15      3.37      0.00
    7   21   15      4.50      0.00
    8   21   15     -6.06      0.00
    9   21   15     -0.36      0.00
   10   21   15      2.37      0.00
   11   21   15      0.36      0.00
    0   22   15      8.72      0.00
    1   22   15     -1.22      0.00
    2   22   15     -0.92      0.00
    3   22   15     -0.29      0.00
    4   22   15      2.53      0.00
    5   22   15      5.68      0.00
    6   22   15      1.92      0.00
    7   22   15     -0.65      0.00
    8   22   15     -0.07      0.00
    9   22   15      1.24      0.00
    0   23   15     -0.20      0.00
    1   23   15     -1.01      0.00
    2   23   15      2.26      0.00
    3   23   15     -4.60      0.00
    4   23   15      2.57      0.00
    5   23   15      3.22      0.00
    6   23   15      2.25      0.00
    0    0   16      3.70      0.00
    0    1   16      8.11      0.00
   14   15   16      5.62      0.00
   15   15   16      8.47      0.00
   13   16   16      3.76      0.00
   14   16   16      0.48      0.00
   15   16   16      2.00      0.00
   16   16   16     -0.54      0.00
   11   17   16      3.24      0.00
   12   17   16      3.92      0.00
   13   17   16      9.63      0.00
   14   17   16      0.43      0.00
   15   17   16      5.60      0.00
   10   18   16      1.73      0.00
   11   18   16      0.16      0.00
   12   18   16      1.20      0.00
   13   18   16      3.72      0.00
    8   19   16      4.40      0.00
    9   19   16      0.07      0.00
   10   19   16      4.71      0.00
   11   19   16      0.82      0.00
   12   19   16      1.02      0.00
    5   20   16      1.96      0.00
    6   20   16     -4.25      0.00
    7   20   16     -7.04      0.00
    8   20   16      2.34      0.00
    9   20   16      2.90      0.00
   10   20   16      6.06      0.00
    0   21   16     -4.30      0.00
    1   21   16      6.58      0.00
    2   21   16      3.38      0.00
    3   21   16     -2.07      0.00
    4   21   16      9.47      0.00
    5   21   16     -7.42      0.00
    6   21   16      1.83      0.00
    7   21   16     -0.41      0.00
    8   21   16     -4.45      0.00
    0   22   16      3.13      0.00
    1   22   16      1.83      0.00
    2   22   16      1.31      0.00
    3   22   16     -0.29      0.00
    4   22   16      5.30      0.00
    5   22   16     -2.55      0.00
    0    1   17     -2.37      0.00
    0    2   17      2.72      0.00
   13   14   17      6.73      0.00
   12   15   17    -11.14      0.00
   13   15   17     -0.20      0.00
   14   15   17     -5.26      0.00
   11   16   17     -0.39      0.00
   12   16   17    -10.09      0.00
   13   16   17     -1.10      0.00
   14   16   17     -3.62      0.00
   10   17   17      4.15      0.00
   11   17   17     -1.77      0.00
   12   17   17      2.89      0.00
   13   17   17      3.25      0.00
    8   18   17      8.78      0.00
    9   18   17      2.21      0.00
   10   18   17      4.10      0.00
   11   18   17     -1.84      0.00
   12   18   17     -0.91      0.00
    5   19   17      6.35      0.00
    6   19   17      6.10      0.00
    7   19   17     -2.56      0.00
    8   19   17      4.79      0.00
    9   19   17     11.44      0.00
   10   19   17      0.93      0.00
    0   20   17     -2.45      0.00
    1   20   17     -6.66      0.00
    2   20   17      4.49      0.00
    3   20   17     -4.32      0.00
    4   20   17     -4.99      0.00
    5   20   17     -4.74      0.00
    6   20   17     -5.70      0.00
    7   20   17      0.69      0.00
    8   20   17      0.11      0.00
    0   21   17      1.15      0.00
    1   21   17     -7.09      0.00
    2   21   17      3.79      0.00
    3   21   17     -2.58      0.00
    4   21   17     -1.78      0.00
    5   21   17     -6.01      0.00
    0    0   18     11.12      0.00
    0    1   18     -3.66      0.00
    1    1   18      7.36      0.00
    0    2   18      8.78      0.00
   13   13   18     -4.70      0.00
   12   14   18     -4.32      0.00
   13   14   18     -9.32      0.00
   14   14   18     -3.49      0.00
   10   15   18     -6.91      0.00
   11   15   18     -0.88      0.00
   12   15   18     -4.43      0.00
   13   15   18     -9.59      0.00
    9   16   18     -4.30      0.00
   10   16   18    -13.47      0.00
   11   16   18     -4.89      0.00
   12   16   18      2.64      0.00
    7   17   18     -3.47      0.00
    8   17   18     -0.89      0.00
    9   17   18     -3.24      0.00
   10   17   18     -1.10      0.00
   11   17   18     -3.40      0.00
    0   18   18      5.89      0.00
    1   18   18    -12.29      0.00
    2   18   18     -4.57      0.00
    3   18   18     -4.83      0.00
    4   18   18      2.75      0.00
    5   18   18      0.22      0.00
    6   18   18      0.06      0.00
    7   18   18      8.73      0.00
    8   18   18      2.82      0.00
    9   18   18     -0.57      0.00
    0   19   18      1.57      0.00
    1   19   18     -8.20      0.00
    2   19   18      4.57      0.00
    3   19   18      2.44      0.00
    4   19   18     -3.39      0.00
    5   19   18     -2.32      0.00
    6   19   18      4.36      0.00
    7   19   18     -2.42      0.00
    0   20   18     -0.13      0.00
    1   20   18      4.83      0.00
    2   20   18     -1.84      0.00
    3   20   18      1.17      0.00
    0    1   19      8.23      0.00
    0    2   19     28.00      0.00
    1    2   19      8.93      0.00
    0    3   19     11.03      0.00
   11   13   19      1.35      0.00
   12   13   19      8.51      0.00
    9   14   19      0.68      0.00
   10   14   19     -2.86      0.00
   11   14   19     -2.23      0.00
   12   14   19     -6.35      0.00
    7   15   19     -7.37      0.00
    8   15   19     -1.44      0.00
    9   15   19     -7.27      0.00
   10   15   19     -2.82      0.00
   11   15   19     -3.06      0.00
    0   16   19      6.49      0.00
    1   16   19     -3.81      0.00
    3   16   19      4.42      0.00
    4   16   19      3.89      0.00
    5   16   19     -0.94      0.00
    6   16   19      1.34      0.00
    7   16   19     -8.44      0.00
    8   16   19     -3.04      0.00
    9   16   19     -1.87      0.00
   10   16   19     -1.57      0.00
    0   17   19     -9.83      0.00
    1   17   19      2.48      0.00
    2   17   19      7.59      0.00
    3   17   19     -0.89      0.00
    4   17   19      5.35      0.00
    5   17   19      0.41      0.00
    6   17   19     -7.46      0.00
    7   17   19     -0.62      0.00
    8   17   19     -4.26      0.00
    0   18   19      7.92      0.00
    1   18   19      0.83      0.00
    2   18   19     -6.45      0.00
    3   18   19     -0.16      0.00
    4   18   19      1.38      0.00
    5   18   19      3.33      0.00
    0    0   20     -3.03      0.00
    0    1   20      3.28      0.00
    1    1   20      3.47      0.00
    0    2   20     -0.29      0.00
    1    2   20      2.65      0.00
    2    2   20     -4.58      0.00
    0    3   20      1.62      0.00
    1    3   20     -0.19      0.00
    2    3   20     -3.28      0.00
    0    4   20      9.87      0.00
    1    4   20      4.27      0.00
   10   11   20      2.07      0.00
   11   11   20      3.70      0.00
    9   12   20     -3.34      0.00
   10   12   20      4.51      0.00
   11   12   20      3.50      0.00
   12   12   20    -10.60      0.00
    7   13   20      1.80      0.00
    8   13   20     10.15      0.00
    9   13   20     -7.58      0.00
   10   13   20      3.10      0.00
   11   13   20      2.61      0.00
    0   14   20     13.79      0.00
    1   14   20      1.85      0.00
    2   14   20      6.41      0.00
    3   14   20     -5.77      0.00
    4   14   20      2.52      0.00
    5   14   20      7.49      0.00
    6   14   20     -7.45      0.00
    7   14   20     -1.23      0.00
    8   14   20     -6.10      0.00
    9   14   20     -1.80      0.00
   10   14   20     10.46      0.00
    0   15   20      4.70      0.00
    1   15   20     -1.72      0.00
    2   15   20      6.49      0.00
    3   15   20      2.62      0.00
    4   15   20      2.88      0.00
    5   15   20      1.08      0.00
    6   15   20     -3.20      0.00
    7   15   20      1.16      0.00
    8   15   20     -4.00      0.00
    0   16   20     -1.89      0.00
    1   16   20      3.07      0.00
    2   16   20     -1.53      0.00
    3   16   20     -5.76      0.00
    4   16   20      4.61      0.00
    5   16   20      2.06      0.00
    6   16   20     -0.47      0.00
    0   17   20     -4.43      0.00
    1   17   20      0.94      0.00
    2   17   20     -1.77      0.00
    3   17   20     -0.37      0.00
    0    1   21     -4.90      0.00
    0    2   21     -7.15      0.00
    1    2   21     -9.25      0.00
    0    3   21     -5.10      0.00
    1    3   21      0.89      0.00
    2    3   21      4.81      0.00
    0    4   21    -14.74      0.00
    1    4   21     10.38      0.00
    2    4   21      7.96      0.00
    3    4   21      3.19      0.00
    0    5   21     -8.22      0.00
    1    5   21      5.47      0.00
    2    5   21     -0.43      0.00
    0    6   21    -10.91      0.00
    0    7   21     -0.86      0.00
    0    8   21    -12.50      0.00
    0    9   21    -12.88      0.00
    1    9   21     -0.18      0.00
    8    9   21     -2.08      0.00
    0   10   21     -8.47      0.00
    1   10   21    -12.70      0.00
    2   10   21    -13.49      0.00
    7   10   21     -3.05      0.00
    8   10   21     -5.09      0.00
    9   10   21      3.56      0.00
    0   11   21     -7.46      0.00
    1   11   21     -9.95      0.00
    2   11   21     -0.26      0.00
    3   11   21     -0.90      0.00
    4   11   21    -13.31      0.00
    5   11   21     -5.42      0.00
    6   11   21     -3.19      0.00
    7   11   21     -4.39      0.00
    8   11   21     -1.25      0.00
    9   11   21     -6.77      0.00
   10   11   21      5.14      0.00
    0   12   21      6.18      0.00
    1   12   21     -7.62      0.00
    2   12   21     -1.06      0.00
    3   12   21     -1.74      0.00
    4   12   21      2.18      0.00
    5   12   21      8.88      0.00
    6   12   21      9.35      0.00
    7   12   21     -1.89      0.00
    8   12   21      1.02      0.00
    9   12   21      4.01      0.00
    0   13   21      6.65      0.00
    1   13   21     -6.88      0.00
    2   13   21     -0.38      0.00
    3   13   21      2.14      0.00
    4   13   21     -0.58      0.00
    5   13   21     -1.26      0.00
    6   13   21      4.46      0.00
    7   13   21      3.75      0.00
    8   13   21      1.02      0.00
    0   14   21      0.33      0.00
    1   14   21      3.90      0.00
    2   14   21     -1.26      0.00
    3   14   21      1.40      0.00
    4   14   21     -0.31      0.00
    5   14   21     -0.05      0.00
    6   14   21      0.21      0.00
    0   15   21     -0.06      0.00
    1   15   21      3.06      0.00
    2   15   21     -3.40      0.00
    3   15   21      3.71      0.00
    0    0    0      0.00      0.00
# SQUEEZE RESULTS (Version = 150216)
# Note: Data are Listed for all Voids in the P1 Unit Cell
# i.e. Centre of Gravity, Solvent Accessible Volume,
# Recovered number of Electrons in the Void and
# Details about the Squeezed Material
loop_
  _platon_squeeze_void_nr
  _platon_squeeze_void_average_x
  _platon_squeeze_void_average_y
  _platon_squeeze_void_average_z
  _platon_squeeze_void_volume
  _platon_squeeze_void_count_electrons
  _platon_squeeze_void_content
   1 -0.006 -0.004 -0.051      5238      1659 ' '
# Missing Reflections Below sin(th)/lambda = 0.25
loop_
  _platon_missing_refln_index_h
  _platon_missing_refln_index_k
  _platon_missing_refln_index_l
  _platon_missing_refln_theta
    0    1    0     1.917
    1    1    0     2.711
    0    1    1     3.043
_platon_squeeze_void_probe_radius                  1.20
_platon_squeeze_details
)
TITL exp_1518_a.res in P4(2)/mmc
CELL   23.0470   23.0470   18.6989     90.00     90.00     90.00
SPGR P42/mmc
# Solvent Accessible Volume =      5236
# Electrons Found in S.A.V. =      1655
# Note: Atoms in Void as Cxxx and Qxxx all others
Q101 0.612 0.996 0.234 !       1.54 eA-3
Q102 0.108 0.427 0.358 !       1.51 eA-3
C103 0.327 1.000 0.313 !       1.48 eA-3
C104 1.000 0.998 0.359 !       1.38 eA-3
C105 0.635 0.184 0.032 !       1.34 eA-3
Q106 0.368 1.000 0.000 !       1.33 eA-3
Q107 0.039 0.369 0.281 !       1.33 eA-3
C108 0.328 1.005 0.453 !       1.31 eA-3
C109 0.690 1.002 0.250 !       1.24 eA-3
C110 0.682 0.950 0.312 !       1.23 eA-3
Q111 0.069 0.656 0.418 !       1.21 eA-3
C112 1.000 0.837 0.345 !       1.19 eA-3
C113 0.274 1.000 0.500 !       1.16 eA-3
C114 0.314 0.243 0.010 !       1.16 eA-3
C115 0.239 0.313 0.518 !       1.16 eA-3
C116 0.196 0.497 0.250 !       1.16 eA-3
C117 1.000 0.251 0.187 !       1.16 eA-3
C118 0.975 0.345 0.140 !       1.14 eA-3
C119 0.227 0.500 0.000 !       1.13 eA-3
Q120 0.328 0.967 0.207 !       1.13 eA-3
Q121 1.000 0.575 0.375 !       1.11 eA-3
Q122 1.000 0.422 0.418 !       1.09 eA-3
C123 0.291 0.336 0.494 !       1.07 eA-3
C124 0.780 0.496 0.281 !       1.06 eA-3
C125 0.963 0.671 0.250 !       1.06 eA-3
C126 0.500 0.312 0.500 !       1.05 eA-3
C127 0.961 0.336 0.096 !       1.03 eA-3
C128 0.656 1.002 0.219 !       1.03 eA-3
Q129 0.174 0.501 0.438 !       1.02 eA-3
C130 1.000 0.239 0.236 !       1.02 eA-3
C131 0.271 0.289 0.502 !       1.02 eA-3
C132 0.305 0.962 0.451 !       1.02 eA-3
C133 1.000 0.786 0.300 !       1.02 eA-3
C134 0.977 0.086 0.500 !       1.02 eA-3
C135 0.391 0.164 0.499 !       1.01 eA-3
Q136 0.616 1.007 0.172 !       1.01 eA-3
Q137 1.000 0.477 0.501 !       1.01 eA-3
C138 0.336 0.087 0.468 !       1.00 eA-3
C139 0.774 0.984 0.155 !       0.99 eA-3
C140 0.304 0.367-0.006 !       0.98 eA-3
C141 0.029 0.156 0.501 !       0.98 eA-3
C142 0.970 0.709 0.205 !       0.98 eA-3
Q143 0.255 0.281-0.009 !       0.97 eA-3
C144 1.000 0.613 0.090 !       0.97 eA-3
C145 0.204 0.266-0.001 !       0.97 eA-3
C146 0.959 0.073 0.326 !       0.96 eA-3
C147 0.016 0.211 0.504 !       0.96 eA-3
Q148 0.138 0.999 0.109 !       0.95 eA-3
Q149 0.862 1.001 0.891 !       0.95 eA-3
Q150 0.539 0.087 0.094 !       0.94 eA-3
C151 0.625 0.102 0.498 !       0.94 eA-3
C152 0.484 0.296 0.237 !       0.93 eA-3
C153 0.765 0.219-0.002 !       0.93 eA-3
Q154 0.437 0.691 0.236 !       0.92 eA-3
C155 0.135 0.377 0.031 !       0.92 eA-3
C156 1.000 0.258 0.336 !       0.92 eA-3
C157 0.908 0.997 0.391 !       0.92 eA-3
C158 0.915 0.686 0.074 !       0.91 eA-3
Q159 0.258 0.766 0.467 !       0.90 eA-3
C160 0.641 0.025 0.313 !       0.90 eA-3
Q161 0.500 0.093 0.072 !       0.90 eA-3
C162 0.876 0.011 0.264 !       0.90 eA-3
C163 0.175 1.000 0.078 !       0.89 eA-3
C164 0.732 1.003 0.609 !       0.89 eA-3
C165 0.268 0.997 0.391 !       0.89 eA-3
C166 0.799 0.422 0.002 !       0.88 eA-3
C167 0.835 0.995 0.453 !       0.88 eA-3
C168 0.474 0.187 0.420 !       0.88 eA-3
Q169 0.046 0.261 0.096 !       0.87 eA-3
C170 1.000 0.227-0.004 !       0.87 eA-3
C171 1.000 0.227 0.389 !       0.87 eA-3
C172 0.290 0.498 0.063 !       0.86 eA-3
C173 0.976 0.760 0.281 !       0.86 eA-3
Q174 0.524 0.082 0.113 !       0.86 eA-3
C175 0.047 0.628 0.093 !       0.86 eA-3
C176 0.239 1.000 0.000 !       0.85 eA-3
C177 0.038 0.655 0.029 !       0.85 eA-3
Q178 0.750 0.376 0.377 !       0.85 eA-3
Q179 0.061 0.397 0.265 !       0.85 eA-3
Q180 0.156 0.962 0.061 !       0.85 eA-3
Q181 0.132 0.928 0.394 !       0.84 eA-3
C182 0.655 0.929 0.377 !       0.84 eA-3
Q183 0.137 0.999 0.922 !       0.84 eA-3
C184 0.500 0.333 0.230 !       0.84 eA-3
Q185 0.672 0.588 0.278 !       0.84 eA-3
Q186 0.500 0.144 0.059 !       0.84 eA-3
C187 0.350 0.250 0.007 !       0.84 eA-3
Q188 0.838 0.374 0.124 !       0.84 eA-3
C189 0.163 0.258 0.498 !       0.84 eA-3
Q190 0.251 0.254 0.451 !       0.83 eA-3
C191 0.312 0.320 0.006 !       0.83 eA-3
C192 0.120 1.000 0.438 !       0.83 eA-3
Q193 0.750 0.800 0.031 !       0.83 eA-3
C194 0.702 1.002 0.422 !       0.83 eA-3
Q195 0.787 0.203 0.499 !       0.83 eA-3
C196 0.978 0.122 0.033 !       0.83 eA-3
Q197 0.437 0.438 0.249 !       0.82 eA-3
Q198 0.607 0.777 0.456 !       0.82 eA-3
C199 0.038 0.827 0.030 !       0.82 eA-3
)
;
_shelx_fab_checksum              58246
loop_
_space_group_symop_operation_xyz
'x, y, z'
'-y, x, z+1/2'
'-x, -y, z'
'y, -x, z+1/2'
'x, -y, -z'
'-x, y, -z'
'y, x, -z+1/2'
'-y, -x, -z+1/2'
'-x, -y, -z'
'y, -x, -z-1/2'
'x, y, -z'
'-y, x, -z-1/2'
'-x, y, z'
'x, -y, z'
'-y, -x, z-1/2'
'y, x, z-1/2'
loop_
_atom_site_label
_atom_site_type_symbol
_atom_site_fract_x
_atom_site_fract_y
_atom_site_fract_z
_atom_site_U_iso_or_equiv
_atom_site_adp_type
_atom_site_occupancy
_atom_site_site_symmetry_order
_atom_site_calc_flag
_atom_site_refinement_flags_posn
_atom_site_refinement_flags_adp
_atom_site_refinement_flags_occupancy
_atom_site_disorder_assembly
_atom_site_disorder_group
Zr1 Zr 0.07541(5) 0.5000 0.40702(6) 0.0660(5) Uani 1 2 d S TU P . .
Zr2 Zr 0.0000 0.39127(10) 0.5000 0.0739(6) Uani 1 4 d S TU P . .
F1 F 0.2769(14) 0.3567(13) 0.2060(17) 0.402(11) Uani 0.444(7) 1 d D U P A 1
F2A F 0.1150(13) 0.1561(11) 0.4054(16) 0.399(11) Uani 0.556(7) 1 d D U P A 2
F3 F 0.2152(11) 0.3206(19) 0.1300(10) 0.393(11) Uani 0.444(7) 1 d D U P A 1
F3A F 0.2078(11) 0.1450(10) 0.3938(17) 0.401(10) Uani 0.556(7) 1 d D U P A 2
O1 O 0.1131(4) 0.4231(5) 0.3591(4) 0.125(3) Uani 1 1 d D U . . .
O2 O 0.0565(4) 0.3388(5) 0.4291(5) 0.155(4) Uani 1 1 d D U . . .
O3 O 0.0490(5) 0.5000 0.2934(5) 0.108(4) Uani 1 2 d S TU P . .
O4 O 0.1671(4) 0.5000 0.4388(6) 0.106(4) Uani 1 2 d S TU P . .
O5 O 0.0752(6) 0.4446(7) 0.5000 0.112(4) Uani 1 2 d S TU P . .
O6 O 0.0000 0.4458(6) 0.4095(7) 0.094(3) Uani 1 2 d S TU P . .
N1 N -0.0523(3) 0.5000 0.0757(5) 0.179(9) Uani 0.5 2 d DS TU P B 2
C1 C 0.2008(5) 0.2376(5) 0.2745(6) 0.336(7) Uani 1 1 d D U . . .
C2 C 0.1645(6) 0.2220(5) 0.3304(6) 0.334(6) Uani 1 1 d D U . . .
H2 H 0.1625 0.1828 0.3458 0.400 Uiso 0.444(7) 1 calc R U P A 1
C3 C 0.1307(4) 0.2646(5) 0.3639(5) 0.308(6) Uani 1 1 d D U . . .
H3 H 0.1058 0.2542 0.4023 0.369 Uiso 1 1 calc R U . . .
C4 C 0.1337(4) 0.3218(5) 0.3413(6) 0.281(5) Uani 1 1 d D U . . .
C5 C 0.1701(5) 0.3375(5) 0.2855(6) 0.310(6) Uani 1 1 d D U . . .
H5 H 0.1720 0.3768 0.2704 0.372 Uiso 1 1 calc R U . . .
C6 C 0.2040(6) 0.2953(6) 0.2515(6) 0.335(6) Uani 1 1 d D U . . .
H6 H 0.2289 0.3058 0.2132 0.402 Uiso 0.556(7) 1 calc R U P A 2
C7 C 0.0968(4) 0.3657(6) 0.3790(6) 0.218(5) Uani 1 1 d D U . . .
C8 C 0.2442(8) 0.3104(8) 0.1906(9) 0.357(8) Uani 0.444(7) 1 d D U P A 1
C8A C 0.1591(8) 0.1605(6) 0.3582(9) 0.358(7) Uani 0.556(7) 1 d D U P A 2
C9 C 0.0000 0.5000 0.2667(6) 0.166(8) Uani 1 4 d DS TU P . .
C10 C 0.0000 0.5000 0.1872(4) 0.171(8) Uani 1 4 d DS TU P . .
C11 C 0.05236(16) 0.5000 0.1501(4) 0.177(7) Uani 1 2 d DS TU P . .
H11 H 0.0881(4) 0.5000 0.1754(9) 0.212 Uiso 1 2 d DS U P . .
C12 C 0.0523(3) 0.5000 0.0757(5) 0.178(8) Uani 0.5 2 d DS TU P B 1
H12 H 0.0880(4) 0.5000 0.0503(9) 0.213 Uiso 0.5 2 d DS U P C 1
C13 C 0.0000 0.5000 0.0395(2) 0.179(8) Uani 1 4 d DS TU P . .
C14 C 0.1886(6) 0.5000 0.5000 0.146(7) Uani 1 4 d DS TU P . .
C15 C 0.2537(5) 0.5000 0.5000 0.164(7) Uani 1 4 d DS TU P . .
C16 C 0.2839(5) 0.5000 0.4355(2) 0.187(6) Uani 1 2 d DS TU P . .
H16 H 0.2633 0.5000 0.3915 0.224 Uiso 1 2 calc R U P . .
C17 C 0.3444(4) 0.5000 0.4355(2) 0.207(7) Uani 1 2 d DS TU P . .
H17 H 0.3650 0.5000 0.3915 0.249 Uiso 1 2 calc DR U P . .
C18 C 0.3747(4) 0.5000 0.5000 0.216(8) Uani 1 4 d DS TU P . .
C19 C 0.43992(18) 0.5000 0.5000 0.220(8) Uani 1 4 d DS TU P F .
F1A F 0.1507(16) 0.1215(7) 0.3069(12) 0.394(11) Uani 0.556(7) 1 d D U P A 2
F2 F 0.2815(13) 0.2666(13) 0.1769(17) 0.392(11) Uani 0.444(7) 1 d D U P A 1
C20A C 0.46971(19) 0.5000 0.4354(2) 0.219(9) Uani 0.3333 2 d DS TU P . .
H20A H 0.4531(4) 0.5000 0.3901(3) 0.263 Uiso 0.25 2 d DS U P D 2
C20 C 0.46861(19) 0.54844(19) 0.4694(3) 0.223(9) Uani 0.3333 1 d D U P F .
H20 H 0.4487(7) 0.5797(4) 0.4497(6) 0.268 Uiso 0.25 1 d D U P E 2
N2 N 0.4367(8) 0.5985(6) 0.4379(7) 0.242(13) Uani 0.0833 1 d D U P F 1
H2A H 0.4202 0.6243 0.4660 0.290 Uiso 0.0833 1 calc R U P F 1
H2B H 0.4343 0.6022 0.3911 0.290 Uiso 0.0833 1 calc R U P F 1
N2A N 0.4370(8) 0.5000 0.3654(7) 0.222(13) Uani 0.0833 2 d DS TU P G 1
H2A2 H 0.4395(4) 0.5322(7) 0.3403(8) 0.266 Uiso 0.0833 1 d D U P H 1
loop_
_atom_site_aniso_label
_atom_site_aniso_U_11
_atom_site_aniso_U_22
_atom_site_aniso_U_33
_atom_site_aniso_U_23
_atom_site_aniso_U_13
_atom_site_aniso_U_12
Zr1 0.0385(6) 0.1255(12) 0.0341(6) 0.000 0.0045(5) 0.000
Zr2 0.0634(12) 0.0977(16) 0.0606(12) 0.000 0.000 0.000
F1 0.46(2) 0.343(19) 0.40(2) 0.00(2) 0.137(18) 0.068(17)
F2A 0.47(2) 0.33(2) 0.40(2) 0.008(17) 0.146(17) 0.08(2)
F3 0.46(2) 0.36(2) 0.364(17) 0.027(19) 0.123(16) 0.10(2)
F3A 0.47(2) 0.336(19) 0.40(2) 0.028(18) 0.071(17) 0.120(19)
O1 0.102(6) 0.181(8) 0.092(6) -0.037(5) 0.011(4) 0.046(5)
O2 0.150(9) 0.149(6) 0.166(9) -0.049(6) 0.025(7) 0.062(6)
O3 0.082(7) 0.216(13) 0.026(4) 0.000 -0.002(4) 0.000
O4 0.038(4) 0.217(12) 0.064(6) 0.000 -0.003(4) 0.000
O5 0.129(9) 0.173(10) 0.033(5) 0.000 0.000 -0.058(8)
O6 0.050(5) 0.120(8) 0.112(9) 0.031(7) 0.000 0.000
N1 0.096(12) 0.40(2) 0.039(10) 0.000 -0.004(8) 0.000
C1 0.383(14) 0.284(11) 0.341(14) -0.030(11) 0.133(10) 0.126(12)
C2 0.384(13) 0.273(10) 0.344(13) -0.023(11) 0.130(10) 0.125(11)
C3 0.346(13) 0.259(10) 0.319(13) -0.020(11) 0.113(10) 0.114(11)
C4 0.307(11) 0.253(10) 0.283(11) -0.025(10) 0.098(9) 0.100(10)
C5 0.347(13) 0.275(11) 0.307(13) -0.022(11) 0.127(9) 0.112(11)
C6 0.377(13) 0.293(12) 0.335(13) -0.024(11) 0.141(10) 0.128(12)
C7 0.224(10) 0.216(9) 0.213(10) -0.023(9) 0.050(8) 0.064(8)
C8 0.401(16) 0.319(14) 0.351(16) -0.017(13) 0.150(12) 0.118(13)
C8A 0.423(16) 0.282(11) 0.369(16) -0.014(12) 0.117(13) 0.119(13)
C9 0.092(12) 0.38(2) 0.025(8) 0.000 0.000 0.000
C10 0.094(10) 0.39(2) 0.032(8) 0.000 0.000 0.000
C11 0.097(9) 0.39(2) 0.040(7) 0.000 0.005(5) 0.000
C12 0.096(10) 0.40(2) 0.039(8) 0.000 0.005(6) 0.000
C13 0.097(11) 0.40(2) 0.041(8) 0.000 0.000 0.000
C14 0.118(8) 0.184(10) 0.138(9) 0.000 0.000 0.000
C15 0.124(8) 0.216(9) 0.153(9) 0.000 0.000 0.000
C16 0.106(8) 0.288(12) 0.167(11) 0.000 0.005(6) 0.000
C17 0.106(9) 0.333(13) 0.183(12) 0.000 0.001(6) 0.000
C18 0.106(10) 0.349(15) 0.193(14) 0.000 0.000 0.000
C19 0.108(11) 0.347(16) 0.204(15) 0.000 0.000 0.000
F1A 0.49(2) 0.299(14) 0.40(2) -0.031(17) 0.105(18) 0.07(2)
F2 0.41(2) 0.37(2) 0.40(2) -0.03(2) 0.172(17) 0.142(18)
C20A 0.109(12) 0.344(17) 0.204(16) 0.000 0.002(6) 0.000
C20 0.116(12) 0.345(17) 0.209(16) -0.001(6) -0.001(7) -0.007(6)
N2 0.178(18) 0.320(17) 0.227(19) -0.008(11) -0.006(14) -0.008(12)
N2A 0.11(2) 0.35(3) 0.204(18) 0.000 0.000(15) 0.000
loop_
_atom_type_symbol
_atom_type_description
_atom_type_scat_dispersion_real
_atom_type_scat_dispersion_imag
_atom_type_scat_source
C C 0.0181 0.0091 'International Tables Vol C Tables 4.2.6.8 and 6.1.1.4'
H H 0.0000 0.0000 'International Tables Vol C Tables 4.2.6.8 and 6.1.1.4'
N N 0.0311 0.0180 'International Tables Vol C Tables 4.2.6.8 and 6.1.1.4'
O O 0.0492 0.0322 'International Tables Vol C Tables 4.2.6.8 and 6.1.1.4'
Zr Zr -0.1862 2.2449 'International Tables Vol C Tables 4.2.6.8 and 6.1.1.4'
F F 0.0727 0.0534 'International Tables Vol C Tables 4.2.6.8 and 6.1.1.4'
loop_
_geom_angle_atom_site_label_1
_geom_angle_atom_site_label_2
_geom_angle_atom_site_label_3
_geom_angle
_geom_angle_site_symmetry_1
_geom_angle_site_symmetry_3
O6 Zr1 O6 71.4(6) 3_565 .
O6 Zr1 O5 68.6(4) 3_565 5_566
O6 Zr1 O5 109.0(5) . 5_566
O6 Zr1 O5 109.0(5) 3_565 .
O6 Zr1 O5 68.6(4) . .
O5 Zr1 O5 72.6(6) 5_566 .
O6 Zr1 O1 144.3(4) 3_565 .
O6 Zr1 O1 81.8(4) . .
O5 Zr1 O1 144.9(4) 5_566 .
O5 Zr1 O1 81.4(4) . .
O6 Zr1 O1 81.8(4) 3_565 14_565
O6 Zr1 O1 144.3(4) . 14_565
O5 Zr1 O1 81.4(4) 5_566 14_565
O5 Zr1 O1 144.9(4) . 14_565
O1 Zr1 O1 109.7(6) . 14_565
O6 Zr1 O4 140.9(3) 3_565 .
O6 Zr1 O4 140.8(3) . .
O5 Zr1 O4 77.5(4) 5_566 .
O5 Zr1 O4 77.5(4) . .
O1 Zr1 O4 74.1(3) . .
O1 Zr1 O4 74.1(3) 14_565 .
O6 Zr1 O3 78.3(4) 3_565 .
O6 Zr1 O3 78.3(4) . .
O5 Zr1 O3 140.7(3) 5_566 .
O5 Zr1 O3 140.7(3) . .
O1 Zr1 O3 73.3(3) . .
O1 Zr1 O3 73.3(3) 14_565 .
O4 Zr1 O3 121.7(4) . .
O6 Zr1 Zr1 35.7(3) 3_565 3_565
O6 Zr1 Zr1 35.7(3) . 3_565
O5 Zr1 Zr1 89.9(4) 5_566 3_565
O5 Zr1 Zr1 89.9(4) . 3_565
O1 Zr1 Zr1 113.6(2) . 3_565
O1 Zr1 Zr1 113.6(2) 14_565 3_565
O4 Zr1 Zr1 164.3(3) . 3_565
O3 Zr1 Zr1 74.0(3) . 3_565
O6 Zr1 Zr1 88.7(3) 3_565 11_556
O6 Zr1 Zr1 88.7(3) . 11_556
O5 Zr1 Zr1 36.3(3) 5_566 11_556
O5 Zr1 Zr1 36.3(3) . 11_556
O1 Zr1 Zr1 114.4(2) . 11_556
O1 Zr1 Zr1 114.4(2) 14_565 11_556
O4 Zr1 Zr1 74.3(3) . 11_556
O3 Zr1 Zr1 164.0(3) . 11_556
Zr1 Zr1 Zr1 90.0 3_565 11_556
O6 Zr1 Zr2 90.2(3) 3_565 .
O6 Zr1 Zr2 34.0(3) . .
O5 Zr1 Zr2 91.3(4) 5_566 .
O5 Zr1 Zr2 34.6(3) . .
O1 Zr1 Zr2 79.6(3) . .
O1 Zr1 Zr2 170.7(3) 14_565 .
O4 Zr1 Zr2 110.03(19) . .
O3 Zr1 Zr2 109.87(19) . .
Zr1 Zr1 Zr2 60.32(2) 3_565 .
Zr1 Zr1 Zr2 60.31(2) 11_556 .
O6 Zr1 Zr2 34.0(3) 3_565 9_566
O6 Zr1 Zr2 90.2(3) . 9_566
O5 Zr1 Zr2 34.6(3) 5_566 9_566
O5 Zr1 Zr2 91.3(4) . 9_566
O1 Zr1 Zr2 170.7(3) . 9_566
O1 Zr1 Zr2 79.6(3) 14_565 9_566
O4 Zr1 Zr2 110.03(19) . 9_566
O3 Zr1 Zr2 109.87(19) . 9_566
Zr1 Zr1 Zr2 60.32(2) 3_565 9_566
Zr1 Zr1 Zr2 60.31(2) 11_556 9_566
Zr2 Zr1 Zr2 91.10(6) . 9_566
O6 Zr2 O6 106.8(8) . 11_556
O6 Zr2 O5 69.8(3) . 13
O6 Zr2 O5 69.8(3) 11_556 13
O6 Zr2 O5 69.8(3) . .
O6 Zr2 O5 69.8(3) 11_556 .
O5 Zr2 O5 109.3(9) 13 .
O6 Zr2 O2 81.1(4) . .
O6 Zr2 O2 143.6(2) 11_556 .
O5 Zr2 O2 142.6(2) 13 .
O5 Zr2 O2 80.6(4) . .
O6 Zr2 O2 81.1(4) . 13
O6 Zr2 O2 143.6(2) 11_556 13
O5 Zr2 O2 80.6(4) 13 13
O5 Zr2 O2 142.6(2) . 13
O2 Zr2 O2 71.9(5) . 13
O6 Zr2 O2 143.6(2) . 11_556
O6 Zr2 O2 81.1(4) 11_556 11_556
O5 Zr2 O2 142.6(2) 13 11_556
O5 Zr2 O2 80.6(4) . 11_556
O2 Zr2 O2 73.4(5) . 11_556
O2 Zr2 O2 113.9(7) 13 11_556
O6 Zr2 O2 143.6(2) . 6_556
O6 Zr2 O2 81.1(4) 11_556 6_556
O5 Zr2 O2 80.6(4) 13 6_556
O5 Zr2 O2 142.6(2) . 6_556
O2 Zr2 O2 113.9(7) . 6_556
O2 Zr2 O2 73.4(5) 13 6_556
O2 Zr2 O2 71.9(5) 11_556 6_556
O6 Zr2 Zr1 88.4(3) . 11_556
O6 Zr2 Zr1 34.59(19) 11_556 11_556
O5 Zr2 Zr1 89.5(4) 13 11_556
O5 Zr2 Zr1 35.2(2) . 11_556
O2 Zr2 Zr1 113.3(3) . 11_556
O2 Zr2 Zr1 167.5(4) 13 11_556
O2 Zr2 Zr1 78.6(3) 11_556 11_556
O2 Zr2 Zr1 112.6(3) 6_556 11_556
O6 Zr2 Zr1 88.4(3) . 9_566
O6 Zr2 Zr1 34.59(19) 11_556 9_566
O5 Zr2 Zr1 35.2(2) 13 9_566
O5 Zr2 Zr1 89.5(4) . 9_566
O2 Zr2 Zr1 167.5(4) . 9_566
O2 Zr2 Zr1 113.3(3) 13 9_566
O2 Zr2 Zr1 112.6(3) 11_556 9_566
O2 Zr2 Zr1 78.6(3) 6_556 9_566
Zr1 Zr2 Zr1 59.35(5) 11_556 9_566
O6 Zr2 Zr1 34.59(19) . 3_565
O6 Zr2 Zr1 88.4(3) 11_556 3_565
O5 Zr2 Zr1 35.2(2) 13 3_565
O5 Zr2 Zr1 89.5(4) . 3_565
O2 Zr2 Zr1 112.6(3) . 3_565
O2 Zr2 Zr1 78.6(3) 13 3_565
O2 Zr2 Zr1 167.5(4) 11_556 3_565
O2 Zr2 Zr1 113.3(3) 6_556 3_565
Zr1 Zr2 Zr1 88.90(6) 11_556 3_565
Zr1 Zr2 Zr1 59.37(5) 9_566 3_565
O6 Zr2 Zr1 34.59(19) . .
O6 Zr2 Zr1 88.4(3) 11_556 .
O5 Zr2 Zr1 89.5(4) 13 .
O5 Zr2 Zr1 35.2(2) . .
O2 Zr2 Zr1 78.6(3) . .
O2 Zr2 Zr1 112.6(3) 13 .
O2 Zr2 Zr1 113.3(3) 11_556 .
O2 Zr2 Zr1 167.5(4) 6_556 .
Zr1 Zr2 Zr1 59.37(5) 11_556 .
Zr1 Zr2 Zr1 88.90(6) 9_566 .
Zr1 Zr2 Zr1 59.35(5) 3_565 .
C7 O1 Zr1 123.1(7) . .
C7 O2 Zr2 121.7(8) . .
C9 O3 Zr1 129.8(9) . .
C14 O4 Zr1 129.2(9) . .
Zr2 O5 Zr1 110.1(4) . 11_556
Zr2 O5 Zr1 110.1(4) . .
Zr1 O5 Zr1 107.4(6) 11_556 .
Zr2 O6 Zr1 111.4(4) . 3_565
Zr2 O6 Zr1 111.4(4) . .
Zr1 O6 Zr1 108.5(6) 3_565 .
C13 N1 C11 119.4(5) . 3_565
C2 C1 C6 120.6(5) . .
C2 C1 C1 130.7(8) . 7
C6 C1 C1 108.5(9) . 7
C1 C2 C3 119.4(5) . .
C1 C2 C8A 123.3(8) . .
C3 C2 C8A 117.3(8) . .
C1 C2 H2 120.3 . .
C3 C2 H2 120.3 . .
C4 C3 C2 120.2(5) . .
C4 C3 H3 119.9 . .
C2 C3 H3 119.9 . .
C3 C4 C5 120.5(5) . .
C3 C4 C7 118.2(8) . .
C5 C4 C7 121.3(8) . .
C4 C5 C6 119.9(5) . .
C4 C5 H5 120.1 . .
C6 C5 H5 120.1 . .
C5 C6 C1 119.4(5) . .
C5 C6 C8 121.7(8) . .
C1 C6 C8 118.9(8) . .
C5 C6 H6 120.3 . .
C1 C6 H6 120.3 . .
O1 C7 O2 137.0(11) . .
O1 C7 C4 110.8(9) . .
O2 C7 C4 112.0(9) . .
F3 C8 F1 108.9(12) . .
F3 C8 F2 106.9(11) . .
F1 C8 F2 106.1(11) . .
F3 C8 C6 112.0(10) . .
F1 C8 C6 111.5(10) . .
F2 C8 C6 111.2(9) . .
F1A C8A F2A 108.1(11) . .
F1A C8A F3A 107.4(11) . .
F2A C8A F3A 106.4(11) . .
F1A C8A C2 113.4(10) . .
F2A C8A C2 110.8(9) . .
F3A C8A C2 110.4(9) . .
O3 C9 O3 132.3(14) 3_565 .
O3 C9 C10 113.8(7) 3_565 .
O3 C9 C10 113.8(7) . .
C11 C10 C11 120.2(5) 3_565 .
C11 C10 C9 119.9(3) 3_565 .
C11 C10 C9 119.9(3) . .
N1 C11 C10 119.8(5) 3_565 .
C12 C11 C10 119.9(4) . .
N1 C11 H11 120.0(12) 3_565 .
C12 C11 H11 120.0(11) . .
C10 C11 H11 120.2(11) . .
C13 C12 C11 119.3(5) . .
C13 C12 H12 120.6(12) . .
C11 C12 H12 120.0(12) . .
N1 C13 N1 121.3(6) 3_565 .
C12 C13 C12 121.4(6) 3_565 .
N1 C13 C13 119.3(3) 3_565 5_565
N1 C13 C13 119.3(3) . 5_565
C12 C13 C13 119.3(3) 3_565 5_565
C12 C13 C13 119.3(3) . 5_565
O4 C14 O4 133.0(15) . 11_556
O4 C14 C15 113.5(8) . .
O4 C14 C15 113.5(8) 11_556 .
C16 C15 C16 120.1(7) 5_566 .
C16 C15 C14 120.0(3) 5_566 .
C16 C15 C14 120.0(3) . .
C15 C16 C17 120.0(5) . .
C15 C16 H16 120.0 . .
C17 C16 H16 120.0 . .
C18 C17 C16 120.0(4) . .
C18 C17 H17 120.0 . .
C16 C17 H17 120.0 . .
C17 C18 C17 119.9(6) . 5_566
C17 C18 C19 120.0(3) . .
C17 C18 C19 120.0(3) 5_566 .
C20A C19 C20A 120.7(5) 5_566 .
C20A C19 C20 96.9(3) 5_566 14_565
C20A C19 C20 54.5(2) . 14_565
C20A C19 C20 54.5(2) 5_566 11_556
C20A C19 C20 96.9(3) . 11_556
C20 C19 C20 124.4(4) 14_565 11_556
C20A C19 C20 96.9(3) 5_566 .
C20A C19 C20 54.5(2) . .
C20 C19 C20 103.9(4) 14_565 .
C20 C19 C20 47.6(4) 11_556 .
C20A C19 C20 54.5(2) 5_566 5_566
C20A C19 C20 96.9(3) . 5_566
C20 C19 C20 47.6(4) 14_565 5_566
C20 C19 C20 103.9(4) 11_556 5_566
C20 C19 C20 124.4(4) . 5_566
C20A C19 C18 119.6(2) 5_566 .
C20A C19 C18 119.6(2) . .
C20 C19 C18 117.8(2) 14_565 .
C20 C19 C18 117.8(2) 11_556 .
C20 C19 C18 117.8(2) . .
C20 C19 C18 117.8(2) 5_566 .
C20 C20A C20 120.7(5) 14_565 .
C20 C20A C19 63.9(3) 14_565 .
C20 C20A C19 63.9(3) . .
C20 C20A C20A 91.1(3) 14_565 3_665
C20 C20A C20A 91.1(3) . 3_665
C19 C20A C20A 119.6(2) . 3_665
C20 C20A N2A 114.8(3) 14_565 .
C20 C20A N2A 114.8(3) . .
C19 C20A N2A 120.5(9) . .
C20A C20A N2A 119.9(8) 3_665 .
C20 C20A C20 110.9(3) 14_565 13_655
C20 C20A C20 49.0(3) . 13_655
C19 C20A C20 94.5(3) . 13_655
C20A C20A C20 42.10(19) 3_665 13_655
N2A C20A C20 131.1(6) . 13_655
C20 C20A C20 49.0(3) 14_565 3_665
C20 C20A C20 110.9(3) . 3_665
C19 C20A C20 94.5(3) . 3_665
C20A C20A C20 42.10(19) 3_665 3_665
N2A C20A C20 131.1(6) . 3_665
C20 C20A C20 71.3(3) 13_655 3_665
C20 C20A H20A 116.3(3) 14_565 .
C20 C20A H20A 116.3(3) . .
C19 C20A H20A 126.1(9) . .
C20A C20A H20A 114.3(8) 3_665 .
C20 C20A H20A 127.4(6) 13_655 .
C20 C20A H20A 127.4(5) 3_665 .
C20 C20 C20A 119.6(2) 11_556 .
C20 C20 C19 66.2(2) 11_556 .
C20A C20 C19 61.6(3) . .
C20 C20 C20 90.000(2) 11_556 13_655
C20A C20 C20 88.9(3) . 13_655
C19 C20 C20 117.8(2) . 13_655
C20 C20 N2 113.3(4) 11_556 .
C20A C20 N2 119.1(4) . .
C19 C20 N2 122.6(10) . .
C20 C20 N2 119.6(9) 13_655 .
C20 C20 C20 51.7(3) 11_556 6_656
C20A C20 C20 106.9(3) . 6_656
C19 C20 C20 96.7(3) . 6_656
C20 C20 C20 38.3(3) 13_655 6_656
N2 C20 C20 129.3(7) . 6_656
C20 C20 C20A 109.37(18) 11_556 3_665
C20A C20 C20A 46.8(3) . 3_665
C19 C20 C20A 91.2(3) . 3_665
C20 C20 C20A 42.10(19) 13_655 3_665
N2 C20 C20A 133.3(6) . 3_665
C20 C20 C20A 67.9(2) 6_656 3_665
C20 C20 H20 113.4(5) 11_556 .
C20A C20 H20 119.1(5) . .
C19 C20 H20 122.7(12) . .
C20 C20 H20 119.6(12) 13_655 .
C20 C20 H20 129.3(9) 6_656 .
C20A C20 H20 133.3(8) 3_665 .
C20 N2 H2A 120.0 . .
C20 N2 H2B 120.0 . .
H2A N2 H2B 120.0 . .
C20A N2A H2A2 115.4(12) . .
loop_
_geom_bond_atom_site_label_1
_geom_bond_atom_site_label_2
_geom_bond_distance
_geom_bond_site_symmetry_2
Zr1 O6 2.141(8) 3_565
Zr1 O6 2.141(8) .
Zr1 O5 2.157(9) 5_566
Zr1 O5 2.157(9) .
Zr1 O1 2.167(9) .
Zr1 O1 2.167(9) 14_565
Zr1 O4 2.194(10) .
Zr1 O3 2.210(10) .
Zr1 Zr1 3.476(2) 3_565
Zr1 Zr1 3.477(2) 11_556
Zr1 Zr2 3.5105(18) .
Zr1 Zr2 3.5105(18) 9_566
Zr2 O6 2.107(12) .
Zr2 O6 2.107(12) 11_556
Zr2 O5 2.125(12) 13
Zr2 O5 2.125(12) .
Zr2 O2 2.217(9) .
Zr2 O2 2.217(9) 13
Zr2 O2 2.217(9) 11_556
Zr2 O2 2.217(9) 6_556
Zr2 Zr1 3.5104(18) 11_556
Zr2 Zr1 3.5104(18) 9_566
Zr2 Zr1 3.5104(18) 3_565
F1 C8 1.339(9) .
F2A C8A 1.350(9) .
F3 C8 1.336(9) .
F3A C8A 1.352(9) .
O1 C7 1.424(13) .
O2 C7 1.458(13) .
O3 C9 1.235(12) .
O4 C14 1.248(12) .
O5 Zr1 2.157(9) 11_556
O6 Zr1 2.141(8) 3_565
N1 C13 1.383(7) .
N1 C11 1.391(7) 3_565
C1 C2 1.387(7) .
C1 C6 1.401(8) .
C1 C1 1.509(9) 7
C2 C3 1.400(8) .
C2 C8A 1.514(9) .
C2 H2 0.9500 .
C3 C4 1.386(8) .
C3 H3 0.9500 .
C4 C5 1.387(8) .
C4 C7 1.499(9) .
C5 C6 1.400(8) .
C5 H5 0.9500 .
C6 C8 1.509(9) .
C6 H6 0.9500 .
C8 F2 1.351(9) .
C8A F1A 1.328(9) .
C9 O3 1.235(12) 3_565
C9 C10 1.487(10) .
C10 C11 1.392(5) 3_565
C10 C11 1.392(5) .
C11 N1 1.391(7) 3_565
C11 C12 1.391(7) .
C11 H11 0.9500(10) .
C12 C13 1.384(7) .
C12 H12 0.9500(10) .
C13 N1 1.383(7) 3_565
C13 C12 1.384(7) 3_565
C13 C13 1.476(9) 5_565
C14 O4 1.248(12) 11_556
C14 C15 1.500(10) .
C15 C16 1.392(6) 5_566
C15 C16 1.392(6) .
C16 C17 1.395(7) .
C16 H16 0.9500 .
C17 C18 1.394(6) .
C17 H17 0.9500 .
C18 C17 1.394(6) 5_566
C18 C19 1.503(9) .
C19 C20A 1.389(5) 5_566
C19 C20A 1.389(5) .
C19 C20 1.418(5) 14_565
C19 C20 1.418(5) 11_556
C19 C20 1.418(5) .
C19 C20 1.418(5) 5_566
C20A C20 1.285(5) 14_565
C20A C20 1.285(5) .
C20A C20A 1.396(9) 3_665
C20A N2A 1.511(9) .
C20A C20 1.916(5) 13_655
C20A C20 1.916(5) 3_665
C20A H20A 0.9300(10) .
C20 C20 1.143(10) 11_556
C20 C20 1.447(9) 13_655
C20 N2 1.489(9) .
C20 C20 1.844(9) 6_656
C20 C20A 1.916(5) 3_665
C20 H20 0.9300(10) .
N2 H2A 0.8800 .
N2 H2B 0.8800 .
N2A H2A2 0.8800(10) .
